# DDEC6 charges by PACMAN v1.1 (https://github.com/mtap-research/PACMAN-charge/)
data_MIFTIG_ASR_pacman
_symmetry_space_group_name_H-M   'P 1'
_cell_length_a   32.91230000
_cell_length_b   32.91230000
_cell_length_c   32.91230000
_cell_angle_alpha   91.63130000
_cell_angle_beta   91.63130000
_cell_angle_gamma   160.57300000
_symmetry_Int_Tables_number   1
_chemical_formula_structural   Eu2CoH24C48(NO2)8
_chemical_formula_sum   'Eu16 Co8 H192 C384 N64 O128'
_cell_volume   11687.79770032
_cell_formula_units_Z   8
loop_
 _symmetry_equiv_pos_site_id
 _symmetry_equiv_pos_as_xyz
  1  'x, y, z'
loop_
 _atom_site_type_symbol
 _atom_site_label
 _atom_site_symmetry_multiplicity
 _atom_site_fract_x
 _atom_site_fract_y
 _atom_site_fract_z
 _atom_site_occupancy
 _atom_site_charge
Eu  Eu1  1  0.08338000  0.36128000  0.92126000  1.0 2.0059473387
Eu  Eu2  1  0.41212000  0.83338000  0.22210000  1.0 2.0049321523
Eu  Eu3  1  0.44002000  0.16212000  0.07874000  1.0 2.0049321523
Eu  Eu4  1  0.61128000  0.19002000  0.77790000  1.0 2.0049321523
Eu  Eu5  1  0.16662000  0.38872000  0.57874000  1.0 2.0049321523
Eu  Eu6  1  0.83788000  0.91662000  0.27790000  1.0 2.0049321523
Eu  Eu7  1  0.80998000  0.58788000  0.42126000  1.0 2.0049321523
Eu  Eu8  1  0.63872000  0.55998000  0.72210000  1.0 2.0049321523
Eu  Eu9  1  0.58746000  0.86303000  0.92391000  1.0 2.0339210203
Eu  Eu10  1  0.91355000  0.33746000  0.22443000  1.0 2.0339210203
Eu  Eu11  1  0.93912000  0.66355000  0.07609000  1.0 2.0339210203
Eu  Eu12  1  0.11303000  0.68912000  0.77557000  1.0 2.0339210203
Eu  Eu13  1  0.66254000  0.88697000  0.57609000  1.0 2.0339210203
Eu  Eu14  1  0.33645000  0.41254000  0.27557000  1.0 2.0339210203
Eu  Eu15  1  0.31088000  0.08645000  0.42391000  1.0 2.0339210203
Eu  Eu16  1  0.13697000  0.06088000  0.72443000  1.0 2.0339210203
Co  Co1  1  0.67062000  0.04932000  0.71386000  1.0 0.5334804228
Co  Co2  1  0.20676000  0.42062000  0.12130000  1.0 0.5334804228
Co  Co3  1  0.33546000  0.95676000  0.28614000  1.0 0.5334804228
Co  Co4  1  0.29932000  0.08546000  0.87870000  1.0 0.5334804228
Co  Co5  1  0.57938000  0.70068000  0.78614000  1.0 0.5334804228
Co  Co6  1  0.04324000  0.32938000  0.37870000  1.0 0.5334804228
Co  Co7  1  0.91454000  0.79324000  0.21386000  1.0 0.5334804228
Co  Co8  1  0.95068000  0.66454000  0.62130000  1.0 0.5334804228
H  H1  1  0.65030000  0.05700000  0.88310000  1.0 0.1391009474
H  H2  1  0.01720000  0.40030000  0.09330000  1.0 0.1391009474
H  H3  1  0.17390000  0.76720000  0.11690000  1.0 0.1391009474
H  H4  1  0.30700000  0.92390000  0.90670000  1.0 0.1391009474
H  H5  1  0.59970000  0.69300000  0.61690000  1.0 0.1391009474
H  H6  1  0.23280000  0.34970000  0.40670000  1.0 0.1391009474
H  H7  1  0.07610000  0.98280000  0.38310000  1.0 0.1391009474
H  H8  1  0.94300000  0.82610000  0.59330000  1.0 0.1391009474
H  H9  1  0.66410000  0.12670000  0.84420000  1.0 0.1507703701
H  H10  1  0.06990000  0.41410000  0.03740000  1.0 0.1507703701
H  H11  1  0.28250000  0.81990000  0.15580000  1.0 0.1507703701
H  H12  1  0.37670000  0.03250000  0.96260000  1.0 0.1507703701
H  H13  1  0.58590000  0.62330000  0.65580000  1.0 0.1507703701
H  H14  1  0.18010000  0.33590000  0.46260000  1.0 0.1507703701
H  H15  1  0.96750000  0.93010000  0.34420000  1.0 0.1507703701
H  H16  1  0.87330000  0.71750000  0.53740000  1.0 0.1507703701
H  H17  1  0.70570000  0.15700000  0.77770000  1.0 0.1105716138
H  H18  1  0.17800000  0.45570000  0.04870000  1.0 0.1105716138
H  H19  1  0.37930000  0.92800000  0.22230000  1.0 0.1105716138
H  H20  1  0.40700000  0.12930000  0.95130000  1.0 0.1105716138
H  H21  1  0.54430000  0.59300000  0.72230000  1.0 0.1105716138
H  H22  1  0.07200000  0.29430000  0.45130000  1.0 0.1105716138
H  H23  1  0.87070000  0.82200000  0.27770000  1.0 0.1105716138
H  H24  1  0.84300000  0.62070000  0.54870000  1.0 0.1105716138
H  H25  1  0.67050000  0.95250000  0.69200000  1.0 0.1171527399
H  H26  1  0.22850000  0.42050000  0.21800000  1.0 0.1171527399
H  H27  1  0.26050000  0.97850000  0.30800000  1.0 0.1171527399
H  H28  1  0.20250000  0.01050000  0.78200000  1.0 0.1171527399
H  H29  1  0.57950000  0.79750000  0.80800000  1.0 0.1171527399
H  H30  1  0.02150000  0.32950000  0.28200000  1.0 0.1171527399
H  H31  1  0.98950000  0.77150000  0.19200000  1.0 0.1171527399
H  H32  1  0.04750000  0.73950000  0.71800000  1.0 0.1171527399
H  H33  1  0.78390000  0.00590000  0.72200000  1.0 0.1274204579
H  H34  1  0.31190000  0.53390000  0.27800000  1.0 0.1274204579
H  H35  1  0.28390000  0.06190000  0.27800000  1.0 0.1274204579
H  H36  1  0.25590000  0.03390000  0.72200000  1.0 0.1274204579
H  H37  1  0.46610000  0.74410000  0.77800000  1.0 0.1274204579
H  H38  1  0.93810000  0.21610000  0.22200000  1.0 0.1274204579
H  H39  1  0.96610000  0.68810000  0.22200000  1.0 0.1274204579
H  H40  1  0.99410000  0.71610000  0.77800000  1.0 0.1274204579
H  H41  1  0.88920000  0.11240000  0.78860000  1.0 0.1274204579
H  H42  1  0.35060000  0.63920000  0.27680000  1.0 0.1274204579
H  H43  1  0.32380000  0.10060000  0.21140000  1.0 0.1274204579
H  H44  1  0.36240000  0.07380000  0.72320000  1.0 0.1274204579
H  H45  1  0.36080000  0.63760000  0.71140000  1.0 0.1274204579
H  H46  1  0.89940000  0.11080000  0.22320000  1.0 0.1274204579
H  H47  1  0.92620000  0.64940000  0.28860000  1.0 0.1274204579
H  H48  1  0.88760000  0.67620000  0.77680000  1.0 0.1274204579
H  H49  1  0.15350000  0.38580000  0.81190000  1.0 0.1274204579
H  H50  1  0.59160000  0.90350000  0.26770000  1.0 0.1274204579
H  H51  1  0.57390000  0.34160000  0.18810000  1.0 0.1274204579
H  H52  1  0.63580000  0.32390000  0.73230000  1.0 0.1274204579
H  H53  1  0.09650000  0.36420000  0.68810000  1.0 0.1274204579
H  H54  1  0.65840000  0.84650000  0.23230000  1.0 0.1274204579
H  H55  1  0.67610000  0.40840000  0.31190000  1.0 0.1274204579
H  H56  1  0.61420000  0.42610000  0.76770000  1.0 0.1274204579
H  H57  1  0.12760000  0.31560000  0.75500000  1.0 0.1274204579
H  H58  1  0.62260000  0.87760000  0.31200000  1.0 0.1274204579
H  H59  1  0.56060000  0.37260000  0.24500000  1.0 0.1274204579
H  H60  1  0.56560000  0.31060000  0.68800000  1.0 0.1274204579
H  H61  1  0.12240000  0.43440000  0.74500000  1.0 0.1274204579
H  H62  1  0.62740000  0.87240000  0.18800000  1.0 0.1274204579
H  H63  1  0.68940000  0.37740000  0.25500000  1.0 0.1274204579
H  H64  1  0.68440000  0.43940000  0.81200000  1.0 0.1274204579
H  H65  1  0.29230000  0.42920000  0.74710000  1.0 0.1021995835
H  H66  1  0.79520000  0.04230000  0.36310000  1.0 0.1021995835
H  H67  1  0.68210000  0.54520000  0.25290000  1.0 0.1021995835
H  H68  1  0.67920000  0.43210000  0.63690000  1.0 0.1021995835
H  H69  1  0.95770000  0.32080000  0.75290000  1.0 0.1021995835
H  H70  1  0.45480000  0.70770000  0.13690000  1.0 0.1021995835
H  H71  1  0.56790000  0.20480000  0.24710000  1.0 0.1021995835
H  H72  1  0.57080000  0.31790000  0.86310000  1.0 0.1021995835
H  H73  1  0.79260000  0.90350000  0.86150000  1.0 0.1171527399
H  H74  1  0.18110000  0.54260000  0.38910000  1.0 0.1171527399
H  H75  1  0.04200000  0.93110000  0.13850000  1.0 0.1171527399
H  H76  1  0.15350000  0.79200000  0.61090000  1.0 0.1171527399
H  H77  1  0.45740000  0.84650000  0.63850000  1.0 0.1171527399
H  H78  1  0.06890000  0.20740000  0.11090000  1.0 0.1171527399
H  H79  1  0.20800000  0.81890000  0.36150000  1.0 0.1171527399
H  H80  1  0.09650000  0.95800000  0.88910000  1.0 0.1171527399
H  H81  1  0.80410000  0.90560000  0.93050000  1.0 0.1391009474
H  H82  1  0.12360000  0.55410000  0.39850000  1.0 0.1391009474
H  H83  1  0.97510000  0.87360000  0.06950000  1.0 0.1391009474
H  H84  1  0.15560000  0.72510000  0.60150000  1.0 0.1391009474
H  H85  1  0.44590000  0.84440000  0.56950000  1.0 0.1391009474
H  H86  1  0.12640000  0.19590000  0.10150000  1.0 0.1391009474
H  H87  1  0.27490000  0.87640000  0.43050000  1.0 0.1391009474
H  H88  1  0.09440000  0.02490000  0.89850000  1.0 0.1391009474
H  H89  1  0.62720000  0.74980000  0.96020000  1.0 0.1391009474
H  H90  1  0.91700000  0.37720000  0.37740000  1.0 0.1391009474
H  H91  1  0.78960000  0.66700000  0.03980000  1.0 0.1391009474
H  H92  1  0.99980000  0.53960000  0.62260000  1.0 0.1391009474
H  H93  1  0.62280000  0.00020000  0.53980000  1.0 0.1391009474
H  H94  1  0.33300000  0.37280000  0.12260000  1.0 0.1391009474
H  H95  1  0.46040000  0.08300000  0.46020000  1.0 0.1391009474
H  H96  1  0.25020000  0.21040000  0.87740000  1.0 0.1391009474
H  H97  1  0.74120000  0.03550000  0.03990000  1.0 0.1391009474
H  H98  1  0.95130000  0.49120000  0.20570000  1.0 0.1391009474
H  H99  1  0.99560000  0.70130000  0.96010000  1.0 0.1391009474
H  H100  1  0.28550000  0.74560000  0.79430000  1.0 0.1391009474
H  H101  1  0.50880000  0.71450000  0.46010000  1.0 0.1391009474
H  H102  1  0.29870000  0.25880000  0.29430000  1.0 0.1391009474
H  H103  1  0.25440000  0.04870000  0.53990000  1.0 0.1391009474
H  H104  1  0.96450000  0.00440000  0.70570000  1.0 0.1391009474
H  H105  1  0.76170000  0.05000000  0.11030000  1.0 0.1391009474
H  H106  1  0.90140000  0.51170000  0.21170000  1.0 0.1391009474
H  H107  1  0.93970000  0.65140000  0.88970000  1.0 0.1391009474
H  H108  1  0.30000000  0.68970000  0.78830000  1.0 0.1391009474
H  H109  1  0.48830000  0.70000000  0.38970000  1.0 0.1391009474
H  H110  1  0.34860000  0.23830000  0.28830000  1.0 0.1391009474
H  H111  1  0.31030000  0.09860000  0.61030000  1.0 0.1391009474
H  H112  1  0.95000000  0.06030000  0.71170000  1.0 0.1391009474
H  H113  1  0.93950000  0.18940000  0.14550000  1.0 0.1021995835
H  H114  1  0.04400000  0.68950000  0.25010000  1.0 0.1021995835
H  H115  1  0.04390000  0.79400000  0.85450000  1.0 0.1021995835
H  H116  1  0.43940000  0.79390000  0.74990000  1.0 0.1021995835
H  H117  1  0.31050000  0.56060000  0.35450000  1.0 0.1021995835
H  H118  1  0.20600000  0.06050000  0.24990000  1.0 0.1021995835
H  H119  1  0.20610000  0.95600000  0.64550000  1.0 0.1021995835
H  H120  1  0.81060000  0.95610000  0.75010000  1.0 0.1021995835
H  H121  1  0.36970000  0.53300000  0.06250000  1.0 0.1171527399
H  H122  1  0.55720000  0.11970000  0.33670000  1.0 0.1171527399
H  H123  1  0.47050000  0.30720000  0.93750000  1.0 0.1171527399
H  H124  1  0.78300000  0.22050000  0.66330000  1.0 0.1171527399
H  H125  1  0.88030000  0.21700000  0.43750000  1.0 0.1171527399
H  H126  1  0.69280000  0.63030000  0.16330000  1.0 0.1171527399
H  H127  1  0.77950000  0.44280000  0.56250000  1.0 0.1171527399
H  H128  1  0.46700000  0.52950000  0.83670000  1.0 0.1171527399
H  H129  1  0.33580000  0.45680000  0.00680000  1.0 0.1391009474
H  H130  1  0.57900000  0.08580000  0.37900000  1.0 0.1391009474
H  H131  1  0.45000000  0.32900000  0.99320000  1.0 0.1391009474
H  H132  1  0.70680000  0.20000000  0.62100000  1.0 0.1391009474
H  H133  1  0.91420000  0.29320000  0.49320000  1.0 0.1391009474
H  H134  1  0.67100000  0.66420000  0.12100000  1.0 0.1391009474
H  H135  1  0.80000000  0.42100000  0.50680000  1.0 0.1391009474
H  H136  1  0.54320000  0.55000000  0.87900000  1.0 0.1391009474
H  H137  1  0.13570000  0.26080000  0.97050000  1.0 0.1391009474
H  H138  1  0.41520000  0.88570000  0.37490000  1.0 0.1391009474
H  H139  1  0.29030000  0.16520000  0.02950000  1.0 0.1391009474
H  H140  1  0.51080000  0.04030000  0.62510000  1.0 0.1391009474
H  H141  1  0.11430000  0.48920000  0.52950000  1.0 0.1391009474
H  H142  1  0.83480000  0.86430000  0.12510000  1.0 0.1391009474
H  H143  1  0.95970000  0.58480000  0.47050000  1.0 0.1391009474
H  H144  1  0.73920000  0.70970000  0.87490000  1.0 0.1391009474
H  H145  1  0.50220000  0.79450000  0.06290000  1.0 0.1171527399
H  H146  1  0.68930000  0.25220000  0.20770000  1.0 0.1171527399
H  H147  1  0.73160000  0.43930000  0.93710000  1.0 0.1171527399
H  H148  1  0.04450000  0.48160000  0.79230000  1.0 0.1171527399
H  H149  1  0.74780000  0.95550000  0.43710000  1.0 0.1171527399
H  H150  1  0.56070000  0.49780000  0.29230000  1.0 0.1171527399
H  H151  1  0.51840000  0.31070000  0.56290000  1.0 0.1171527399
H  H152  1  0.20550000  0.26840000  0.70770000  1.0 0.1171527399
H  H153  1  0.44930000  0.77120000  0.12290000  1.0 0.1171527399
H  H154  1  0.57640000  0.19930000  0.17810000  1.0 0.1171527399
H  H155  1  0.64830000  0.32640000  0.87710000  1.0 0.1171527399
H  H156  1  0.02120000  0.39830000  0.82190000  1.0 0.1171527399
H  H157  1  0.80070000  0.97880000  0.37710000  1.0 0.1171527399
H  H158  1  0.67360000  0.55070000  0.32190000  1.0 0.1171527399
H  H159  1  0.60170000  0.42360000  0.62290000  1.0 0.1171527399
H  H160  1  0.22880000  0.35170000  0.67810000  1.0 0.1171527399
H  H161  1  0.31800000  0.69700000  0.11560000  1.0 0.1171527399
H  H162  1  0.45240000  0.06800000  0.12100000  1.0 0.1171527399
H  H163  1  0.58140000  0.20240000  0.88440000  1.0 0.1171527399
H  H164  1  0.94700000  0.33140000  0.87900000  1.0 0.1171527399
H  H165  1  0.93200000  0.05300000  0.38440000  1.0 0.1171527399
H  H166  1  0.79760000  0.68200000  0.37900000  1.0 0.1171527399
H  H167  1  0.66860000  0.54760000  0.61560000  1.0 0.1171527399
H  H168  1  0.30300000  0.41860000  0.62100000  1.0 0.1171527399
H  H169  1  0.36350000  0.85270000  0.95380000  1.0 0.1021995835
H  H170  1  0.65970000  0.11350000  0.01080000  1.0 0.1021995835
H  H171  1  0.89890000  0.40970000  0.04620000  1.0 0.1021995835
H  H172  1  0.10270000  0.64890000  0.98920000  1.0 0.1021995835
H  H173  1  0.88650000  0.89730000  0.54620000  1.0 0.1021995835
H  H174  1  0.59030000  0.63650000  0.48920000  1.0 0.1021995835
H  H175  1  0.35110000  0.34030000  0.45380000  1.0 0.1021995835
H  H176  1  0.14730000  0.10110000  0.51080000  1.0 0.1021995835
H  H177  1  0.32090000  0.78330000  0.88820000  1.0 0.1274204579
H  H178  1  0.68270000  0.07090000  0.03760000  1.0 0.1274204579
H  H179  1  0.89510000  0.43270000  0.11180000  1.0 0.1274204579
H  H180  1  0.03330000  0.64510000  0.96240000  1.0 0.1274204579
H  H181  1  0.92910000  0.96670000  0.61180000  1.0 0.1274204579
H  H182  1  0.56730000  0.67910000  0.46240000  1.0 0.1274204579
H  H183  1  0.35490000  0.31730000  0.38820000  1.0 0.1274204579
H  H184  1  0.21670000  0.10490000  0.53760000  1.0 0.1274204579
H  H185  1  0.22550000  0.62860000  0.88570000  1.0 0.1105716138
H  H186  1  0.58980000  0.97550000  0.09690000  1.0 0.1105716138
H  H187  1  0.74290000  0.33980000  0.11430000  1.0 0.1105716138
H  H188  1  0.87860000  0.49290000  0.90310000  1.0 0.1105716138
H  H189  1  0.02450000  0.12140000  0.61430000  1.0 0.1105716138
H  H190  1  0.66020000  0.77450000  0.40310000  1.0 0.1105716138
H  H191  1  0.50710000  0.41020000  0.38570000  1.0 0.1105716138
H  H192  1  0.37140000  0.25710000  0.59690000  1.0 0.1105716138
C  C1  1  0.65700000  0.98510000  0.86350000  1.0 0.5809973946
C  C2  1  0.04350000  0.40700000  0.17190000  1.0 0.5809973946
C  C3  1  0.12160000  0.79350000  0.13650000  1.0 0.5809973946
C  C4  1  0.23510000  0.87160000  0.82810000  1.0 0.5809973946
C  C5  1  0.59300000  0.76490000  0.63650000  1.0 0.5809973946
C  C6  1  0.20650000  0.34300000  0.32810000  1.0 0.5809973946
C  C7  1  0.12840000  0.95650000  0.36350000  1.0 0.5809973946
C  C8  1  0.01490000  0.87840000  0.67190000  1.0 0.5809973946
C  C9  1  0.68683000  0.04929000  0.84012000  1.0 -0.0789596582
C  C10  1  0.09671000  0.43683000  0.13754000  1.0 -0.0789596582
C  C11  1  0.20917000  0.84671000  0.15988000  1.0 -0.0789596582
C  C12  1  0.29929000  0.95917000  0.86246000  1.0 -0.0789596582
C  C13  1  0.56317000  0.70071000  0.65988000  1.0 -0.0789596582
C  C14  1  0.15329000  0.31317000  0.36246000  1.0 -0.0789596582
C  C15  1  0.04083000  0.90329000  0.34012000  1.0 -0.0789596582
C  C16  1  0.95071000  0.79083000  0.63754000  1.0 -0.0789596582
C  C17  1  0.66820000  0.07090000  0.85650000  1.0 -0.0565122251
C  C18  1  0.06170000  0.41820000  0.09730000  1.0 -0.0565122251
C  C19  1  0.21440000  0.81170000  0.14350000  1.0 -0.0565122251
C  C20  1  0.32090000  0.96440000  0.90270000  1.0 -0.0565122251
C  C21  1  0.58180000  0.67910000  0.64350000  1.0 -0.0565122251
C  C22  1  0.18830000  0.33180000  0.40270000  1.0 -0.0565122251
C  C23  1  0.03560000  0.93830000  0.35650000  1.0 -0.0565122251
C  C24  1  0.92910000  0.78560000  0.59730000  1.0 -0.0565122251
C  C25  1  0.67610000  0.11210000  0.83360000  1.0 -0.1080638485
C  C26  1  0.09250000  0.42610000  0.06400000  1.0 -0.1080638485
C  C27  1  0.27850000  0.84250000  0.16640000  1.0 -0.1080638485
C  C28  1  0.36210000  0.02850000  0.93600000  1.0 -0.1080638485
C  C29  1  0.57390000  0.63790000  0.66640000  1.0 -0.1080638485
C  C30  1  0.15750000  0.32390000  0.43600000  1.0 -0.1080638485
C  C31  1  0.97150000  0.90750000  0.33360000  1.0 -0.1080638485
C  C32  1  0.88790000  0.72150000  0.56400000  1.0 -0.1080638485
C  C33  1  0.70279000  0.13163000  0.79382000  1.0 0.1021995835
C  C34  1  0.15897000  0.45279000  0.07116000  1.0 0.1021995835
C  C35  1  0.33781000  0.90897000  0.20618000  1.0 0.1021995835
C  C36  1  0.38163000  0.08781000  0.92884000  1.0 0.1021995835
C  C37  1  0.54721000  0.61837000  0.70618000  1.0 0.1021995835
C  C38  1  0.09103000  0.29721000  0.42884000  1.0 0.1021995835
C  C39  1  0.91219000  0.84103000  0.29382000  1.0 0.1021995835
C  C40  1  0.86837000  0.66219000  0.57116000  1.0 0.1021995835
C  C41  1  0.72117000  0.07934000  0.80131000  1.0 0.1391009474
C  C42  1  0.16986000  0.47117000  0.14183000  1.0 0.1391009474
C  C43  1  0.27803000  0.91986000  0.19869000  1.0 0.1391009474
C  C44  1  0.32934000  0.02803000  0.85817000  1.0 0.1391009474
C  C45  1  0.52883000  0.67066000  0.69869000  1.0 0.1391009474
C  C46  1  0.08014000  0.27883000  0.35817000  1.0 0.1391009474
C  C47  1  0.97197000  0.83014000  0.30131000  1.0 0.1391009474
C  C48  1  0.92066000  0.72197000  0.64183000  1.0 0.1391009474
C  C49  1  0.74969000  0.06752000  0.78101000  1.0 0.1391009474
C  C50  1  0.21868000  0.49969000  0.18217000  1.0 0.1391009474
C  C51  1  0.28651000  0.96868000  0.21899000  1.0 0.1391009474
C  C52  1  0.31752000  0.03651000  0.81783000  1.0 0.1391009474
C  C53  1  0.50031000  0.68248000  0.71899000  1.0 0.1391009474
C  C54  1  0.03132000  0.25031000  0.31783000  1.0 0.1391009474
C  C55  1  0.96349000  0.78132000  0.28101000  1.0 0.1391009474
C  C56  1  0.93248000  0.71349000  0.68217000  1.0 0.1391009474
C  C57  1  0.70904000  0.99136000  0.71940000  1.0 0.0785220249
C  C58  1  0.23964000  0.45904000  0.21768000  1.0 0.0785220249
C  C59  1  0.27196000  0.98964000  0.28060000  1.0 0.0785220249
C  C60  1  0.24136000  0.02196000  0.78232000  1.0 0.0785220249
C  C61  1  0.54096000  0.75864000  0.78060000  1.0 0.0785220249
C  C62  1  0.01036000  0.29096000  0.28232000  1.0 0.0785220249
C  C63  1  0.97804000  0.76036000  0.21940000  1.0 0.0785220249
C  C64  1  0.00864000  0.72804000  0.71768000  1.0 0.0785220249
C  C65  1  0.77870000  0.02507000  0.73697000  1.0 -0.12954328
C  C66  1  0.29173000  0.52870000  0.25363000  1.0 -0.12954328
C  C67  1  0.28810000  0.04173000  0.26303000  1.0 -0.12954328
C  C68  1  0.27507000  0.03810000  0.74637000  1.0 -0.12954328
C  C69  1  0.47130000  0.72493000  0.76303000  1.0 -0.12954328
C  C70  1  0.95827000  0.22130000  0.24637000  1.0 -0.12954328
C  C71  1  0.96190000  0.70827000  0.23697000  1.0 -0.12954328
C  C72  1  0.97493000  0.71190000  0.75363000  1.0 -0.12954328
C  C73  1  0.84029000  0.08734000  0.77683000  1.0 -0.0789596582
C  C74  1  0.31346000  0.59029000  0.25295000  1.0 -0.0789596582
C  C75  1  0.31051000  0.06346000  0.22317000  1.0 -0.0789596582
C  C76  1  0.33734000  0.06051000  0.74705000  1.0 -0.0789596582
C  C77  1  0.40971000  0.66266000  0.72317000  1.0 -0.0789596582
C  C78  1  0.93654000  0.15971000  0.24705000  1.0 -0.0789596582
C  C79  1  0.93949000  0.68654000  0.27683000  1.0 -0.0789596582
C  C80  1  0.91266000  0.68949000  0.75295000  1.0 -0.0789596582
C  C81  1  0.82922000  0.11298000  0.79980000  1.0 -0.0507874502
C  C82  1  0.27942000  0.57922000  0.21624000  1.0 -0.0507874502
C  C83  1  0.31318000  0.02942000  0.20020000  1.0 -0.0507874502
C  C84  1  0.36298000  0.06318000  0.78376000  1.0 -0.0507874502
C  C85  1  0.42078000  0.63702000  0.70020000  1.0 -0.0507874502
C  C86  1  0.97058000  0.17078000  0.28376000  1.0 -0.0507874502
C  C87  1  0.93682000  0.72058000  0.29980000  1.0 -0.0507874502
C  C88  1  0.88702000  0.68682000  0.71624000  1.0 -0.0507874502
C  C89  1  0.91155000  0.19680000  0.84115000  1.0 0.5664754332
C  C90  1  0.32040000  0.66155000  0.21475000  1.0 0.5664754332
C  C91  1  0.35565000  0.07040000  0.15885000  1.0 0.5664754332
C  C92  1  0.44680000  0.10565000  0.78525000  1.0 0.5664754332
C  C93  1  0.33845000  0.55320000  0.65885000  1.0 0.5664754332
C  C94  1  0.92960000  0.08845000  0.28525000  1.0 0.5664754332
C  C95  1  0.89435000  0.67960000  0.34115000  1.0 0.5664754332
C  C96  1  0.80320000  0.64435000  0.71475000  1.0 0.5664754332
C  C97  1  0.33596000  0.56854000  0.87350000  1.0 0.6708678885
C  C98  1  0.71246000  0.08596000  0.26742000  1.0 0.6708678885
C  C99  1  0.69504000  0.46246000  0.12650000  1.0 0.6708678885
C  C100  1  0.81854000  0.44504000  0.73258000  1.0 0.6708678885
C  C101  1  0.91404000  0.18146000  0.62650000  1.0 0.6708678885
C  C102  1  0.53754000  0.66404000  0.23258000  1.0 0.6708678885
C  C103  1  0.55496000  0.28754000  0.37350000  1.0 0.6708678885
C  C104  1  0.43146000  0.30496000  0.76742000  1.0 0.6708678885
C  C105  1  0.31802000  0.51934000  0.83956000  1.0 -0.0898244589
C  C106  1  0.72846000  0.06802000  0.29868000  1.0 -0.0898244589
C  C107  1  0.67978000  0.47846000  0.16044000  1.0 -0.0898244589
C  C108  1  0.76934000  0.42978000  0.70132000  1.0 -0.0898244589
C  C109  1  0.93198000  0.23066000  0.66044000  1.0 -0.0954674536
C  C110  1  0.52154000  0.68198000  0.20132000  1.0 -0.0898244589
C  C111  1  0.57022000  0.27154000  0.33956000  1.0 -0.0898244589
C  C112  1  0.48066000  0.32022000  0.79868000  1.0 -0.0898244589
C  C113  1  0.21390000  0.42350000  0.80920000  1.0 -0.0507874502
C  C114  1  0.65470000  0.96390000  0.29040000  1.0 -0.0507874502
C  C115  1  0.61430000  0.40470000  0.19080000  1.0 -0.0507874502
C  C116  1  0.67350000  0.36430000  0.70960000  1.0 -0.0507874502
C  C117  1  0.03610000  0.32650000  0.69080000  1.0 -0.0507874502
C  C118  1  0.59530000  0.78610000  0.20960000  1.0 -0.0507874502
C  C119  1  0.63570000  0.34530000  0.30920000  1.0 -0.0507874502
C  C120  1  0.57650000  0.38570000  0.79040000  1.0 -0.0507874502
C  C121  1  0.19930000  0.38340000  0.77470000  1.0 -0.1501789668
C  C122  1  0.67460000  0.94930000  0.31590000  1.0 -0.1501789668
C  C123  1  0.60870000  0.42460000  0.22530000  1.0 -0.1501789668
C  C124  1  0.63340000  0.35870000  0.68410000  1.0 -0.1501789668
C  C125  1  0.05070000  0.36660000  0.72530000  1.0 -0.1501789668
C  C126  1  0.57540000  0.80070000  0.18410000  1.0 -0.1501789668
C  C127  1  0.64130000  0.32540000  0.27470000  1.0 -0.1501789668
C  C128  1  0.61660000  0.39130000  0.81590000  1.0 -0.1501789668
C  C129  1  0.29670000  0.44930000  0.77100000  1.0 0.0785220249
C  C130  1  0.77570000  0.04670000  0.34740000  1.0 0.0785220249
C  C131  1  0.67830000  0.52570000  0.22900000  1.0 0.0785220249
C  C132  1  0.69930000  0.42830000  0.65260000  1.0 0.0785220249
C  C133  1  0.95330000  0.30070000  0.72900000  1.0 0.0785220249
C  C134  1  0.47430000  0.70330000  0.15260000  1.0 0.0785220249
C  C135  1  0.57170000  0.22430000  0.27100000  1.0 0.0785220249
C  C136  1  0.55070000  0.32170000  0.84740000  1.0 0.0785220249
C  C137  1  0.40533000  0.57178000  0.83511000  1.0 0.1607960241
C  C138  1  0.82022000  0.15533000  0.33355000  1.0 0.1607960241
C  C139  1  0.73667000  0.57022000  0.16489000  1.0 0.1607960241
C  C140  1  0.82178000  0.48667000  0.66645000  1.0 0.1607960241
C  C141  1  0.84467000  0.17822000  0.66489000  1.0 0.1607960241
C  C142  1  0.42978000  0.59467000  0.16645000  1.0 0.1607960241
C  C143  1  0.51333000  0.17978000  0.33511000  1.0 0.1607960241
C  C144  1  0.42822000  0.26333000  0.83355000  1.0 0.1607960241
C  C145  1  0.51642000  0.66615000  0.86617000  1.0 0.1391009474
C  C146  1  0.90025000  0.26642000  0.35027000  1.0 0.1391009474
C  C147  1  0.79998000  0.65025000  0.13383000  1.0 0.1391009474
C  C148  1  0.91615000  0.54998000  0.64973000  1.0 0.1391009474
C  C149  1  0.73358000  0.08385000  0.63383000  1.0 0.1391009474
C  C150  1  0.34975000  0.48358000  0.14973000  1.0 0.1391009474
C  C151  1  0.45002000  0.09975000  0.36617000  1.0 0.1391009474
C  C152  1  0.33385000  0.20002000  0.85027000  1.0 0.1391009474
C  C153  1  0.72213000  0.84138000  0.87331000  1.0 0.0703246801
C  C154  1  0.09882000  0.47213000  0.38075000  1.0 0.0703246801
C  C155  1  0.96807000  0.84882000  0.12669000  1.0 0.0703246801
C  C156  1  0.09138000  0.71807000  0.61925000  1.0 0.0703246801
C  C157  1  0.52787000  0.90862000  0.62669000  1.0 0.0703246801
C  C158  1  0.15118000  0.27787000  0.11925000  1.0 0.0703246801
C  C159  1  0.28193000  0.90118000  0.37331000  1.0 0.0703246801
C  C160  1  0.15862000  0.03193000  0.88075000  1.0 0.0703246801
C  C161  1  0.73014000  0.84375000  0.91449000  1.0 -0.1080638485
C  C162  1  0.06565000  0.48014000  0.38639000  1.0 -0.1080638485
C  C163  1  0.92926000  0.81565000  0.08551000  1.0 -0.1080638485
C  C164  1  0.09375000  0.67926000  0.61361000  1.0 -0.1080638485
C  C165  1  0.51986000  0.90625000  0.58551000  1.0 -0.1080638485
C  C166  1  0.18435000  0.26986000  0.11361000  1.0 -0.1080638485
C  C167  1  0.32074000  0.93435000  0.41449000  1.0 -0.1080638485
C  C168  1  0.15625000  0.07074000  0.88639000  1.0 -0.1080638485
C  C169  1  0.62485000  0.75133000  0.93218000  1.0 -0.0402380996
C  C170  1  0.94267000  0.37485000  0.37352000  1.0 -0.0402380996
C  C171  1  0.81915000  0.69267000  0.06782000  1.0 -0.0402380996
C  C172  1  0.00133000  0.56915000  0.62648000  1.0 -0.0402380996
C  C173  1  0.62515000  0.99867000  0.56782000  1.0 -0.0402380996
C  C174  1  0.30733000  0.37515000  0.12648000  1.0 -0.0402380996
C  C175  1  0.43085000  0.05733000  0.43218000  1.0 -0.0402380996
C  C176  1  0.24867000  0.18085000  0.87352000  1.0 -0.0402380996
C  C177  1  0.51622000  0.66137000  0.90779000  1.0 -0.070647887
C  C178  1  0.85843000  0.26622000  0.35485000  1.0 -0.070647887
C  C179  1  0.75358000  0.60843000  0.09221000  1.0 -0.070647887
C  C180  1  0.91137000  0.50358000  0.64515000  1.0 -0.070647887
C  C181  1  0.73378000  0.08863000  0.59221000  1.0 -0.070647887
C  C182  1  0.39157000  0.48378000  0.14515000  1.0 -0.070647887
C  C183  1  0.49642000  0.14157000  0.40779000  1.0 -0.070647887
C  C184  1  0.33863000  0.24642000  0.85485000  1.0 -0.070647887
C  C185  1  0.40318000  0.56252000  0.92790000  1.0 0.5595821461
C  C186  1  0.72528000  0.15318000  0.34066000  1.0 0.5595821461
C  C187  1  0.63462000  0.47528000  0.07210000  1.0 0.5595821461
C  C188  1  0.81252000  0.38462000  0.65934000  1.0 0.5595821461
C  C189  1  0.84682000  0.18748000  0.57210000  1.0 0.5595821461
C  C190  1  0.52472000  0.59682000  0.15934000  1.0 0.5595821461
C  C191  1  0.61538000  0.27472000  0.42790000  1.0 0.5595821461
C  C192  1  0.43748000  0.36538000  0.84066000  1.0 0.5595821461
C  C193  1  0.88521000  0.14633000  0.98714000  1.0 0.6708678885
C  C194  1  0.14807000  0.63521000  0.23888000  1.0 0.6708678885
C  C195  1  0.15919000  0.89807000  0.01286000  1.0 0.6708678885
C  C196  1  0.39633000  0.90919000  0.76112000  1.0 0.6708678885
C  C197  1  0.36479000  0.60367000  0.51286000  1.0 0.6708678885
C  C198  1  0.10193000  0.11479000  0.26112000  1.0 0.6708678885
C  C199  1  0.09081000  0.85193000  0.48714000  1.0 0.6708678885
C  C200  1  0.85367000  0.84081000  0.73888000  1.0 0.6708678885
C  C201  1  0.89312000  0.14633000  0.03285000  1.0 -0.0898244589
C  C202  1  0.11027000  0.64312000  0.24679000  1.0 -0.0898244589
C  C203  1  0.11348000  0.86027000  0.96715000  1.0 -0.0898244589
C  C204  1  0.39633000  0.86348000  0.75321000  1.0 -0.0898244589
C  C205  1  0.35688000  0.60367000  0.46715000  1.0 -0.0898244589
C  C206  1  0.13973000  0.10688000  0.25321000  1.0 -0.0898244589
C  C207  1  0.13652000  0.88973000  0.53285000  1.0 -0.0898244589
C  C208  1  0.85367000  0.88652000  0.74679000  1.0 -0.0898244589
C  C209  1  0.80810000  0.08474000  0.05424000  1.0 -0.0507874502
C  C210  1  0.00386000  0.55810000  0.22336000  1.0 -0.0507874502
C  C211  1  0.03050000  0.75386000  0.94576000  1.0 -0.0507874502
C  C212  1  0.33474000  0.78050000  0.77664000  1.0 -0.0507874502
C  C213  1  0.44190000  0.66526000  0.44576000  1.0 -0.0507874502
C  C214  1  0.24614000  0.19190000  0.27664000  1.0 -0.0507874502
C  C215  1  0.21950000  0.99614000  0.55424000  1.0 -0.0507874502
C  C216  1  0.91526000  0.96950000  0.72336000  1.0 -0.0507874502
C  C217  1  0.82150000  0.09560000  0.09610000  1.0 -0.1394926251
C  C218  1  0.97540000  0.57150000  0.22590000  1.0 -0.1394926251
C  C219  1  0.99950000  0.72540000  0.90390000  1.0 -0.1394926251
C  C220  1  0.34560000  0.74950000  0.77410000  1.0 -0.1394926251
C  C221  1  0.42850000  0.65440000  0.40390000  1.0 -0.1394926251
C  C222  1  0.27460000  0.17850000  0.27410000  1.0 -0.1394926251
C  C223  1  0.25050000  0.02460000  0.59610000  1.0 -0.1394926251
C  C224  1  0.90440000  0.00050000  0.72590000  1.0 -0.1394926251
C  C225  1  0.92600000  0.17590000  0.11690000  1.0 0.0612646511
C  C226  1  0.05910000  0.67600000  0.25010000  1.0 0.0612646511
C  C227  1  0.05900000  0.80910000  0.88310000  1.0 0.0612646511
C  C228  1  0.42590000  0.80900000  0.74990000  1.0 0.0612646511
C  C229  1  0.32400000  0.57410000  0.38310000  1.0 0.0612646511
C  C230  1  0.19090000  0.07400000  0.24990000  1.0 0.0612646511
C  C231  1  0.19100000  0.94090000  0.61690000  1.0 0.0612646511
C  C232  1  0.82410000  0.94100000  0.75010000  1.0 0.0612646511
C  C233  1  0.99022000  0.21637000  0.05559000  1.0 0.1507703701
C  C234  1  0.18463000  0.74022000  0.27385000  1.0 0.1507703701
C  C235  1  0.16078000  0.93463000  0.94441000  1.0 0.1507703701
C  C236  1  0.46637000  0.91078000  0.72615000  1.0 0.1507703701
C  C237  1  0.25978000  0.53363000  0.44441000  1.0 0.1507703701
C  C238  1  0.06537000  0.00978000  0.22615000  1.0 0.1507703701
C  C239  1  0.08922000  0.81537000  0.55559000  1.0 0.1507703701
C  C240  1  0.78363000  0.83922000  0.77385000  1.0 0.1507703701
C  C241  1  0.08268000  0.27833000  0.03821000  1.0 0.1391009474
C  C242  1  0.29447000  0.83268000  0.30435000  1.0 0.1391009474
C  C243  1  0.24012000  0.04447000  0.96179000  1.0 0.1391009474
C  C244  1  0.52833000  0.99012000  0.69565000  1.0 0.1391009474
C  C245  1  0.16732000  0.47167000  0.46179000  1.0 0.1391009474
C  C246  1  0.95553000  0.91732000  0.19565000  1.0 0.1391009474
C  C247  1  0.00988000  0.70553000  0.53821000  1.0 0.1391009474
C  C248  1  0.72167000  0.75988000  0.80435000  1.0 0.1391009474
C  C249  1  0.29002000  0.45506000  0.04768000  1.0 0.0612646511
C  C250  1  0.49234000  0.04002000  0.33496000  1.0 0.0612646511
C  C251  1  0.40738000  0.24234000  0.95232000  1.0 0.0612646511
C  C252  1  0.70506000  0.15738000  0.66504000  1.0 0.0612646511
C  C253  1  0.95998000  0.29494000  0.45232000  1.0 0.0612646511
C  C254  1  0.75766000  0.70998000  0.16504000  1.0 0.0612646511
C  C255  1  0.84262000  0.50766000  0.54768000  1.0 0.0612646511
C  C256  1  0.54494000  0.59262000  0.83496000  1.0 0.0612646511
C  C257  1  0.27079000  0.41041000  0.01460000  1.0 -0.1080638485
C  C258  1  0.50619000  0.02079000  0.36038000  1.0 -0.1080638485
C  C259  1  0.39581000  0.25619000  0.98540000  1.0 -0.1080638485
C  C260  1  0.66041000  0.14581000  0.63962000  1.0 -0.1080638485
C  C261  1  0.97921000  0.33959000  0.48540000  1.0 -0.1080638485
C  C262  1  0.74381000  0.72921000  0.13962000  1.0 -0.1080638485
C  C263  1  0.85419000  0.49381000  0.51460000  1.0 -0.1080638485
C  C264  1  0.58959000  0.60419000  0.86038000  1.0 -0.1080638485
C  C265  1  0.15146000  0.29379000  0.99285000  1.0 -0.0402380996
C  C266  1  0.40861000  0.90146000  0.35767000  1.0 -0.0402380996
C  C267  1  0.30094000  0.15861000  0.00715000  1.0 -0.0402380996
C  C268  1  0.54379000  0.05094000  0.64233000  1.0 -0.0402380996
C  C269  1  0.09854000  0.45621000  0.50715000  1.0 -0.0402380996
C  C270  1  0.84139000  0.84854000  0.14233000  1.0 -0.0402380996
C  C271  1  0.94906000  0.59139000  0.49285000  1.0 -0.0402380996
C  C272  1  0.70621000  0.69906000  0.85767000  1.0 -0.0402380996
C  C273  1  0.05613000  0.22646000  0.00419000  1.0 -0.070647887
C  C274  1  0.30194000  0.80613000  0.32967000  1.0 -0.070647887
C  C275  1  0.22227000  0.05194000  0.99581000  1.0 -0.070647887
C  C276  1  0.47646000  0.97227000  0.67033000  1.0 -0.070647887
C  C277  1  0.19387000  0.52354000  0.49581000  1.0 -0.070647887
C  C278  1  0.94806000  0.94387000  0.17033000  1.0 -0.070647887
C  C279  1  0.02773000  0.69806000  0.50419000  1.0 -0.070647887
C  C280  1  0.77354000  0.77773000  0.82967000  1.0 -0.070647887
C  C281  1  0.92491000  0.09683000  0.98014000  1.0 0.553363072
C  C282  1  0.19477000  0.67491000  0.32808000  1.0 0.553363072
C  C283  1  0.11669000  0.94477000  0.01986000  1.0 0.553363072
C  C284  1  0.34683000  0.86669000  0.67192000  1.0 0.553363072
C  C285  1  0.32509000  0.65317000  0.51986000  1.0 0.553363072
C  C286  1  0.05523000  0.07509000  0.17192000  1.0 0.553363072
C  C287  1  0.13331000  0.80523000  0.48014000  1.0 0.553363072
C  C288  1  0.90317000  0.88331000  0.82808000  1.0 0.553363072
C  C289  1  0.48060000  0.80060000  0.98940000  1.0 0.5664754332
C  C290  1  0.74120000  0.23060000  0.18000000  1.0 0.5664754332
C  C291  1  0.81120000  0.49120000  0.01060000  1.0 0.5664754332
C  C292  1  0.05060000  0.56120000  0.82000000  1.0 0.5664754332
C  C293  1  0.76940000  0.94940000  0.51060000  1.0 0.5664754332
C  C294  1  0.50880000  0.51940000  0.32000000  1.0 0.5664754332
C  C295  1  0.43880000  0.25880000  0.48940000  1.0 0.5664754332
C  C296  1  0.19940000  0.18880000  0.68000000  1.0 0.5664754332
C  C297  1  0.42340000  0.76340000  0.02440000  1.0 -0.070647887
C  C298  1  0.64900000  0.17340000  0.16000000  1.0 -0.070647887
C  C299  1  0.73900000  0.39900000  0.97560000  1.0 -0.070647887
C  C300  1  0.01340000  0.48900000  0.84000000  1.0 -0.070647887
C  C301  1  0.82660000  0.98660000  0.47560000  1.0 -0.070647887
C  C302  1  0.60100000  0.57660000  0.34000000  1.0 -0.070647887
C  C303  1  0.51100000  0.35100000  0.52440000  1.0 -0.070647887
C  C304  1  0.23660000  0.26100000  0.66000000  1.0 -0.070647887
C  C305  1  0.45560000  0.77420000  0.06220000  1.0 -0.1204944716
C  C306  1  0.64340000  0.20560000  0.18140000  1.0 -0.1204944716
C  C307  1  0.71200000  0.39340000  0.93780000  1.0 -0.1204944716
C  C308  1  0.02420000  0.46200000  0.81860000  1.0 -0.1204944716
C  C309  1  0.79440000  0.97580000  0.43780000  1.0 -0.1204944716
C  C310  1  0.60660000  0.54440000  0.31860000  1.0 -0.1204944716
C  C311  1  0.53800000  0.35660000  0.56220000  1.0 -0.1204944716
C  C312  1  0.22580000  0.28800000  0.68140000  1.0 -0.1204944716
C  C313  1  0.42200000  0.75670000  0.09730000  1.0 -0.1394926251
C  C314  1  0.57470000  0.17200000  0.16530000  1.0 -0.1394926251
C  C315  1  0.65940000  0.32470000  0.90270000  1.0 -0.1394926251
C  C316  1  0.00670000  0.40940000  0.83470000  1.0 -0.1394926251
C  C317  1  0.82800000  0.99330000  0.40270000  1.0 -0.1394926251
C  C318  1  0.67530000  0.57800000  0.33470000  1.0 -0.1394926251
C  C319  1  0.59060000  0.42530000  0.59730000  1.0 -0.1394926251
C  C320  1  0.24330000  0.34060000  0.66530000  1.0 -0.1394926251
C  C321  1  0.34910000  0.71820000  0.09210000  1.0 0.0148194381
C  C322  1  0.50700000  0.09910000  0.13090000  1.0 0.0148194381
C  C323  1  0.62610000  0.25700000  0.90790000  1.0 0.0148194381
C  C324  1  0.96820000  0.37610000  0.86910000  1.0 0.0148194381
C  C325  1  0.90090000  0.03180000  0.40790000  1.0 0.0148194381
C  C326  1  0.74300000  0.65090000  0.36910000  1.0 0.0148194381
C  C327  1  0.62390000  0.49300000  0.59210000  1.0 0.0148194381
C  C328  1  0.28180000  0.37390000  0.63090000  1.0 0.0148194381
C  C329  1  0.35030000  0.72800000  0.02170000  1.0 0.1274204579
C  C330  1  0.57860000  0.10030000  0.12230000  1.0 0.1274204579
C  C331  1  0.70630000  0.32860000  0.97830000  1.0 0.1274204579
C  C332  1  0.97800000  0.45630000  0.87770000  1.0 0.1274204579
C  C333  1  0.89970000  0.02200000  0.47830000  1.0 0.1274204579
C  C334  1  0.67140000  0.64970000  0.37770000  1.0 0.1274204579
C  C335  1  0.54370000  0.42140000  0.52170000  1.0 0.1274204579
C  C336  1  0.27200000  0.29370000  0.62230000  1.0 0.1274204579
C  C337  1  0.32370000  0.72670000  0.98300000  1.0 0.1607960241
C  C338  1  0.59070000  0.07370000  0.09700000  1.0 0.1607960241
C  C339  1  0.74370000  0.34070000  0.01700000  1.0 0.1607960241
C  C340  1  0.97670000  0.49370000  0.90300000  1.0 0.1607960241
C  C341  1  0.92630000  0.02330000  0.51700000  1.0 0.1607960241
C  C342  1  0.65930000  0.67630000  0.40300000  1.0 0.1607960241
C  C343  1  0.50630000  0.40930000  0.48300000  1.0 0.1607960241
C  C344  1  0.27330000  0.25630000  0.59700000  1.0 0.1607960241
C  C345  1  0.34530000  0.80790000  0.95100000  1.0 0.0703246801
C  C346  1  0.64430000  0.09530000  0.03740000  1.0 0.0703246801
C  C347  1  0.85690000  0.39430000  0.04900000  1.0 0.0703246801
C  C348  1  0.05790000  0.60690000  0.96260000  1.0 0.0703246801
C  C349  1  0.90470000  0.94210000  0.54900000  1.0 0.0703246801
C  C350  1  0.60570000  0.65470000  0.46260000  1.0 0.0703246801
C  C351  1  0.39310000  0.35570000  0.45100000  1.0 0.0703246801
C  C352  1  0.19210000  0.14310000  0.53740000  1.0 0.0703246801
C  C353  1  0.31150000  0.76050000  0.91160000  1.0 -0.1501789668
C  C354  1  0.64990000  0.06150000  0.05100000  1.0 -0.1501789668
C  C355  1  0.84890000  0.39990000  0.08840000  1.0 -0.1501789668
C  C356  1  0.01050000  0.59890000  0.94900000  1.0 -0.1501789668
C  C357  1  0.93850000  0.98950000  0.58840000  1.0 -0.1501789668
C  C358  1  0.60010000  0.68850000  0.44900000  1.0 -0.1501789668
C  C359  1  0.40110000  0.35010000  0.41160000  1.0 -0.1501789668
C  C360  1  0.23950000  0.15110000  0.55100000  1.0 -0.1501789668
C  C361  1  0.26150000  0.67420000  0.91090000  1.0 -0.0402380996
C  C362  1  0.60060000  0.01150000  0.08730000  1.0 -0.0402380996
C  C363  1  0.76330000  0.35060000  0.08910000  1.0 -0.0402380996
C  C364  1  0.92420000  0.51330000  0.91270000  1.0 -0.0402380996
C  C365  1  0.98850000  0.07580000  0.58910000  1.0 -0.0402380996
C  C366  1  0.64940000  0.73850000  0.41270000  1.0 -0.0402380996
C  C367  1  0.48670000  0.39940000  0.41090000  1.0 -0.0402380996
C  C368  1  0.32580000  0.23670000  0.58730000  1.0 -0.0402380996
C  C369  1  0.26330000  0.65290000  0.94780000  1.0 -0.0789596582
C  C370  1  0.56550000  0.01330000  0.11040000  1.0 -0.0789596582
C  C371  1  0.70510000  0.31550000  0.05220000  1.0 -0.0789596582
C  C372  1  0.90290000  0.45510000  0.88960000  1.0 -0.0789596582
C  C373  1  0.98670000  0.09710000  0.55220000  1.0 -0.0789596582
C  C374  1  0.68450000  0.73670000  0.38960000  1.0 -0.0789596582
C  C375  1  0.54490000  0.43450000  0.44780000  1.0 -0.0789596582
C  C376  1  0.34710000  0.29490000  0.61040000  1.0 -0.0789596582
C  C377  1  0.20030000  0.55010000  0.94320000  1.0 0.5664754332
C  C378  1  0.50710000  0.95030000  0.15020000  1.0 0.5664754332
C  C379  1  0.60690000  0.25710000  0.05680000  1.0 0.5664754332
C  C380  1  0.80010000  0.35690000  0.84980000  1.0 0.5664754332
C  C381  1  0.04970000  0.19990000  0.55680000  1.0 0.5664754332
C  C382  1  0.74290000  0.79970000  0.34980000  1.0 0.5664754332
C  C383  1  0.64310000  0.49290000  0.44320000  1.0 0.5664754332
C  C384  1  0.44990000  0.39310000  0.65020000  1.0 0.5664754332
N  N1  1  0.35470000  0.79560000  0.98610000  1.0 -0.2588215259
N  N2  1  0.61860000  0.10470000  0.05910000  1.0 -0.2588215259
N  N3  1  0.80950000  0.36860000  0.01390000  1.0 -0.2588215259
N  N4  1  0.04560000  0.55950000  0.94090000  1.0 -0.2588215259
N  N5  1  0.89530000  0.95440000  0.51390000  1.0 -0.2588215259
N  N6  1  0.63140000  0.64530000  0.44090000  1.0 -0.2588215259
N  N7  1  0.44050000  0.38140000  0.48610000  1.0 -0.2588215259
N  N8  1  0.20440000  0.19050000  0.55910000  1.0 -0.2588215259
N  N9  1  0.30690000  0.70160000  0.05790000  1.0 -0.2697516957
N  N10  1  0.49900000  0.05690000  0.10530000  1.0 -0.2697516957
N  N11  1  0.64370000  0.24900000  0.94210000  1.0 -0.2697516957
N  N12  1  0.95160000  0.39370000  0.89470000  1.0 -0.2697516957
N  N13  1  0.94310000  0.04840000  0.44210000  1.0 -0.2697516957
N  N14  1  0.75100000  0.69310000  0.39470000  1.0 -0.2697516957
N  N15  1  0.60630000  0.50100000  0.55790000  1.0 -0.2697516957
N  N16  1  0.29840000  0.35630000  0.60530000  1.0 -0.2697516957
N  N17  1  0.19892000  0.39147000  0.05979000  1.0 -0.2441831089
N  N18  1  0.38913000  0.94892000  0.30745000  1.0 -0.2441831089
N  N19  1  0.33168000  0.13913000  0.94021000  1.0 -0.2441831089
N  N20  1  0.64147000  0.08168000  0.69255000  1.0 -0.2441831089
N  N21  1  0.05108000  0.35853000  0.44021000  1.0 -0.2441831089
N  N22  1  0.86087000  0.80108000  0.19255000  1.0 -0.2441831089
N  N23  1  0.91832000  0.61087000  0.55979000  1.0 -0.2441831089
N  N24  1  0.60853000  0.66832000  0.80745000  1.0 -0.2441831089
N  N25  1  0.00953000  0.23573000  0.09726000  1.0 -0.2588215259
N  N26  1  0.16227000  0.75953000  0.27380000  1.0 -0.2588215259
N  N27  1  0.13847000  0.91227000  0.90274000  1.0 -0.2588215259
N  N28  1  0.48573000  0.88847000  0.72620000  1.0 -0.2588215259
N  N29  1  0.24047000  0.51427000  0.40274000  1.0 -0.2588215259
N  N30  1  0.08773000  0.99047000  0.22620000  1.0 -0.2588215259
N  N31  1  0.11153000  0.83773000  0.59726000  1.0 -0.2588215259
N  N32  1  0.76427000  0.86153000  0.77380000  1.0 -0.2588215259
N  N33  1  0.69566000  0.01320000  0.74086000  1.0 -0.2588215259
N  N34  1  0.20480000  0.44566000  0.18246000  1.0 -0.2588215259
N  N35  1  0.27234000  0.95480000  0.25914000  1.0 -0.2588215259
N  N36  1  0.26320000  0.02234000  0.81754000  1.0 -0.2588215259
N  N37  1  0.55434000  0.73680000  0.75914000  1.0 -0.2588215259
N  N38  1  0.04520000  0.30434000  0.31754000  1.0 -0.2588215259
N  N39  1  0.97766000  0.79520000  0.24086000  1.0 -0.2588215259
N  N40  1  0.98680000  0.72766000  0.68246000  1.0 -0.2588215259
N  N41  1  0.72413000  0.11530000  0.77803000  1.0 -0.2588215259
N  N42  1  0.19610000  0.47413000  0.10883000  1.0 -0.2588215259
N  N43  1  0.33727000  0.94610000  0.22197000  1.0 -0.2588215259
N  N44  1  0.36530000  0.08727000  0.89117000  1.0 -0.2588215259
N  N45  1  0.52587000  0.63470000  0.72197000  1.0 -0.2588215259
N  N46  1  0.05390000  0.27587000  0.39117000  1.0 -0.2588215259
N  N47  1  0.91273000  0.80390000  0.27803000  1.0 -0.2588215259
N  N48  1  0.88470000  0.66273000  0.60883000  1.0 -0.2588215259
N  N49  1  0.39630000  0.54021000  0.80011000  1.0 -0.2588215259
N  N50  1  0.84619000  0.14630000  0.35609000  1.0 -0.2588215259
N  N51  1  0.74010000  0.59619000  0.19989000  1.0 -0.2588215259
N  N52  1  0.79021000  0.49010000  0.64391000  1.0 -0.2588215259
N  N53  1  0.85370000  0.20979000  0.69989000  1.0 -0.2588215259
N  N54  1  0.40381000  0.60370000  0.14391000  1.0 -0.2588215259
N  N55  1  0.50990000  0.15381000  0.30011000  1.0 -0.2588215259
N  N56  1  0.45979000  0.25990000  0.85609000  1.0 -0.2588215259
N  N57  1  0.61817000  0.75440000  0.84897000  1.0 -0.2441831089
N  N58  1  0.01920000  0.36817000  0.36377000  1.0 -0.2441831089
N  N59  1  0.90543000  0.76920000  0.15103000  1.0 -0.2441831089
N  N60  1  0.00440000  0.65543000  0.63623000  1.0 -0.2441831089
N  N61  1  0.63183000  0.99560000  0.65103000  1.0 -0.2441831089
N  N62  1  0.23080000  0.38183000  0.13623000  1.0 -0.2441831089
N  N63  1  0.34457000  0.98080000  0.34897000  1.0 -0.2441831089
N  N64  1  0.24560000  0.09457000  0.86377000  1.0 -0.2441831089
O  O1  1  0.83909000  0.01051000  0.99980000  1.0 -0.5785783359
O  O2  1  0.08929000  0.58909000  0.32858000  1.0 -0.5785783359
O  O3  1  0.01071000  0.83929000  0.00020000  1.0 -0.5785783359
O  O4  1  0.26051000  0.76071000  0.67142000  1.0 -0.5785783359
O  O5  1  0.41091000  0.73949000  0.50020000  1.0 -0.5785783359
O  O6  1  0.16071000  0.16091000  0.17142000  1.0 -0.5785783359
O  O7  1  0.23929000  0.91071000  0.49980000  1.0 -0.5785783359
O  O8  1  0.98949000  0.98929000  0.82858000  1.0 -0.5785783359
O  O9  1  0.91464000  0.08817000  0.94161000  1.0 -0.5687357278
O  O10  1  0.22303000  0.66464000  0.32647000  1.0 -0.5687357278
O  O11  1  0.14656000  0.97303000  0.05839000  1.0 -0.5687357278
O  O12  1  0.33817000  0.89656000  0.67353000  1.0 -0.5687357278
O  O13  1  0.33536000  0.66183000  0.55839000  1.0 -0.5687357278
O  O14  1  0.02697000  0.08536000  0.17353000  1.0 -0.5687357278
O  O15  1  0.10344000  0.77697000  0.44161000  1.0 -0.5687357278
O  O16  1  0.91183000  0.85344000  0.82647000  1.0 -0.5687357278
O  O17  1  0.60769000  0.90815000  0.84544000  1.0 -0.6019190678
O  O18  1  0.01225000  0.35769000  0.19954000  1.0 -0.6019190678
O  O19  1  0.06271000  0.76225000  0.15456000  1.0 -0.6019190678
O  O20  1  0.15815000  0.81271000  0.80046000  1.0 -0.6019190678
O  O21  1  0.64231000  0.84185000  0.65456000  1.0 -0.6019190678
O  O22  1  0.23775000  0.39231000  0.30046000  1.0 -0.6019190678
O  O23  1  0.18729000  0.98775000  0.34544000  1.0 -0.6019190678
O  O24  1  0.09185000  0.93729000  0.69954000  1.0 -0.6019190678
O  O25  1  0.68048000  0.01130000  0.90318000  1.0 -0.6503947654
O  O26  1  0.02730000  0.43048000  0.16918000  1.0 -0.6503947654
O  O27  1  0.10812000  0.77730000  0.09682000  1.0 -0.6503947654
O  O28  1  0.26130000  0.85812000  0.83082000  1.0 -0.6503947654
O  O29  1  0.56952000  0.73870000  0.59682000  1.0 -0.6503947654
O  O30  1  0.22270000  0.31952000  0.33082000  1.0 -0.6503947654
O  O31  1  0.14188000  0.97270000  0.40318000  1.0 -0.6503947654
O  O32  1  0.98870000  0.89188000  0.66918000  1.0 -0.6503947654
O  O33  1  0.78151000  0.05376000  0.96667000  1.0 -0.6503947654
O  O34  1  0.06484000  0.53151000  0.22775000  1.0 -0.6503947654
O  O35  1  0.08709000  0.81484000  0.03333000  1.0 -0.6503947654
O  O36  1  0.30376000  0.83709000  0.77225000  1.0 -0.6503947654
O  O37  1  0.46849000  0.69624000  0.53333000  1.0 -0.6503947654
O  O38  1  0.18516000  0.21849000  0.27225000  1.0 -0.6503947654
O  O39  1  0.16291000  0.93516000  0.46667000  1.0 -0.6503947654
O  O40  1  0.94624000  0.91291000  0.72775000  1.0 -0.6503947654
O  O41  1  0.98756000  0.24547000  0.97463000  1.0 -0.6877950409
O  O42  1  0.26293000  0.73756000  0.24209000  1.0 -0.6877950409
O  O43  1  0.27084000  0.01293000  0.02537000  1.0 -0.6877950409
O  O44  1  0.49547000  0.02084000  0.75791000  1.0 -0.6877950409
O  O45  1  0.26244000  0.50453000  0.52537000  1.0 -0.6877950409
O  O46  1  0.98707000  0.01244000  0.25791000  1.0 -0.6877950409
O  O47  1  0.97916000  0.73707000  0.47463000  1.0 -0.6877950409
O  O48  1  0.75453000  0.72916000  0.74209000  1.0 -0.6877950409
O  O49  1  0.99756000  0.30339000  0.84415000  1.0 -0.6125714907
O  O50  1  0.40341000  0.74756000  0.19417000  1.0 -0.6125714907
O  O51  1  0.45924000  0.15341000  0.15585000  1.0 -0.6125714907
O  O52  1  0.55339000  0.20924000  0.80583000  1.0 -0.6125714907
O  O53  1  0.25244000  0.44661000  0.65585000  1.0 -0.6125714907
O  O54  1  0.84659000  0.00244000  0.30583000  1.0 -0.6125714907
O  O55  1  0.79076000  0.59659000  0.34415000  1.0 -0.6125714907
O  O56  1  0.69661000  0.54076000  0.69417000  1.0 -0.6125714907
O  O57  1  0.89551000  0.16015000  0.87066000  1.0 -0.6196694949
O  O58  1  0.27485000  0.64551000  0.23536000  1.0 -0.6196694949
O  O59  1  0.28949000  0.02485000  0.12934000  1.0 -0.6196694949
O  O60  1  0.41015000  0.03949000  0.76464000  1.0 -0.6196694949
O  O61  1  0.35449000  0.58985000  0.62934000  1.0 -0.6196694949
O  O62  1  0.97515000  0.10449000  0.26464000  1.0 -0.6196694949
O  O63  1  0.96051000  0.72515000  0.37066000  1.0 -0.6196694949
O  O64  1  0.83985000  0.71051000  0.73536000  1.0 -0.6196694949
O  O65  1  0.15915000  0.49641000  0.97276000  1.0 -0.6125714907
O  O66  1  0.43639000  0.90915000  0.16274000  1.0 -0.6125714907
O  O67  1  0.52365000  0.18639000  0.02724000  1.0 -0.6125714907
O  O68  1  0.74641000  0.27365000  0.83726000  1.0 -0.6125714907
O  O69  1  0.09085000  0.25359000  0.52724000  1.0 -0.6125714907
O  O70  1  0.81361000  0.84085000  0.33726000  1.0 -0.6125714907
O  O71  1  0.72635000  0.56361000  0.47276000  1.0 -0.6125714907
O  O72  1  0.50359000  0.47635000  0.66274000  1.0 -0.6125714907
O  O73  1  0.18810000  0.52318000  0.91028000  1.0 -0.5353776494
O  O74  1  0.52782000  0.93810000  0.16492000  1.0 -0.5353776494
O  O75  1  0.61290000  0.27782000  0.08972000  1.0 -0.5353776494
O  O76  1  0.77318000  0.36290000  0.83508000  1.0 -0.5353776494
O  O77  1  0.06190000  0.22682000  0.58972000  1.0 -0.5353776494
O  O78  1  0.72218000  0.81190000  0.33508000  1.0 -0.5353776494
O  O79  1  0.63710000  0.47218000  0.41028000  1.0 -0.5353776494
O  O80  1  0.47682000  0.38710000  0.66492000  1.0 -0.5353776494
O  O81  1  0.24110000  0.49524000  0.88274000  1.0 -0.6629246601
O  O82  1  0.60836000  0.99110000  0.24586000  1.0 -0.6629246601
O  O83  1  0.61250000  0.35836000  0.11726000  1.0 -0.6629246601
O  O84  1  0.74524000  0.36250000  0.75414000  1.0 -0.6629246601
O  O85  1  0.00890000  0.25476000  0.61726000  1.0 -0.6629246601
O  O86  1  0.64164000  0.75890000  0.25414000  1.0 -0.6629246601
O  O87  1  0.63750000  0.39164000  0.38274000  1.0 -0.6629246601
O  O88  1  0.50476000  0.38750000  0.74586000  1.0 -0.6629246601
O  O89  1  0.44582000  0.68123000  0.88805000  1.0 -0.6829461136
O  O90  1  0.80777000  0.19582000  0.26459000  1.0 -0.6829461136
O  O91  1  0.79318000  0.55777000  0.11195000  1.0 -0.6829461136
O  O92  1  0.93123000  0.54318000  0.73541000  1.0 -0.6829461136
O  O93  1  0.80418000  0.06877000  0.61195000  1.0 -0.6829461136
O  O94  1  0.44223000  0.55418000  0.23541000  1.0 -0.6829461136
O  O95  1  0.45682000  0.19223000  0.38805000  1.0 -0.6829461136
O  O96  1  0.31877000  0.20682000  0.76459000  1.0 -0.6829461136
O  O97  1  0.41783000  0.59687000  0.96090000  1.0 -0.5687357278
O  O98  1  0.70693000  0.16783000  0.32096000  1.0 -0.5687357278
O  O99  1  0.63597000  0.45693000  0.03910000  1.0 -0.5687357278
O  O100  1  0.84687000  0.38597000  0.67904000  1.0 -0.5687357278
O  O101  1  0.83217000  0.15313000  0.53910000  1.0 -0.5687357278
O  O102  1  0.54307000  0.58217000  0.17904000  1.0 -0.5687357278
O  O103  1  0.61403000  0.29307000  0.46090000  1.0 -0.5687357278
O  O104  1  0.40313000  0.36403000  0.82096000  1.0 -0.5687357278
O  O105  1  0.30140000  0.45173000  0.91013000  1.0 -0.5881918201
O  O106  1  0.64127000  0.05140000  0.34967000  1.0 -0.5881918201
O  O107  1  0.54160000  0.39127000  0.08987000  1.0 -0.5881918201
O  O108  1  0.70173000  0.29160000  0.65033000  1.0 -0.5881918201
O  O109  1  0.94860000  0.29827000  0.58987000  1.0 -0.5881918201
O  O110  1  0.60873000  0.69860000  0.15033000  1.0 -0.5881918201
O  O111  1  0.70840000  0.35873000  0.41013000  1.0 -0.5881918201
O  O112  1  0.54827000  0.45840000  0.84967000  1.0 -0.5881918201
O  O113  1  0.44182000  0.73036000  0.97338000  1.0 -0.6196694949
O  O114  1  0.71844000  0.19182000  0.21146000  1.0 -0.6196694949
O  O115  1  0.75698000  0.46844000  0.02662000  1.0 -0.6196694949
O  O116  1  0.98036000  0.50698000  0.78854000  1.0 -0.6196694949
O  O117  1  0.80818000  0.01964000  0.52662000  1.0 -0.6196694949
O  O118  1  0.53156000  0.55818000  0.28854000  1.0 -0.6196694949
O  O119  1  0.49302000  0.28156000  0.47338000  1.0 -0.6196694949
O  O120  1  0.26964000  0.24302000  0.71146000  1.0 -0.6196694949
O  O121  1  0.56278000  0.89722000  0.97640000  1.0 -0.5881918201
O  O122  1  0.83638000  0.31278000  0.16556000  1.0 -0.5881918201
O  O123  1  0.92082000  0.58638000  0.02360000  1.0 -0.5881918201
O  O124  1  0.14722000  0.67082000  0.83444000  1.0 -0.5881918201
O  O125  1  0.68722000  0.85278000  0.52360000  1.0 -0.5881918201
O  O126  1  0.41362000  0.43722000  0.33444000  1.0 -0.5881918201
O  O127  1  0.32918000  0.16362000  0.47640000  1.0 -0.5881918201
O  O128  1  0.10278000  0.07918000  0.66556000  1.0 -0.5881918201
