# DDEC6 charges by PACMAN v1.1 (https://github.com/mtap-research/PACMAN-charge/)
data_MIFTUS_FSR_pacman
_symmetry_space_group_name_H-M   'P 1'
_cell_length_a   32.41560000
_cell_length_b   32.41560000
_cell_length_c   32.41560000
_cell_angle_alpha   91.58540000
_cell_angle_beta   91.58540000
_cell_angle_gamma   160.85100000
_symmetry_Int_Tables_number   1
_chemical_formula_structural   Gd2CoH36C48(N4O11)2
_chemical_formula_sum   'Gd16 Co8 H288 C384 N64 O176'
_cell_volume   11017.36119520
_cell_formula_units_Z   8
loop_
 _symmetry_equiv_pos_site_id
 _symmetry_equiv_pos_as_xyz
  1  'x, y, z'
loop_
 _atom_site_type_symbol
 _atom_site_label
 _atom_site_symmetry_multiplicity
 _atom_site_fract_x
 _atom_site_fract_y
 _atom_site_fract_z
 _atom_site_occupancy
 _atom_site_charge
Gd  Gd1  1  0.64496000  0.92119000  0.07817000  1.0 1.9506304581
Gd  Gd2  1  0.81679000  0.39496000  0.22377000  1.0 1.9506304581
Gd  Gd3  1  0.84302000  0.56679000  0.92183000  1.0 1.9506304581
Gd  Gd4  1  0.17119000  0.59302000  0.77623000  1.0 1.9506304581
Gd  Gd5  1  0.60504000  0.82881000  0.42183000  1.0 1.9506304581
Gd  Gd6  1  0.43321000  0.35504000  0.27623000  1.0 1.9506304581
Gd  Gd7  1  0.40698000  0.18321000  0.57817000  1.0 1.9506304581
Gd  Gd8  1  0.07881000  0.15698000  0.72377000  1.0 1.9506304581
Gd  Gd9  1  0.14466000  0.41914000  0.07472000  1.0 1.9768826831
Gd  Gd10  1  0.31994000  0.89467000  0.22553000  1.0 1.9768826831
Gd  Gd11  1  0.34442000  0.06994000  0.92527000  1.0 1.9768826831
Gd  Gd12  1  0.66914000  0.09441000  0.77448000  1.0 1.9768826831
Gd  Gd13  1  0.10533000  0.33086000  0.42528000  1.0 1.9768826831
Gd  Gd14  1  0.93006000  0.85533000  0.27448000  1.0 1.9768826831
Gd  Gd15  1  0.90558000  0.68006000  0.57473000  1.0 1.9768826831
Gd  Gd16  1  0.58086000  0.65558000  0.72552000  1.0 1.9768826831
Co  Co1  1  0.29653000  0.41894000  0.21511000  1.0 0.5066813458
Co  Co2  1  0.33142000  0.04653000  0.37759000  1.0 0.5066813458
Co  Co3  1  0.20383000  0.08142000  0.78489000  1.0 0.5066813458
Co  Co4  1  0.66894000  0.95383000  0.62241000  1.0 0.5035883058
Co  Co5  1  0.95347000  0.33106000  0.28489000  1.0 0.5035883058
Co  Co6  1  0.91858000  0.70347000  0.12241000  1.0 0.5066813458
Co  Co7  1  0.04617000  0.66858000  0.71511000  1.0 0.5035883058
Co  Co8  1  0.58106000  0.79617000  0.87759000  1.0 0.5066813458
H  H1  1  0.47600000  0.54040000  0.16580000  1.0 0.1093650092
H  H2  1  0.56020000  0.22600000  0.43560000  1.0 0.1093650092
H  H3  1  0.37460000  0.31020000  0.83420000  1.0 0.1093650092
H  H4  1  0.79040000  0.12460000  0.56440000  1.0 0.1093650092
H  H5  1  0.77400000  0.20960000  0.33420000  1.0 0.1093650092
H  H6  1  0.68980000  0.52400000  0.06440000  1.0 0.1093650092
H  H7  1  0.87540000  0.43980000  0.66580000  1.0 0.1093650092
H  H8  1  0.45960000  0.62540000  0.93560000  1.0 0.1093650092
H  H9  1  0.45390000  0.46240000  0.12230000  1.0 0.1375912577
H  H10  1  0.58160000  0.20390000  0.49150000  1.0 0.1375912577
H  H11  1  0.34010000  0.33160000  0.87770000  1.0 0.1375912577
H  H12  1  0.71240000  0.09010000  0.50850000  1.0 0.1375912577
H  H13  1  0.79610000  0.28760000  0.37770000  1.0 0.1375912577
H  H14  1  0.66840000  0.54610000  0.00850000  1.0 0.1375912577
H  H15  1  0.90990000  0.41840000  0.62230000  1.0 0.1375912577
H  H16  1  0.53760000  0.65990000  0.99150000  1.0 0.1375912577
H  H17  1  0.29170000  0.26340000  0.12530000  1.0 0.1375912577
H  H18  1  0.41640000  0.04170000  0.52830000  1.0 0.1375912577
H  H19  1  0.13810000  0.16640000  0.87470000  1.0 0.1375912577
H  H20  1  0.51340000  0.88810000  0.47170000  1.0 0.1375912577
H  H21  1  0.95830000  0.48660000  0.37470000  1.0 0.1375912577
H  H22  1  0.83360000  0.70830000  0.97170000  1.0 0.1375912577
H  H23  1  0.11190000  0.58360000  0.62530000  1.0 0.1375912577
H  H24  1  0.73660000  0.86190000  0.02830000  1.0 0.1375912577
H  H25  1  0.98530000  0.02570000  0.29400000  1.0 0.1297619025
H  H26  1  0.94130000  0.73530000  0.45960000  1.0 0.1297619025
H  H27  1  0.73170000  0.69130000  0.70600000  1.0 0.1297619025
H  H28  1  0.27570000  0.48170000  0.54040000  1.0 0.1297619025
H  H29  1  0.26470000  0.72430000  0.20600000  1.0 0.1297619025
H  H30  1  0.30870000  0.01470000  0.04040000  1.0 0.1297619025
H  H31  1  0.51830000  0.05870000  0.79400000  1.0 0.1297619025
H  H32  1  0.97430000  0.26830000  0.95960000  1.0 0.1297619025
H  H33  1  0.92840000  0.03990000  0.28790000  1.0 0.1297619025
H  H34  1  0.89050000  0.67840000  0.38850000  1.0 0.1297619025
H  H35  1  0.75200000  0.64050000  0.71210000  1.0 0.1297619025
H  H36  1  0.28990000  0.50200000  0.61150000  1.0 0.1297619025
H  H37  1  0.32160000  0.71010000  0.21210000  1.0 0.1297619025
H  H38  1  0.35950000  0.07160000  0.11150000  1.0 0.1297619025
H  H39  1  0.49800000  0.10950000  0.78790000  1.0 0.1297619025
H  H40  1  0.96010000  0.24800000  0.88850000  1.0 0.1297619025
H  H41  1  0.03480000  0.18210000  0.24930000  1.0 0.1093650092
H  H42  1  0.03550000  0.78480000  0.35270000  1.0 0.1093650092
H  H43  1  0.93280000  0.78550000  0.75070000  1.0 0.1093650092
H  H44  1  0.43210000  0.68280000  0.64730000  1.0 0.1093650092
H  H45  1  0.21520000  0.56790000  0.25070000  1.0 0.1093650092
H  H46  1  0.21450000  0.96520000  0.14730000  1.0 0.1093650092
H  H47  1  0.31720000  0.96450000  0.74930000  1.0 0.1093650092
H  H48  1  0.81790000  0.06720000  0.85270000  1.0 0.1093650092
H  H49  1  0.40070000  0.44970000  0.27920000  1.0 0.1024984649
H  H50  1  0.37150000  0.15070000  0.45100000  1.0 0.1024984649
H  H51  1  0.17050000  0.12150000  0.72080000  1.0 0.1024984649
H  H52  1  0.69970000  0.92050000  0.54900000  1.0 0.1024984649
H  H53  1  0.84930000  0.30030000  0.22080000  1.0 0.1024984649
H  H54  1  0.87850000  0.59930000  0.04900000  1.0 0.1024984649
H  H55  1  0.07950000  0.62850000  0.77920000  1.0 0.1024984649
H  H56  1  0.55030000  0.82950000  0.95100000  1.0 0.1024984649
H  H57  1  0.36940000  0.40780000  0.34620000  1.0 0.1375912577
H  H58  1  0.27320000  0.11940000  0.46160000  1.0 0.1375912577
H  H59  1  0.06160000  0.02320000  0.65380000  1.0 0.1375912577
H  H60  1  0.65780000  0.81160000  0.53840000  1.0 0.1375912577
H  H61  1  0.88060000  0.34220000  0.15380000  1.0 0.1375912577
H  H62  1  0.97680000  0.63060000  0.03840000  1.0 0.1375912577
H  H63  1  0.18840000  0.72680000  0.84620000  1.0 0.1375912577
H  H64  1  0.59220000  0.93840000  0.96160000  1.0 0.1375912577
H  H65  1  0.28720000  0.38210000  0.38290000  1.0 0.1297619025
H  H66  1  0.15430000  0.03720000  0.40510000  1.0 0.1297619025
H  H67  1  0.99920000  0.90430000  0.61710000  1.0 0.1297619025
H  H68  1  0.63210000  0.74920000  0.59490000  1.0 0.1297619025
H  H69  1  0.96280000  0.36790000  0.11710000  1.0 0.1297619025
H  H70  1  0.09570000  0.71280000  0.09490000  1.0 0.1297619025
H  H71  1  0.25080000  0.84570000  0.88290000  1.0 0.1297619025
H  H72  1  0.61790000  0.00080000  0.90510000  1.0 0.1297619025
H  H73  1  0.36290000  0.64000000  0.28970000  1.0 0.1214922448
H  H74  1  0.32320000  0.11290000  0.22290000  1.0 0.1214922448
H  H75  1  0.35030000  0.07320000  0.71030000  1.0 0.1214922448
H  H76  1  0.89000000  0.10030000  0.77710000  1.0 0.1214922448
H  H77  1  0.88710000  0.11000000  0.21030000  1.0 0.1214922448
H  H78  1  0.92680000  0.63710000  0.27710000  1.0 0.1214922448
H  H79  1  0.89970000  0.67680000  0.78970000  1.0 0.1214922448
H  H80  1  0.36000000  0.64970000  0.72290000  1.0 0.1214922448
H  H81  1  0.25700000  0.53550000  0.22250000  1.0 0.1297619025
H  H82  1  0.28450000  0.00700000  0.22150000  1.0 0.1297619025
H  H83  1  0.31300000  0.03450000  0.77750000  1.0 0.1297619025
H  H84  1  0.78550000  0.06300000  0.77850000  1.0 0.1297619025
H  H85  1  0.99300000  0.21450000  0.27750000  1.0 0.1297619025
H  H86  1  0.96550000  0.74300000  0.27850000  1.0 0.1297619025
H  H87  1  0.93700000  0.71550000  0.72250000  1.0 0.1297619025
H  H88  1  0.46450000  0.68700000  0.72150000  1.0 0.1297619025
H  H89  1  0.20380000  0.42220000  0.19200000  1.0 0.1214922448
H  H90  1  0.26180000  0.95380000  0.28160000  1.0 0.1214922448
H  H91  1  0.23020000  0.01180000  0.80800000  1.0 0.1214922448
H  H92  1  0.67220000  0.98020000  0.71840000  1.0 0.1214922448
H  H93  1  0.04620000  0.32780000  0.30800000  1.0 0.1214922448
H  H94  1  0.98820000  0.79620000  0.21840000  1.0 0.1214922448
H  H95  1  0.01980000  0.73820000  0.69200000  1.0 0.1214922448
H  H96  1  0.57780000  0.76980000  0.78160000  1.0 0.1214922448
H  H97  1  0.57380000  0.71120000  0.25500000  1.0 0.1093650092
H  H98  1  0.56880000  0.32380000  0.36260000  1.0 0.1093650092
H  H99  1  0.45620000  0.31880000  0.74500000  1.0 0.1093650092
H  H100  1  0.96120000  0.20620000  0.63740000  1.0 0.1093650092
H  H101  1  0.67620000  0.03880000  0.24500000  1.0 0.1093650092
H  H102  1  0.68120000  0.42620000  0.13740000  1.0 0.1093650092
H  H103  1  0.79380000  0.43120000  0.75500000  1.0 0.1093650092
H  H104  1  0.28880000  0.54380000  0.86260000  1.0 0.1093650092
H  H105  1  0.68460000  0.87450000  0.24810000  1.0 0.1297619025
H  H106  1  0.68650000  0.43460000  0.31010000  1.0 0.1297619025
H  H107  1  0.62640000  0.43650000  0.75190000  1.0 0.1297619025
H  H108  1  0.12450000  0.37640000  0.68990000  1.0 0.1297619025
H  H109  1  0.56540000  0.87550000  0.25190000  1.0 0.1297619025
H  H110  1  0.56350000  0.31540000  0.18990000  1.0 0.1297619025
H  H111  1  0.62360000  0.31350000  0.74810000  1.0 0.1297619025
H  H112  1  0.12550000  0.37360000  0.81010000  1.0 0.1297619025
H  H113  1  0.62380000  0.85530000  0.18970000  1.0 0.1297619025
H  H114  1  0.68410000  0.37380000  0.26850000  1.0 0.1297619025
H  H115  1  0.66560000  0.43410000  0.81030000  1.0 0.1297619025
H  H116  1  0.10530000  0.41560000  0.73150000  1.0 0.1297619025
H  H117  1  0.62620000  0.89470000  0.31030000  1.0 0.1297619025
H  H118  1  0.56590000  0.37620000  0.23150000  1.0 0.1297619025
H  H119  1  0.58440000  0.31590000  0.68970000  1.0 0.1297619025
H  H120  1  0.14470000  0.33440000  0.76850000  1.0 0.1297619025
H  H121  1  0.25510000  0.37630000  0.04160000  1.0 0.1297619025
H  H122  1  0.46350000  0.00510000  0.37880000  1.0 0.1297619025
H  H123  1  0.33470000  0.21350000  0.95840000  1.0 0.1297619025
H  H124  1  0.62630000  0.08470000  0.62120000  1.0 0.1297619025
H  H125  1  0.99490000  0.37370000  0.45840000  1.0 0.1297619025
H  H126  1  0.78650000  0.74490000  0.12120000  1.0 0.1297619025
H  H127  1  0.91530000  0.53650000  0.54160000  1.0 0.1297619025
H  H128  1  0.62370000  0.66530000  0.87880000  1.0 0.1297619025
H  H129  1  0.09100000  0.19260000  0.07040000  1.0 0.1375912577
H  H130  1  0.27060000  0.84100000  0.39840000  1.0 0.1375912577
H  H131  1  0.12220000  0.02060000  0.92960000  1.0 0.1375912577
H  H132  1  0.44260000  0.87220000  0.60160000  1.0 0.1375912577
H  H133  1  0.15900000  0.55740000  0.42960000  1.0 0.1375912577
H  H134  1  0.97940000  0.90900000  0.10160000  1.0 0.1375912577
H  H135  1  0.12780000  0.72940000  0.57040000  1.0 0.1375912577
H  H136  1  0.80740000  0.87780000  0.89840000  1.0 0.1375912577
H  H137  1  0.09110000  0.20290000  0.14020000  1.0 0.1093650092
H  H138  1  0.20090000  0.84110000  0.38820000  1.0 0.1093650092
H  H139  1  0.06270000  0.95090000  0.85980000  1.0 0.1093650092
H  H140  1  0.45290000  0.81270000  0.61180000  1.0 0.1093650092
H  H141  1  0.15890000  0.54710000  0.35980000  1.0 0.1093650092
H  H142  1  0.04910000  0.90890000  0.11180000  1.0 0.1093650092
H  H143  1  0.18730000  0.79910000  0.64020000  1.0 0.1093650092
H  H144  1  0.79710000  0.93730000  0.88820000  1.0 0.1093650092
H  H145  1  0.30440000  0.67900000  0.88180000  1.0 0.1297619025
H  H146  1  0.67260000  0.05440000  0.12540000  1.0 0.1297619025
H  H147  1  0.79720000  0.42260000  0.11820000  1.0 0.1297619025
H  H148  1  0.92900000  0.54720000  0.87460000  1.0 0.1297619025
H  H149  1  0.94560000  0.07100000  0.61820000  1.0 0.1297619025
H  H150  1  0.57740000  0.69560000  0.37460000  1.0 0.1297619025
H  H151  1  0.45280000  0.32740000  0.38180000  1.0 0.1297619025
H  H152  1  0.32100000  0.20280000  0.62540000  1.0 0.1297619025
H  H153  1  0.21680000  0.53740000  0.87600000  1.0 0.1297619025
H  H154  1  0.59080000  0.96680000  0.17940000  1.0 0.1297619025
H  H155  1  0.66140000  0.34080000  0.12400000  1.0 0.1297619025
H  H156  1  0.78740000  0.41140000  0.82060000  1.0 0.1297619025
H  H157  1  0.03320000  0.21260000  0.62400000  1.0 0.1297619025
H  H158  1  0.65920000  0.78320000  0.32060000  1.0 0.1297619025
H  H159  1  0.58860000  0.40920000  0.37600000  1.0 0.1297619025
H  H160  1  0.46260000  0.33860000  0.67940000  1.0 0.1297619025
H  H161  1  0.21310000  0.50530000  0.93880000  1.0 0.1093650092
H  H162  1  0.52430000  0.96310000  0.20780000  1.0 0.1093650092
H  H163  1  0.56650000  0.27430000  0.06120000  1.0 0.1093650092
H  H164  1  0.75530000  0.31650000  0.79220000  1.0 0.1093650092
H  H165  1  0.03690000  0.24470000  0.56120000  1.0 0.1093650092
H  H166  1  0.72570000  0.78690000  0.29220000  1.0 0.1093650092
H  H167  1  0.68350000  0.47570000  0.43880000  1.0 0.1093650092
H  H168  1  0.49470000  0.43350000  0.70780000  1.0 0.1093650092
H  H169  1  0.36930000  0.76800000  0.11490000  1.0 0.1024984649
H  H170  1  0.50440000  0.11930000  0.10130000  1.0 0.1024984649
H  H171  1  0.65310000  0.25440000  0.88510000  1.0 0.1024984649
H  H172  1  0.01800000  0.40310000  0.89870000  1.0 0.1024984649
H  H173  1  0.88070000  0.98200000  0.38510000  1.0 0.1024984649
H  H174  1  0.74560000  0.63070000  0.39870000  1.0 0.1024984649
H  H175  1  0.59690000  0.49560000  0.61490000  1.0 0.1024984649
H  H176  1  0.23200000  0.34690000  0.60130000  1.0 0.1024984649
H  H177  1  0.21670000  0.67930000  0.11480000  1.0 0.1214922448
H  H178  1  0.35190000  0.96670000  0.03740000  1.0 0.1214922448
H  H179  1  0.56450000  0.10190000  0.88520000  1.0 0.1214922448
H  H180  1  0.92930000  0.31450000  0.96260000  1.0 0.1214922448
H  H181  1  0.03330000  0.07070000  0.38520000  1.0 0.1214922448
H  H182  1  0.89810000  0.78330000  0.46260000  1.0 0.1214922448
H  H183  1  0.68550000  0.64810000  0.61480000  1.0 0.1214922448
H  H184  1  0.32070000  0.43550000  0.53740000  1.0 0.1214922448
H  H185  1  0.16660000  0.65740000  0.04820000  1.0 0.1024984649
H  H186  1  0.36840000  0.91660000  0.00920000  1.0 0.1024984649
H  H187  1  0.60920000  0.11840000  0.95180000  1.0 0.1024984649
H  H188  1  0.90740000  0.35920000  0.99080000  1.0 0.1024984649
H  H189  1  0.08340000  0.09260000  0.45180000  1.0 0.1024984649
H  H190  1  0.88160000  0.83340000  0.49080000  1.0 0.1024984649
H  H191  1  0.64080000  0.63160000  0.54820000  1.0 0.1024984649
H  H192  1  0.34260000  0.39080000  0.50920000  1.0 0.1024984649
H  H193  1  0.77430000  0.96920000  0.07450000  1.0 0.3579319659
H  H194  1  0.94980000  0.52430000  0.30510000  1.0 0.3579319659
H  H195  1  0.89470000  0.69980000  0.92550000  1.0 0.3579319659
H  H196  1  0.21920000  0.64470000  0.69490000  1.0 0.3579319659
H  H197  1  0.47570000  0.78080000  0.42550000  1.0 0.3579319659
H  H198  1  0.30020000  0.22570000  0.19490000  1.0 0.3579319659
H  H199  1  0.35530000  0.05020000  0.57450000  1.0 0.3579319659
H  H200  1  0.03080000  0.10530000  0.80510000  1.0 0.3579319659
H  H201  1  0.64970000  0.83990000  0.07800000  1.0 0.3710255468
H  H202  1  0.82170000  0.39970000  0.30980000  1.0 0.3710255468
H  H203  1  0.76190000  0.57170000  0.92200000  1.0 0.3710255468
H  H204  1  0.08990000  0.51190000  0.69020000  1.0 0.3710255468
H  H205  1  0.60030000  0.91010000  0.42200000  1.0 0.3710255468
H  H206  1  0.42830000  0.35030000  0.19020000  1.0 0.3710255468
H  H207  1  0.48810000  0.17830000  0.57800000  1.0 0.3710255468
H  H208  1  0.16010000  0.23810000  0.80980000  1.0 0.3710255468
H  H209  1  0.52340000  0.77120000  0.00040000  1.0 0.3710255468
H  H210  1  0.77300000  0.27340000  0.25220000  1.0 0.3710255468
H  H211  1  0.77080000  0.52300000  0.99960000  1.0 0.3710255468
H  H212  1  0.02120000  0.52080000  0.74780000  1.0 0.3710255468
H  H213  1  0.72660000  0.97880000  0.49960000  1.0 0.3710255468
H  H214  1  0.47700000  0.47660000  0.24780000  1.0 0.3710255468
H  H215  1  0.47920000  0.22700000  0.50040000  1.0 0.3710255468
H  H216  1  0.22880000  0.22920000  0.75220000  1.0 0.3710255468
H  H217  1  0.42130000  0.68130000  0.02460000  1.0 0.3878033627
H  H218  1  0.64670000  0.17130000  0.24000000  1.0 0.3878033627
H  H219  1  0.65670000  0.39670000  0.97540000  1.0 0.3878033627
H  H220  1  0.93130000  0.40670000  0.76000000  1.0 0.3878033627
H  H221  1  0.82870000  0.06870000  0.47540000  1.0 0.3878033627
H  H222  1  0.60330000  0.57870000  0.26000000  1.0 0.3878033627
H  H223  1  0.59330000  0.35330000  0.52460000  1.0 0.3878033627
H  H224  1  0.31870000  0.34330000  0.74000000  1.0 0.3878033627
H  H225  1  0.72260000  0.06690000  0.04270000  1.0 0.3990002045
H  H226  1  0.92990000  0.47260000  0.15570000  1.0 0.3990002045
H  H227  1  0.02420000  0.67990000  0.95730000  1.0 0.3990002045
H  H228  1  0.31690000  0.77420000  0.84430000  1.0 0.3990002045
H  H229  1  0.52740000  0.68310000  0.45730000  1.0 0.3990002045
H  H230  1  0.32010000  0.27740000  0.34430000  1.0 0.3990002045
H  H231  1  0.22580000  0.07010000  0.54270000  1.0 0.3990002045
H  H232  1  0.93310000  0.97580000  0.65570000  1.0 0.3990002045
H  H233  1  0.83150000  0.15790000  0.07300000  1.0 0.3990002045
H  H234  1  0.00850000  0.58150000  0.17360000  1.0 0.3990002045
H  H235  1  0.08490000  0.75850000  0.92700000  1.0 0.3990002045
H  H236  1  0.40790000  0.83490000  0.82640000  1.0 0.3990002045
H  H237  1  0.41850000  0.59210000  0.42700000  1.0 0.3990002045
H  H238  1  0.24150000  0.16850000  0.32640000  1.0 0.3990002045
H  H239  1  0.16510000  0.99150000  0.57300000  1.0 0.3990002045
H  H240  1  0.84210000  0.91510000  0.67360000  1.0 0.3990002045
H  H241  1  0.22940000  0.57830000  0.11010000  1.0 0.3787662157
H  H242  1  0.36930000  0.97940000  0.15110000  1.0 0.3787662157
H  H243  1  0.46820000  0.11930000  0.88990000  1.0 0.3787662157
H  H244  1  0.82830000  0.21820000  0.84890000  1.0 0.3787662157
H  H245  1  0.02060000  0.17170000  0.38990000  1.0 0.3787662157
H  H246  1  0.88070000  0.77060000  0.34890000  1.0 0.3787662157
H  H247  1  0.78180000  0.63070000  0.61010000  1.0 0.3787662157
H  H248  1  0.42170000  0.53180000  0.65110000  1.0 0.3787662157
H  H249  1  0.32850000  0.65790000  0.08700000  1.0 0.3512042072
H  H250  1  0.49150000  0.07850000  0.17060000  1.0 0.3512042072
H  H251  1  0.57090000  0.24150000  0.91300000  1.0 0.3512042072
H  H252  1  0.90790000  0.32090000  0.82940000  1.0 0.3512042072
H  H253  1  0.92150000  0.09210000  0.41300000  1.0 0.3512042072
H  H254  1  0.75850000  0.67150000  0.32940000  1.0 0.3512042072
H  H255  1  0.67910000  0.50850000  0.58700000  1.0 0.3512042072
H  H256  1  0.34210000  0.42910000  0.67060000  1.0 0.3512042072
H  H257  1  0.25450000  0.46000000  0.03150000  1.0 0.3787662157
H  H258  1  0.47300000  0.00450000  0.29450000  1.0 0.3787662157
H  H259  1  0.42850000  0.22300000  0.96850000  1.0 0.3787662157
H  H260  1  0.71000000  0.17850000  0.70550000  1.0 0.3787662157
H  H261  1  0.99550000  0.29000000  0.46850000  1.0 0.3787662157
H  H262  1  0.77700000  0.74550000  0.20550000  1.0 0.3787662157
H  H263  1  0.82150000  0.52700000  0.53150000  1.0 0.3787662157
H  H264  1  0.54000000  0.57150000  0.79450000  1.0 0.3787662157
H  H265  1  0.13510000  0.35630000  0.00520000  1.0 0.3990002045
H  H266  1  0.37990000  0.88510000  0.27880000  1.0 0.3990002045
H  H267  1  0.35110000  0.12990000  0.99480000  1.0 0.3990002045
H  H268  1  0.60630000  0.10110000  0.72120000  1.0 0.3990002045
H  H269  1  0.11490000  0.39370000  0.49480000  1.0 0.3990002045
H  H270  1  0.87010000  0.86490000  0.22120000  1.0 0.3990002045
H  H271  1  0.89890000  0.62010000  0.50520000  1.0 0.3990002045
H  H272  1  0.64370000  0.64890000  0.77880000  1.0 0.3990002045
H  H273  1  0.02640000  0.23280000  0.08920000  1.0 0.3787662157
H  H274  1  0.18720000  0.77640000  0.29360000  1.0 0.3787662157
H  H275  1  0.14360000  0.93720000  0.91080000  1.0 0.3787662157
H  H276  1  0.48280000  0.89360000  0.70640000  1.0 0.3787662157
H  H277  1  0.22360000  0.51720000  0.41080000  1.0 0.3787662157
H  H278  1  0.06280000  0.97360000  0.20640000  1.0 0.3787662157
H  H279  1  0.10640000  0.81280000  0.58920000  1.0 0.3787662157
H  H280  1  0.76720000  0.85640000  0.79360000  1.0 0.3787662157
H  H281  1  0.99980000  0.23490000  0.12110000  1.0 0.3710255468
H  H282  1  0.12870000  0.74980000  0.26490000  1.0 0.3710255468
H  H283  1  0.11380000  0.87870000  0.87890000  1.0 0.3710255468
H  H284  1  0.48490000  0.86380000  0.73510000  1.0 0.3710255468
H  H285  1  0.25020000  0.51510000  0.37890000  1.0 0.3710255468
H  H286  1  0.12130000  0.00020000  0.23510000  1.0 0.3710255468
H  H287  1  0.13620000  0.87130000  0.62110000  1.0 0.3710255468
H  H288  1  0.76510000  0.88620000  0.76490000  1.0 0.3710255468
C  C1  1  0.41010000  0.45960000  0.16690000  1.0 0.0594218516
C  C2  1  0.49320000  0.16010000  0.45050000  1.0 0.0594218516
C  C3  1  0.29270000  0.24320000  0.83310000  1.0 0.0594218516
C  C4  1  0.70960000  0.04270000  0.54950000  1.0 0.0594218516
C  C5  1  0.83990000  0.29040000  0.33310000  1.0 0.0594218516
C  C6  1  0.75680000  0.58990000  0.04950000  1.0 0.0594218516
C  C7  1  0.95730000  0.50680000  0.66690000  1.0 0.0594218516
C  C8  1  0.54040000  0.70730000  0.95050000  1.0 0.0594218516
C  C9  1  0.15179000  0.14025000  0.26084000  1.0 0.6368784774
C  C10  1  0.14095000  0.90179000  0.51154000  1.0 0.6368784774
C  C11  1  0.87941000  0.89095000  0.73916000  1.0 0.6368784774
C  C12  1  0.39025000  0.62941000  0.48846000  1.0 0.6368784774
C  C13  1  0.09821000  0.60975000  0.23916000  1.0 0.6368784774
C  C14  1  0.10905000  0.84821000  0.98846000  1.0 0.6368784774
C  C15  1  0.37059000  0.85905000  0.76084000  1.0 0.6368784774
C  C16  1  0.85975000  0.12059000  0.01154000  1.0 0.6368784774
C  C17  1  0.20290000  0.52300000  0.00890000  1.0 0.5415045973
C  C18  1  0.44400000  0.95290000  0.17990000  1.0 0.5415045973
C  C19  1  0.51410000  0.19400000  0.99110000  1.0 0.5415045973
C  C20  1  0.77300000  0.26410000  0.82010000  1.0 0.5415045973
C  C21  1  0.04710000  0.22700000  0.49110000  1.0 0.5415045973
C  C22  1  0.80600000  0.79710000  0.32010000  1.0 0.5415045973
C  C23  1  0.73590000  0.55600000  0.50890000  1.0 0.5415045973
C  C24  1  0.47700000  0.48590000  0.67990000  1.0 0.5415045973
C  C25  1  0.39750000  0.41370000  0.14100000  1.0 -0.1082814379
C  C26  1  0.50650000  0.14750000  0.48380000  1.0 -0.1082814379
C  C27  1  0.27270000  0.25650000  0.85900000  1.0 -0.1082814379
C  C28  1  0.66370000  0.02270000  0.51620000  1.0 -0.1082814379
C  C29  1  0.85250000  0.33630000  0.35900000  1.0 -0.1082814379
C  C30  1  0.74350000  0.60250000  0.01620000  1.0 -0.1082814379
C  C31  1  0.97730000  0.49350000  0.64100000  1.0 -0.1082814379
C  C32  1  0.58630000  0.72730000  0.98380000  1.0 -0.1082814379
C  C33  1  0.30190000  0.29640000  0.14290000  1.0 -0.062142808
C  C34  1  0.40900000  0.05190000  0.50550000  1.0 -0.062142808
C  C35  1  0.15350000  0.15900000  0.85710000  1.0 -0.062142808
C  C36  1  0.54640000  0.90350000  0.49450000  1.0 -0.062142808
C  C37  1  0.94810000  0.45360000  0.35710000  1.0 -0.062142808
C  C38  1  0.84100000  0.69810000  0.99450000  1.0 -0.062142808
C  C39  1  0.09650000  0.59100000  0.64290000  1.0 -0.062142808
C  C40  1  0.70360000  0.84650000  0.00550000  1.0 -0.062142808
C  C41  1  0.22029000  0.22646000  0.17075000  1.0 -0.0684816083
C  C42  1  0.29954000  0.97029000  0.49383000  1.0 -0.0684816083
C  C43  1  0.05571000  0.04954000  0.82925000  1.0 -0.0684816083
C  C44  1  0.47646000  0.80571000  0.50617000  1.0 -0.0684816083
C  C45  1  0.02971000  0.52354000  0.32925000  1.0 -0.0684816083
C  C46  1  0.95046000  0.77971000  0.00617000  1.0 -0.0684816083
C  C47  1  0.19429000  0.70046000  0.67075000  1.0 -0.0684816083
C  C48  1  0.77354000  0.94429000  0.99383000  1.0 -0.0684816083
C  C49  1  0.11180000  0.09381000  0.17161000  1.0 0.5616653133
C  C50  1  0.19019000  0.86180000  0.51799000  1.0 0.5616653133
C  C51  1  0.92220000  0.94019000  0.82839000  1.0 0.5616653133
C  C52  1  0.34381000  0.67220000  0.48201000  1.0 0.5616653133
C  C53  1  0.13820000  0.65619000  0.32839000  1.0 0.5616653133
C  C54  1  0.05981000  0.88820000  0.98201000  1.0 0.5616653133
C  C55  1  0.32780000  0.80981000  0.67161000  1.0 0.5616653133
C  C56  1  0.90619000  0.07780000  0.01799000  1.0 0.5616653133
C  C57  1  0.23735000  0.27708000  0.19623000  1.0 0.1297619025
C  C58  1  0.29112000  0.98735000  0.46027000  1.0 0.1297619025
C  C59  1  0.08085000  0.04112000  0.80377000  1.0 0.1297619025
C  C60  1  0.52708000  0.83085000  0.53973000  1.0 0.1297619025
C  C61  1  0.01265000  0.47292000  0.30377000  1.0 0.1297619025
C  C62  1  0.95888000  0.76265000  0.03973000  1.0 0.1297619025
C  C63  1  0.16915000  0.70888000  0.69623000  1.0 0.1297619025
C  C64  1  0.72292000  0.91915000  0.96027000  1.0 0.1297619025
C  C65  1  0.15450000  0.21116000  0.22626000  1.0 0.1375912577
C  C66  1  0.17824000  0.90450000  0.44334000  1.0 0.1375912577
C  C67  1  0.98490000  0.92824000  0.77374000  1.0 0.1375912577
C  C68  1  0.46116000  0.73490000  0.55666000  1.0 0.1375912577
C  C69  1  0.09550000  0.53884000  0.27374000  1.0 0.1375912577
C  C70  1  0.07176000  0.84550000  0.05666000  1.0 0.1375912577
C  C71  1  0.26510000  0.82176000  0.72626000  1.0 0.1375912577
C  C72  1  0.78884000  0.01510000  0.94334000  1.0 0.1375912577
C  C73  1  0.45320000  0.79800000  0.05540000  1.0 0.5415045973
C  C74  1  0.64780000  0.20320000  0.15520000  1.0 0.5415045973
C  C75  1  0.74260000  0.39780000  0.94460000  1.0 0.5415045973
C  C76  1  0.04800000  0.49260000  0.84480000  1.0 0.5415045973
C  C77  1  0.79680000  0.95200000  0.44460000  1.0 0.5415045973
C  C78  1  0.60220000  0.54680000  0.34480000  1.0 0.5415045973
C  C79  1  0.50740000  0.35220000  0.55540000  1.0 0.5415045973
C  C80  1  0.20200000  0.25740000  0.65520000  1.0 0.5415045973
C  C81  1  0.10540000  0.13946000  0.25286000  1.0 -0.0797857993
C  C82  1  0.10254000  0.85540000  0.46594000  1.0 -0.0797857993
C  C83  1  0.88660000  0.85254000  0.74714000  1.0 -0.0797857993
C  C84  1  0.38946000  0.63660000  0.53406000  1.0 -0.0797857993
C  C85  1  0.14460000  0.61054000  0.24714000  1.0 -0.0797857993
C  C86  1  0.14746000  0.89460000  0.03406000  1.0 -0.0797857993
C  C87  1  0.36340000  0.89746000  0.75286000  1.0 -0.0797857993
C  C88  1  0.86054000  0.11340000  0.96594000  1.0 -0.0797857993
C  C89  1  0.02140000  0.07651000  0.27611000  1.0 -0.0684816083
C  C90  1  0.99529000  0.77140000  0.44489000  1.0 -0.0684816083
C  C91  1  0.80040000  0.74529000  0.72389000  1.0 -0.0684816083
C  C92  1  0.32651000  0.55040000  0.55511000  1.0 -0.0684816083
C  C93  1  0.22860000  0.67349000  0.22389000  1.0 -0.0684816083
C  C94  1  0.25471000  0.97860000  0.05511000  1.0 -0.0684816083
C  C95  1  0.44960000  0.00471000  0.77611000  1.0 -0.0684816083
C  C96  1  0.92349000  0.19960000  0.94489000  1.0 -0.0684816083
C  C97  1  0.99020000  0.08730000  0.27350000  1.0 -0.149349417
C  C98  1  0.96670000  0.74020000  0.40290000  1.0 -0.149349417
C  C99  1  0.81380000  0.71670000  0.72650000  1.0 -0.149349417
C  C100  1  0.33730000  0.56380000  0.59710000  1.0 -0.149349417
C  C101  1  0.25980000  0.66270000  0.22650000  1.0 -0.149349417
C  C102  1  0.28330000  0.00980000  0.09710000  1.0 -0.149349417
C  C103  1  0.43620000  0.03330000  0.77350000  1.0 -0.149349417
C  C104  1  0.91270000  0.18620000  0.90290000  1.0 -0.149349417
C  C105  1  0.05090000  0.16900000  0.24950000  1.0 0.0594218516
C  C106  1  0.05140000  0.80090000  0.38190000  1.0 0.0594218516
C  C107  1  0.91950000  0.80140000  0.75050000  1.0 0.0594218516
C  C108  1  0.41900000  0.66950000  0.61810000  1.0 0.0594218516
C  C109  1  0.19910000  0.58100000  0.25050000  1.0 0.0594218516
C  C110  1  0.19860000  0.94910000  0.11810000  1.0 0.0594218516
C  C111  1  0.33050000  0.94860000  0.74950000  1.0 0.0594218516
C  C112  1  0.83100000  0.08050000  0.88190000  1.0 0.0594218516
C  C113  1  0.37440000  0.44630000  0.29530000  1.0 0.0728052615
C  C114  1  0.32910000  0.12440000  0.42810000  1.0 0.0728052615
C  C115  1  0.15100000  0.07910000  0.70470000  1.0 0.0728052615
C  C116  1  0.69630000  0.90100000  0.57190000  1.0 0.0728052615
C  C117  1  0.87560000  0.30370000  0.20470000  1.0 0.0728052615
C  C118  1  0.92090000  0.62560000  0.07190000  1.0 0.0728052615
C  C119  1  0.09900000  0.67090000  0.79530000  1.0 0.0728052615
C  C120  1  0.55370000  0.84900000  0.92810000  1.0 0.0728052615
C  C121  1  0.35310000  0.41830000  0.33480000  1.0 -0.1183375442
C  C122  1  0.26830000  0.10310000  0.43480000  1.0 -0.1183375442
C  C123  1  0.08350000  0.01830000  0.66520000  1.0 -0.1183375442
C  C124  1  0.66830000  0.83350000  0.56520000  1.0 -0.1183375442
C  C125  1  0.89690000  0.33170000  0.16520000  1.0 -0.1183375442
C  C126  1  0.98170000  0.64690000  0.06520000  1.0 -0.1183375442
C  C127  1  0.16650000  0.73170000  0.83480000  1.0 -0.1183375442
C  C128  1  0.58170000  0.91650000  0.93480000  1.0 -0.1183375442
C  C129  1  0.30750000  0.40630000  0.35660000  1.0 -0.0547068994
C  C130  1  0.20090000  0.05750000  0.40120000  1.0 -0.0547068994
C  C131  1  0.04970000  0.95090000  0.64340000  1.0 -0.0547068994
C  C132  1  0.65630000  0.79970000  0.59880000  1.0 -0.0547068994
C  C133  1  0.94250000  0.34370000  0.14340000  1.0 -0.0547068994
C  C134  1  0.04910000  0.69250000  0.09880000  1.0 -0.0547068994
C  C135  1  0.20030000  0.79910000  0.85660000  1.0 -0.0547068994
C  C136  1  0.59370000  0.95030000  0.90120000  1.0 -0.0547068994
C  C137  1  0.29100000  0.42930000  0.34090000  1.0 -0.0684816083
C  C138  1  0.20010000  0.04100000  0.36170000  1.0 -0.0684816083
C  C139  1  0.08840000  0.95010000  0.65910000  1.0 -0.0684816083
C  C140  1  0.67930000  0.83840000  0.63830000  1.0 -0.0684816083
C  C141  1  0.95900000  0.32070000  0.15910000  1.0 -0.0684816083
C  C142  1  0.04990000  0.70900000  0.13830000  1.0 -0.0684816083
C  C143  1  0.16160000  0.79990000  0.84090000  1.0 -0.0684816083
C  C144  1  0.57070000  0.91160000  0.86170000  1.0 -0.0684816083
C  C145  1  0.32470000  0.46750000  0.30260000  1.0 0.1214922448
C  C146  1  0.27210000  0.07470000  0.35720000  1.0 0.1214922448
C  C147  1  0.16490000  0.02210000  0.69740000  1.0 0.1214922448
C  C148  1  0.71750000  0.91490000  0.64280000  1.0 0.1214922448
C  C149  1  0.92530000  0.28250000  0.19740000  1.0 0.1214922448
C  C150  1  0.97790000  0.67530000  0.14280000  1.0 0.1214922448
C  C151  1  0.08510000  0.72790000  0.80260000  1.0 0.1214922448
C  C152  1  0.53250000  0.83510000  0.85720000  1.0 0.1214922448
C  C153  1  0.31410000  0.49690000  0.28180000  1.0 0.1297619025
C  C154  1  0.28230000  0.06410000  0.31720000  1.0 0.1297619025
C  C155  1  0.21510000  0.03230000  0.71820000  1.0 0.1297619025
C  C156  1  0.74690000  0.96510000  0.68280000  1.0 0.1297619025
C  C157  1  0.93590000  0.25310000  0.21820000  1.0 0.1297619025
C  C158  1  0.96770000  0.68590000  0.18280000  1.0 0.1297619025
C  C159  1  0.03490000  0.71770000  0.78180000  1.0 0.1297619025
C  C160  1  0.50310000  0.78490000  0.81720000  1.0 0.1297619025
C  C161  1  0.35820000  0.57532000  0.30052000  1.0 -0.0684816083
C  C162  1  0.30768000  0.10820000  0.28288000  1.0 -0.0684816083
C  C163  1  0.27480000  0.05768000  0.69948000  1.0 -0.0684816083
C  C164  1  0.82532000  0.02480000  0.71712000  1.0 -0.0684816083
C  C165  1  0.89180000  0.17468000  0.19948000  1.0 -0.0684816083
C  C166  1  0.94232000  0.64180000  0.21712000  1.0 -0.0684816083
C  C167  1  0.97520000  0.69232000  0.80052000  1.0 -0.0684816083
C  C168  1  0.42468000  0.72520000  0.78288000  1.0 -0.0684816083
C  C169  1  0.33620000  0.58919000  0.27779000  1.0 -0.0797857993
C  C170  1  0.30841000  0.08620000  0.24701000  1.0 -0.0797857993
C  C171  1  0.31140000  0.05841000  0.72221000  1.0 -0.0797857993
C  C172  1  0.83919000  0.06140000  0.75299000  1.0 -0.0797857993
C  C173  1  0.91380000  0.16081000  0.22221000  1.0 -0.0797857993
C  C174  1  0.94159000  0.66380000  0.25299000  1.0 -0.0797857993
C  C175  1  0.93860000  0.69159000  0.77779000  1.0 -0.0797857993
C  C176  1  0.41081000  0.68860000  0.74701000  1.0 -0.0797857993
C  C177  1  0.27535000  0.52901000  0.23776000  1.0 -0.149349417
C  C178  1  0.28759000  0.02535000  0.24634000  1.0 -0.149349417
C  C179  1  0.29125000  0.03759000  0.76224000  1.0 -0.149349417
C  C180  1  0.77901000  0.04125000  0.75366000  1.0 -0.149349417
C  C181  1  0.97465000  0.22099000  0.26224000  1.0 -0.149349417
C  C182  1  0.96241000  0.72465000  0.25366000  1.0 -0.149349417
C  C183  1  0.95875000  0.71241000  0.73776000  1.0 -0.149349417
C  C184  1  0.47099000  0.70875000  0.74634000  1.0 -0.149349417
C  C185  1  0.24150000  0.45970000  0.22000000  1.0 0.0838359762
C  C186  1  0.27150000  0.99150000  0.28180000  1.0 0.0838359762
C  C187  1  0.23970000  0.02150000  0.78000000  1.0 0.0838359762
C  C188  1  0.70970000  0.98970000  0.71820000  1.0 0.0838359762
C  C189  1  0.00850000  0.29030000  0.28000000  1.0 0.0838359762
C  C190  1  0.97850000  0.75850000  0.21820000  1.0 0.0838359762
C  C191  1  0.01030000  0.72850000  0.72000000  1.0 0.0838359762
C  C192  1  0.54030000  0.76030000  0.78180000  1.0 0.0838359762
C  C193  1  0.44140000  0.65652000  0.34212000  1.0 0.5543450583
C  C194  1  0.34928000  0.19140000  0.28488000  1.0 0.5543450583
C  C195  1  0.31440000  0.09928000  0.65788000  1.0 0.5543450583
C  C196  1  0.90652000  0.06440000  0.71512000  1.0 0.5543450583
C  C197  1  0.80860000  0.09348000  0.15788000  1.0 0.5543450583
C  C198  1  0.90072000  0.55860000  0.21512000  1.0 0.5543450583
C  C199  1  0.93560000  0.65072000  0.84212000  1.0 0.5543450583
C  C200  1  0.34348000  0.68560000  0.78488000  1.0 0.5543450583
C  C201  1  0.22530000  0.39870000  0.36440000  1.0 0.5616653133
C  C202  1  0.11090000  0.97530000  0.32660000  1.0 0.5616653133
C  C203  1  0.03430000  0.86090000  0.63560000  1.0 0.5616653133
C  C204  1  0.64870000  0.78430000  0.67340000  1.0 0.5616653133
C  C205  1  0.02470000  0.35130000  0.13560000  1.0 0.5616653133
C  C206  1  0.13910000  0.77470000  0.17340000  1.0 0.5616653133
C  C207  1  0.21570000  0.88910000  0.86440000  1.0 0.5616653133
C  C208  1  0.60130000  0.96570000  0.82660000  1.0 0.5616653133
C  C209  1  0.55280000  0.70640000  0.23080000  1.0 0.0527514015
C  C210  1  0.57200000  0.30280000  0.34640000  1.0 0.0527514015
C  C211  1  0.47560000  0.32200000  0.76920000  1.0 0.0527514015
C  C212  1  0.95640000  0.22560000  0.65360000  1.0 0.0527514015
C  C213  1  0.69720000  0.04360000  0.26920000  1.0 0.0527514015
C  C214  1  0.67800000  0.44720000  0.15360000  1.0 0.0527514015
C  C215  1  0.77440000  0.42800000  0.73080000  1.0 0.0527514015
C  C216  1  0.29360000  0.52440000  0.84640000  1.0 0.0527514015
C  C217  1  0.61780000  0.80270000  0.22750000  1.0 -0.149349417
C  C218  1  0.64030000  0.36780000  0.31510000  1.0 -0.149349417
C  C219  1  0.57520000  0.39030000  0.77250000  1.0 -0.149349417
C  C220  1  0.05270000  0.32520000  0.68490000  1.0 -0.149349417
C  C221  1  0.63220000  0.94730000  0.27250000  1.0 -0.149349417
C  C222  1  0.60970000  0.38220000  0.18490000  1.0 -0.149349417
C  C223  1  0.67480000  0.35970000  0.72750000  1.0 -0.149349417
C  C224  1  0.19730000  0.42480000  0.81510000  1.0 -0.149349417
C  C225  1  0.58180000  0.79090000  0.19270000  1.0 -0.062142808
C  C226  1  0.63910000  0.33180000  0.29090000  1.0 -0.062142808
C  C227  1  0.59820000  0.38910000  0.80730000  1.0 -0.062142808
C  C228  1  0.04090000  0.34820000  0.70910000  1.0 -0.062142808
C  C229  1  0.66820000  0.95910000  0.30730000  1.0 -0.062142808
C  C230  1  0.61090000  0.41820000  0.20910000  1.0 -0.062142808
C  C231  1  0.65180000  0.36090000  0.69270000  1.0 -0.062142808
C  C232  1  0.20910000  0.40180000  0.79090000  1.0 -0.062142808
C  C233  1  0.48448000  0.68602000  0.16170000  1.0 -0.0898801591
C  C234  1  0.57278000  0.23448000  0.29846000  1.0 -0.0898801591
C  C235  1  0.52432000  0.32278000  0.83830000  1.0 -0.0898801591
C  C236  1  0.93602000  0.27432000  0.70154000  1.0 -0.0898801591
C  C237  1  0.76552000  0.06398000  0.33830000  1.0 -0.0898801591
C  C238  1  0.67722000  0.51552000  0.20154000  1.0 -0.0898801591
C  C239  1  0.72568000  0.42722000  0.66170000  1.0 -0.0898801591
C  C240  1  0.31398000  0.47568000  0.79846000  1.0 -0.0898801591
C  C241  1  0.43120000  0.59751000  0.16631000  1.0 0.1480713505
C  C242  1  0.51489000  0.18120000  0.33369000  1.0 0.1480713505
C  C243  1  0.43120000  0.26489000  0.83369000  1.0 0.1480713505
C  C244  1  0.84751000  0.18120000  0.66631000  1.0 0.1480713505
C  C245  1  0.81880000  0.15249000  0.33369000  1.0 0.1480713505
C  C246  1  0.73511000  0.56880000  0.16631000  1.0 0.1480713505
C  C247  1  0.81880000  0.48511000  0.66631000  1.0 0.1480713505
C  C248  1  0.40249000  0.56880000  0.83369000  1.0 0.1480713505
C  C249  1  0.33589000  0.48591000  0.13540000  1.0 0.1375912577
C  C250  1  0.45049000  0.08589000  0.34998000  1.0 0.1375912577
C  C251  1  0.35051000  0.20049000  0.86460000  1.0 0.1375912577
C  C252  1  0.73591000  0.10051000  0.65002000  1.0 0.1375912577
C  C253  1  0.91411000  0.26409000  0.36460000  1.0 0.1375912577
C  C254  1  0.79951000  0.66411000  0.15002000  1.0 0.1375912577
C  C255  1  0.89949000  0.54951000  0.63540000  1.0 0.1375912577
C  C256  1  0.51409000  0.64949000  0.84998000  1.0 0.1375912577
C  C257  1  0.34046000  0.48502000  0.09388000  1.0 -0.0797857993
C  C258  1  0.49658000  0.09046000  0.35544000  1.0 -0.0797857993
C  C259  1  0.39114000  0.24658000  0.90612000  1.0 -0.0797857993
C  C260  1  0.73502000  0.14114000  0.64456000  1.0 -0.0797857993
C  C261  1  0.90954000  0.26498000  0.40612000  1.0 -0.0797857993
C  C262  1  0.75342000  0.65954000  0.14456000  1.0 -0.0797857993
C  C263  1  0.85886000  0.50342000  0.59388000  1.0 -0.0797857993
C  C264  1  0.51498000  0.60886000  0.85544000  1.0 -0.0797857993
C  C265  1  0.25118000  0.37705000  0.06983000  1.0 -0.043412717
C  C266  1  0.43135000  0.00118000  0.37413000  1.0 -0.043412717
C  C267  1  0.30722000  0.18135000  0.93017000  1.0 -0.043412717
C  C268  1  0.62705000  0.05722000  0.62587000  1.0 -0.043412717
C  C269  1  0.99882000  0.37295000  0.43017000  1.0 -0.043412717
C  C270  1  0.81865000  0.74882000  0.12587000  1.0 -0.043412717
C  C271  1  0.94278000  0.56865000  0.56983000  1.0 -0.043412717
C  C272  1  0.62295000  0.69278000  0.87413000  1.0 -0.043412717
C  C273  1  0.15476000  0.26846000  0.08682000  1.0 -0.1183375442
C  C274  1  0.31794000  0.90476000  0.38630000  1.0 -0.1183375442
C  C275  1  0.18164000  0.06794000  0.91318000  1.0 -0.1183375442
C  C276  1  0.51846000  0.93164000  0.61370000  1.0 -0.1183375442
C  C277  1  0.09524000  0.48154000  0.41318000  1.0 -0.1183375442
C  C278  1  0.93206000  0.84524000  0.11370000  1.0 -0.1183375442
C  C279  1  0.06836000  0.68206000  0.58682000  1.0 -0.1183375442
C  C280  1  0.73154000  0.81836000  0.88630000  1.0 -0.1183375442
C  C281  1  0.15582000  0.27580000  0.12822000  1.0 0.0728052615
C  C282  1  0.27760000  0.90582000  0.38002000  1.0 0.0728052615
C  C283  1  0.14758000  0.02760000  0.87178000  1.0 0.0728052615
C  C284  1  0.52580000  0.89758000  0.61998000  1.0 0.0728052615
C  C285  1  0.09418000  0.47420000  0.37178000  1.0 0.0728052615
C  C286  1  0.97240000  0.84418000  0.11998000  1.0 0.0728052615
C  C287  1  0.10242000  0.72240000  0.62822000  1.0 0.0728052615
C  C288  1  0.72420000  0.85242000  0.88002000  1.0 0.0728052615
C  C289  1  0.44360000  0.60162000  0.07402000  1.0 0.5665905941
C  C290  1  0.61958000  0.19360000  0.34198000  1.0 0.5665905941
C  C291  1  0.52760000  0.36958000  0.92598000  1.0 0.5665905941
C  C292  1  0.85162000  0.27760000  0.65802000  1.0 0.5665905941
C  C293  1  0.80640000  0.14838000  0.42598000  1.0 0.5665905941
C  C294  1  0.63042000  0.55640000  0.15802000  1.0 0.5665905941
C  C295  1  0.72240000  0.38042000  0.57402000  1.0 0.5665905941
C  C296  1  0.39838000  0.47240000  0.84198000  1.0 0.5665905941
C  C297  1  0.43833000  0.67012000  0.12725000  1.0 0.6473163161
C  C298  1  0.56108000  0.18833000  0.26821000  1.0 0.6473163161
C  C299  1  0.54287000  0.31108000  0.87275000  1.0 0.6473163161
C  C300  1  0.92012000  0.29287000  0.73179000  1.0 0.6473163161
C  C301  1  0.81167000  0.07988000  0.37275000  1.0 0.6473163161
C  C302  1  0.68892000  0.56167000  0.23179000  1.0 0.6473163161
C  C303  1  0.70713000  0.43892000  0.62725000  1.0 0.6473163161
C  C304  1  0.32988000  0.45713000  0.76821000  1.0 0.6473163161
C  C305  1  0.28150000  0.64780000  0.90630000  1.0 0.0594218516
C  C306  1  0.62520000  0.03150000  0.13370000  1.0 0.0594218516
C  C307  1  0.74150000  0.37520000  0.09370000  1.0 0.0594218516
C  C308  1  0.89780000  0.49150000  0.86630000  1.0 0.0594218516
C  C309  1  0.96850000  0.10220000  0.59370000  1.0 0.0594218516
C  C310  1  0.62480000  0.71850000  0.36630000  1.0 0.0594218516
C  C311  1  0.50850000  0.37480000  0.40630000  1.0 0.0594218516
C  C312  1  0.35220000  0.25850000  0.63370000  1.0 0.0594218516
C  C313  1  0.23890000  0.57230000  0.90160000  1.0 -0.1366177965
C  C314  1  0.58730000  0.98890000  0.16660000  1.0 -0.1366177965
C  C315  1  0.67070000  0.33730000  0.09840000  1.0 -0.1366177965
C  C316  1  0.82230000  0.42070000  0.83340000  1.0 -0.1366177965
C  C317  1  0.01110000  0.17770000  0.59840000  1.0 -0.1366177965
C  C318  1  0.66270000  0.76110000  0.33340000  1.0 -0.1366177965
C  C319  1  0.57930000  0.41270000  0.40160000  1.0 -0.1366177965
C  C320  1  0.42770000  0.32930000  0.66666667  1.0 -0.1366177965
C  C321  1  0.22940000  0.54880000  0.93800000  1.0 -0.1027720952
C  C322  1  0.54140000  0.97940000  0.18060000  1.0 -0.1027720952
C  C323  1  0.61080000  0.29140000  0.06200000  1.0 -0.1027720952
C  C324  1  0.79880000  0.36080000  0.81940000  1.0 -0.1027720952
C  C325  1  0.02060000  0.20120000  0.56200000  1.0 -0.1027720952
C  C326  1  0.70860000  0.77060000  0.31940000  1.0 -0.1027720952
C  C327  1  0.63920000  0.45860000  0.43800000  1.0 -0.1027720952
C  C328  1  0.45120000  0.38920000  0.68060000  1.0 -0.1027720952
C  C329  1  0.24100000  0.58180000  0.97540000  1.0 -0.1082814379
C  C330  1  0.51560000  0.99100000  0.15920000  1.0 -0.1082814379
C  C331  1  0.60640000  0.26560000  0.02460000  1.0 -0.1082814379
C  C332  1  0.83180000  0.35640000  0.84080000  1.0 -0.1082814379
C  C333  1  0.00900000  0.16820000  0.52460000  1.0 -0.1082814379
C  C334  1  0.73440000  0.75900000  0.34080000  1.0 -0.1082814379
C  C335  1  0.64360000  0.48440000  0.47540000  1.0 -0.1082814379
C  C336  1  0.41820000  0.39360000  0.65920000  1.0 -0.1082814379
C  C337  1  0.27460000  0.65310000  0.97970000  1.0 0.1297619025
C  C338  1  0.54490000  0.02460000  0.12150000  1.0 0.1297619025
C  C339  1  0.67340000  0.29490000  0.02030000  1.0 0.1297619025
C  C340  1  0.90310000  0.42340000  0.87850000  1.0 0.1297619025
C  C341  1  0.97540000  0.09690000  0.52030000  1.0 0.1297619025
C  C342  1  0.70510000  0.72540000  0.37850000  1.0 0.1297619025
C  C343  1  0.57660000  0.45510000  0.47970000  1.0 0.1297619025
C  C344  1  0.34690000  0.32660000  0.62150000  1.0 0.1297619025
C  C345  1  0.27860000  0.68150000  0.01750000  1.0 0.1480713505
C  C346  1  0.51110000  0.02860000  0.09710000  1.0 0.1480713505
C  C347  1  0.66400000  0.26110000  0.98250000  1.0 0.1480713505
C  C348  1  0.93150000  0.41400000  0.90290000  1.0 0.1480713505
C  C349  1  0.97140000  0.06850000  0.48250000  1.0 0.1480713505
C  C350  1  0.73890000  0.72140000  0.40290000  1.0 0.1480713505
C  C351  1  0.58600000  0.48890000  0.51750000  1.0 0.1480713505
C  C352  1  0.31850000  0.33600000  0.59710000  1.0 0.1480713505
C  C353  1  0.35170000  0.73730000  0.05080000  1.0 -0.0898801591
C  C354  1  0.55090000  0.10170000  0.11440000  1.0 -0.0898801591
C  C355  1  0.68650000  0.30090000  0.94920000  1.0 -0.0898801591
C  C356  1  0.98730000  0.43650000  0.88560000  1.0 -0.0898801591
C  C357  1  0.89830000  0.01270000  0.44920000  1.0 -0.0898801591
C  C358  1  0.69910000  0.64830000  0.38560000  1.0 -0.0898801591
C  C359  1  0.56350000  0.44910000  0.55080000  1.0 -0.0898801591
C  C360  1  0.26270000  0.31350000  0.61440000  1.0 -0.0898801591
C  C361  1  0.32610000  0.73610000  0.08940000  1.0 -0.1082814379
C  C362  1  0.48670000  0.07610000  0.09000000  1.0 -0.1082814379
C  C363  1  0.64670000  0.23670000  0.91060000  1.0 -0.1082814379
C  C364  1  0.98610000  0.39670000  0.91000000  1.0 -0.1082814379
C  C365  1  0.92390000  0.01390000  0.41060000  1.0 -0.1082814379
C  C366  1  0.76330000  0.67390000  0.41000000  1.0 -0.1082814379
C  C367  1  0.60330000  0.51330000  0.58940000  1.0 -0.1082814379
C  C368  1  0.26390000  0.35330000  0.59000000  1.0 -0.1082814379
C  C369  1  0.24120000  0.69040000  0.09100000  1.0 -0.149349417
C  C370  1  0.40020000  0.99120000  0.05080000  1.0 -0.149349417
C  C371  1  0.59940000  0.15020000  0.90900000  1.0 -0.149349417
C  C372  1  0.94040000  0.34940000  0.94920000  1.0 -0.149349417
C  C373  1  0.00880000  0.05960000  0.40900000  1.0 -0.149349417
C  C374  1  0.84980000  0.75880000  0.44920000  1.0 -0.149349417
C  C375  1  0.65060000  0.59980000  0.59100000  1.0 -0.149349417
C  C376  1  0.30960000  0.40060000  0.55080000  1.0 -0.149349417
C  C377  1  0.20400000  0.66680000  0.05100000  1.0 0.0728052615
C  C378  1  0.40300000  0.95400000  0.03720000  1.0 0.0728052615
C  C379  1  0.61580000  0.15300000  0.94900000  1.0 0.0728052615
C  C380  1  0.91680000  0.36580000  0.96280000  1.0 0.0728052615
C  C381  1  0.04600000  0.08320000  0.44900000  1.0 0.0728052615
C  C382  1  0.84700000  0.79600000  0.46280000  1.0 0.0728052615
C  C383  1  0.63420000  0.59700000  0.55100000  1.0 0.0728052615
C  C384  1  0.33320000  0.38420000  0.53720000  1.0 0.0728052615
N  N1  1  0.32999000  0.39113000  0.19372000  1.0 -0.2355774561
N  N2  1  0.38627000  0.07999000  0.43886000  1.0 -0.2355774561
N  N3  1  0.19741000  0.13627000  0.80628000  1.0 -0.2355774561
N  N4  1  0.64113000  0.94741000  0.56114000  1.0 -0.230835064
N  N5  1  0.92001000  0.35887000  0.30628000  1.0 -0.2355774561
N  N6  1  0.86373000  0.67001000  0.06114000  1.0 -0.2355774561
N  N7  1  0.05259000  0.61373000  0.69372000  1.0 -0.2355774561
N  N8  1  0.60887000  0.80259000  0.93886000  1.0 -0.2355774561
N  N9  1  0.13281000  0.23100000  0.22621000  1.0 -0.230835064
N  N10  1  0.15660000  0.88281000  0.40181000  1.0 -0.230835064
N  N11  1  0.00479000  0.90660000  0.77379000  1.0 -0.230835064
N  N12  1  0.48100000  0.75479000  0.59819000  1.0 -0.230835064
N  N13  1  0.11719000  0.51900000  0.27379000  1.0 -0.230835064
N  N14  1  0.09340000  0.86719000  0.09819000  1.0 -0.230835064
N  N15  1  0.24521000  0.84340000  0.72621000  1.0 -0.230835064
N  N16  1  0.76900000  0.99521000  0.90181000  1.0 -0.230835064
N  N17  1  0.35948000  0.46899000  0.27907000  1.0 -0.230835064
N  N18  1  0.33041000  0.10948000  0.39049000  1.0 -0.230835064
N  N19  1  0.18992000  0.08041000  0.72093000  1.0 -0.230835064
N  N20  1  0.71899000  0.93992000  0.60951000  1.0 -0.230835064
N  N21  1  0.89052000  0.28101000  0.22093000  1.0 -0.230835064
N  N22  1  0.91959000  0.64052000  0.10951000  1.0 -0.230835064
N  N23  1  0.06008000  0.66959000  0.77907000  1.0 -0.230835064
N  N24  1  0.53101000  0.81008000  0.89049000  1.0 -0.230835064
N  N25  1  0.26062000  0.44392000  0.24134000  1.0 -0.2355774561
N  N26  1  0.26928000  0.01062000  0.31670000  1.0 -0.2355774561
N  N27  1  0.20258000  0.01928000  0.75866000  1.0 -0.2355774561
N  N28  1  0.69392000  0.95258000  0.68330000  1.0 -0.2355774561
N  N29  1  0.98938000  0.30608000  0.25866000  1.0 -0.230835064
N  N30  1  0.98072000  0.73938000  0.18330000  1.0 -0.2355774561
N  N31  1  0.04742000  0.73072000  0.74134000  1.0 -0.2355774561
N  N32  1  0.55608000  0.79742000  0.81670000  1.0 -0.2355774561
N  N33  1  0.46034000  0.60481000  0.20135000  1.0 -0.2355774561
N  N34  1  0.50899000  0.21034000  0.35553000  1.0 -0.230835064
N  N35  1  0.40346000  0.25899000  0.79865000  1.0 -0.230835064
N  N36  1  0.85481000  0.15346000  0.64447000  1.0 -0.230835064
N  N37  1  0.78966000  0.14519000  0.29865000  1.0 -0.230835064
N  N38  1  0.74101000  0.53966000  0.14447000  1.0 -0.2355774561
N  N39  1  0.84654000  0.49101000  0.70135000  1.0 -0.230835064
N  N40  1  0.39519000  0.59654000  0.85553000  1.0 -0.2355774561
N  N41  1  0.24497000  0.38219000  0.15256000  1.0 -0.220133245
N  N42  1  0.34241000  0.99497000  0.36278000  1.0 -0.220133245
N  N43  1  0.22963000  0.09241000  0.84744000  1.0 -0.220133245
N  N44  1  0.63219000  0.97963000  0.63722000  1.0 -0.220133245
N  N45  1  0.00503000  0.36781000  0.34744000  1.0 -0.220133245
N  N46  1  0.90759000  0.75503000  0.13722000  1.0 -0.220133245
N  N47  1  0.02037000  0.65759000  0.65256000  1.0 -0.220133245
N  N48  1  0.61781000  0.77037000  0.86278000  1.0 -0.220133245
N  N49  1  0.21270000  0.65530000  0.01560000  1.0 -0.2501655202
N  N50  1  0.44710000  0.96270000  0.05740000  1.0 -0.2501655202
N  N51  1  0.63970000  0.19710000  0.98440000  1.0 -0.2501655202
N  N52  1  0.90530000  0.38970000  0.94260000  1.0 -0.2501655202
N  N53  1  0.03730000  0.09470000  0.48440000  1.0 -0.2501655202
N  N54  1  0.80290000  0.78730000  0.44260000  1.0 -0.2501655202
N  N55  1  0.61030000  0.55290000  0.51560000  1.0 -0.2501655202
N  N56  1  0.34470000  0.36030000  0.55740000  1.0 -0.2501655202
N  N57  1  0.30420000  0.69790000  0.93790000  1.0 -0.2959849369
N  N58  1  0.61630000  0.05420000  0.10630000  1.0 -0.2959849369
N  N59  1  0.76000000  0.36630000  0.06210000  1.0 -0.2959849369
N  N60  1  0.94790000  0.51000000  0.89370000  1.0 -0.2959849369
N  N61  1  0.94580000  0.05210000  0.56210000  1.0 -0.2959849369
N  N62  1  0.63370000  0.69580000  0.39370000  1.0 -0.2959849369
N  N63  1  0.49000000  0.38370000  0.43790000  1.0 -0.2959849369
N  N64  1  0.30210000  0.24000000  0.60630000  1.0 -0.2959849369
O  O1  1  0.14089000  0.08455000  0.17204000  1.0 -0.528964838
O  O2  1  0.21885000  0.89089000  0.55634000  1.0 -0.528964838
O  O3  1  0.91251000  0.96885000  0.82796000  1.0 -0.528964838
O  O4  1  0.33455000  0.66251000  0.44366000  1.0 -0.528964838
O  O5  1  0.10911000  0.66545000  0.32796000  1.0 -0.528964838
O  O6  1  0.03115000  0.85911000  0.94366000  1.0 -0.528964838
O  O7  1  0.33749000  0.78115000  0.67204000  1.0 -0.528964838
O  O8  1  0.91545000  0.08749000  0.05634000  1.0 -0.528964838
O  O9  1  0.00484000  0.00716000  0.17180000  1.0 -0.528964838
O  O10  1  0.08304000  0.75484000  0.49768000  1.0 -0.528964838
O  O11  1  0.83536000  0.83304000  0.82820000  1.0 -0.528964838
O  O12  1  0.25716000  0.58536000  0.50232000  1.0 -0.528964838
O  O13  1  0.24516000  0.74284000  0.32820000  1.0 -0.528964838
O  O14  1  0.16696000  0.99516000  0.00232000  1.0 -0.528964838
O  O15  1  0.41464000  0.91696000  0.67180000  1.0 -0.528964838
O  O16  1  0.99284000  0.16464000  0.99768000  1.0 -0.528964838
O  O17  1  0.26559000  0.24170000  0.25729000  1.0 -0.662361158
O  O18  1  0.25830000  0.01559000  0.52389000  1.0 -0.662361158
O  O19  1  0.98441000  0.00830000  0.74271000  1.0 -0.662361158
O  O20  1  0.49170000  0.73441000  0.47611000  1.0 -0.662361158
O  O21  1  0.98441000  0.50830000  0.24271000  1.0 -0.662361158
O  O22  1  0.99170000  0.73441000  0.97611000  1.0 -0.662361158
O  O23  1  0.26559000  0.74170000  0.75729000  1.0 -0.662361158
O  O24  1  0.75830000  0.01559000  0.02389000  1.0 -0.662361158
O  O25  1  0.07958000  0.04760000  0.27198000  1.0 -0.6079380419
O  O26  1  0.05760000  0.82958000  0.53198000  1.0 -0.6079380419
O  O27  1  0.77562000  0.80760000  0.72802000  1.0 -0.6079380419
O  O28  1  0.29760000  0.52562000  0.46802000  1.0 -0.6079380419
O  O29  1  0.17042000  0.70240000  0.22802000  1.0 -0.6079380419
O  O30  1  0.19240000  0.92042000  0.96802000  1.0 -0.6079380419
O  O31  1  0.47438000  0.94240000  0.77198000  1.0 -0.6079380419
O  O32  1  0.95240000  0.22438000  0.03198000  1.0 -0.6079380419
O  O33  1  0.25353000  0.42533000  0.40366000  1.0 -0.6230259494
O  O34  1  0.09987000  0.00353000  0.32820000  1.0 -0.6230259494
O  O35  1  0.02167000  0.84987000  0.59634000  1.0 -0.6230259494
O  O36  1  0.67533000  0.77167000  0.67180000  1.0 -0.6230259494
O  O37  1  0.99647000  0.32467000  0.09634000  1.0 -0.6230259494
O  O38  1  0.15013000  0.74647000  0.17180000  1.0 -0.6230259494
O  O39  1  0.22833000  0.90013000  0.90366000  1.0 -0.6230259494
O  O40  1  0.57467000  0.97833000  0.82820000  1.0 -0.6230259494
O  O41  1  0.14319000  0.34327000  0.34626000  1.0 -0.5428348338
O  O42  1  0.04693000  0.89319000  0.29992000  1.0 -0.5428348338
O  O43  1  0.99701000  0.79693000  0.65374000  1.0 -0.5428348338
O  O44  1  0.59327000  0.74701000  0.70008000  1.0 -0.5428348338
O  O45  1  0.10681000  0.40673000  0.15374000  1.0 -0.5428348338
O  O46  1  0.20307000  0.85681000  0.20008000  1.0 -0.5428348338
O  O47  1  0.25299000  0.95307000  0.84626000  1.0 -0.5428348338
O  O48  1  0.65673000  0.00299000  0.79992000  1.0 -0.5428348338
O  O49  1  0.40702000  0.64402000  0.37144000  1.0 -0.5790623557
O  O50  1  0.28558000  0.15702000  0.26300000  1.0 -0.5790623557
O  O51  1  0.27258000  0.03558000  0.62856000  1.0 -0.5790623557
O  O52  1  0.89402000  0.02258000  0.73700000  1.0 -0.5790623557
O  O53  1  0.84298000  0.10598000  0.12856000  1.0 -0.5790623557
O  O54  1  0.96442000  0.59298000  0.23700000  1.0 -0.5790623557
O  O55  1  0.97742000  0.71442000  0.87144000  1.0 -0.5790623557
O  O56  1  0.35598000  0.72742000  0.76300000  1.0 -0.5790623557
O  O57  1  0.54862000  0.74199000  0.34581000  1.0 -0.5746595394
O  O58  1  0.45281000  0.29862000  0.30663000  1.0 -0.5746595394
O  O59  1  0.39618000  0.20281000  0.65419000  1.0 -0.5746595394
O  O60  1  0.99199000  0.14618000  0.69337000  1.0 -0.5746595394
O  O61  1  0.70138000  0.00801000  0.15419000  1.0 -0.5746595394
O  O62  1  0.79719000  0.45138000  0.19337000  1.0 -0.5746595394
O  O63  1  0.85382000  0.54719000  0.84581000  1.0 -0.5746595394
O  O64  1  0.25801000  0.60382000  0.80663000  1.0 -0.5746595394
O  O65  1  0.40876000  0.58533000  0.03989000  1.0 -0.5428348338
O  O66  1  0.61887000  0.15876000  0.32343000  1.0 -0.5428348338
O  O67  1  0.54544000  0.36887000  0.96011000  1.0 -0.5428348338
O  O68  1  0.83533000  0.29544000  0.67657000  1.0 -0.5428348338
O  O69  1  0.84124000  0.16467000  0.46011000  1.0 -0.5428348338
O  O70  1  0.63113000  0.59124000  0.17657000  1.0 -0.5428348338
O  O71  1  0.70456000  0.38113000  0.53989000  1.0 -0.5428348338
O  O72  1  0.41467000  0.45456000  0.82343000  1.0 -0.5428348338
O  O73  1  0.55519000  0.70556000  0.09295000  1.0 -0.5428348338
O  O74  1  0.71224000  0.30519000  0.34963000  1.0 -0.5428348338
O  O75  1  0.61261000  0.46224000  0.90705000  1.0 -0.5428348338
O  O76  1  0.95556000  0.36261000  0.65037000  1.0 -0.5428348338
O  O77  1  0.69481000  0.04444000  0.40705000  1.0 -0.5428348338
O  O78  1  0.53776000  0.44481000  0.15037000  1.0 -0.5428348338
O  O79  1  0.63739000  0.28776000  0.59295000  1.0 -0.5428348338
O  O80  1  0.29444000  0.38739000  0.84963000  1.0 -0.5428348338
O  O81  1  0.32601000  0.56115000  0.11176000  1.0 -0.6079380419
O  O82  1  0.46425000  0.07601000  0.26486000  1.0 -0.6079380419
O  O83  1  0.44939000  0.21425000  0.88824000  1.0 -0.6079380419
O  O84  1  0.81115000  0.19939000  0.73514000  1.0 -0.6079380419
O  O85  1  0.92399000  0.18885000  0.38824000  1.0 -0.6079380419
O  O86  1  0.78575000  0.67399000  0.23514000  1.0 -0.6079380419
O  O87  1  0.80061000  0.53575000  0.61176000  1.0 -0.6079380419
O  O88  1  0.43885000  0.55061000  0.76486000  1.0 -0.6079380419
O  O89  1  0.51515000  0.76838000  0.11873000  1.0 -0.6230259494
O  O90  1  0.64642000  0.26515000  0.24677000  1.0 -0.6230259494
O  O91  1  0.64965000  0.39642000  0.88127000  1.0 -0.6230259494
O  O92  1  0.01838000  0.39965000  0.75323000  1.0 -0.6230259494
O  O93  1  0.73485000  0.98162000  0.38127000  1.0 -0.6230259494
O  O94  1  0.60358000  0.48485000  0.25323000  1.0 -0.6230259494
O  O95  1  0.60035000  0.35358000  0.61873000  1.0 -0.6230259494
O  O96  1  0.23162000  0.35035000  0.74677000  1.0 -0.6230259494
O  O97  1  0.71171000  0.91493000  0.08764000  1.0 -0.7809927296
O  O98  1  0.87407000  0.46171000  0.29678000  1.0 -0.7809927296
O  O99  1  0.82729000  0.62407000  0.91236000  1.0 -0.7809927296
O  O100  1  0.16493000  0.57729000  0.70322000  1.0 -0.7809927296
O  O101  1  0.53829000  0.83507000  0.41236000  1.0 -0.7809927296
O  O102  1  0.37593000  0.28829000  0.20322000  1.0 -0.7809927296
O  O103  1  0.42271000  0.12593000  0.58764000  1.0 -0.7809927296
O  O104  1  0.08507000  0.17271000  0.79678000  1.0 -0.7809927296
O  O105  1  0.50241000  0.74907000  0.02628000  1.0 -0.7882337104
O  O106  1  0.72613000  0.25241000  0.25334000  1.0 -0.7882337104
O  O107  1  0.72279000  0.47613000  0.97372000  1.0 -0.7882337104
O  O108  1  0.99907000  0.47279000  0.74666000  1.0 -0.7882337104
O  O109  1  0.74759000  0.00093000  0.47372000  1.0 -0.7882337104
O  O110  1  0.52387000  0.49759000  0.24666000  1.0 -0.7882337104
O  O111  1  0.52721000  0.27387000  0.52628000  1.0 -0.7882337104
O  O112  1  0.25093000  0.27721000  0.75334000  1.0 -0.7882337104
O  O113  1  0.74574000  0.07930000  0.06884000  1.0 -0.8096501958
O  O114  1  0.92690000  0.49574000  0.16644000  1.0 -0.8096501958
O  O115  1  0.01046000  0.67690000  0.93116000  1.0 -0.8096501958
O  O116  1  0.32930000  0.76046000  0.83356000  1.0 -0.8096501958
O  O117  1  0.50426000  0.67070000  0.43116000  1.0 -0.8096501958
O  O118  1  0.32310000  0.25426000  0.33356000  1.0 -0.8096501958
O  O119  1  0.23954000  0.07310000  0.56884000  1.0 -0.8096501958
O  O120  1  0.92070000  0.98954000  0.66644000  1.0 -0.8096501958
O  O121  1  0.48280000  0.81510000  0.08730000  1.0 -0.4455523025
O  O122  1  0.64550000  0.23280000  0.16770000  1.0 -0.4455523025
O  O123  1  0.72780000  0.39550000  0.91270000  1.0 -0.4455523025
O  O124  1  0.06510000  0.47780000  0.83230000  1.0 -0.4455523025
O  O125  1  0.76720000  0.93490000  0.41270000  1.0 -0.4455523025
O  O126  1  0.60450000  0.51720000  0.33230000  1.0 -0.4455523025
O  O127  1  0.52220000  0.35450000  0.58730000  1.0 -0.4455523025
O  O128  1  0.18490000  0.27220000  0.66770000  1.0 -0.4455523025
O  O129  1  0.51210000  0.84710000  0.02540000  1.0 -0.5510380398
O  O130  1  0.73670000  0.26210000  0.16500000  1.0 -0.5510380398
O  O131  1  0.82170000  0.48670000  0.97460000  1.0 -0.5510380398
O  O132  1  0.09710000  0.57170000  0.83500000  1.0 -0.5510380398
O  O133  1  0.73790000  0.90290000  0.47460000  1.0 -0.5510380398
O  O134  1  0.51330000  0.48790000  0.33500000  1.0 -0.5510380398
O  O135  1  0.42830000  0.26330000  0.52540000  1.0 -0.5510380398
O  O136  1  0.15290000  0.17830000  0.66500000  1.0 -0.5510380398
O  O137  1  0.26844000  0.55466000  0.02270000  1.0 -0.6230259494
O  O138  1  0.49574000  0.01844000  0.21378000  1.0 -0.6230259494
O  O139  1  0.53196000  0.24574000  0.97730000  1.0 -0.6230259494
O  O140  1  0.80466000  0.28196000  0.78622000  1.0 -0.6230259494
O  O141  1  0.98156000  0.19534000  0.47730000  1.0 -0.6230259494
O  O142  1  0.75426000  0.73156000  0.28622000  1.0 -0.6230259494
O  O143  1  0.71804000  0.50426000  0.52270000  1.0 -0.6230259494
O  O144  1  0.44534000  0.46804000  0.71378000  1.0 -0.6230259494
O  O145  1  0.10598000  0.44081000  0.02359000  1.0 -0.5510380398
O  O146  1  0.33239000  0.85598000  0.16517000  1.0 -0.5510380398
O  O147  1  0.41722000  0.08239000  0.97641000  1.0 -0.5510380398
O  O148  1  0.69081000  0.16722000  0.83483000  1.0 -0.5510380398
O  O149  1  0.14402000  0.30919000  0.47641000  1.0 -0.5510380398
O  O150  1  0.91761000  0.89402000  0.33483000  1.0 -0.5510380398
O  O151  1  0.83278000  0.66761000  0.52359000  1.0 -0.5510380398
O  O152  1  0.55919000  0.58278000  0.66517000  1.0 -0.5510380398
O  O153  1  0.27570000  0.59960000  0.10450000  1.0 -0.8096501958
O  O154  1  0.42120000  0.02570000  0.17610000  1.0 -0.8096501958
O  O155  1  0.49510000  0.17120000  0.89550000  1.0 -0.8096501958
O  O156  1  0.84960000  0.24510000  0.82390000  1.0 -0.8096501958
O  O157  1  0.97430000  0.15040000  0.39550000  1.0 -0.8096501958
O  O158  1  0.82880000  0.72430000  0.32390000  1.0 -0.8096501958
O  O159  1  0.75490000  0.57880000  0.60450000  1.0 -0.8096501958
O  O160  1  0.40040000  0.50490000  0.67610000  1.0 -0.8096501958
O  O161  1  0.17170000  0.38714000  0.03184000  1.0 -0.8003873955
O  O162  1  0.38986000  0.92170000  0.28456000  1.0 -0.8003873955
O  O163  1  0.35530000  0.13986000  0.96816000  1.0 -0.8003873955
O  O164  1  0.63714000  0.10530000  0.71544000  1.0 -0.8003873955
O  O165  1  0.07830000  0.36286000  0.46816000  1.0 -0.8003873955
O  O166  1  0.86014000  0.82830000  0.21544000  1.0 -0.8003873955
O  O167  1  0.89470000  0.61014000  0.53184000  1.0 -0.8003873955
O  O168  1  0.61286000  0.64470000  0.78456000  1.0 -0.8003873955
O  O169  1  0.05872000  0.28164000  0.10776000  1.0 -0.7719047945
O  O170  1  0.20096000  0.80872000  0.27708000  1.0 -0.7719047945
O  O171  1  0.17388000  0.95096000  0.89224000  1.0 -0.7719047945
O  O172  1  0.53164000  0.92388000  0.72292000  1.0 -0.7719047945
O  O173  1  0.19128000  0.46836000  0.39224000  1.0 -0.7719047945
O  O174  1  0.04904000  0.94128000  0.22292000  1.0 -0.7719047945
O  O175  1  0.07612000  0.79904000  0.60776000  1.0 -0.7719047945
O  O176  1  0.71836000  0.82612000  0.77708000  1.0 -0.7719047945
