# DDEC6 charges by PACMAN v1.1 (https://github.com/mtap-research/PACMAN-charge/)
data_MIFVEE_FSR_pacman
_symmetry_space_group_name_H-M   'P 1'
_cell_length_a   32.86490000
_cell_length_b   32.86490000
_cell_length_c   32.86490000
_cell_angle_alpha   91.60620000
_cell_angle_beta   91.60620000
_cell_angle_gamma   160.72400000
_symmetry_Int_Tables_number   1
_chemical_formula_structural   Tb2CoH36C48(N4O11)2
_chemical_formula_sum   'Tb16 Co8 H288 C384 N64 O176'
_cell_volume   11552.98189823
_cell_formula_units_Z   8
loop_
 _symmetry_equiv_pos_site_id
 _symmetry_equiv_pos_as_xyz
  1  'x, y, z'
loop_
 _atom_site_type_symbol
 _atom_site_label
 _atom_site_symmetry_multiplicity
 _atom_site_fract_x
 _atom_site_fract_y
 _atom_site_fract_z
 _atom_site_occupancy
 _atom_site_charge
Tb  Tb1  1  0.58115000  0.85811000  0.92132000  1.0 1.9988773657
Tb  Tb2  1  0.90983000  0.33115000  0.22304000  1.0 1.9988773657
Tb  Tb3  1  0.93679000  0.65983000  0.07868000  1.0 1.9988773657
Tb  Tb4  1  0.10811000  0.68679000  0.77696000  1.0 1.9988773657
Tb  Tb5  1  0.66885000  0.89189000  0.57868000  1.0 1.9988773657
Tb  Tb6  1  0.34017000  0.41885000  0.27696000  1.0 1.9988773657
Tb  Tb7  1  0.31321000  0.09017000  0.42132000  1.0 1.9988773657
Tb  Tb8  1  0.14189000  0.06321000  0.72304000  1.0 1.9988773657
Tb  Tb9  1  0.08489000  0.35959000  0.92498000  1.0 2.0214738442
Tb  Tb10  1  0.40991000  0.83489000  0.22530000  1.0 2.0214738442
Tb  Tb11  1  0.43461000  0.15991000  0.07502000  1.0 2.0214738442
Tb  Tb12  1  0.60959000  0.18461000  0.77470000  1.0 2.0214738442
Tb  Tb13  1  0.16511000  0.39041000  0.57502000  1.0 2.0214738442
Tb  Tb14  1  0.84009000  0.91511000  0.27470000  1.0 2.0214738442
Tb  Tb15  1  0.81539000  0.59009000  0.42498000  1.0 2.0214738442
Tb  Tb16  1  0.64041000  0.56539000  0.72530000  1.0 2.0214738442
Co  Co1  1  0.70656000  0.92032000  0.12136000  1.0 0.5326423688
Co  Co2  1  0.83520000  0.45656000  0.28624000  1.0 0.5326423688
Co  Co3  1  0.79896000  0.58520000  0.87864000  1.0 0.5326423688
Co  Co4  1  0.17032000  0.54896000  0.71376000  1.0 0.5326423688
Co  Co5  1  0.54344000  0.82968000  0.37864000  1.0 0.5326423688
Co  Co6  1  0.41480000  0.29344000  0.21376000  1.0 0.5326423688
Co  Co7  1  0.45104000  0.16480000  0.62136000  1.0 0.5326423688
Co  Co8  1  0.07968000  0.20104000  0.78624000  1.0 0.5326423688
H  H1  1  0.35100000  0.67830000  0.92130000  1.0 0.3798178006
H  H2  1  0.67970000  0.10100000  0.17270000  1.0 0.3798178006
H  H3  1  0.75700000  0.42970000  0.07870000  1.0 0.3798178006
H  H4  1  0.92830000  0.50700000  0.82730000  1.0 0.3798178006
H  H5  1  0.89900000  0.07170000  0.57870000  1.0 0.3798178006
H  H6  1  0.57030000  0.64900000  0.32730000  1.0 0.3798178006
H  H7  1  0.49300000  0.32030000  0.42130000  1.0 0.3798178006
H  H8  1  0.32170000  0.24300000  0.67270000  1.0 0.3798178006
H  H9  1  0.42000000  0.77190000  0.94790000  1.0 0.3798178006
H  H10  1  0.72210000  0.17000000  0.14810000  1.0 0.3798178006
H  H11  1  0.82400000  0.47210000  0.05210000  1.0 0.3798178006
H  H12  1  0.02190000  0.57400000  0.85190000  1.0 0.3798178006
H  H13  1  0.83000000  0.97810000  0.55210000  1.0 0.3798178006
H  H14  1  0.52790000  0.58000000  0.35190000  1.0 0.3798178006
H  H15  1  0.42600000  0.27790000  0.44790000  1.0 0.3798178006
H  H16  1  0.22810000  0.17600000  0.64810000  1.0 0.3798178006
H  H17  1  0.64820000  0.88040000  0.81180000  1.0 0.1202207446
H  H18  1  0.08640000  0.39820000  0.26780000  1.0 0.1202207446
H  H19  1  0.06860000  0.83640000  0.18820000  1.0 0.1202207446
H  H20  1  0.13040000  0.81860000  0.73220000  1.0 0.1202207446
H  H21  1  0.60180000  0.86960000  0.68820000  1.0 0.1202207446
H  H22  1  0.16360000  0.35180000  0.23220000  1.0 0.1202207446
H  H23  1  0.18140000  0.91360000  0.31180000  1.0 0.1202207446
H  H24  1  0.11960000  0.93140000  0.76780000  1.0 0.1202207446
H  H25  1  0.62750000  0.81670000  0.75460000  1.0 0.1310979709
H  H26  1  0.12290000  0.37750000  0.31080000  1.0 0.1310979709
H  H27  1  0.06210000  0.87290000  0.24540000  1.0 0.1310979709
H  H28  1  0.06670000  0.81210000  0.68920000  1.0 0.1310979709
H  H29  1  0.62250000  0.93330000  0.74540000  1.0 0.1310979709
H  H30  1  0.12710000  0.37250000  0.18920000  1.0 0.1310979709
H  H31  1  0.18790000  0.87710000  0.25460000  1.0 0.1310979709
H  H32  1  0.18330000  0.93790000  0.81080000  1.0 0.1310979709
H  H33  1  0.79040000  0.92670000  0.74730000  1.0 0.1025298194
H  H34  1  0.29310000  0.54040000  0.36370000  1.0 0.1025298194
H  H35  1  0.17940000  0.04310000  0.25270000  1.0 0.1025298194
H  H36  1  0.17670000  0.92940000  0.63630000  1.0 0.1025298194
H  H37  1  0.45960000  0.82330000  0.75270000  1.0 0.1025298194
H  H38  1  0.95690000  0.20960000  0.13630000  1.0 0.1025298194
H  H39  1  0.07060000  0.70690000  0.24730000  1.0 0.1025298194
H  H40  1  0.07330000  0.82060000  0.86370000  1.0 0.1025298194
H  H41  1  0.29530000  0.40570000  0.86180000  1.0 0.113750708
H  H42  1  0.68350000  0.04530000  0.38960000  1.0 0.113750708
H  H43  1  0.54390000  0.43350000  0.13820000  1.0 0.113750708
H  H44  1  0.65570000  0.29390000  0.61040000  1.0 0.113750708
H  H45  1  0.95470000  0.34430000  0.63820000  1.0 0.113750708
H  H46  1  0.56650000  0.70470000  0.11040000  1.0 0.113750708
H  H47  1  0.70610000  0.31650000  0.36180000  1.0 0.113750708
H  H48  1  0.59430000  0.45610000  0.88960000  1.0 0.113750708
H  H49  1  0.30430000  0.40490000  0.93100000  1.0 0.1410038475
H  H50  1  0.62330000  0.05430000  0.39940000  1.0 0.1410038475
H  H51  1  0.47390000  0.37330000  0.06900000  1.0 0.1410038475
H  H52  1  0.65490000  0.22390000  0.60060000  1.0 0.1410038475
H  H53  1  0.94570000  0.34510000  0.56900000  1.0 0.1410038475
H  H54  1  0.62670000  0.69570000  0.10060000  1.0 0.1410038475
H  H55  1  0.77610000  0.37670000  0.43100000  1.0 0.1410038475
H  H56  1  0.59510000  0.52610000  0.89940000  1.0 0.1410038475
H  H57  1  0.12580000  0.24640000  0.96040000  1.0 0.1310979709
H  H58  1  0.41540000  0.87580000  0.37940000  1.0 0.1310979709
H  H59  1  0.28600000  0.16540000  0.03960000  1.0 0.1310979709
H  H60  1  0.49640000  0.03600000  0.62060000  1.0 0.1310979709
H  H61  1  0.12420000  0.50360000  0.53960000  1.0 0.1310979709
H  H62  1  0.83460000  0.87420000  0.12060000  1.0 0.1310979709
H  H63  1  0.96400000  0.58460000  0.46040000  1.0 0.1310979709
H  H64  1  0.75360000  0.71400000  0.87940000  1.0 0.1310979709
H  H65  1  0.63620000  0.76030000  0.97070000  1.0 0.1310979709
H  H66  1  0.91550000  0.38620000  0.37590000  1.0 0.1310979709
H  H67  1  0.78960000  0.66550000  0.02930000  1.0 0.1310979709
H  H68  1  0.01030000  0.53960000  0.62410000  1.0 0.1310979709
H  H69  1  0.61380000  0.98970000  0.52930000  1.0 0.1310979709
H  H70  1  0.33450000  0.36380000  0.12410000  1.0 0.1310979709
H  H71  1  0.46040000  0.08450000  0.47070000  1.0 0.1310979709
H  H72  1  0.23970000  0.21040000  0.87590000  1.0 0.1310979709
H  H73  1  0.83690000  0.95700000  0.00710000  1.0 0.1310979709
H  H74  1  0.07980000  0.58690000  0.37990000  1.0 0.1310979709
H  H75  1  0.94990000  0.82980000  0.99290000  1.0 0.1310979709
H  H76  1  0.20700000  0.69990000  0.62010000  1.0 0.1310979709
H  H77  1  0.41310000  0.79300000  0.49290000  1.0 0.1310979709
H  H78  1  0.17020000  0.16310000  0.12010000  1.0 0.1310979709
H  H79  1  0.30010000  0.92020000  0.50710000  1.0 0.1310979709
H  H80  1  0.04300000  0.05010000  0.87990000  1.0 0.1310979709
H  H81  1  0.87170000  0.03520000  0.06290000  1.0 0.113750708
H  H82  1  0.05880000  0.62170000  0.33650000  1.0 0.113750708
H  H83  1  0.97230000  0.80880000  0.93710000  1.0 0.113750708
H  H84  1  0.28520000  0.72230000  0.66350000  1.0 0.113750708
H  H85  1  0.37830000  0.71480000  0.43710000  1.0 0.113750708
H  H86  1  0.19120000  0.12830000  0.16350000  1.0 0.113750708
H  H87  1  0.27770000  0.94120000  0.56290000  1.0 0.113750708
H  H88  1  0.96480000  0.02770000  0.83650000  1.0 0.113750708
H  H89  1  0.43790000  0.68690000  0.14580000  1.0 0.1025298194
H  H90  1  0.54210000  0.18790000  0.25100000  1.0 0.1025298194
H  H91  1  0.54110000  0.29210000  0.85420000  1.0 0.1025298194
H  H92  1  0.93690000  0.29110000  0.74900000  1.0 0.1025298194
H  H93  1  0.81210000  0.06310000  0.35420000  1.0 0.1025298194
H  H94  1  0.70790000  0.56210000  0.24900000  1.0 0.1025298194
H  H95  1  0.70890000  0.45790000  0.64580000  1.0 0.1025298194
H  H96  1  0.31310000  0.45890000  0.75100000  1.0 0.1025298194
H  H97  1  0.25930000  0.54710000  0.11100000  1.0 0.1310979709
H  H98  1  0.39830000  0.00930000  0.21220000  1.0 0.1310979709
H  H99  1  0.43610000  0.14830000  0.88900000  1.0 0.1310979709
H  H100  1  0.79710000  0.18610000  0.78780000  1.0 0.1310979709
H  H101  1  0.99070000  0.20290000  0.38900000  1.0 0.1310979709
H  H102  1  0.85170000  0.74070000  0.28780000  1.0 0.1310979709
H  H103  1  0.81390000  0.60170000  0.61100000  1.0 0.1310979709
H  H104  1  0.45290000  0.56390000  0.71220000  1.0 0.1310979709
H  H105  1  0.23540000  0.52850000  0.04010000  1.0 0.1410038475
H  H106  1  0.44530000  0.98540000  0.20690000  1.0 0.1410038475
H  H107  1  0.48840000  0.19530000  0.95990000  1.0 0.1410038475
H  H108  1  0.77850000  0.23840000  0.79310000  1.0 0.1410038475
H  H109  1  0.01460000  0.22150000  0.45990000  1.0 0.1410038475
H  H110  1  0.80470000  0.76460000  0.29310000  1.0 0.1410038475
H  H111  1  0.76160000  0.55470000  0.54010000  1.0 0.1410038475
H  H112  1  0.47150000  0.51160000  0.70690000  1.0 0.1410038475
H  H113  1  0.39090000  0.61380000  0.78910000  1.0 0.1202207446
H  H114  1  0.85180000  0.14090000  0.27710000  1.0 0.1202207446
H  H115  1  0.82470000  0.60180000  0.21090000  1.0 0.1202207446
H  H116  1  0.86380000  0.57470000  0.72290000  1.0 0.1202207446
H  H117  1  0.85910000  0.13620000  0.71090000  1.0 0.1202207446
H  H118  1  0.39820000  0.60910000  0.22290000  1.0 0.1202207446
H  H119  1  0.42530000  0.14820000  0.28910000  1.0 0.1202207446
H  H120  1  0.38620000  0.17530000  0.77710000  1.0 0.1202207446
H  H121  1  0.28480000  0.50650000  0.72130000  1.0 0.1310979709
H  H122  1  0.81350000  0.03480000  0.27830000  1.0 0.1310979709
H  H123  1  0.78520000  0.56350000  0.27870000  1.0 0.1310979709
H  H124  1  0.75650000  0.53520000  0.72170000  1.0 0.1310979709
H  H125  1  0.96520000  0.24350000  0.77870000  1.0 0.1310979709
H  H126  1  0.43650000  0.71520000  0.22170000  1.0 0.1310979709
H  H127  1  0.46480000  0.18650000  0.22130000  1.0 0.1310979709
H  H128  1  0.49350000  0.21480000  0.77830000  1.0 0.1310979709
H  H129  1  0.17080000  0.45260000  0.69180000  1.0 0.1025298194
H  H130  1  0.72900000  0.92080000  0.21820000  1.0 0.1025298194
H  H131  1  0.76080000  0.47900000  0.30820000  1.0 0.1025298194
H  H132  1  0.70260000  0.51080000  0.78180000  1.0 0.1025298194
H  H133  1  0.07920000  0.29740000  0.80820000  1.0 0.1025298194
H  H134  1  0.52100000  0.82920000  0.28180000  1.0 0.1025298194
H  H135  1  0.48920000  0.27100000  0.19180000  1.0 0.1025298194
H  H136  1  0.54740000  0.23920000  0.71820000  1.0 0.1025298194
H  H137  1  0.20310000  0.65450000  0.77820000  1.0 0.1025298194
H  H138  1  0.67490000  0.95310000  0.04860000  1.0 0.1025298194
H  H139  1  0.87630000  0.42490000  0.22180000  1.0 0.1025298194
H  H140  1  0.90450000  0.62630000  0.95140000  1.0 0.1025298194
H  H141  1  0.04690000  0.09550000  0.72180000  1.0 0.1025298194
H  H142  1  0.57510000  0.79690000  0.45140000  1.0 0.1025298194
H  H143  1  0.37370000  0.32510000  0.27820000  1.0 0.1025298194
H  H144  1  0.34550000  0.12370000  0.54860000  1.0 0.1025298194
H  H145  1  0.15810000  0.62010000  0.84500000  1.0 0.1410038475
H  H146  1  0.56310000  0.90810000  0.03800000  1.0 0.1410038475
H  H147  1  0.77510000  0.31310000  0.15500000  1.0 0.1410038475
H  H148  1  0.87010000  0.52510000  0.96200000  1.0 0.1410038475
H  H149  1  0.09190000  0.12990000  0.65500000  1.0 0.1410038475
H  H150  1  0.68690000  0.84190000  0.46200000  1.0 0.1410038475
H  H151  1  0.47490000  0.43690000  0.34500000  1.0 0.1410038475
H  H152  1  0.37990000  0.22490000  0.53800000  1.0 0.1410038475
H  H153  1  0.14000000  0.54540000  0.88280000  1.0 0.1310979709
H  H154  1  0.50720000  0.89000000  0.09460000  1.0 0.1310979709
H  H155  1  0.66260000  0.25720000  0.11720000  1.0 0.1310979709
H  H156  1  0.79540000  0.41260000  0.90540000  1.0 0.1310979709
H  H157  1  0.11000000  0.20460000  0.61720000  1.0 0.1310979709
H  H158  1  0.74280000  0.86000000  0.40540000  1.0 0.1310979709
H  H159  1  0.58740000  0.49280000  0.38280000  1.0 0.1310979709
H  H160  1  0.45460000  0.33740000  0.59460000  1.0 0.1310979709
H  H161  1  0.71810000  0.11980000  0.88770000  1.0 0.1025298194
H  H162  1  0.08040000  0.46810000  0.09830000  1.0 0.1025298194
H  H163  1  0.23210000  0.83040000  0.11230000  1.0 0.1025298194
H  H164  1  0.36980000  0.98210000  0.90170000  1.0 0.1025298194
H  H165  1  0.53190000  0.63020000  0.61230000  1.0 0.1025298194
H  H166  1  0.16960000  0.28190000  0.40170000  1.0 0.1025298194
H  H167  1  0.01790000  0.91960000  0.38770000  1.0 0.1025298194
H  H168  1  0.88020000  0.76790000  0.59830000  1.0 0.1025298194
H  H169  1  0.82610000  0.28740000  0.88550000  1.0 0.1202207446
H  H170  1  0.19060000  0.57610000  0.03870000  1.0 0.1202207446
H  H171  1  0.40190000  0.94060000  0.11450000  1.0 0.1202207446
H  H172  1  0.53740000  0.15190000  0.96130000  1.0 0.1202207446
H  H173  1  0.42390000  0.46260000  0.61450000  1.0 0.1202207446
H  H174  1  0.05940000  0.17390000  0.46130000  1.0 0.1202207446
H  H175  1  0.84810000  0.80940000  0.38550000  1.0 0.1202207446
H  H176  1  0.71260000  0.59810000  0.53870000  1.0 0.1202207446
H  H177  1  0.86330000  0.35160000  0.95370000  1.0 0.1025298194
H  H178  1  0.15960000  0.61330000  0.01170000  1.0 0.1025298194
H  H179  1  0.39790000  0.90960000  0.04630000  1.0 0.1025298194
H  H180  1  0.60160000  0.14790000  0.98830000  1.0 0.1025298194
H  H181  1  0.38670000  0.39840000  0.54630000  1.0 0.1025298194
H  H182  1  0.09040000  0.13670000  0.48830000  1.0 0.1025298194
H  H183  1  0.85210000  0.84040000  0.45370000  1.0 0.1025298194
H  H184  1  0.64840000  0.60210000  0.51170000  1.0 0.1025298194
H  H185  1  0.82670000  0.20280000  0.11770000  1.0 0.1202207446
H  H186  1  0.95900000  0.57670000  0.12390000  1.0 0.1202207446
H  H187  1  0.08510000  0.70900000  0.88230000  1.0 0.1202207446
H  H188  1  0.45280000  0.83510000  0.87610000  1.0 0.1202207446
H  H189  1  0.42330000  0.54720000  0.38230000  1.0 0.1202207446
H  H190  1  0.29100000  0.17330000  0.37610000  1.0 0.1202207446
H  H191  1  0.16490000  0.04100000  0.61770000  1.0 0.1202207446
H  H192  1  0.79720000  0.91490000  0.62390000  1.0 0.1202207446
H  H193  1  0.95080000  0.26920000  0.12340000  1.0 0.1202207446
H  H194  1  0.07740000  0.70080000  0.18160000  1.0 0.1202207446
H  H195  1  0.14580000  0.82740000  0.87660000  1.0 0.1202207446
H  H196  1  0.51920000  0.89580000  0.81840000  1.0 0.1202207446
H  H197  1  0.29920000  0.48080000  0.37660000  1.0 0.1202207446
H  H198  1  0.17260000  0.04920000  0.31840000  1.0 0.1202207446
H  H199  1  0.10420000  0.92260000  0.62340000  1.0 0.1202207446
H  H200  1  0.73080000  0.85420000  0.68160000  1.0 0.1202207446
H  H201  1  0.00180000  0.29350000  0.06230000  1.0 0.1202207446
H  H202  1  0.18950000  0.75180000  0.20830000  1.0 0.1202207446
H  H203  1  0.23120000  0.93950000  0.93770000  1.0 0.1202207446
H  H204  1  0.54350000  0.98120000  0.79170000  1.0 0.1202207446
H  H205  1  0.24820000  0.45650000  0.43770000  1.0 0.1202207446
H  H206  1  0.06050000  0.99820000  0.29170000  1.0 0.1202207446
H  H207  1  0.01880000  0.81050000  0.56230000  1.0 0.1202207446
H  H208  1  0.70650000  0.76880000  0.70830000  1.0 0.1202207446
H  H209  1  0.28160000  0.51610000  0.88570000  1.0 0.3798178006
H  H210  1  0.64590000  0.03160000  0.26550000  1.0 0.3798178006
H  H211  1  0.63040000  0.39590000  0.11430000  1.0 0.3798178006
H  H212  1  0.76610000  0.38040000  0.73450000  1.0 0.3798178006
H  H213  1  0.96840000  0.23390000  0.61430000  1.0 0.3798178006
H  H214  1  0.60410000  0.71840000  0.23450000  1.0 0.3798178006
H  H215  1  0.61960000  0.35410000  0.38570000  1.0 0.3798178006
H  H216  1  0.48390000  0.36960000  0.76550000  1.0 0.3798178006
H  H217  1  0.17890000  0.39440000  0.86930000  1.0 0.3465534641
H  H218  1  0.55960000  0.92890000  0.28450000  1.0 0.3465534641
H  H219  1  0.52510000  0.30960000  0.13070000  1.0 0.3465534641
H  H220  1  0.64440000  0.27510000  0.71550000  1.0 0.3465534641
H  H221  1  0.07110000  0.35560000  0.63070000  1.0 0.3465534641
H  H222  1  0.69040000  0.82110000  0.21550000  1.0 0.3465534641
H  H223  1  0.72490000  0.44040000  0.36930000  1.0 0.3465534641
H  H224  1  0.60560000  0.47490000  0.78450000  1.0 0.3465534641
H  H225  1  0.17560000  0.37360000  0.96240000  1.0 0.3798178006
H  H226  1  0.46320000  0.92560000  0.30200000  1.0 0.3798178006
H  H227  1  0.41120000  0.21320000  0.03760000  1.0 0.3798178006
H  H228  1  0.62360000  0.16120000  0.69800000  1.0 0.3798178006
H  H229  1  0.07440000  0.37640000  0.53760000  1.0 0.3798178006
H  H230  1  0.78680000  0.82440000  0.19800000  1.0 0.3798178006
H  H231  1  0.83880000  0.53680000  0.46240000  1.0 0.3798178006
H  H232  1  0.62640000  0.58880000  0.80200000  1.0 0.3798178006
H  H233  1  0.04800000  0.25370000  0.96650000  1.0 0.3731814107
H  H234  1  0.33150000  0.79800000  0.29430000  1.0 0.3731814107
H  H235  1  0.28720000  0.08150000  0.03350000  1.0 0.3731814107
H  H236  1  0.50370000  0.03720000  0.70570000  1.0 0.3731814107
H  H237  1  0.20200000  0.49630000  0.53350000  1.0 0.3731814107
H  H238  1  0.91850000  0.95200000  0.20570000  1.0 0.3731814107
H  H239  1  0.96280000  0.66850000  0.46650000  1.0 0.3731814107
H  H240  1  0.74630000  0.71280000  0.79430000  1.0 0.3731814107
H  H241  1  0.87760000  0.19530000  0.86730000  1.0 0.4078854515
H  H242  1  0.26030000  0.62760000  0.18230000  1.0 0.4078854515
H  H243  1  0.32800000  0.01030000  0.13270000  1.0 0.4078854515
H  H244  1  0.44530000  0.07800000  0.81770000  1.0 0.4078854515
H  H245  1  0.37240000  0.55470000  0.63270000  1.0 0.4078854515
H  H246  1  0.98970000  0.12240000  0.31770000  1.0 0.4078854515
H  H247  1  0.92200000  0.73970000  0.36730000  1.0 0.4078854515
H  H248  1  0.80470000  0.67200000  0.68230000  1.0 0.4078854515
H  H249  1  0.92330000  0.27300000  0.89390000  1.0 0.3903133615
H  H250  1  0.27940000  0.67330000  0.15030000  1.0 0.3903133615
H  H251  1  0.37910000  0.02940000  0.10610000  1.0 0.3903133615
H  H252  1  0.52300000  0.12910000  0.84970000  1.0 0.3903133615
H  H253  1  0.32670000  0.47700000  0.60610000  1.0 0.3903133615
H  H254  1  0.97060000  0.07670000  0.34970000  1.0 0.3903133615
H  H255  1  0.87090000  0.72060000  0.39390000  1.0 0.3903133615
H  H256  1  0.72700000  0.62090000  0.65030000  1.0 0.3903133615
H  H257  1  0.77860000  0.00260000  0.96780000  1.0 0.3798178006
H  H258  1  0.06080000  0.52860000  0.27600000  1.0 0.3798178006
H  H259  1  0.03480000  0.81080000  0.03220000  1.0 0.3798178006
H  H260  1  0.25260000  0.78480000  0.72400000  1.0 0.3798178006
H  H261  1  0.47140000  0.74740000  0.53220000  1.0 0.3798178006
H  H262  1  0.18920000  0.22140000  0.22400000  1.0 0.3798178006
H  H263  1  0.21520000  0.93920000  0.46780000  1.0 0.3798178006
H  H264  1  0.99740000  0.96520000  0.77600000  1.0 0.3798178006
H  H265  1  0.72350000  0.97220000  0.99710000  1.0 0.3465534641
H  H266  1  0.97640000  0.47350000  0.25130000  1.0 0.3465534641
H  H267  1  0.97510000  0.72640000  0.00290000  1.0 0.3465534641
H  H268  1  0.22220000  0.72510000  0.74870000  1.0 0.3465534641
H  H269  1  0.52650000  0.77780000  0.50290000  1.0 0.3465534641
H  H270  1  0.27360000  0.27650000  0.24870000  1.0 0.3465534641
H  H271  1  0.27490000  0.02360000  0.49710000  1.0 0.3465534641
H  H272  1  0.02780000  0.02490000  0.75130000  1.0 0.3465534641
H  H273  1  0.59420000  0.79210000  0.88670000  1.0 0.3731814107
H  H274  1  0.95750000  0.34420000  0.30210000  1.0 0.3731814107
H  H275  1  0.90540000  0.70750000  0.11330000  1.0 0.3731814107
H  H276  1  0.04210000  0.65540000  0.69790000  1.0 0.3731814107
H  H277  1  0.65580000  0.95790000  0.61330000  1.0 0.3731814107
H  H278  1  0.29250000  0.40580000  0.19790000  1.0 0.3731814107
H  H279  1  0.34460000  0.04250000  0.38670000  1.0 0.3731814107
H  H280  1  0.20790000  0.09460000  0.80210000  1.0 0.3731814107
H  H281  1  0.52240000  0.71980000  0.91820000  1.0 0.3798178006
H  H282  1  0.85420000  0.27240000  0.30260000  1.0 0.3798178006
H  H283  1  0.80160000  0.60420000  0.08180000  1.0 0.3798178006
H  H284  1  0.96980000  0.55160000  0.69740000  1.0 0.3798178006
H  H285  1  0.72760000  0.03020000  0.58180000  1.0 0.3798178006
H  H286  1  0.39580000  0.47760000  0.19740000  1.0 0.3798178006
H  H287  1  0.44840000  0.14580000  0.41820000  1.0 0.3798178006
H  H288  1  0.28020000  0.19840000  0.80260000  1.0 0.3798178006
C  C1  1  0.83363000  0.06605000  0.87388000  1.0 0.6533869698
C  C2  1  0.20975000  0.58363000  0.26758000  1.0 0.6533869698
C  C3  1  0.19217000  0.95975000  0.12612000  1.0 0.6533869698
C  C4  1  0.31605000  0.94217000  0.73242000  1.0 0.6533869698
C  C5  1  0.41637000  0.68395000  0.62612000  1.0 0.6533869698
C  C6  1  0.04025000  0.16637000  0.23242000  1.0 0.6533869698
C  C7  1  0.05783000  0.79025000  0.37388000  1.0 0.6533869698
C  C8  1  0.93395000  0.80783000  0.76758000  1.0 0.6533869698
C  C9  1  0.81575000  0.01708000  0.83983000  1.0 -0.0871932454
C  C10  1  0.22592000  0.56575000  0.29867000  1.0 -0.0871932454
C  C11  1  0.17725000  0.97592000  0.16017000  1.0 -0.0871932454
C  C12  1  0.26708000  0.92725000  0.70133000  1.0 -0.0871932454
C  C13  1  0.43425000  0.73292000  0.66017000  1.0 -0.0871932454
C  C14  1  0.02408000  0.18425000  0.20133000  1.0 -0.0871932454
C  C15  1  0.07275000  0.77408000  0.33983000  1.0 -0.0871932454
C  C16  1  0.98292000  0.82275000  0.79867000  1.0 -0.0871932454
C  C17  1  0.71018000  0.91993000  0.80911000  1.0 -0.0670206804
C  C18  1  0.15107000  0.46018000  0.29025000  1.0 -0.0670206804
C  C19  1  0.11082000  0.90107000  0.19089000  1.0 -0.0670206804
C  C20  1  0.16993000  0.86082000  0.70975000  1.0 -0.0670206804
C  C21  1  0.53982000  0.83007000  0.69089000  1.0 -0.0670206804
C  C22  1  0.09893000  0.28982000  0.20975000  1.0 -0.0670206804
C  C23  1  0.13918000  0.84893000  0.30911000  1.0 -0.0670206804
C  C24  1  0.08007000  0.88918000  0.79025000  1.0 -0.0670206804
C  C25  1  0.69844000  0.88311000  0.77475000  1.0 -0.1469842655
C  C26  1  0.17369000  0.44844000  0.31533000  1.0 -0.1469842655
C  C27  1  0.10836000  0.92369000  0.22525000  1.0 -0.1469842655
C  C28  1  0.13311000  0.85836000  0.68467000  1.0 -0.1469842655
C  C29  1  0.55156000  0.86689000  0.72525000  1.0 -0.1469842655
C  C30  1  0.07631000  0.30156000  0.18467000  1.0 -0.1469842655
C  C31  1  0.14164000  0.82631000  0.27475000  1.0 -0.1469842655
C  C32  1  0.11689000  0.89164000  0.81533000  1.0 -0.1469842655
C  C33  1  0.79542000  0.94783000  0.77105000  1.0 0.0804701752
C  C34  1  0.27437000  0.54542000  0.34759000  1.0 0.0804701752
C  C35  1  0.17678000  0.02437000  0.22895000  1.0 0.0804701752
C  C36  1  0.19783000  0.92678000  0.65241000  1.0 0.0804701752
C  C37  1  0.45458000  0.80217000  0.72895000  1.0 0.0804701752
C  C38  1  0.97563000  0.20458000  0.15241000  1.0 0.0804701752
C  C39  1  0.07322000  0.72563000  0.27105000  1.0 0.0804701752
C  C40  1  0.05217000  0.82322000  0.84759000  1.0 0.0804701752
C  C41  1  0.90349000  0.06982000  0.83531000  1.0 0.1593153122
C  C42  1  0.31818000  0.65349000  0.33367000  1.0 0.1593153122
C  C43  1  0.23451000  0.06818000  0.16469000  1.0 0.1593153122
C  C44  1  0.31982000  0.98451000  0.66633000  1.0 0.1593153122
C  C45  1  0.34651000  0.68018000  0.66469000  1.0 0.1593153122
C  C46  1  0.93182000  0.09651000  0.16633000  1.0 0.1593153122
C  C47  1  0.01549000  0.68182000  0.33531000  1.0 0.1593153122
C  C48  1  0.93018000  0.76549000  0.83367000  1.0 0.1593153122
C  C49  1  0.01593000  0.16570000  0.86663000  1.0 0.1410038475
C  C50  1  0.39930000  0.76593000  0.35023000  1.0 0.1410038475
C  C51  1  0.29907000  0.14930000  0.13337000  1.0 0.1410038475
C  C52  1  0.41570000  0.04907000  0.64977000  1.0 0.1410038475
C  C53  1  0.23407000  0.58430000  0.63337000  1.0 0.1410038475
C  C54  1  0.85070000  0.98407000  0.14977000  1.0 0.1410038475
C  C55  1  0.95093000  0.60070000  0.36663000  1.0 0.1410038475
C  C56  1  0.83430000  0.70093000  0.85023000  1.0 0.1410038475
C  C57  1  0.22385000  0.34269000  0.87354000  1.0 0.0712666098
C  C58  1  0.60031000  0.97385000  0.38116000  1.0 0.0712666098
C  C59  1  0.46915000  0.35031000  0.12646000  1.0 0.0712666098
C  C60  1  0.59269000  0.21915000  0.61884000  1.0 0.0712666098
C  C61  1  0.02615000  0.40731000  0.62646000  1.0 0.0712666098
C  C62  1  0.64969000  0.77615000  0.11884000  1.0 0.0712666098
C  C63  1  0.78085000  0.39969000  0.37354000  1.0 0.0712666098
C  C64  1  0.65731000  0.53085000  0.88116000  1.0 0.0712666098
C  C65  1  0.23005000  0.34288000  0.91493000  1.0 -0.1083618397
C  C66  1  0.56512000  0.98005000  0.38717000  1.0 -0.1083618397
C  C67  1  0.42795000  0.31512000  0.08507000  1.0 -0.1083618397
C  C68  1  0.59288000  0.17795000  0.61283000  1.0 -0.1083618397
C  C69  1  0.01995000  0.40712000  0.58507000  1.0 -0.1083618397
C  C70  1  0.68488000  0.76995000  0.11283000  1.0 -0.1083618397
C  C71  1  0.82205000  0.43488000  0.41493000  1.0 -0.1083618397
C  C72  1  0.65712000  0.57205000  0.88717000  1.0 -0.1083618397
C  C73  1  0.12410000  0.24939000  0.93249000  1.0 -0.0670206804
C  C74  1  0.44161000  0.87410000  0.37471000  1.0 -0.0670206804
C  C75  1  0.31690000  0.19161000  0.06751000  1.0 -0.0670206804
C  C76  1  0.49939000  0.06690000  0.62529000  1.0 -0.0670206804
C  C77  1  0.12590000  0.50061000  0.56751000  1.0 -0.0670206804
C  C78  1  0.80839000  0.87590000  0.12529000  1.0 -0.0670206804
C  C79  1  0.93310000  0.55839000  0.43249000  1.0 -0.0670206804
C  C80  1  0.75061000  0.68310000  0.87471000  1.0 -0.0670206804
C  C81  1  0.01507000  0.15978000  0.90825000  1.0 -0.0782046204
C  C82  1  0.35682000  0.76507000  0.35529000  1.0 -0.0782046204
C  C83  1  0.25153000  0.10682000  0.09175000  1.0 -0.0782046204
C  C84  1  0.40978000  0.00153000  0.64471000  1.0 -0.0782046204
C  C85  1  0.23493000  0.59022000  0.59175000  1.0 -0.0782046204
C  C86  1  0.89318000  0.98493000  0.14471000  1.0 -0.0782046204
C  C87  1  0.99847000  0.64318000  0.40825000  1.0 -0.0782046204
C  C88  1  0.84022000  0.74847000  0.85529000  1.0 -0.0782046204
C  C89  1  0.90070000  0.05966000  0.92816000  1.0 0.560327808
C  C90  1  0.22254000  0.65070000  0.34104000  1.0 0.560327808
C  C91  1  0.13150000  0.97254000  0.07184000  1.0 0.560327808
C  C92  1  0.30966000  0.88150000  0.65896000  1.0 0.560327808
C  C93  1  0.34930000  0.69034000  0.57184000  1.0 0.560327808
C  C94  1  0.02746000  0.09930000  0.15896000  1.0 0.560327808
C  C95  1  0.11850000  0.77746000  0.42816000  1.0 0.560327808
C  C96  1  0.94034000  0.86850000  0.84104000  1.0 0.560327808
C  C97  1  0.42383000  0.59536000  0.97999000  1.0 0.560327808
C  C98  1  0.69384000  0.17383000  0.32847000  1.0 0.560327808
C  C99  1  0.61537000  0.44384000  0.02001000  1.0 0.560327808
C  C100  1  0.84536000  0.36537000  0.67153000  1.0 0.560327808
C  C101  1  0.82617000  0.15464000  0.52001000  1.0 0.560327808
C  C102  1  0.55616000  0.57617000  0.17153000  1.0 0.560327808
C  C103  1  0.63463000  0.30616000  0.47999000  1.0 0.560327808
C  C104  1  0.40464000  0.38463000  0.82847000  1.0 0.560327808
C  C105  1  0.55513000  0.72501000  0.00414000  1.0 -0.0670206804
C  C106  1  0.80099000  0.30513000  0.33012000  1.0 -0.0670206804
C  C107  1  0.72087000  0.55099000  0.99586000  1.0 -0.0670206804
C  C108  1  0.97501000  0.47087000  0.66988000  1.0 -0.0670206804
C  C109  1  0.69487000  0.02499000  0.49586000  1.0 -0.0670206804
C  C110  1  0.44901000  0.44487000  0.16988000  1.0 -0.0670206804
C  C111  1  0.52913000  0.19901000  0.50414000  1.0 -0.0670206804
C  C112  1  0.27499000  0.27913000  0.83012000  1.0 -0.0670206804
C  C113  1  0.65191000  0.79346000  0.99297000  1.0 -0.0470045054
C  C114  1  0.90894000  0.40191000  0.35845000  1.0 -0.0470045054
C  C115  1  0.80049000  0.65894000  0.00703000  1.0 -0.0470045054
C  C116  1  0.04346000  0.55049000  0.64155000  1.0 -0.0470045054
C  C117  1  0.59809000  0.95654000  0.50703000  1.0 -0.0470045054
C  C118  1  0.34106000  0.34809000  0.14155000  1.0 -0.0470045054
C  C119  1  0.44951000  0.09106000  0.49297000  1.0 -0.0470045054
C  C120  1  0.20654000  0.19951000  0.85845000  1.0 -0.0470045054
C  C121  1  0.77136000  0.91031000  0.01467000  1.0 -0.1083618397
C  C122  1  0.00669000  0.52136000  0.36105000  1.0 -0.1083618397
C  C123  1  0.89564000  0.75669000  0.98533000  1.0 -0.1083618397
C  C124  1  0.16031000  0.64564000  0.63895000  1.0 -0.1083618397
C  C125  1  0.47864000  0.83969000  0.48533000  1.0 -0.1083618397
C  C126  1  0.24331000  0.22864000  0.13895000  1.0 -0.1083618397
C  C127  1  0.35436000  0.99331000  0.51467000  1.0 -0.1083618397
C  C128  1  0.08969000  0.10436000  0.86105000  1.0 -0.1083618397
C  C129  1  0.79129000  0.95635000  0.04804000  1.0 0.0712666098
C  C130  1  0.99325000  0.54129000  0.33494000  1.0 0.0712666098
C  C131  1  0.90831000  0.74325000  0.95196000  1.0 0.0712666098
C  C132  1  0.20635000  0.65831000  0.66506000  1.0 0.0712666098
C  C133  1  0.45871000  0.79365000  0.45196000  1.0 0.0712666098
C  C134  1  0.25675000  0.20871000  0.16506000  1.0 0.0712666098
C  C135  1  0.34169000  0.00675000  0.54804000  1.0 0.0712666098
C  C136  1  0.04365000  0.09169000  0.83494000  1.0 0.0712666098
C  C137  1  0.58210000  0.77759000  0.03809000  1.0 0.1410038475
C  C138  1  0.79401000  0.33210000  0.30451000  1.0 0.1410038475
C  C139  1  0.73950000  0.54401000  0.96191000  1.0 0.1410038475
C  C140  1  0.02759000  0.48950000  0.69549000  1.0 0.1410038475
C  C141  1  0.66790000  0.97241000  0.46191000  1.0 0.1410038475
C  C142  1  0.45599000  0.41790000  0.19549000  1.0 0.1410038475
C  C143  1  0.51050000  0.20599000  0.53809000  1.0 0.1410038475
C  C144  1  0.22241000  0.26050000  0.80451000  1.0 0.1410038475
C  C145  1  0.48845000  0.71435000  0.05600000  1.0 0.1593153122
C  C146  1  0.68245000  0.23845000  0.27410000  1.0 0.1593153122
C  C147  1  0.65835000  0.43245000  0.94400000  1.0 0.1593153122
C  C148  1  0.96435000  0.40835000  0.72590000  1.0 0.1593153122
C  C149  1  0.76155000  0.03565000  0.44400000  1.0 0.1593153122
C  C150  1  0.56755000  0.51155000  0.22590000  1.0 0.1593153122
C  C151  1  0.59165000  0.31755000  0.55600000  1.0 0.1593153122
C  C152  1  0.28565000  0.34165000  0.77410000  1.0 0.1593153122
C  C153  1  0.42439000  0.67353000  0.11712000  1.0 0.0712666098
C  C154  1  0.55727000  0.17439000  0.25086000  1.0 0.0712666098
C  C155  1  0.55641000  0.30727000  0.88288000  1.0 0.0712666098
C  C156  1  0.92353000  0.30641000  0.74914000  1.0 0.0712666098
C  C157  1  0.82561000  0.07647000  0.38288000  1.0 0.0712666098
C  C158  1  0.69273000  0.57561000  0.24914000  1.0 0.0712666098
C  C159  1  0.69359000  0.44273000  0.61712000  1.0 0.0712666098
C  C160  1  0.32647000  0.44359000  0.75086000  1.0 0.0712666098
C  C161  1  0.31885000  0.59231000  0.09656000  1.0 -0.1469842655
C  C162  1  0.47229000  0.06885000  0.22654000  1.0 -0.1469842655
C  C163  1  0.49575000  0.22229000  0.90344000  1.0 -0.1469842655
C  C164  1  0.84231000  0.24575000  0.77346000  1.0 -0.1469842655
C  C165  1  0.93115000  0.15769000  0.40344000  1.0 -0.1469842655
C  C166  1  0.77771000  0.68115000  0.27346000  1.0 -0.1469842655
C  C167  1  0.75425000  0.52771000  0.59656000  1.0 -0.1469842655
C  C168  1  0.40769000  0.50425000  0.72654000  1.0 -0.1469842655
C  C169  1  0.30395000  0.57985000  0.05440000  1.0 -0.0430032344
C  C170  1  0.49955000  0.05395000  0.22410000  1.0 -0.0430032344
C  C171  1  0.52545000  0.24955000  0.94560000  1.0 -0.0430032344
C  C172  1  0.82985000  0.27545000  0.77590000  1.0 -0.0430032344
C  C173  1  0.94605000  0.17015000  0.44560000  1.0 -0.0430032344
C  C174  1  0.75045000  0.69605000  0.27590000  1.0 -0.0430032344
C  C175  1  0.72455000  0.50045000  0.55440000  1.0 -0.0430032344
C  C176  1  0.42015000  0.47455000  0.72410000  1.0 -0.0430032344
C  C177  1  0.39000000  0.64301000  0.03301000  1.0 -0.0782046204
C  C178  1  0.60699000  0.14000000  0.24699000  1.0 -0.0782046204
C  C179  1  0.61000000  0.35699000  0.96699000  1.0 -0.0782046204
C  C180  1  0.89301000  0.36000000  0.75301000  1.0 -0.0782046204
C  C181  1  0.86000000  0.10699000  0.46699000  1.0 -0.0782046204
C  C182  1  0.64301000  0.61000000  0.25301000  1.0 -0.0782046204
C  C183  1  0.64000000  0.39301000  0.53301000  1.0 -0.0782046204
C  C184  1  0.35699000  0.39000000  0.74699000  1.0 -0.0782046204
C  C185  1  0.38351000  0.64477000  0.98728000  1.0 0.6557759835
C  C186  1  0.64623000  0.13351000  0.23874000  1.0 0.6557759835
C  C187  1  0.65749000  0.39623000  0.01272000  1.0 0.6557759835
C  C188  1  0.89477000  0.40749000  0.76126000  1.0 0.6557759835
C  C189  1  0.86649000  0.10523000  0.51272000  1.0 0.6557759835
C  C190  1  0.60377000  0.61649000  0.26126000  1.0 0.6557759835
C  C191  1  0.59251000  0.35377000  0.48728000  1.0 0.6557759835
C  C192  1  0.35523000  0.34251000  0.73874000  1.0 0.6557759835
C  C193  1  0.41198000  0.69716000  0.84114000  1.0 0.560327808
C  C194  1  0.82084000  0.16198000  0.21482000  1.0 0.560327808
C  C195  1  0.85602000  0.57084000  0.15886000  1.0 0.560327808
C  C196  1  0.94716000  0.60602000  0.78518000  1.0 0.560327808
C  C197  1  0.83802000  0.05284000  0.65886000  1.0 0.560327808
C  C198  1  0.42916000  0.58802000  0.28518000  1.0 0.560327808
C  C199  1  0.39398000  0.17916000  0.34114000  1.0 0.560327808
C  C200  1  0.30284000  0.14398000  0.71482000  1.0 0.560327808
C  C201  1  0.32975000  0.61295000  0.79950000  1.0 -0.059638304
C  C202  1  0.78025000  0.07975000  0.21680000  1.0 -0.059638304
C  C203  1  0.81345000  0.53025000  0.20050000  1.0 -0.059638304
C  C204  1  0.86295000  0.56345000  0.78320000  1.0 -0.059638304
C  C205  1  0.92025000  0.13705000  0.70050000  1.0 -0.059638304
C  C206  1  0.46975000  0.67025000  0.28320000  1.0 -0.059638304
C  C207  1  0.43655000  0.21975000  0.29950000  1.0 -0.059638304
C  C208  1  0.38705000  0.18655000  0.71680000  1.0 -0.059638304
C  C209  1  0.34169000  0.58844000  0.77713000  1.0 -0.0782046204
C  C210  1  0.81456000  0.09169000  0.25325000  1.0 -0.0782046204
C  C211  1  0.81131000  0.56456000  0.22287000  1.0 -0.0782046204
C  C212  1  0.83844000  0.56131000  0.74675000  1.0 -0.0782046204
C  C213  1  0.90831000  0.16156000  0.72287000  1.0 -0.0782046204
C  C214  1  0.43544000  0.65831000  0.24675000  1.0 -0.0782046204
C  C215  1  0.43869000  0.18544000  0.27713000  1.0 -0.0782046204
C  C216  1  0.41156000  0.18869000  0.75325000  1.0 -0.0782046204
C  C217  1  0.27931000  0.52539000  0.73650000  1.0 -0.132908787
C  C218  1  0.79281000  0.02931000  0.25392000  1.0 -0.132908787
C  C219  1  0.78889000  0.54281000  0.26350000  1.0 -0.132908787
C  C220  1  0.77539000  0.53889000  0.74608000  1.0 -0.132908787
C  C221  1  0.97069000  0.22461000  0.76350000  1.0 -0.132908787
C  C222  1  0.45719000  0.72069000  0.24608000  1.0 -0.132908787
C  C223  1  0.46111000  0.20719000  0.23650000  1.0 -0.132908787
C  C224  1  0.47461000  0.21111000  0.75392000  1.0 -0.132908787
C  C225  1  0.20938000  0.49142000  0.71920000  1.0 0.0712666098
C  C226  1  0.74018000  0.95938000  0.21796000  1.0 0.0712666098
C  C227  1  0.77222000  0.49018000  0.28080000  1.0 0.0712666098
C  C228  1  0.74142000  0.52222000  0.78204000  1.0 0.0712666098
C  C229  1  0.04062000  0.25858000  0.78080000  1.0 0.0712666098
C  C230  1  0.50982000  0.79062000  0.28204000  1.0 0.0712666098
C  C231  1  0.47778000  0.25982000  0.21920000  1.0 0.0712666098
C  C232  1  0.50858000  0.22778000  0.71796000  1.0 0.0712666098
C  C233  1  0.24952000  0.56721000  0.78073000  1.0 0.1410038475
C  C234  1  0.71879000  0.99952000  0.18231000  1.0 0.1410038475
C  C235  1  0.78648000  0.46879000  0.21927000  1.0 0.1410038475
C  C236  1  0.81721000  0.53648000  0.81769000  1.0 0.1410038475
C  C237  1  0.00048000  0.18279000  0.71927000  1.0 0.1410038475
C  C238  1  0.53121000  0.75048000  0.31769000  1.0 0.1410038475
C  C239  1  0.46352000  0.28121000  0.28073000  1.0 0.1410038475
C  C240  1  0.43279000  0.21352000  0.68231000  1.0 0.1410038475
C  C241  1  0.21974000  0.57775000  0.80129000  1.0 0.1410038475
C  C242  1  0.66845000  0.96974000  0.14199000  1.0 0.1410038475
C  C243  1  0.77646000  0.41845000  0.19871000  1.0 0.1410038475
C  C244  1  0.82775000  0.52646000  0.85801000  1.0 0.1410038475
C  C245  1  0.03026000  0.17225000  0.69871000  1.0 0.1410038475
C  C246  1  0.58155000  0.78026000  0.35801000  1.0 0.1410038475
C  C247  1  0.47354000  0.33155000  0.30129000  1.0 0.1410038475
C  C248  1  0.42225000  0.22354000  0.64199000  1.0 0.1410038475
C  C249  1  0.19959000  0.62835000  0.79414000  1.0 0.0905469625
C  C250  1  0.65545000  0.94959000  0.07124000  1.0 0.0905469625
C  C251  1  0.83421000  0.40545000  0.20586000  1.0 0.0905469625
C  C252  1  0.87835000  0.58421000  0.92876000  1.0 0.0905469625
C  C253  1  0.05041000  0.12165000  0.70586000  1.0 0.0905469625
C  C254  1  0.59455000  0.80041000  0.42876000  1.0 0.0905469625
C  C255  1  0.41579000  0.34455000  0.29414000  1.0 0.0905469625
C  C256  1  0.37165000  0.16579000  0.57124000  1.0 0.0905469625
C  C257  1  0.17056000  0.60611000  0.83407000  1.0 -0.1083618397
C  C258  1  0.58649000  0.92056000  0.06445000  1.0 -0.1083618397
C  C259  1  0.77204000  0.33649000  0.16593000  1.0 -0.1083618397
C  C260  1  0.85611000  0.52204000  0.93555000  1.0 -0.1083618397
C  C261  1  0.07944000  0.14389000  0.66593000  1.0 -0.1083618397
C  C262  1  0.66351000  0.82944000  0.43555000  1.0 -0.1083618397
C  C263  1  0.47796000  0.41351000  0.33407000  1.0 -0.1083618397
C  C264  1  0.39389000  0.22796000  0.56445000  1.0 -0.1083618397
C  C265  1  0.16098000  0.56273000  0.85651000  1.0 -0.059638304
C  C266  1  0.55447000  0.91098000  0.09825000  1.0 -0.059638304
C  C267  1  0.70622000  0.30447000  0.14349000  1.0 -0.059638304
C  C268  1  0.81273000  0.45622000  0.90175000  1.0 -0.059638304
C  C269  1  0.08902000  0.18727000  0.64349000  1.0 -0.059638304
C  C270  1  0.69553000  0.83902000  0.40175000  1.0 -0.059638304
C  C271  1  0.54378000  0.44553000  0.35651000  1.0 -0.059638304
C  C272  1  0.43727000  0.29378000  0.59825000  1.0 -0.059638304
C  C273  1  0.18268000  0.54466000  0.84014000  1.0 -0.0670206804
C  C274  1  0.59254000  0.93268000  0.13802000  1.0 -0.0670206804
C  C275  1  0.70452000  0.34254000  0.15986000  1.0 -0.0670206804
C  C276  1  0.79466000  0.45452000  0.86198000  1.0 -0.0670206804
C  C277  1  0.06732000  0.20534000  0.65986000  1.0 -0.0670206804
C  C278  1  0.65746000  0.81732000  0.36198000  1.0 -0.0670206804
C  C279  1  0.54548000  0.40746000  0.34014000  1.0 -0.0670206804
C  C280  1  0.45534000  0.29548000  0.63802000  1.0 -0.0670206804
C  C281  1  0.15064000  0.47753000  0.86277000  1.0 0.560327808
C  C282  1  0.53787000  0.90064000  0.17311000  1.0 0.560327808
C  C283  1  0.61476000  0.28787000  0.13723000  1.0 0.560327808
C  C284  1  0.72753000  0.36476000  0.82689000  1.0 0.560327808
C  C285  1  0.09936000  0.27247000  0.63723000  1.0 0.560327808
C  C286  1  0.71213000  0.84936000  0.32689000  1.0 0.560327808
C  C287  1  0.63524000  0.46213000  0.36277000  1.0 0.560327808
C  C288  1  0.52247000  0.38524000  0.67311000  1.0 0.560327808
C  C289  1  0.69780000  0.04630000  0.94450000  1.0 0.5512201717
C  C290  1  0.00330000  0.44780000  0.15150000  1.0 0.5512201717
C  C291  1  0.10180000  0.75330000  0.05550000  1.0 0.5512201717
C  C292  1  0.29630000  0.85180000  0.84850000  1.0 0.5512201717
C  C293  1  0.55220000  0.70370000  0.55550000  1.0 0.5512201717
C  C294  1  0.24670000  0.30220000  0.34850000  1.0 0.5512201717
C  C295  1  0.14820000  0.99670000  0.44450000  1.0 0.5512201717
C  C296  1  0.95370000  0.89820000  0.65150000  1.0 0.5512201717
C  C297  1  0.76450000  0.15300000  0.94850000  1.0 -0.0871932454
C  C298  1  0.06600000  0.51450000  0.11150000  1.0 -0.0871932454
C  C299  1  0.20450000  0.81600000  0.05150000  1.0 -0.0871932454
C  C300  1  0.40300000  0.95450000  0.88850000  1.0 -0.0871932454
C  C301  1  0.48550000  0.59700000  0.55150000  1.0 -0.0871932454
C  C302  1  0.18400000  0.23550000  0.38850000  1.0 -0.0871932454
C  C303  1  0.04550000  0.93400000  0.44850000  1.0 -0.0871932454
C  C304  1  0.84700000  0.79550000  0.61150000  1.0 -0.0871932454
C  C305  1  0.75990000  0.17120000  0.91210000  1.0 -0.0782046204
C  C306  1  0.09780000  0.50990000  0.08870000  1.0 -0.0782046204
C  C307  1  0.25910000  0.84780000  0.08790000  1.0 -0.0782046204
C  C308  1  0.42120000  0.00910000  0.91130000  1.0 -0.0782046204
C  C309  1  0.49010000  0.57880000  0.58790000  1.0 -0.0782046204
C  C310  1  0.15220000  0.24010000  0.41130000  1.0 -0.0782046204
C  C311  1  0.99090000  0.90220000  0.41210000  1.0 -0.0782046204
C  C312  1  0.82880000  0.74090000  0.58870000  1.0 -0.0782046204
C  C313  1  0.81460000  0.26330000  0.90930000  1.0 -0.1586796281
C  C314  1  0.15530000  0.56460000  0.05130000  1.0 -0.1586796281
C  C315  1  0.35400000  0.90530000  0.09070000  1.0 -0.1586796281
C  C316  1  0.51330000  0.10400000  0.94870000  1.0 -0.1586796281
C  C317  1  0.43540000  0.48670000  0.59070000  1.0 -0.1586796281
C  C318  1  0.09470000  0.18540000  0.44870000  1.0 -0.1586796281
C  C319  1  0.89600000  0.84470000  0.40930000  1.0 -0.1586796281
C  C320  1  0.73670000  0.64600000  0.55130000  1.0 -0.1586796281
C  C321  1  0.84560000  0.30720000  0.95040000  1.0 0.0804701752
C  C322  1  0.14520000  0.59560000  0.03840000  1.0 0.0804701752
C  C323  1  0.35680000  0.89520000  0.04960000  1.0 0.0804701752
C  C324  1  0.55720000  0.10680000  0.96160000  1.0 0.0804701752
C  C325  1  0.40440000  0.44280000  0.54960000  1.0 0.0804701752
C  C326  1  0.10480000  0.15440000  0.46160000  1.0 0.0804701752
C  C327  1  0.89320000  0.85480000  0.45040000  1.0 0.0804701752
C  C328  1  0.69280000  0.64320000  0.53840000  1.0 0.0804701752
C  C329  1  0.82420000  0.22630000  0.98370000  1.0 0.1593153122
C  C330  1  0.09050000  0.57420000  0.09790000  1.0 0.1593153122
C  C331  1  0.24260000  0.84050000  0.01630000  1.0 0.1593153122
C  C332  1  0.47630000  0.99260000  0.90210000  1.0 0.1593153122
C  C333  1  0.42580000  0.52370000  0.51630000  1.0 0.1593153122
C  C334  1  0.15950000  0.17580000  0.40210000  1.0 0.1593153122
C  C335  1  0.00740000  0.90950000  0.48370000  1.0 0.1593153122
C  C336  1  0.77370000  0.75740000  0.59790000  1.0 0.1593153122
C  C337  1  0.84810000  0.22590000  0.02200000  1.0 0.1310979709
C  C338  1  0.07610000  0.59810000  0.12220000  1.0 0.1310979709
C  C339  1  0.20390000  0.82610000  0.97800000  1.0 0.1310979709
C  C340  1  0.47590000  0.95390000  0.87780000  1.0 0.1310979709
C  C341  1  0.40190000  0.52410000  0.47800000  1.0 0.1310979709
C  C342  1  0.17390000  0.15190000  0.37780000  1.0 0.1310979709
C  C343  1  0.04610000  0.92390000  0.52200000  1.0 0.1310979709
C  C344  1  0.77410000  0.79610000  0.62220000  1.0 0.1310979709
C  C345  1  0.85370000  0.22000000  0.09330000  1.0 0.0395556117
C  C346  1  0.01040000  0.60370000  0.13370000  1.0 0.0395556117
C  C347  1  0.12670000  0.76040000  0.90670000  1.0 0.0395556117
C  C348  1  0.47000000  0.87670000  0.86630000  1.0 0.0395556117
C  C349  1  0.39630000  0.53000000  0.40670000  1.0 0.0395556117
C  C350  1  0.23960000  0.14630000  0.36630000  1.0 0.0395556117
C  C351  1  0.12330000  0.98960000  0.59330000  1.0 0.0395556117
C  C352  1  0.78000000  0.87330000  0.63370000  1.0 0.0395556117
C  C353  1  0.92420000  0.25620000  0.09820000  1.0 -0.132908787
C  C354  1  0.07600000  0.67420000  0.16800000  1.0 -0.132908787
C  C355  1  0.15800000  0.82600000  0.90180000  1.0 -0.132908787
C  C356  1  0.50620000  0.90800000  0.83200000  1.0 -0.132908787
C  C357  1  0.32580000  0.49380000  0.40180000  1.0 -0.132908787
C  C358  1  0.17400000  0.07580000  0.33200000  1.0 -0.132908787
C  C359  1  0.09200000  0.92400000  0.59820000  1.0 -0.132908787
C  C360  1  0.74380000  0.84200000  0.66800000  1.0 -0.132908787
C  C361  1  0.95510000  0.27310000  0.06260000  1.0 -0.1164772579
C  C362  1  0.14250000  0.70510000  0.18200000  1.0 -0.1164772579
C  C363  1  0.21050000  0.89250000  0.93740000  1.0 -0.1164772579
C  C364  1  0.52310000  0.96050000  0.81800000  1.0 -0.1164772579
C  C365  1  0.29490000  0.47690000  0.43740000  1.0 -0.1164772579
C  C366  1  0.10750000  0.04490000  0.31800000  1.0 -0.1164772579
C  C367  1  0.03950000  0.85750000  0.56260000  1.0 -0.1164772579
C  C368  1  0.72690000  0.78950000  0.68200000  1.0 -0.1164772579
C  C369  1  0.92240000  0.26250000  0.02450000  1.0 -0.0782046204
C  C370  1  0.14790000  0.67240000  0.15990000  1.0 -0.0782046204
C  C371  1  0.23800000  0.89790000  0.97550000  1.0 -0.0782046204
C  C372  1  0.51250000  0.98800000  0.84010000  1.0 -0.0782046204
C  C373  1  0.32760000  0.48750000  0.47550000  1.0 -0.0782046204
C  C374  1  0.10210000  0.07760000  0.34010000  1.0 -0.0782046204
C  C375  1  0.01200000  0.85210000  0.52450000  1.0 -0.0782046204
C  C376  1  0.73750000  0.76200000  0.65990000  1.0 -0.0782046204
C  C377  1  0.97968000  0.29964000  0.98992000  1.0 0.5512201717
C  C378  1  0.23976000  0.72968000  0.18004000  1.0 0.5512201717
C  C379  1  0.30972000  0.98976000  0.01008000  1.0 0.5512201717
C  C380  1  0.54964000  0.05972000  0.81996000  1.0 0.5512201717
C  C381  1  0.27032000  0.45036000  0.51008000  1.0 0.5512201717
C  C382  1  0.01024000  0.02032000  0.31996000  1.0 0.5512201717
C  C383  1  0.94028000  0.76024000  0.48992000  1.0 0.5512201717
C  C384  1  0.70036000  0.69028000  0.68004000  1.0 0.5512201717
N  N1  1  0.89600000  0.03983000  0.80063000  1.0 -0.2577205786
N  N2  1  0.34537000  0.64600000  0.35617000  1.0 -0.2577205786
N  N3  1  0.23920000  0.09537000  0.19937000  1.0 -0.2577205786
N  N4  1  0.28983000  0.98920000  0.64383000  1.0 -0.2577205786
N  N5  1  0.35400000  0.71017000  0.69937000  1.0 -0.2577205786
N  N6  1  0.90463000  0.10400000  0.14383000  1.0 -0.2577205786
N  N7  1  0.01080000  0.65463000  0.30063000  1.0 -0.2577205786
N  N8  1  0.96017000  0.76080000  0.85617000  1.0 -0.2577205786
N  N9  1  0.11850000  0.25486000  0.84916000  1.0 -0.2577205786
N  N10  1  0.51934000  0.86850000  0.36364000  1.0 -0.2577205786
N  N11  1  0.40570000  0.26934000  0.15084000  1.0 -0.2577205786
N  N12  1  0.50486000  0.15570000  0.63636000  1.0 -0.2577205786
N  N13  1  0.13150000  0.49514000  0.65084000  1.0 -0.2577205786
N  N14  1  0.73066000  0.88150000  0.13636000  1.0 -0.2577205786
N  N15  1  0.84430000  0.48066000  0.34916000  1.0 -0.2577205786
N  N16  1  0.74514000  0.59430000  0.86364000  1.0 -0.2577205786
N  N17  1  0.69914000  0.89151000  0.05965000  1.0 -0.2577205786
N  N18  1  0.88949000  0.44914000  0.30763000  1.0 -0.2577205786
N  N19  1  0.83186000  0.63949000  0.94035000  1.0 -0.2577205786
N  N20  1  0.14151000  0.58186000  0.69237000  1.0 -0.2577205786
N  N21  1  0.55086000  0.85849000  0.44035000  1.0 -0.2577205786
N  N22  1  0.36051000  0.30086000  0.19237000  1.0 -0.2577205786
N  N23  1  0.41814000  0.11051000  0.55965000  1.0 -0.2577205786
N  N24  1  0.10849000  0.16814000  0.80763000  1.0 -0.2577205786
N  N25  1  0.50860000  0.73433000  0.09733000  1.0 -0.2577205786
N  N26  1  0.66127000  0.25860000  0.27427000  1.0 -0.2577205786
N  N27  1  0.63700000  0.41127000  0.90267000  1.0 -0.2577205786
N  N28  1  0.98433000  0.38700000  0.72573000  1.0 -0.2577205786
N  N29  1  0.74140000  0.01567000  0.40267000  1.0 -0.2577205786
N  N30  1  0.58873000  0.49140000  0.22573000  1.0 -0.2577205786
N  N31  1  0.61300000  0.33873000  0.59733000  1.0 -0.2577205786
N  N32  1  0.26567000  0.36300000  0.77427000  1.0 -0.2577205786
N  N33  1  0.22229000  0.61333000  0.77822000  1.0 -0.2538370335
N  N34  1  0.69407000  0.97229000  0.10896000  1.0 -0.2538370335
N  N35  1  0.83511000  0.44407000  0.22178000  1.0 -0.2538370335
N  N36  1  0.86333000  0.58511000  0.89104000  1.0 -0.2538370335
N  N37  1  0.02771000  0.13667000  0.72178000  1.0 -0.2538370335
N  N38  1  0.55593000  0.77771000  0.39104000  1.0 -0.2538370335
N  N39  1  0.41489000  0.30593000  0.27822000  1.0 -0.2538370335
N  N40  1  0.38667000  0.16489000  0.60896000  1.0 -0.2538370335
N  N41  1  0.19528000  0.51270000  0.74058000  1.0 -0.2577205786
N  N42  1  0.70470000  0.94528000  0.18258000  1.0 -0.2577205786
N  N43  1  0.77212000  0.45470000  0.25942000  1.0 -0.2577205786
N  N44  1  0.76270000  0.52212000  0.81742000  1.0 -0.2577205786
N  N45  1  0.05472000  0.23730000  0.75942000  1.0 -0.2577205786
N  N46  1  0.54530000  0.80472000  0.31742000  1.0 -0.2577205786
N  N47  1  0.47788000  0.29530000  0.24058000  1.0 -0.2577205786
N  N48  1  0.48730000  0.22788000  0.68258000  1.0 -0.2577205786
N  N49  1  0.80710000  0.19990000  0.06160000  1.0 -0.291333455
N  N50  1  0.99550000  0.55710000  0.10720000  1.0 -0.291333455
N  N51  1  0.13830000  0.74550000  0.93840000  1.0 -0.291333455
N  N52  1  0.44990000  0.88830000  0.89280000  1.0 -0.291333455
N  N53  1  0.44290000  0.55010000  0.43840000  1.0 -0.291333455
N  N54  1  0.25450000  0.19290000  0.39280000  1.0 -0.291333455
N  N55  1  0.11170000  0.00450000  0.56160000  1.0 -0.291333455
N  N56  1  0.80010000  0.86170000  0.60720000  1.0 -0.291333455
N  N57  1  0.85330000  0.29400000  0.98550000  1.0 -0.2667233342
N  N58  1  0.11780000  0.60330000  0.05930000  1.0 -0.2667233342
N  N59  1  0.30850000  0.86780000  0.01450000  1.0 -0.2667233342
N  N60  1  0.54400000  0.05850000  0.94070000  1.0 -0.2667233342
N  N61  1  0.39670000  0.45600000  0.51450000  1.0 -0.2667233342
N  N62  1  0.13220000  0.14670000  0.44070000  1.0 -0.2667233342
N  N63  1  0.94150000  0.88220000  0.48550000  1.0 -0.2667233342
N  N64  1  0.70600000  0.69150000  0.55930000  1.0 -0.2667233342
O  O1  1  0.73792000  0.99190000  0.88282000  1.0 -0.6393340708
O  O2  1  0.10510000  0.48792000  0.24602000  1.0 -0.6393340708
O  O3  1  0.10908000  0.85510000  0.11718000  1.0 -0.6393340708
O  O4  1  0.24190000  0.85908000  0.75398000  1.0 -0.6393340708
O  O5  1  0.51208000  0.75810000  0.61718000  1.0 -0.6393340708
O  O6  1  0.14490000  0.26208000  0.25398000  1.0 -0.6393340708
O  O7  1  0.14092000  0.89490000  0.38282000  1.0 -0.6393340708
O  O8  1  0.00810000  0.89092000  0.74602000  1.0 -0.6393340708
O  O9  1  0.94439000  0.17973000  0.88872000  1.0 -0.6714677283
O  O10  1  0.30567000  0.69439000  0.26466000  1.0 -0.6714677283
O  O11  1  0.29101000  0.05567000  0.11128000  1.0 -0.6714677283
O  O12  1  0.42973000  0.04101000  0.73534000  1.0 -0.6714677283
O  O13  1  0.30561000  0.57027000  0.61128000  1.0 -0.6714677283
O  O14  1  0.94433000  0.05561000  0.23534000  1.0 -0.6714677283
O  O15  1  0.95899000  0.69433000  0.38872000  1.0 -0.6714677283
O  O16  1  0.82027000  0.70899000  0.76466000  1.0 -0.6714677283
O  O17  1  0.91604000  0.09458000  0.96102000  1.0 -0.5397168727
O  O18  1  0.20502000  0.66604000  0.32146000  1.0 -0.5397168727
O  O19  1  0.13356000  0.95502000  0.03898000  1.0 -0.5397168727
O  O20  1  0.34458000  0.88356000  0.67854000  1.0 -0.5397168727
O  O21  1  0.33396000  0.65542000  0.53898000  1.0 -0.5397168727
O  O22  1  0.04498000  0.08396000  0.17854000  1.0 -0.5397168727
O  O23  1  0.11644000  0.79498000  0.46102000  1.0 -0.5397168727
O  O24  1  0.90542000  0.86644000  0.82146000  1.0 -0.5397168727
O  O25  1  0.79804000  0.94798000  0.91002000  1.0 -0.5617888303
O  O26  1  0.13802000  0.54804000  0.35006000  1.0 -0.5617888303
O  O27  1  0.03796000  0.88802000  0.08998000  1.0 -0.5617888303
O  O28  1  0.19798000  0.78796000  0.64994000  1.0 -0.5617888303
O  O29  1  0.45196000  0.80202000  0.58998000  1.0 -0.5617888303
O  O30  1  0.11198000  0.20196000  0.14994000  1.0 -0.5617888303
O  O31  1  0.21204000  0.86198000  0.41002000  1.0 -0.5617888303
O  O32  1  0.05202000  0.96204000  0.85006000  1.0 -0.5617888303
O  O33  1  0.49798000  0.80387000  0.84445000  1.0 -0.5952246444
O  O34  1  0.90353000  0.24798000  0.19411000  1.0 -0.5952246444
O  O35  1  0.95942000  0.65353000  0.15555000  1.0 -0.5952246444
O  O36  1  0.05387000  0.70942000  0.80589000  1.0 -0.5952246444
O  O37  1  0.75202000  0.94613000  0.65555000  1.0 -0.5952246444
O  O38  1  0.34647000  0.50202000  0.30589000  1.0 -0.5952246444
O  O39  1  0.29058000  0.09647000  0.34445000  1.0 -0.5952246444
O  O40  1  0.19613000  0.04058000  0.69411000  1.0 -0.5952246444
O  O41  1  0.39535000  0.65976000  0.87091000  1.0 -0.6393340708
O  O42  1  0.77444000  0.14535000  0.23559000  1.0 -0.6393340708
O  O43  1  0.78885000  0.52444000  0.12909000  1.0 -0.6393340708
O  O44  1  0.90976000  0.53885000  0.76441000  1.0 -0.6393340708
O  O45  1  0.85465000  0.09024000  0.62909000  1.0 -0.6393340708
O  O46  1  0.47556000  0.60465000  0.26441000  1.0 -0.6393340708
O  O47  1  0.46115000  0.22556000  0.37091000  1.0 -0.6393340708
O  O48  1  0.34024000  0.21115000  0.73559000  1.0 -0.6393340708
O  O49  1  0.10031000  0.40066000  0.84377000  1.0 -0.5775471473
O  O50  1  0.50654000  0.85031000  0.19965000  1.0 -0.5775471473
O  O51  1  0.55689000  0.25654000  0.15623000  1.0 -0.5775471473
O  O52  1  0.65066000  0.30689000  0.80035000  1.0 -0.5775471473
O  O53  1  0.14969000  0.34934000  0.65623000  1.0 -0.5775471473
O  O54  1  0.74346000  0.89969000  0.30035000  1.0 -0.5775471473
O  O55  1  0.69311000  0.49346000  0.34377000  1.0 -0.5775471473
O  O56  1  0.59934000  0.44311000  0.69965000  1.0 -0.5775471473
O  O57  1  0.17660000  0.50495000  0.90215000  1.0 -0.6451337741
O  O58  1  0.52445000  0.92660000  0.17165000  1.0 -0.6451337741
O  O59  1  0.60280000  0.27445000  0.09785000  1.0 -0.6451337741
O  O60  1  0.75495000  0.35280000  0.82835000  1.0 -0.6451337741
O  O61  1  0.07340000  0.24505000  0.59785000  1.0 -0.6451337741
O  O62  1  0.72555000  0.82340000  0.32835000  1.0 -0.6451337741
O  O63  1  0.64720000  0.47555000  0.40215000  1.0 -0.6451337741
O  O64  1  0.49505000  0.39720000  0.67165000  1.0 -0.6451337741
O  O65  1  0.41170000  0.58517000  0.94167000  1.0 -0.5475976871
O  O66  1  0.72003000  0.16170000  0.32653000  1.0 -0.5475976871
O  O67  1  0.64350000  0.47003000  0.05833000  1.0 -0.5475976871
O  O68  1  0.83517000  0.39350000  0.67347000  1.0 -0.5475976871
O  O69  1  0.83830000  0.16483000  0.55833000  1.0 -0.5475976871
O  O70  1  0.52997000  0.58830000  0.17347000  1.0 -0.5475976871
O  O71  1  0.60650000  0.27997000  0.44167000  1.0 -0.5475976871
O  O72  1  0.41483000  0.35650000  0.82653000  1.0 -0.5475976871
O  O73  1  0.33705000  0.50791000  0.00056000  1.0 -0.5651023792
O  O74  1  0.58649000  0.08705000  0.32914000  1.0 -0.5651023792
O  O75  1  0.50735000  0.33649000  0.99944000  1.0 -0.5651023792
O  O76  1  0.75791000  0.25735000  0.67086000  1.0 -0.5651023792
O  O77  1  0.91295000  0.24209000  0.49944000  1.0 -0.5651023792
O  O78  1  0.66351000  0.66295000  0.17086000  1.0 -0.5651023792
O  O79  1  0.74265000  0.41351000  0.50056000  1.0 -0.5651023792
O  O80  1  0.49209000  0.49265000  0.82914000  1.0 -0.5651023792
O  O81  1  0.48623000  0.74401000  0.97484000  1.0 -0.6714677283
O  O82  1  0.76139000  0.23623000  0.24222000  1.0 -0.6714677283
O  O83  1  0.76917000  0.51139000  0.02516000  1.0 -0.6714677283
O  O84  1  0.99401000  0.51917000  0.75778000  1.0 -0.6714677283
O  O85  1  0.76377000  0.00599000  0.52516000  1.0 -0.6714677283
O  O86  1  0.48861000  0.51377000  0.25778000  1.0 -0.6714677283
O  O87  1  0.48083000  0.23861000  0.47484000  1.0 -0.6714677283
O  O88  1  0.25599000  0.23083000  0.74222000  1.0 -0.6714677283
O  O89  1  0.27771000  0.55020000  0.96691000  1.0 -0.6393340708
O  O90  1  0.56080000  0.02771000  0.22751000  1.0 -0.6393340708
O  O91  1  0.58329000  0.31080000  0.03309000  1.0 -0.6393340708
O  O92  1  0.80020000  0.33329000  0.77249000  1.0 -0.6393340708
O  O93  1  0.97229000  0.19980000  0.53309000  1.0 -0.6393340708
O  O94  1  0.68920000  0.72229000  0.27249000  1.0 -0.6393340708
O  O95  1  0.66666667  0.43920000  0.46691000  1.0 -0.6393340708
O  O96  1  0.44980000  0.41671000  0.72751000  1.0 -0.6393340708
O  O97  1  0.21998000  0.44392000  0.89170000  1.0 -0.7640688227
O  O98  1  0.57828000  0.96998000  0.27606000  1.0 -0.7640688227
O  O99  1  0.55222000  0.32828000  0.10830000  1.0 -0.7640688227
O  O100  1  0.69392000  0.30222000  0.72394000  1.0 -0.7640688227
O  O101  1  0.03002000  0.30608000  0.60830000  1.0 -0.7640688227
O  O102  1  0.67172000  0.78002000  0.22394000  1.0 -0.7640688227
O  O103  1  0.69778000  0.42172000  0.39170000  1.0 -0.7640688227
O  O104  1  0.55608000  0.44778000  0.77606000  1.0 -0.7640688227
O  O105  1  0.11578000  0.33242000  0.96880000  1.0 -0.7797458278
O  O106  1  0.39698000  0.86578000  0.28336000  1.0 -0.7797458278
O  O107  1  0.36362000  0.14698000  0.03120000  1.0 -0.7797458278
O  O108  1  0.58242000  0.11362000  0.71664000  1.0 -0.7797458278
O  O109  1  0.13422000  0.41758000  0.53120000  1.0 -0.7797458278
O  O110  1  0.85302000  0.88422000  0.21664000  1.0 -0.7797458278
O  O111  1  0.88638000  0.60302000  0.46880000  1.0 -0.7797458278
O  O112  1  0.66758000  0.63638000  0.78336000  1.0 -0.7797458278
O  O113  1  0.90505000  0.22902000  0.89387000  1.0 -0.7912696556
O  O114  1  0.26118000  0.65505000  0.17603000  1.0 -0.7912696556
O  O115  1  0.33515000  0.01118000  0.10613000  1.0 -0.7912696556
O  O116  1  0.47902000  0.08515000  0.82397000  1.0 -0.7912696556
O  O117  1  0.34495000  0.52098000  0.60613000  1.0 -0.7912696556
O  O118  1  0.98882000  0.09495000  0.32397000  1.0 -0.7912696556
O  O119  1  0.91485000  0.73882000  0.39387000  1.0 -0.7912696556
O  O120  1  0.77098000  0.66485000  0.67603000  1.0 -0.7912696556
O  O121  1  0.42219000  0.75565000  0.92944000  1.0 -0.7797458278
O  O122  1  0.74275000  0.17219000  0.16654000  1.0 -0.7797458278
O  O123  1  0.82621000  0.49275000  0.07056000  1.0 -0.7797458278
O  O124  1  0.00565000  0.57621000  0.83346000  1.0 -0.7797458278
O  O125  1  0.82781000  0.99435000  0.57056000  1.0 -0.7797458278
O  O126  1  0.50725000  0.57781000  0.33346000  1.0 -0.7797458278
O  O127  1  0.42379000  0.25725000  0.42944000  1.0 -0.7797458278
O  O128  1  0.24435000  0.17379000  0.66654000  1.0 -0.7797458278
O  O129  1  0.75002000  0.99876000  0.97418000  1.0 -0.7524639473
O  O130  1  0.02584000  0.50002000  0.25126000  1.0 -0.7524639473
O  O131  1  0.02458000  0.77584000  0.02582000  1.0 -0.7524639473
O  O132  1  0.24876000  0.77458000  0.74874000  1.0 -0.7524639473
O  O133  1  0.49998000  0.75124000  0.52582000  1.0 -0.7524639473
O  O134  1  0.22416000  0.24998000  0.24874000  1.0 -0.7524639473
O  O135  1  0.22542000  0.97416000  0.47418000  1.0 -0.7524639473
O  O136  1  0.00124000  0.97542000  0.75126000  1.0 -0.7524639473
O  O137  1  0.68701000  0.02069000  0.91330000  1.0 -0.456399049
O  O138  1  0.02371000  0.43701000  0.16632000  1.0 -0.456399049
O  O139  1  0.10739000  0.77371000  0.08670000  1.0 -0.456399049
O  O140  1  0.27069000  0.85739000  0.83368000  1.0 -0.456399049
O  O141  1  0.56299000  0.72931000  0.58670000  1.0 -0.456399049
O  O142  1  0.22629000  0.31299000  0.33368000  1.0 -0.456399049
O  O143  1  0.14261000  0.97629000  0.41330000  1.0 -0.456399049
O  O144  1  0.97931000  0.89261000  0.66632000  1.0 -0.456399049
O  O145  1  0.65596000  0.99262000  0.97438000  1.0 -0.5475976871
O  O146  1  0.93158000  0.40596000  0.16334000  1.0 -0.5475976871
O  O147  1  0.01824000  0.68158000  0.02562000  1.0 -0.5475976871
O  O148  1  0.24262000  0.76824000  0.83666000  1.0 -0.5475976871
O  O149  1  0.59404000  0.75738000  0.52562000  1.0 -0.5475976871
O  O150  1  0.31842000  0.34404000  0.33666000  1.0 -0.5475976871
O  O151  1  0.23176000  0.06842000  0.47438000  1.0 -0.5475976871
O  O152  1  0.00738000  0.98176000  0.66334000  1.0 -0.5475976871
O  O153  1  0.94411000  0.23147000  0.97538000  1.0 -0.5617888303
O  O154  1  0.21873000  0.69411000  0.21264000  1.0 -0.5617888303
O  O155  1  0.25609000  0.96873000  0.02462000  1.0 -0.5617888303
O  O156  1  0.48147000  0.00609000  0.78736000  1.0 -0.5617888303
O  O157  1  0.30589000  0.51853000  0.52462000  1.0 -0.5617888303
O  O158  1  0.03127000  0.05589000  0.28736000  1.0 -0.5617888303
O  O159  1  0.99391000  0.78127000  0.47538000  1.0 -0.5617888303
O  O160  1  0.76853000  0.74391000  0.71264000  1.0 -0.5617888303
O  O161  1  0.06069000  0.39524000  0.97593000  1.0 -0.5775471473
O  O162  1  0.33476000  0.81069000  0.16545000  1.0 -0.5775471473
O  O163  1  0.41931000  0.08476000  0.02407000  1.0 -0.5775471473
O  O164  1  0.64524000  0.16931000  0.83455000  1.0 -0.5775471473
O  O165  1  0.18931000  0.35476000  0.52407000  1.0 -0.5775471473
O  O166  1  0.91524000  0.93931000  0.33455000  1.0 -0.5775471473
O  O167  1  0.83069000  0.66524000  0.47593000  1.0 -0.5775471473
O  O168  1  0.60476000  0.58069000  0.66545000  1.0 -0.5775471473
O  O169  1  0.58920000  0.79368000  0.91208000  1.0 -0.7693765865
O  O170  1  0.92712000  0.33920000  0.29552000  1.0 -0.7693765865
O  O171  1  0.88160000  0.67712000  0.08792000  1.0 -0.7693765865
O  O172  1  0.04368000  0.63160000  0.70448000  1.0 -0.7693765865
O  O173  1  0.66080000  0.95632000  0.58792000  1.0 -0.7693765865
O  O174  1  0.32288000  0.41080000  0.20448000  1.0 -0.7693765865
O  O175  1  0.36840000  0.07288000  0.41208000  1.0 -0.7693765865
O  O176  1  0.20632000  0.11840000  0.79552000  1.0 -0.7693765865
