# DDEC6 charges by PACMAN v1.1 (https://github.com/mtap-research/PACMAN-charge/)
data_MIGKIA_FSR_pacman
_symmetry_space_group_name_H-M   'P 1'
_cell_length_a   22.28550000
_cell_length_b   22.28550000
_cell_length_c   28.93860000
_cell_angle_alpha   90.00000000
_cell_angle_beta   90.00000000
_cell_angle_gamma   120.00000000
_symmetry_Int_Tables_number   1
_chemical_formula_structural   Ho4H43C55O19F7
_chemical_formula_sum   'Ho24 H258 C330 O114 F42'
_cell_volume   12446.66249649
_cell_formula_units_Z   6
loop_
 _symmetry_equiv_pos_site_id
 _symmetry_equiv_pos_as_xyz
  1  'x, y, z'
loop_
 _atom_site_type_symbol
 _atom_site_label
 _atom_site_symmetry_multiplicity
 _atom_site_fract_x
 _atom_site_fract_y
 _atom_site_fract_z
 _atom_site_occupancy
 _atom_site_charge
Ho  Ho1  1  0.21186000  0.09650000  0.75000000  1.0 2.0770811302
Ho  Ho2  1  0.90350000  0.11536000  0.75000000  1.0 2.0770811302
Ho  Ho3  1  0.88464000  0.78814000  0.75000000  1.0 2.0770811302
Ho  Ho4  1  0.09650000  0.21186000  0.25000000  1.0 2.0770811302
Ho  Ho5  1  0.11536000  0.90350000  0.25000000  1.0 2.0770811302
Ho  Ho6  1  0.78814000  0.88464000  0.25000000  1.0 2.0770811302
Ho  Ho7  1  0.54741000  0.25026000  0.75000000  1.0 2.0195558927
Ho  Ho8  1  0.74974000  0.29715000  0.75000000  1.0 2.0195558927
Ho  Ho9  1  0.70285000  0.45259000  0.75000000  1.0 2.0195558927
Ho  Ho10  1  0.25026000  0.54741000  0.25000000  1.0 2.0195558927
Ho  Ho11  1  0.29715000  0.74974000  0.25000000  1.0 2.0195558927
Ho  Ho12  1  0.45259000  0.70285000  0.25000000  1.0 2.0195558927
Ho  Ho13  1  0.05220000  0.93862000  0.68398000  1.0 1.9133059087
Ho  Ho14  1  0.06138000  0.11358000  0.68398000  1.0 1.9133059087
Ho  Ho15  1  0.88642000  0.94780000  0.68398000  1.0 1.9133059087
Ho  Ho16  1  0.05220000  0.93862000  0.81602000  1.0 1.9133059087
Ho  Ho17  1  0.06138000  0.11358000  0.81602000  1.0 1.9133059087
Ho  Ho18  1  0.88642000  0.94780000  0.81602000  1.0 1.9133059087
Ho  Ho19  1  0.93862000  0.05220000  0.31602000  1.0 1.9133059087
Ho  Ho20  1  0.11358000  0.06138000  0.31602000  1.0 1.9133059087
Ho  Ho21  1  0.94780000  0.88642000  0.31602000  1.0 1.9164593282
Ho  Ho22  1  0.93862000  0.05220000  0.18398000  1.0 1.9133059087
Ho  Ho23  1  0.11358000  0.06138000  0.18398000  1.0 1.9133059087
Ho  Ho24  1  0.94780000  0.88642000  0.18398000  1.0 1.9164593282
H  H1  1  0.36089000  0.24850000  0.75000000  1.0 0.1031266273
H  H2  1  0.75150000  0.11239000  0.75000000  1.0 0.1031266273
H  H3  1  0.88761000  0.63911000  0.75000000  1.0 0.1031266273
H  H4  1  0.24850000  0.36089000  0.25000000  1.0 0.1031266273
H  H5  1  0.11239000  0.75150000  0.25000000  1.0 0.1031266273
H  H6  1  0.63911000  0.88761000  0.25000000  1.0 0.1031266273
H  H7  1  0.35395000  0.04712000  0.68135000  1.0 0.0930028924
H  H8  1  0.95288000  0.30683000  0.68135000  1.0 0.0930028924
H  H9  1  0.69317000  0.64605000  0.68135000  1.0 0.0930028924
H  H10  1  0.35395000  0.04712000  0.81865000  1.0 0.0930028924
H  H11  1  0.95288000  0.30683000  0.81865000  1.0 0.0930028924
H  H12  1  0.69317000  0.64605000  0.81865000  1.0 0.0930028924
H  H13  1  0.04712000  0.35395000  0.31865000  1.0 0.0930028924
H  H14  1  0.30683000  0.95288000  0.31865000  1.0 0.0930028924
H  H15  1  0.64605000  0.69317000  0.31865000  1.0 0.0930028924
H  H16  1  0.04712000  0.35395000  0.18135000  1.0 0.0930028924
H  H17  1  0.30683000  0.95288000  0.18135000  1.0 0.0930028924
H  H18  1  0.64605000  0.69317000  0.18135000  1.0 0.0930028924
H  H19  1  0.48636000  0.96843000  0.63132000  1.0 0.1031266273
H  H20  1  0.03157000  0.51793000  0.63132000  1.0 0.1031266273
H  H21  1  0.48207000  0.51364000  0.63132000  1.0 0.1031266273
H  H22  1  0.48636000  0.96843000  0.86868000  1.0 0.1031266273
H  H23  1  0.03157000  0.51793000  0.86868000  1.0 0.1031266273
H  H24  1  0.48207000  0.51364000  0.86868000  1.0 0.1031266273
H  H25  1  0.96843000  0.48636000  0.36868000  1.0 0.1031266273
H  H26  1  0.51793000  0.03157000  0.36868000  1.0 0.1031266273
H  H27  1  0.51364000  0.48207000  0.36868000  1.0 0.1031266273
H  H28  1  0.96843000  0.48636000  0.13132000  1.0 0.1031266273
H  H29  1  0.51793000  0.03157000  0.13132000  1.0 0.1031266273
H  H30  1  0.51364000  0.48207000  0.13132000  1.0 0.1031266273
H  H31  1  0.43138000  0.01978000  0.64709000  1.0 0.0930028924
H  H32  1  0.98022000  0.41160000  0.64709000  1.0 0.0930028924
H  H33  1  0.58840000  0.56862000  0.64709000  1.0 0.0930028924
H  H34  1  0.43138000  0.01978000  0.85291000  1.0 0.0930028924
H  H35  1  0.98022000  0.41160000  0.85291000  1.0 0.0930028924
H  H36  1  0.58840000  0.56862000  0.85291000  1.0 0.0930028924
H  H37  1  0.01978000  0.43138000  0.35291000  1.0 0.0930028924
H  H38  1  0.41160000  0.98022000  0.35291000  1.0 0.0930028924
H  H39  1  0.56862000  0.58840000  0.35291000  1.0 0.0930028924
H  H40  1  0.01978000  0.43138000  0.14709000  1.0 0.0930028924
H  H41  1  0.41160000  0.98022000  0.14709000  1.0 0.0930028924
H  H42  1  0.56862000  0.58840000  0.14709000  1.0 0.0930028924
H  H43  1  0.54708000  0.90145000  0.52153000  1.0 0.1073894103
H  H44  1  0.09855000  0.64563000  0.52153000  1.0 0.1073894103
H  H45  1  0.35437000  0.45292000  0.52153000  1.0 0.1073894103
H  H46  1  0.54708000  0.90145000  0.97847000  1.0 0.1073894103
H  H47  1  0.09855000  0.64563000  0.97847000  1.0 0.1073894103
H  H48  1  0.35437000  0.45292000  0.97847000  1.0 0.1073894103
H  H49  1  0.90145000  0.54708000  0.47847000  1.0 0.1073894103
H  H50  1  0.64563000  0.09855000  0.47847000  1.0 0.1073894103
H  H51  1  0.45292000  0.35437000  0.47847000  1.0 0.1073894103
H  H52  1  0.90145000  0.54708000  0.02153000  1.0 0.1073894103
H  H53  1  0.64563000  0.09855000  0.02153000  1.0 0.1073894103
H  H54  1  0.45292000  0.35437000  0.02153000  1.0 0.1073894103
H  H55  1  0.27897000  0.87845000  0.56540000  1.0 0.1031266273
H  H56  1  0.12155000  0.40052000  0.56540000  1.0 0.1031266273
H  H57  1  0.59948000  0.72103000  0.56540000  1.0 0.1031266273
H  H58  1  0.27897000  0.87845000  0.93460000  1.0 0.1031266273
H  H59  1  0.12155000  0.40052000  0.93460000  1.0 0.1031266273
H  H60  1  0.59948000  0.72103000  0.93460000  1.0 0.1031266273
H  H61  1  0.87845000  0.27897000  0.43460000  1.0 0.1031266273
H  H62  1  0.40052000  0.12155000  0.43460000  1.0 0.1031266273
H  H63  1  0.72103000  0.59948000  0.43460000  1.0 0.1031266273
H  H64  1  0.87845000  0.27897000  0.06540000  1.0 0.1031266273
H  H65  1  0.40052000  0.12155000  0.06540000  1.0 0.1031266273
H  H66  1  0.72103000  0.59948000  0.06540000  1.0 0.1031266273
H  H67  1  0.19751000  0.89653000  0.60586000  1.0 0.1031266273
H  H68  1  0.10347000  0.30098000  0.60586000  1.0 0.1073894103
H  H69  1  0.69902000  0.80249000  0.60586000  1.0 0.1031266273
H  H70  1  0.19751000  0.89653000  0.89414000  1.0 0.1031266273
H  H71  1  0.10347000  0.30098000  0.89414000  1.0 0.1031266273
H  H72  1  0.69902000  0.80249000  0.89414000  1.0 0.1031266273
H  H73  1  0.89653000  0.19751000  0.39414000  1.0 0.1031266273
H  H74  1  0.30098000  0.10347000  0.39414000  1.0 0.1031266273
H  H75  1  0.80249000  0.69902000  0.39414000  1.0 0.1031266273
H  H76  1  0.89653000  0.19751000  0.10586000  1.0 0.1031266273
H  H77  1  0.30098000  0.10347000  0.10586000  1.0 0.1031266273
H  H78  1  0.80249000  0.69902000  0.10586000  1.0 0.1031266273
H  H79  1  0.48855000  0.80580000  0.47696000  1.0 0.1073894103
H  H80  1  0.19420000  0.68275000  0.47696000  1.0 0.1073894103
H  H81  1  0.31725000  0.51145000  0.47696000  1.0 0.1073894103
H  H82  1  0.48855000  0.80580000  0.02304000  1.0 0.1073894103
H  H83  1  0.19420000  0.68275000  0.02304000  1.0 0.1073894103
H  H84  1  0.31725000  0.51145000  0.02304000  1.0 0.1073894103
H  H85  1  0.80580000  0.48855000  0.52304000  1.0 0.1073894103
H  H86  1  0.68275000  0.19420000  0.52304000  1.0 0.1073894103
H  H87  1  0.51145000  0.31725000  0.52304000  1.0 0.1073894103
H  H88  1  0.80580000  0.48855000  0.97696000  1.0 0.1073894103
H  H89  1  0.68275000  0.19420000  0.97696000  1.0 0.1073894103
H  H90  1  0.51145000  0.31725000  0.97696000  1.0 0.1073894103
H  H91  1  0.61104000  0.05442000  0.62620000  1.0 0.1031266273
H  H92  1  0.94558000  0.55662000  0.62620000  1.0 0.1031266273
H  H93  1  0.44338000  0.38896000  0.62620000  1.0 0.1031266273
H  H94  1  0.61104000  0.05442000  0.87380000  1.0 0.1031266273
H  H95  1  0.94558000  0.55662000  0.87380000  1.0 0.1031266273
H  H96  1  0.44338000  0.38896000  0.87380000  1.0 0.1031266273
H  H97  1  0.05442000  0.61104000  0.37380000  1.0 0.1031266273
H  H98  1  0.55662000  0.94558000  0.37380000  1.0 0.1031266273
H  H99  1  0.38896000  0.44338000  0.37380000  1.0 0.1031266273
H  H100  1  0.05442000  0.61104000  0.12620000  1.0 0.1031266273
H  H101  1  0.55662000  0.94558000  0.12620000  1.0 0.1031266273
H  H102  1  0.38896000  0.44338000  0.12620000  1.0 0.1031266273
H  H103  1  0.71544000  0.08420000  0.66496000  1.0 0.1073894103
H  H104  1  0.91580000  0.63124000  0.66496000  1.0 0.1073894103
H  H105  1  0.36876000  0.28456000  0.66496000  1.0 0.1073894103
H  H106  1  0.71544000  0.08420000  0.83504000  1.0 0.1073894103
H  H107  1  0.91580000  0.63124000  0.83504000  1.0 0.1073894103
H  H108  1  0.36876000  0.28456000  0.83504000  1.0 0.1073894103
H  H109  1  0.08420000  0.71544000  0.33504000  1.0 0.1073894103
H  H110  1  0.63124000  0.91580000  0.33504000  1.0 0.1073894103
H  H111  1  0.28456000  0.36876000  0.33504000  1.0 0.1073894103
H  H112  1  0.08420000  0.71544000  0.16496000  1.0 0.1073894103
H  H113  1  0.63124000  0.91580000  0.16496000  1.0 0.1073894103
H  H114  1  0.28456000  0.36876000  0.16496000  1.0 0.1073894103
H  H115  1  0.69727000  0.90122000  0.62883000  1.0 0.1073894103
H  H116  1  0.09878000  0.79605000  0.62883000  1.0 0.1073894103
H  H117  1  0.20395000  0.30273000  0.62883000  1.0 0.1073894103
H  H118  1  0.69727000  0.90122000  0.87117000  1.0 0.1073894103
H  H119  1  0.09878000  0.79605000  0.87117000  1.0 0.1073894103
H  H120  1  0.20395000  0.30273000  0.87117000  1.0 0.1073894103
H  H121  1  0.90122000  0.69727000  0.37117000  1.0 0.1073894103
H  H122  1  0.79605000  0.09878000  0.37117000  1.0 0.1073894103
H  H123  1  0.30273000  0.20395000  0.37117000  1.0 0.1073894103
H  H124  1  0.90122000  0.69727000  0.12883000  1.0 0.1073894103
H  H125  1  0.79605000  0.09878000  0.12883000  1.0 0.1073894103
H  H126  1  0.30273000  0.20395000  0.12883000  1.0 0.1073894103
H  H127  1  0.37253000  0.86226000  0.36718000  1.0 0.1031266273
H  H128  1  0.13774000  0.51027000  0.36718000  1.0 0.1031266273
H  H129  1  0.48973000  0.62747000  0.36718000  1.0 0.1031266273
H  H130  1  0.37253000  0.86226000  0.13282000  1.0 0.1031266273
H  H131  1  0.13774000  0.51027000  0.13282000  1.0 0.1031266273
H  H132  1  0.48973000  0.62747000  0.13282000  1.0 0.1031266273
H  H133  1  0.86226000  0.37253000  0.63282000  1.0 0.1031266273
H  H134  1  0.51027000  0.13774000  0.63282000  1.0 0.1031266273
H  H135  1  0.62747000  0.48973000  0.63282000  1.0 0.1031266273
H  H136  1  0.86226000  0.37253000  0.86718000  1.0 0.1031266273
H  H137  1  0.51027000  0.13774000  0.86718000  1.0 0.1031266273
H  H138  1  0.62747000  0.48973000  0.86718000  1.0 0.1031266273
H  H139  1  0.38324000  0.90167000  0.44323000  1.0 0.1031266273
H  H140  1  0.09833000  0.48157000  0.44323000  1.0 0.1031266273
H  H141  1  0.51843000  0.61676000  0.44323000  1.0 0.1031266273
H  H142  1  0.38324000  0.90167000  0.05677000  1.0 0.1031266273
H  H143  1  0.09833000  0.48157000  0.05677000  1.0 0.1031266273
H  H144  1  0.51843000  0.61676000  0.05677000  1.0 0.1031266273
H  H145  1  0.90167000  0.38324000  0.55677000  1.0 0.1031266273
H  H146  1  0.48157000  0.09833000  0.55677000  1.0 0.1031266273
H  H147  1  0.61676000  0.51843000  0.55677000  1.0 0.1031266273
H  H148  1  0.90167000  0.38324000  0.94323000  1.0 0.1031266273
H  H149  1  0.48157000  0.09833000  0.94323000  1.0 0.1031266273
H  H150  1  0.61676000  0.51843000  0.94323000  1.0 0.1031266273
H  H151  1  0.59167000  0.86776000  0.59121000  1.0 0.1073894103
H  H152  1  0.13224000  0.72391000  0.59121000  1.0 0.1073894103
H  H153  1  0.27609000  0.40833000  0.59121000  1.0 0.1073894103
H  H154  1  0.59167000  0.86776000  0.90879000  1.0 0.1073894103
H  H155  1  0.13224000  0.72391000  0.90879000  1.0 0.1073894103
H  H156  1  0.27609000  0.40833000  0.90879000  1.0 0.1073894103
H  H157  1  0.86776000  0.59167000  0.40879000  1.0 0.1073894103
H  H158  1  0.72391000  0.13224000  0.40879000  1.0 0.1073894103
H  H159  1  0.40833000  0.27609000  0.40879000  1.0 0.1073894103
H  H160  1  0.86776000  0.59167000  0.09121000  1.0 0.1073894103
H  H161  1  0.72391000  0.13224000  0.09121000  1.0 0.1073894103
H  H162  1  0.40833000  0.27609000  0.09121000  1.0 0.1073894103
H  H163  1  0.47535000  0.76277000  0.40231000  1.0 0.1196379425
H  H164  1  0.23723000  0.71258000  0.40231000  1.0 0.1196379425
H  H165  1  0.28742000  0.52465000  0.40231000  1.0 0.1196379425
H  H166  1  0.47535000  0.76277000  0.09769000  1.0 0.1196379425
H  H167  1  0.23723000  0.71258000  0.09769000  1.0 0.1196379425
H  H168  1  0.28742000  0.52465000  0.09769000  1.0 0.1196379425
H  H169  1  0.76277000  0.47535000  0.59769000  1.0 0.1196379425
H  H170  1  0.71258000  0.23723000  0.59769000  1.0 0.1196379425
H  H171  1  0.52465000  0.28742000  0.59769000  1.0 0.1196379425
H  H172  1  0.76277000  0.47535000  0.90231000  1.0 0.1196379425
H  H173  1  0.71258000  0.23723000  0.90231000  1.0 0.1196379425
H  H174  1  0.52465000  0.28742000  0.90231000  1.0 0.1196379425
H  H175  1  0.36095000  0.89196000  0.52032000  1.0 0.1031266273
H  H176  1  0.10804000  0.46899000  0.52032000  1.0 0.1031266273
H  H177  1  0.53101000  0.63905000  0.52032000  1.0 0.1031266273
H  H178  1  0.36095000  0.89196000  0.97968000  1.0 0.1031266273
H  H179  1  0.10804000  0.46899000  0.97968000  1.0 0.1031266273
H  H180  1  0.53101000  0.63905000  0.97968000  1.0 0.1031266273
H  H181  1  0.89196000  0.36095000  0.47968000  1.0 0.1031266273
H  H182  1  0.46899000  0.10804000  0.47968000  1.0 0.1031266273
H  H183  1  0.63905000  0.53101000  0.47968000  1.0 0.1031266273
H  H184  1  0.89196000  0.36095000  0.02032000  1.0 0.1031266273
H  H185  1  0.46899000  0.10804000  0.02032000  1.0 0.1031266273
H  H186  1  0.63905000  0.53101000  0.02032000  1.0 0.1031266273
H  H187  1  0.46163000  0.10484000  0.74361000  1.0 0.2375028543
H  H188  1  0.89516000  0.35679000  0.74361000  1.0 0.2375028543
H  H189  1  0.64321000  0.53837000  0.74361000  1.0 0.2375028543
H  H190  1  0.46163000  0.10484000  0.75639000  1.0 0.2375028543
H  H191  1  0.89516000  0.35679000  0.75639000  1.0 0.2375028543
H  H192  1  0.64321000  0.53837000  0.75639000  1.0 0.2375028543
H  H193  1  0.10484000  0.46163000  0.25639000  1.0 0.2375028543
H  H194  1  0.35679000  0.89516000  0.25639000  1.0 0.2375028543
H  H195  1  0.53837000  0.64321000  0.25639000  1.0 0.2375028543
H  H196  1  0.10484000  0.46163000  0.24361000  1.0 0.2375028543
H  H197  1  0.35679000  0.89516000  0.24361000  1.0 0.2375028543
H  H198  1  0.53837000  0.64321000  0.24361000  1.0 0.2375028543
H  H199  1  0.41473000  0.12899000  0.74588000  1.0 0.3059358361
H  H200  1  0.87101000  0.28574000  0.74588000  1.0 0.3059358361
H  H201  1  0.71426000  0.58527000  0.74588000  1.0 0.3059358361
H  H202  1  0.41473000  0.12899000  0.75412000  1.0 0.3059358361
H  H203  1  0.87101000  0.28574000  0.75412000  1.0 0.3059358361
H  H204  1  0.71426000  0.58527000  0.75412000  1.0 0.3059358361
H  H205  1  0.12899000  0.41473000  0.25412000  1.0 0.3059358361
H  H206  1  0.28574000  0.87101000  0.25412000  1.0 0.3059358361
H  H207  1  0.58527000  0.71426000  0.25412000  1.0 0.3059358361
H  H208  1  0.12899000  0.41473000  0.24588000  1.0 0.3059358361
H  H209  1  0.28574000  0.87101000  0.24588000  1.0 0.3059358361
H  H210  1  0.58527000  0.71426000  0.24588000  1.0 0.3059358361
H  H211  1  0.03099000  0.98637000  0.59366000  1.0 0.1811697346
H  H212  1  0.01363000  0.04462000  0.59366000  1.0 0.1811697346
H  H213  1  0.95538000  0.96901000  0.59366000  1.0 0.1811697346
H  H214  1  0.03099000  0.98637000  0.90634000  1.0 0.1811697346
H  H215  1  0.01363000  0.04462000  0.90634000  1.0 0.1811697346
H  H216  1  0.95538000  0.96901000  0.90634000  1.0 0.1811697346
H  H217  1  0.98637000  0.03099000  0.40634000  1.0 0.1811697346
H  H218  1  0.04462000  0.01363000  0.40634000  1.0 0.1811697346
H  H219  1  0.96901000  0.95538000  0.40634000  1.0 0.1811697346
H  H220  1  0.98637000  0.03099000  0.09366000  1.0 0.1811697346
H  H221  1  0.04462000  0.01363000  0.09366000  1.0 0.1811697346
H  H222  1  0.96901000  0.95538000  0.09366000  1.0 0.1811697346
H  H223  1  0.03845000  0.92169000  0.58258000  1.0 0.2284724364
H  H224  1  0.07831000  0.11676000  0.58258000  1.0 0.2284724364
H  H225  1  0.88324000  0.96155000  0.58258000  1.0 0.2284724364
H  H226  1  0.03845000  0.92169000  0.91742000  1.0 0.2284724364
H  H227  1  0.07831000  0.11676000  0.91742000  1.0 0.2284724364
H  H228  1  0.88324000  0.96155000  0.91742000  1.0 0.2284724364
H  H229  1  0.92169000  0.03845000  0.41742000  1.0 0.2284724364
H  H230  1  0.11676000  0.07831000  0.41742000  1.0 0.2284724364
H  H231  1  0.96155000  0.88324000  0.41742000  1.0 0.2284724364
H  H232  1  0.92169000  0.03845000  0.08258000  1.0 0.2284724364
H  H233  1  0.11676000  0.07831000  0.08258000  1.0 0.2284724364
H  H234  1  0.96155000  0.88324000  0.08258000  1.0 0.2284724364
H  H235  1  0.01372000  0.97694000  0.59547000  1.0 0.1031266273
H  H236  1  0.02306000  0.03678000  0.59547000  1.0 0.1031266273
H  H237  1  0.96322000  0.98628000  0.59547000  1.0 0.1031266273
H  H238  1  0.01372000  0.97694000  0.90453000  1.0 0.1031266273
H  H239  1  0.02306000  0.03678000  0.90453000  1.0 0.1031266273
H  H240  1  0.96322000  0.98628000  0.90453000  1.0 0.1031266273
H  H241  1  0.97694000  0.01372000  0.40453000  1.0 0.1031266273
H  H242  1  0.03678000  0.02306000  0.40453000  1.0 0.1031266273
H  H243  1  0.98628000  0.96322000  0.40453000  1.0 0.1031266273
H  H244  1  0.97694000  0.01372000  0.09547000  1.0 0.1031266273
H  H245  1  0.03678000  0.02306000  0.09547000  1.0 0.1031266273
H  H246  1  0.98628000  0.96322000  0.09547000  1.0 0.1031266273
H  H247  1  0.07178000  0.94932000  0.58025000  1.0 0.2089491102
H  H248  1  0.05068000  0.12246000  0.58025000  1.0 0.2089491102
H  H249  1  0.87754000  0.92822000  0.58025000  1.0 0.2089491102
H  H250  1  0.07178000  0.94932000  0.91975000  1.0 0.2089491102
H  H251  1  0.05068000  0.12246000  0.91975000  1.0 0.2089491102
H  H252  1  0.87754000  0.92822000  0.91975000  1.0 0.2089491102
H  H253  1  0.94932000  0.07178000  0.41975000  1.0 0.2089491102
H  H254  1  0.12246000  0.05068000  0.41975000  1.0 0.2089491102
H  H255  1  0.92822000  0.87754000  0.41975000  1.0 0.2089491102
H  H256  1  0.94932000  0.07178000  0.08025000  1.0 0.2089491102
H  H257  1  0.12246000  0.05068000  0.08025000  1.0 0.2089491102
H  H258  1  0.92822000  0.87754000  0.08025000  1.0 0.2089491102
C  C1  1  0.36290000  0.94580000  0.60280000  1.0 0.0722665551
C  C2  1  0.05420000  0.41710000  0.60280000  1.0 0.0722665551
C  C3  1  0.58290000  0.63710000  0.60280000  1.0 0.0722665551
C  C4  1  0.36290000  0.94580000  0.89720000  1.0 0.0722665551
C  C5  1  0.05420000  0.41710000  0.89720000  1.0 0.0722665551
C  C6  1  0.58290000  0.63710000  0.89720000  1.0 0.0722665551
C  C7  1  0.94580000  0.36290000  0.39720000  1.0 0.0722665551
C  C8  1  0.41710000  0.05420000  0.39720000  1.0 0.0722665551
C  C9  1  0.63710000  0.58290000  0.39720000  1.0 0.0722665551
C  C10  1  0.94580000  0.36290000  0.10280000  1.0 0.0722665551
C  C11  1  0.41710000  0.05420000  0.10280000  1.0 0.0722665551
C  C12  1  0.63710000  0.58290000  0.10280000  1.0 0.0722665551
C  C13  1  0.38350000  0.22200000  0.75000000  1.0 0.5112979772
C  C14  1  0.77800000  0.16150000  0.75000000  1.0 0.5112979772
C  C15  1  0.83850000  0.61650000  0.75000000  1.0 0.5112979772
C  C16  1  0.22200000  0.38350000  0.25000000  1.0 0.5112979772
C  C17  1  0.16150000  0.77800000  0.25000000  1.0 0.5112979772
C  C18  1  0.61650000  0.83850000  0.25000000  1.0 0.5112979772
C  C19  1  0.42220000  0.80640000  0.37750000  1.0 -0.0426907358
C  C20  1  0.19360000  0.61580000  0.37750000  1.0 -0.0426907358
C  C21  1  0.38420000  0.57780000  0.37750000  1.0 -0.0426907358
C  C22  1  0.42220000  0.80640000  0.12250000  1.0 -0.0426907358
C  C23  1  0.19360000  0.61580000  0.12250000  1.0 -0.0426907358
C  C24  1  0.38420000  0.57780000  0.12250000  1.0 -0.0426907358
C  C25  1  0.80640000  0.42220000  0.62250000  1.0 -0.0426907358
C  C26  1  0.61580000  0.19360000  0.62250000  1.0 -0.0426907358
C  C27  1  0.57780000  0.38420000  0.62250000  1.0 -0.0426907358
C  C28  1  0.80640000  0.42220000  0.87750000  1.0 -0.0426907358
C  C29  1  0.61580000  0.19360000  0.87750000  1.0 -0.0426907358
C  C30  1  0.57780000  0.38420000  0.87750000  1.0 -0.0426907358
C  C31  1  0.44010000  0.86120000  0.46600000  1.0 0.0722665551
C  C32  1  0.13880000  0.57890000  0.46600000  1.0 0.0722665551
C  C33  1  0.42110000  0.55990000  0.46600000  1.0 0.0722665551
C  C34  1  0.44010000  0.86120000  0.03400000  1.0 0.0722665551
C  C35  1  0.13880000  0.57890000  0.03400000  1.0 0.0722665551
C  C36  1  0.42110000  0.55990000  0.03400000  1.0 0.0722665551
C  C37  1  0.86120000  0.44010000  0.53400000  1.0 0.0722665551
C  C38  1  0.57890000  0.13880000  0.53400000  1.0 0.0722665551
C  C39  1  0.55990000  0.42110000  0.53400000  1.0 0.0722665551
C  C40  1  0.86120000  0.44010000  0.96600000  1.0 0.0722665551
C  C41  1  0.57890000  0.13880000  0.96600000  1.0 0.0722665551
C  C42  1  0.55990000  0.42110000  0.96600000  1.0 0.0722665551
C  C43  1  0.41460000  0.93150000  0.57910000  1.0 0.0799720213
C  C44  1  0.06850000  0.48310000  0.57910000  1.0 0.0799720213
C  C45  1  0.51690000  0.58540000  0.57910000  1.0 0.0799720213
C  C46  1  0.41460000  0.93150000  0.92090000  1.0 0.0799720213
C  C47  1  0.06850000  0.48310000  0.92090000  1.0 0.0799720213
C  C48  1  0.51690000  0.58540000  0.92090000  1.0 0.0799720213
C  C49  1  0.93150000  0.41460000  0.42090000  1.0 0.0799720213
C  C50  1  0.48310000  0.06850000  0.42090000  1.0 0.0799720213
C  C51  1  0.58540000  0.51690000  0.42090000  1.0 0.0799720213
C  C52  1  0.93150000  0.41460000  0.07910000  1.0 0.0799720213
C  C53  1  0.48310000  0.06850000  0.07910000  1.0 0.0799720213
C  C54  1  0.58540000  0.51690000  0.07910000  1.0 0.0799720213
C  C55  1  0.41770000  0.78370000  0.32860000  1.0 0.648343609
C  C56  1  0.21630000  0.63400000  0.32860000  1.0 0.648343609
C  C57  1  0.36600000  0.58230000  0.32860000  1.0 0.648343609
C  C58  1  0.41770000  0.78370000  0.17140000  1.0 0.648343609
C  C59  1  0.21630000  0.63400000  0.17140000  1.0 0.648343609
C  C60  1  0.36600000  0.58230000  0.17140000  1.0 0.648343609
C  C61  1  0.78370000  0.41770000  0.67140000  1.0 0.648343609
C  C62  1  0.63400000  0.21630000  0.67140000  1.0 0.648343609
C  C63  1  0.58230000  0.36600000  0.67140000  1.0 0.648343609
C  C64  1  0.78370000  0.41770000  0.82860000  1.0 0.648343609
C  C65  1  0.63400000  0.21630000  0.82860000  1.0 0.648343609
C  C66  1  0.58230000  0.36600000  0.82860000  1.0 0.648343609
C  C67  1  0.77990000  0.01130000  0.67600000  1.0 0.648343609
C  C68  1  0.98870000  0.76860000  0.67600000  1.0 0.648343609
C  C69  1  0.23140000  0.22010000  0.67600000  1.0 0.648343609
C  C70  1  0.77990000  0.01130000  0.82400000  1.0 0.648343609
C  C71  1  0.98870000  0.76860000  0.82400000  1.0 0.648343609
C  C72  1  0.23140000  0.22010000  0.82400000  1.0 0.648343609
C  C73  1  0.01130000  0.77990000  0.32400000  1.0 0.648343609
C  C74  1  0.76860000  0.98870000  0.32400000  1.0 0.648343609
C  C75  1  0.22010000  0.23140000  0.32400000  1.0 0.648343609
C  C76  1  0.01130000  0.77990000  0.17600000  1.0 0.648343609
C  C77  1  0.76860000  0.98870000  0.17600000  1.0 0.648343609
C  C78  1  0.22010000  0.23140000  0.17600000  1.0 0.648343609
C  C79  1  0.33810000  0.01110000  0.65900000  1.0 -0.1216390431
C  C80  1  0.98890000  0.32700000  0.65900000  1.0 -0.1216390431
C  C81  1  0.67300000  0.66190000  0.65900000  1.0 -0.1216390431
C  C82  1  0.33810000  0.01110000  0.84100000  1.0 -0.1216390431
C  C83  1  0.98890000  0.32700000  0.84100000  1.0 -0.1216390431
C  C84  1  0.67300000  0.66190000  0.84100000  1.0 -0.1216390431
C  C85  1  0.01110000  0.33810000  0.34100000  1.0 -0.1216390431
C  C86  1  0.32700000  0.98890000  0.34100000  1.0 -0.1216390431
C  C87  1  0.66190000  0.67300000  0.34100000  1.0 -0.1216390431
C  C88  1  0.01110000  0.33810000  0.15900000  1.0 -0.1216390431
C  C89  1  0.32700000  0.98890000  0.15900000  1.0 -0.1216390431
C  C90  1  0.66190000  0.67300000  0.15900000  1.0 -0.1216390431
C  C91  1  0.47770000  0.94920000  0.60110000  1.0 -0.2040284438
C  C92  1  0.05080000  0.52850000  0.60110000  1.0 -0.2040284438
C  C93  1  0.47150000  0.52230000  0.60110000  1.0 -0.2040284438
C  C94  1  0.47770000  0.94920000  0.89890000  1.0 -0.2040284438
C  C95  1  0.05080000  0.52850000  0.89890000  1.0 -0.2040284438
C  C96  1  0.47150000  0.52230000  0.89890000  1.0 -0.2040284438
C  C97  1  0.94920000  0.47770000  0.39890000  1.0 -0.2040284438
C  C98  1  0.52850000  0.05080000  0.39890000  1.0 -0.2040284438
C  C99  1  0.52230000  0.47150000  0.39890000  1.0 -0.2040284438
C  C100  1  0.94920000  0.47770000  0.10110000  1.0 -0.2040284438
C  C101  1  0.52850000  0.05080000  0.10110000  1.0 -0.2040284438
C  C102  1  0.52230000  0.47150000  0.10110000  1.0 -0.2040284438
C  C103  1  0.26820000  0.97350000  0.64760000  1.0 -0.0246785749
C  C104  1  0.02650000  0.29470000  0.64760000  1.0 -0.0246785749
C  C105  1  0.70530000  0.73180000  0.64760000  1.0 -0.0246785749
C  C106  1  0.26820000  0.97350000  0.85240000  1.0 -0.0246785749
C  C107  1  0.02650000  0.29470000  0.85240000  1.0 -0.0246785749
C  C108  1  0.70530000  0.73180000  0.85240000  1.0 -0.0246785749
C  C109  1  0.97350000  0.26820000  0.35240000  1.0 -0.0246785749
C  C110  1  0.29470000  0.02650000  0.35240000  1.0 -0.0246785749
C  C111  1  0.73180000  0.70530000  0.35240000  1.0 -0.0246785749
C  C112  1  0.97350000  0.26820000  0.14760000  1.0 -0.0246785749
C  C113  1  0.29470000  0.02650000  0.14760000  1.0 -0.0246785749
C  C114  1  0.73180000  0.70530000  0.14760000  1.0 -0.0246785749
C  C115  1  0.38420000  0.99580000  0.63780000  1.0 -0.1690711118
C  C116  1  0.00420000  0.38840000  0.63780000  1.0 -0.1690711118
C  C117  1  0.61160000  0.61580000  0.63780000  1.0 -0.1690711118
C  C118  1  0.38420000  0.99580000  0.86220000  1.0 -0.1690711118
C  C119  1  0.00420000  0.38840000  0.86220000  1.0 -0.1690711118
C  C120  1  0.61160000  0.61580000  0.86220000  1.0 -0.1690711118
C  C121  1  0.99580000  0.38420000  0.36220000  1.0 -0.1690711118
C  C122  1  0.38840000  0.00420000  0.36220000  1.0 -0.1690711118
C  C123  1  0.61580000  0.61160000  0.36220000  1.0 -0.1690711118
C  C124  1  0.99580000  0.38420000  0.13780000  1.0 -0.1690711118
C  C125  1  0.38840000  0.00420000  0.13780000  1.0 -0.1621422879
C  C126  1  0.61580000  0.61160000  0.13780000  1.0 -0.1690711118
C  C127  1  0.51360000  0.90970000  0.53600000  1.0 -0.2087653907
C  C128  1  0.09030000  0.60390000  0.53600000  1.0 -0.2087653907
C  C129  1  0.39610000  0.48640000  0.53600000  1.0 -0.2087653907
C  C130  1  0.51360000  0.90970000  0.96400000  1.0 -0.2087653907
C  C131  1  0.09030000  0.60390000  0.96400000  1.0 -0.2087653907
C  C132  1  0.39610000  0.48640000  0.96400000  1.0 -0.2087653907
C  C133  1  0.90970000  0.51360000  0.46400000  1.0 -0.2087653907
C  C134  1  0.60390000  0.09030000  0.46400000  1.0 -0.2087653907
C  C135  1  0.48640000  0.39610000  0.46400000  1.0 -0.2087653907
C  C136  1  0.90970000  0.51360000  0.03600000  1.0 -0.2087653907
C  C137  1  0.60390000  0.09030000  0.03600000  1.0 -0.2087653907
C  C138  1  0.48640000  0.39610000  0.03600000  1.0 -0.2087653907
C  C139  1  0.29380000  0.91080000  0.59010000  1.0 -0.1621422879
C  C140  1  0.08920000  0.38300000  0.59010000  1.0 -0.1621422879
C  C141  1  0.61700000  0.70620000  0.59010000  1.0 -0.1621422879
C  C142  1  0.29380000  0.91080000  0.90990000  1.0 -0.1621422879
C  C143  1  0.08920000  0.38300000  0.90990000  1.0 -0.1621422879
C  C144  1  0.61700000  0.70620000  0.90990000  1.0 -0.1690711118
C  C145  1  0.91080000  0.29380000  0.40990000  1.0 -0.1621422879
C  C146  1  0.38300000  0.08920000  0.40990000  1.0 -0.1621422879
C  C147  1  0.70620000  0.61700000  0.40990000  1.0 -0.1621422879
C  C148  1  0.91080000  0.29380000  0.09010000  1.0 -0.1621422879
C  C149  1  0.38300000  0.08920000  0.09010000  1.0 -0.1621422879
C  C150  1  0.70620000  0.61700000  0.09010000  1.0 -0.1621422879
C  C151  1  0.24530000  0.92280000  0.61340000  1.0 -0.1085955237
C  C152  1  0.07720000  0.32250000  0.61340000  1.0 -0.1085955237
C  C153  1  0.67750000  0.75470000  0.61340000  1.0 -0.1085955237
C  C154  1  0.24530000  0.92280000  0.88660000  1.0 -0.1085955237
C  C155  1  0.07720000  0.32250000  0.88660000  1.0 -0.1085955237
C  C156  1  0.67750000  0.75470000  0.88660000  1.0 -0.1085955237
C  C157  1  0.92280000  0.24530000  0.38660000  1.0 -0.1085955237
C  C158  1  0.32250000  0.07720000  0.38660000  1.0 -0.1085955237
C  C159  1  0.75470000  0.67750000  0.38660000  1.0 -0.1085955237
C  C160  1  0.92280000  0.24530000  0.11340000  1.0 -0.1085955237
C  C161  1  0.32250000  0.07720000  0.11340000  1.0 -0.1085955237
C  C162  1  0.75470000  0.67750000  0.11340000  1.0 -0.1085955237
C  C163  1  0.52650000  0.93910000  0.57980000  1.0 0.0799720213
C  C164  1  0.06090000  0.58740000  0.57980000  1.0 0.0799720213
C  C165  1  0.41260000  0.47350000  0.57980000  1.0 0.0799720213
C  C166  1  0.52650000  0.93910000  0.92020000  1.0 0.0799720213
C  C167  1  0.06090000  0.58740000  0.92020000  1.0 0.0799720213
C  C168  1  0.41260000  0.47350000  0.92020000  1.0 0.0799720213
C  C169  1  0.93910000  0.52650000  0.42020000  1.0 0.0799720213
C  C170  1  0.58740000  0.06090000  0.42020000  1.0 0.0799720213
C  C171  1  0.47350000  0.41260000  0.42020000  1.0 0.0799720213
C  C172  1  0.93910000  0.52650000  0.07980000  1.0 0.0799720213
C  C173  1  0.58740000  0.06090000  0.07980000  1.0 0.0799720213
C  C174  1  0.47350000  0.41260000  0.07980000  1.0 0.0799720213
C  C175  1  0.71450000  0.99370000  0.65090000  1.0 -0.0426907358
C  C176  1  0.00630000  0.72080000  0.65090000  1.0 -0.0426907358
C  C177  1  0.27920000  0.28550000  0.65090000  1.0 -0.0426907358
C  C178  1  0.71450000  0.99370000  0.84910000  1.0 -0.0426907358
C  C179  1  0.00630000  0.72080000  0.84910000  1.0 -0.0426907358
C  C180  1  0.27920000  0.28550000  0.84910000  1.0 -0.0426907358
C  C181  1  0.99370000  0.71450000  0.34910000  1.0 -0.0426907358
C  C182  1  0.72080000  0.00630000  0.34910000  1.0 -0.0426907358
C  C183  1  0.28550000  0.27920000  0.34910000  1.0 -0.0426907358
C  C184  1  0.99370000  0.71450000  0.15090000  1.0 -0.0426907358
C  C185  1  0.72080000  0.00630000  0.15090000  1.0 -0.0426907358
C  C186  1  0.28550000  0.27920000  0.15090000  1.0 -0.0426907358
C  C187  1  0.45140000  0.89210000  0.51280000  1.0 0.0799720213
C  C188  1  0.10790000  0.55930000  0.51280000  1.0 0.0799720213
C  C189  1  0.44070000  0.54860000  0.51280000  1.0 0.0799720213
C  C190  1  0.45140000  0.89210000  0.98720000  1.0 0.0799720213
C  C191  1  0.10790000  0.55930000  0.98720000  1.0 0.0799720213
C  C192  1  0.44070000  0.54860000  0.98720000  1.0 0.0799720213
C  C193  1  0.89210000  0.45140000  0.48720000  1.0 0.0799720213
C  C194  1  0.55930000  0.10790000  0.48720000  1.0 0.0799720213
C  C195  1  0.54860000  0.44070000  0.48720000  1.0 0.0799720213
C  C196  1  0.89210000  0.45140000  0.01280000  1.0 0.0799720213
C  C197  1  0.55930000  0.10790000  0.01280000  1.0 0.0799720213
C  C198  1  0.54860000  0.44070000  0.01280000  1.0 0.0799720213
C  C199  1  0.59280000  0.95940000  0.60310000  1.0 0.0722665551
C  C200  1  0.04060000  0.63340000  0.60310000  1.0 0.0722665551
C  C201  1  0.36660000  0.40720000  0.60310000  1.0 0.0722665551
C  C202  1  0.59280000  0.95940000  0.89690000  1.0 0.0722665551
C  C203  1  0.04060000  0.63340000  0.89690000  1.0 0.0722665551
C  C204  1  0.36660000  0.40720000  0.89690000  1.0 0.0722665551
C  C205  1  0.95940000  0.59280000  0.39690000  1.0 0.0722665551
C  C206  1  0.63340000  0.04060000  0.39690000  1.0 0.0722665551
C  C207  1  0.40720000  0.36660000  0.39690000  1.0 0.0722665551
C  C208  1  0.95940000  0.59280000  0.10310000  1.0 0.0722665551
C  C209  1  0.63340000  0.04060000  0.10310000  1.0 0.0722665551
C  C210  1  0.40720000  0.36660000  0.10310000  1.0 0.0722665551
C  C211  1  0.46530000  0.81770000  0.45440000  1.0 -0.1621422879
C  C212  1  0.18230000  0.64760000  0.45440000  1.0 -0.1621422879
C  C213  1  0.35240000  0.53470000  0.45440000  1.0 -0.1621422879
C  C214  1  0.46530000  0.81770000  0.04560000  1.0 -0.1621422879
C  C215  1  0.18230000  0.64760000  0.04560000  1.0 -0.1621422879
C  C216  1  0.35240000  0.53470000  0.04560000  1.0 -0.1621422879
C  C217  1  0.81770000  0.46530000  0.54560000  1.0 -0.1621422879
C  C218  1  0.64760000  0.18230000  0.54560000  1.0 -0.1621422879
C  C219  1  0.53470000  0.35240000  0.54560000  1.0 -0.1621422879
C  C220  1  0.81770000  0.46530000  0.95440000  1.0 -0.1621422879
C  C221  1  0.64760000  0.18230000  0.95440000  1.0 -0.1621422879
C  C222  1  0.53470000  0.35240000  0.95440000  1.0 -0.1621422879
C  C223  1  0.62850000  0.02330000  0.62640000  1.0 -0.1690711118
C  C224  1  0.97670000  0.60520000  0.62640000  1.0 -0.1690711118
C  C225  1  0.39480000  0.37150000  0.62640000  1.0 -0.1690711118
C  C226  1  0.62850000  0.02330000  0.87360000  1.0 -0.1690711118
C  C227  1  0.97670000  0.60520000  0.87360000  1.0 -0.1690711118
C  C228  1  0.39480000  0.37150000  0.87360000  1.0 -0.1690711118
C  C229  1  0.02330000  0.62850000  0.37360000  1.0 -0.1690711118
C  C230  1  0.60520000  0.97670000  0.37360000  1.0 -0.1690711118
C  C231  1  0.37150000  0.39480000  0.37360000  1.0 -0.1690711118
C  C232  1  0.02330000  0.62850000  0.12640000  1.0 -0.1690711118
C  C233  1  0.60520000  0.97670000  0.12640000  1.0 -0.1690711118
C  C234  1  0.37150000  0.39480000  0.12640000  1.0 -0.1690711118
C  C235  1  0.69020000  0.04070000  0.64990000  1.0 -0.0982896121
C  C236  1  0.95930000  0.64950000  0.64990000  1.0 -0.0982896121
C  C237  1  0.35050000  0.30980000  0.64990000  1.0 -0.0982896121
C  C238  1  0.69020000  0.04070000  0.85010000  1.0 -0.0982896121
C  C239  1  0.95930000  0.64950000  0.85010000  1.0 -0.0982896121
C  C240  1  0.35050000  0.30980000  0.85010000  1.0 -0.0982896121
C  C241  1  0.04070000  0.69020000  0.35010000  1.0 -0.0982896121
C  C242  1  0.64950000  0.95930000  0.35010000  1.0 -0.0982896121
C  C243  1  0.30980000  0.35050000  0.35010000  1.0 -0.0982896121
C  C244  1  0.04070000  0.69020000  0.14990000  1.0 -0.0982896121
C  C245  1  0.64950000  0.95930000  0.14990000  1.0 -0.0982896121
C  C246  1  0.30980000  0.35050000  0.14990000  1.0 -0.0982896121
C  C247  1  0.67920000  0.93180000  0.62860000  1.0 -0.0982896121
C  C248  1  0.06820000  0.74740000  0.62860000  1.0 -0.0982896121
C  C249  1  0.25260000  0.32080000  0.62860000  1.0 -0.0982896121
C  C250  1  0.67920000  0.93180000  0.87140000  1.0 -0.0982896121
C  C251  1  0.06820000  0.74740000  0.87140000  1.0 -0.0982896121
C  C252  1  0.25260000  0.32080000  0.87140000  1.0 -0.0982896121
C  C253  1  0.93180000  0.67920000  0.37140000  1.0 -0.0982896121
C  C254  1  0.74740000  0.06820000  0.37140000  1.0 -0.0982896121
C  C255  1  0.32080000  0.25260000  0.37140000  1.0 -0.0982896121
C  C256  1  0.93180000  0.67920000  0.12860000  1.0 -0.0982896121
C  C257  1  0.74740000  0.06820000  0.12860000  1.0 -0.0982896121
C  C258  1  0.32080000  0.25260000  0.12860000  1.0 -0.0982896121
C  C259  1  0.39570000  0.85000000  0.38960000  1.0 -0.1085955237
C  C260  1  0.15000000  0.54570000  0.38960000  1.0 -0.1085955237
C  C261  1  0.45430000  0.60430000  0.38960000  1.0 -0.1085955237
C  C262  1  0.39570000  0.85000000  0.11040000  1.0 -0.1085955237
C  C263  1  0.15000000  0.54570000  0.11040000  1.0 -0.1085955237
C  C264  1  0.45430000  0.60430000  0.11040000  1.0 -0.1085955237
C  C265  1  0.85000000  0.39570000  0.61040000  1.0 -0.1085955237
C  C266  1  0.54570000  0.15000000  0.61040000  1.0 -0.1085955237
C  C267  1  0.60430000  0.45430000  0.61040000  1.0 -0.1085955237
C  C268  1  0.85000000  0.39570000  0.88960000  1.0 -0.1085955237
C  C269  1  0.54570000  0.15000000  0.88960000  1.0 -0.1085955237
C  C270  1  0.60430000  0.45430000  0.88960000  1.0 -0.1085955237
C  C271  1  0.40370000  0.87480000  0.43450000  1.0 -0.150608629
C  C272  1  0.12520000  0.52890000  0.43450000  1.0 -0.150608629
C  C273  1  0.47110000  0.59630000  0.43450000  1.0 -0.150608629
C  C274  1  0.40370000  0.87480000  0.06550000  1.0 -0.150608629
C  C275  1  0.12520000  0.52890000  0.06550000  1.0 -0.150608629
C  C276  1  0.47110000  0.59630000  0.06550000  1.0 -0.150608629
C  C277  1  0.87480000  0.40370000  0.56550000  1.0 -0.150608629
C  C278  1  0.52890000  0.12520000  0.56550000  1.0 -0.150608629
C  C279  1  0.59630000  0.47110000  0.56550000  1.0 -0.150608629
C  C280  1  0.87480000  0.40370000  0.93450000  1.0 -0.150608629
C  C281  1  0.52890000  0.12520000  0.93450000  1.0 -0.150608629
C  C282  1  0.59630000  0.47110000  0.93450000  1.0 -0.150608629
C  C283  1  0.61690000  0.91210000  0.60530000  1.0 -0.1690711118
C  C284  1  0.08790000  0.70480000  0.60530000  1.0 -0.1690711118
C  C285  1  0.29520000  0.38310000  0.60530000  1.0 -0.1690711118
C  C286  1  0.61690000  0.91210000  0.89470000  1.0 -0.1690711118
C  C287  1  0.08790000  0.70480000  0.89470000  1.0 -0.1690711118
C  C288  1  0.29520000  0.38310000  0.89470000  1.0 -0.1690711118
C  C289  1  0.91210000  0.61690000  0.39470000  1.0 -0.1690711118
C  C290  1  0.70480000  0.08790000  0.39470000  1.0 -0.1690711118
C  C291  1  0.38310000  0.29520000  0.39470000  1.0 -0.1690711118
C  C292  1  0.91210000  0.61690000  0.10530000  1.0 -0.1690711118
C  C293  1  0.70480000  0.08790000  0.10530000  1.0 -0.1690711118
C  C294  1  0.38310000  0.29520000  0.10530000  1.0 -0.1690711118
C  C295  1  0.45680000  0.79160000  0.41010000  1.0 -0.0982896121
C  C296  1  0.20840000  0.66520000  0.41010000  1.0 -0.0982896121
C  C297  1  0.33480000  0.54320000  0.41010000  1.0 -0.0982896121
C  C298  1  0.45680000  0.79160000  0.08990000  1.0 -0.0982896121
C  C299  1  0.20840000  0.66520000  0.08990000  1.0 -0.0982896121
C  C300  1  0.33480000  0.54320000  0.08990000  1.0 -0.0982896121
C  C301  1  0.79160000  0.45680000  0.58990000  1.0 -0.0982896121
C  C302  1  0.66520000  0.20840000  0.58990000  1.0 -0.0982896121
C  C303  1  0.54320000  0.33480000  0.58990000  1.0 -0.0982896121
C  C304  1  0.79160000  0.45680000  0.91010000  1.0 -0.0982896121
C  C305  1  0.66520000  0.20840000  0.91010000  1.0 -0.0982896121
C  C306  1  0.54320000  0.33480000  0.91010000  1.0 -0.0982896121
C  C307  1  0.40320000  0.90370000  0.53550000  1.0 -0.2087653907
C  C308  1  0.09630000  0.49950000  0.53550000  1.0 -0.2087653907
C  C309  1  0.50050000  0.59680000  0.53550000  1.0 -0.2087653907
C  C310  1  0.40320000  0.90370000  0.96450000  1.0 -0.2087653907
C  C311  1  0.09630000  0.49950000  0.96450000  1.0 -0.2087653907
C  C312  1  0.50050000  0.59680000  0.96450000  1.0 -0.2087653907
C  C313  1  0.90370000  0.40320000  0.46450000  1.0 -0.2087653907
C  C314  1  0.49950000  0.09630000  0.46450000  1.0 -0.2087653907
C  C315  1  0.59680000  0.50050000  0.46450000  1.0 -0.2087653907
C  C316  1  0.90370000  0.40320000  0.03550000  1.0 -0.2087653907
C  C317  1  0.49950000  0.09630000  0.03550000  1.0 -0.2087653907
C  C318  1  0.59680000  0.50050000  0.03550000  1.0 -0.2087653907
C  C319  1  0.21660000  0.98970000  0.66940000  1.0 0.648343609
C  C320  1  0.01030000  0.22690000  0.66940000  1.0 0.648343609
C  C321  1  0.77310000  0.78340000  0.66940000  1.0 0.648343609
C  C322  1  0.21660000  0.98970000  0.83060000  1.0 0.648343609
C  C323  1  0.01030000  0.22690000  0.83060000  1.0 0.648343609
C  C324  1  0.77310000  0.78340000  0.83060000  1.0 0.648343609
C  C325  1  0.98970000  0.21660000  0.33060000  1.0 0.648343609
C  C326  1  0.22690000  0.01030000  0.33060000  1.0 0.648343609
C  C327  1  0.78340000  0.77310000  0.33060000  1.0 0.648343609
C  C328  1  0.98970000  0.21660000  0.16940000  1.0 0.648343609
C  C329  1  0.22690000  0.01030000  0.16940000  1.0 0.648343609
C  C330  1  0.78340000  0.77310000  0.16940000  1.0 0.648343609
O  O1  1  0.81230000  0.06730000  0.69810000  1.0 -0.6831302861
O  O2  1  0.93270000  0.74500000  0.69810000  1.0 -0.6831302861
O  O3  1  0.25500000  0.18770000  0.69810000  1.0 -0.6831302861
O  O4  1  0.81230000  0.06730000  0.80190000  1.0 -0.6831302861
O  O5  1  0.93270000  0.74500000  0.80190000  1.0 -0.6831302861
O  O6  1  0.25500000  0.18770000  0.80190000  1.0 -0.6831302861
O  O7  1  0.06730000  0.81230000  0.30190000  1.0 -0.6831302861
O  O8  1  0.74500000  0.93270000  0.30190000  1.0 -0.6831302861
O  O9  1  0.18770000  0.25500000  0.30190000  1.0 -0.6831302861
O  O10  1  0.06730000  0.81230000  0.19810000  1.0 -0.6831302861
O  O11  1  0.74500000  0.93270000  0.19810000  1.0 -0.6831302861
O  O12  1  0.18770000  0.25500000  0.19810000  1.0 -0.6831302861
O  O13  1  0.44670000  0.25530000  0.75000000  1.0 -0.623128855
O  O14  1  0.74470000  0.19140000  0.75000000  1.0 -0.623128855
O  O15  1  0.80860000  0.55330000  0.75000000  1.0 -0.623128855
O  O16  1  0.25530000  0.44670000  0.25000000  1.0 -0.623128855
O  O17  1  0.19140000  0.74470000  0.25000000  1.0 -0.623128855
O  O18  1  0.55330000  0.80860000  0.25000000  1.0 -0.623128855
O  O19  1  0.38760000  0.80180000  0.29938000  1.0 -0.7079636989
O  O20  1  0.19820000  0.58580000  0.29938000  1.0 -0.7079636989
O  O21  1  0.41420000  0.61240000  0.29938000  1.0 -0.7079636989
O  O22  1  0.38760000  0.80180000  0.20062000  1.0 -0.7079636989
O  O23  1  0.19820000  0.58580000  0.20062000  1.0 -0.7079636989
O  O24  1  0.41420000  0.61240000  0.20062000  1.0 -0.7079636989
O  O25  1  0.80180000  0.38760000  0.70062000  1.0 -0.7079636989
O  O26  1  0.58580000  0.19820000  0.70062000  1.0 -0.7079636989
O  O27  1  0.61240000  0.41420000  0.70062000  1.0 -0.7079636989
O  O28  1  0.80180000  0.38760000  0.79938000  1.0 -0.7079636989
O  O29  1  0.58580000  0.19820000  0.79938000  1.0 -0.7079636989
O  O30  1  0.61240000  0.41420000  0.79938000  1.0 -0.7079636989
O  O31  1  0.15460000  0.94870000  0.66290000  1.0 -0.6652490335
O  O32  1  0.05130000  0.20590000  0.66290000  1.0 -0.6652490335
O  O33  1  0.79410000  0.84540000  0.66290000  1.0 -0.6652490335
O  O34  1  0.15460000  0.94870000  0.83710000  1.0 -0.6652490335
O  O35  1  0.05130000  0.20590000  0.83710000  1.0 -0.6652490335
O  O36  1  0.79410000  0.84540000  0.83710000  1.0 -0.6652490335
O  O37  1  0.94870000  0.15460000  0.33710000  1.0 -0.6652490335
O  O38  1  0.20590000  0.05130000  0.33710000  1.0 -0.6652490335
O  O39  1  0.84540000  0.79410000  0.33710000  1.0 -0.6652490335
O  O40  1  0.94870000  0.15460000  0.16290000  1.0 -0.6652490335
O  O41  1  0.20590000  0.05130000  0.16290000  1.0 -0.6652490335
O  O42  1  0.84540000  0.79410000  0.16290000  1.0 -0.6652490335
O  O43  1  0.24240000  0.04160000  0.69810000  1.0 -0.7079636989
O  O44  1  0.95840000  0.20080000  0.69810000  1.0 -0.7079636989
O  O45  1  0.79920000  0.75760000  0.69810000  1.0 -0.7079636989
O  O46  1  0.24240000  0.04160000  0.80190000  1.0 -0.7079636989
O  O47  1  0.95840000  0.20080000  0.80190000  1.0 -0.7079636989
O  O48  1  0.79920000  0.75760000  0.80190000  1.0 -0.7079636989
O  O49  1  0.04160000  0.24240000  0.30190000  1.0 -0.7079636989
O  O50  1  0.20080000  0.95840000  0.30190000  1.0 -0.7079636989
O  O51  1  0.75760000  0.79920000  0.30190000  1.0 -0.7079636989
O  O52  1  0.04160000  0.24240000  0.19810000  1.0 -0.7079636989
O  O53  1  0.20080000  0.95840000  0.19810000  1.0 -0.7079636989
O  O54  1  0.75760000  0.79920000  0.19810000  1.0 -0.7079636989
O  O55  1  0.34410000  0.15700000  0.75000000  1.0 -0.5738413272
O  O56  1  0.84300000  0.18710000  0.75000000  1.0 -0.5738413272
O  O57  1  0.81290000  0.65590000  0.75000000  1.0 -0.5738413272
O  O58  1  0.15700000  0.34410000  0.25000000  1.0 -0.5738413272
O  O59  1  0.18710000  0.84300000  0.25000000  1.0 -0.5738413272
O  O60  1  0.65590000  0.81290000  0.25000000  1.0 -0.5738413272
O  O61  1  0.44440000  0.74680000  0.31838000  1.0 -0.6831302861
O  O62  1  0.25320000  0.69760000  0.31838000  1.0 -0.6831302861
O  O63  1  0.30240000  0.55560000  0.31838000  1.0 -0.6831302861
O  O64  1  0.44440000  0.74680000  0.18162000  1.0 -0.6831302861
O  O65  1  0.25320000  0.69760000  0.18162000  1.0 -0.6831302861
O  O66  1  0.30240000  0.55560000  0.18162000  1.0 -0.6831302861
O  O67  1  0.74680000  0.44440000  0.68162000  1.0 -0.6831302861
O  O68  1  0.69760000  0.25320000  0.68162000  1.0 -0.6831302861
O  O69  1  0.55560000  0.30240000  0.68162000  1.0 -0.6831302861
O  O70  1  0.74680000  0.44440000  0.81838000  1.0 -0.6831302861
O  O71  1  0.69760000  0.25320000  0.81838000  1.0 -0.6831302861
O  O72  1  0.55560000  0.30240000  0.81838000  1.0 -0.6831302861
O  O73  1  0.79900000  0.96720000  0.67060000  1.0 -0.6831302861
O  O74  1  0.03280000  0.83180000  0.67060000  1.0 -0.6831302861
O  O75  1  0.16820000  0.20100000  0.67060000  1.0 -0.685823792
O  O76  1  0.79900000  0.96720000  0.82940000  1.0 -0.6831302861
O  O77  1  0.03280000  0.83180000  0.82940000  1.0 -0.6831302861
O  O78  1  0.16820000  0.20100000  0.82940000  1.0 -0.685823792
O  O79  1  0.96720000  0.79900000  0.32940000  1.0 -0.6831302861
O  O80  1  0.83180000  0.03280000  0.32940000  1.0 -0.6831302861
O  O81  1  0.20100000  0.16820000  0.32940000  1.0 -0.6831302861
O  O82  1  0.96720000  0.79900000  0.17060000  1.0 -0.6831302861
O  O83  1  0.83180000  0.03280000  0.17060000  1.0 -0.6831302861
O  O84  1  0.20100000  0.16820000  0.17060000  1.0 -0.6831302861
O  O85  1  0.45650000  0.13970000  0.75000000  1.0 -0.623128855
O  O86  1  0.86030000  0.31680000  0.75000000  1.0 -0.623128855
O  O87  1  0.68320000  0.54350000  0.75000000  1.0 -0.623128855
O  O88  1  0.13970000  0.45650000  0.25000000  1.0 -0.623128855
O  O89  1  0.31680000  0.86030000  0.25000000  1.0 -0.623128855
O  O90  1  0.54350000  0.68320000  0.25000000  1.0 -0.623128855
O  O91  1  0.02900000  0.93560000  0.61280000  1.0 -0.3054055344
O  O92  1  0.06440000  0.09340000  0.61280000  1.0 -0.3054055344
O  O93  1  0.90660000  0.97100000  0.61280000  1.0 -0.3054055344
O  O94  1  0.02900000  0.93560000  0.88720000  1.0 -0.3054055344
O  O95  1  0.06440000  0.09340000  0.88720000  1.0 -0.3054055344
O  O96  1  0.90660000  0.97100000  0.88720000  1.0 -0.3054055344
O  O97  1  0.93560000  0.02900000  0.38720000  1.0 -0.3042145906
O  O98  1  0.09340000  0.06440000  0.38720000  1.0 -0.3054055344
O  O99  1  0.97100000  0.90660000  0.38720000  1.0 -0.3054055344
O  O100  1  0.93560000  0.02900000  0.11280000  1.0 -0.3042145906
O  O101  1  0.09340000  0.06440000  0.11280000  1.0 -0.3042145906
O  O102  1  0.97100000  0.90660000  0.11280000  1.0 -0.3054055344
O  O103  1  0.06060000  0.96470000  0.60480000  1.0 -0.266241589
O  O104  1  0.03530000  0.09590000  0.60480000  1.0 -0.266241589
O  O105  1  0.90410000  0.93940000  0.60480000  1.0 -0.266241589
O  O106  1  0.06060000  0.96470000  0.89520000  1.0 -0.266241589
O  O107  1  0.03530000  0.09590000  0.89520000  1.0 -0.266241589
O  O108  1  0.90410000  0.93940000  0.89520000  1.0 -0.266241589
O  O109  1  0.96470000  0.06060000  0.39520000  1.0 -0.266241589
O  O110  1  0.09590000  0.03530000  0.39520000  1.0 -0.266241589
O  O111  1  0.93940000  0.90410000  0.39520000  1.0 -0.266241589
O  O112  1  0.96470000  0.06060000  0.10480000  1.0 -0.266241589
O  O113  1  0.09590000  0.03530000  0.10480000  1.0 -0.266241589
O  O114  1  0.93940000  0.90410000  0.10480000  1.0 -0.266241589
F  F1  1  0.11620000  0.98610000  0.75000000  1.0 -0.766944283
F  F2  1  0.01390000  0.13010000  0.75000000  1.0 -0.7637652855
F  F3  1  0.86990000  0.88380000  0.75000000  1.0 -0.7637652855
F  F4  1  0.98610000  0.11620000  0.25000000  1.0 -0.7637652855
F  F5  1  0.13010000  0.01390000  0.25000000  1.0 -0.7637652855
F  F6  1  0.88380000  0.86990000  0.25000000  1.0 -0.7637652855
F  F7  1  0.00000000  0.00000000  0.70353000  1.0 -0.7834867922
F  F8  1  0.00000000  0.00000000  0.79647000  1.0 -0.7834867922
F  F9  1  0.00000000  0.00000000  0.29647000  1.0 -0.7834867922
F  F10  1  0.00000000  0.00000000  0.20353000  1.0 -0.7834867922
F  F11  1  0.66666667  0.33333333  0.75000000  1.0 -0.8291062949
F  F12  1  0.33333333  0.66666667  0.25000000  1.0 -0.8291062949
F  F13  1  0.11990000  0.11560000  0.75000000  1.0 -0.7637652855
F  F14  1  0.88440000  0.00430000  0.75000000  1.0 -0.7637652855
F  F15  1  0.99570000  0.88010000  0.75000000  1.0 -0.7637652855
F  F16  1  0.11560000  0.11990000  0.25000000  1.0 -0.7637652855
F  F17  1  0.00430000  0.88440000  0.25000000  1.0 -0.7637652855
F  F18  1  0.88010000  0.99570000  0.25000000  1.0 -0.7637652855
F  F19  1  0.92900000  0.86890000  0.68270000  1.0 -0.1889405741
F  F20  1  0.13110000  0.06010000  0.68270000  1.0 -0.1889405741
F  F21  1  0.93990000  0.07100000  0.68270000  1.0 -0.1889405741
F  F22  1  0.92900000  0.86890000  0.81730000  1.0 -0.1889405741
F  F23  1  0.13110000  0.06010000  0.81730000  1.0 -0.1889405741
F  F24  1  0.93990000  0.07100000  0.81730000  1.0 -0.1889405741
F  F25  1  0.86890000  0.92900000  0.31730000  1.0 -0.1889405741
F  F26  1  0.06010000  0.13110000  0.31730000  1.0 -0.1889405741
F  F27  1  0.07100000  0.93990000  0.31730000  1.0 -0.1889405741
F  F28  1  0.86890000  0.92900000  0.18270000  1.0 -0.1889405741
F  F29  1  0.06010000  0.13110000  0.18270000  1.0 -0.1889405741
F  F30  1  0.07100000  0.93990000  0.18270000  1.0 -0.1889405741
F  F31  1  0.94420000  0.89720000  0.65760000  1.0 -0.1889405741
F  F32  1  0.10280000  0.04700000  0.65760000  1.0 -0.1889405741
F  F33  1  0.95300000  0.05580000  0.65760000  1.0 -0.1889405741
F  F34  1  0.94420000  0.89720000  0.84240000  1.0 -0.1889405741
F  F35  1  0.10280000  0.04700000  0.84240000  1.0 -0.1889405741
F  F36  1  0.95300000  0.05580000  0.84240000  1.0 -0.1889405741
F  F37  1  0.89720000  0.94420000  0.34240000  1.0 -0.1889405741
F  F38  1  0.04700000  0.10280000  0.34240000  1.0 -0.1889405741
F  F39  1  0.05580000  0.95300000  0.34240000  1.0 -0.1889405741
F  F40  1  0.89720000  0.94420000  0.15760000  1.0 -0.1889405741
F  F41  1  0.04700000  0.10280000  0.15760000  1.0 -0.1889405741
F  F42  1  0.05580000  0.95300000  0.15760000  1.0 -0.1889405741
