# DDEC6 charges by PACMAN v1.1 (https://github.com/mtap-research/PACMAN-charge/)
data_MIGMEU_ASR_pacman
_symmetry_space_group_name_H-M   'P 1'
_cell_length_a   5.36670000
_cell_length_b   22.22800000
_cell_length_c   8.89520000
_cell_angle_alpha   90.00000000
_cell_angle_beta   98.70720000
_cell_angle_gamma   90.00000000
_symmetry_Int_Tables_number   1
_chemical_formula_structural   CuH4(C2N)4
_chemical_formula_sum   'Cu4 H16 C32 N16'
_cell_volume   1048.88785623
_cell_formula_units_Z   4
loop_
 _symmetry_equiv_pos_site_id
 _symmetry_equiv_pos_as_xyz
  1  'x, y, z'
loop_
 _atom_site_type_symbol
 _atom_site_label
 _atom_site_symmetry_multiplicity
 _atom_site_fract_x
 _atom_site_fract_y
 _atom_site_fract_z
 _atom_site_occupancy
 _atom_site_charge
Cu  Cu1  1  0.00051000  0.85914000  0.24970000  1.0 0.6504442727
Cu  Cu2  1  0.50036000  0.35872000  0.24782000  1.0 0.6504442727
Cu  Cu3  1  0.99931000  0.14056000  0.74991000  1.0 0.6580672299
Cu  Cu4  1  0.50089000  0.64138000  0.75161000  1.0 0.6580672299
H  H1  1  0.76072000  0.79952000  0.62493000  1.0 0.137465487
H  H2  1  0.39367000  0.05483000  0.07767000  1.0 0.137465487
H  H3  1  0.58265000  0.94390000  0.90947000  1.0 0.137465487
H  H4  1  0.26091000  0.29960000  0.62494000  1.0 0.137465487
H  H5  1  0.23940000  0.79950000  0.87500000  1.0 0.137465487
H  H6  1  0.42405000  0.94447000  0.59091000  1.0 0.137465487
H  H7  1  0.73935000  0.29952000  0.87495000  1.0 0.137465487
H  H8  1  0.15023000  0.54581000  0.41290000  1.0 0.137465487
H  H9  1  0.23936000  0.20048000  0.37512000  1.0 0.137465487
H  H10  1  0.73908000  0.70042000  0.37508000  1.0 0.137465487
H  H11  1  0.10731000  0.44526000  0.92149000  1.0 0.137465487
H  H12  1  0.91700000  0.55593000  0.09071000  1.0 0.137465487
H  H13  1  0.76060000  0.20047000  0.12498000  1.0 0.137465487
H  H14  1  0.57706000  0.05546000  0.40786000  1.0 0.137465487
H  H15  1  0.26063000  0.70050000  0.12507000  1.0 0.137465487
H  H16  1  0.84985000  0.45434000  0.58659000  1.0 0.137465487
C  C1  1  0.45965000  0.79513000  0.43824000  1.0 0.3393356708
C  C2  1  0.68676000  0.77527000  0.52053000  1.0 -0.1580046575
C  C3  1  0.31018000  0.93712000  0.06074000  1.0 0.3321634013
C  C4  1  0.48108000  0.96853000  0.98794000  1.0 -0.1580046575
C  C5  1  0.96007000  0.29518000  0.43851000  1.0 0.3464766031
C  C6  1  0.18687000  0.27522000  0.52085000  1.0 -0.1491920988
C  C7  1  0.81280000  0.43725000  0.05901000  1.0 0.3321634013
C  C8  1  0.98545000  0.46950000  0.98960000  1.0 -0.1580046575
C  C9  1  0.54036000  0.79515000  0.06166000  1.0 0.3393356708
C  C10  1  0.31341000  0.77529000  0.97941000  1.0 -0.1580046575
C  C11  1  0.69020000  0.93776000  0.43719000  1.0 0.3321634013
C  C12  1  0.52174000  0.96940000  0.51062000  1.0 -0.1580046575
C  C13  1  0.03992000  0.29507000  0.06141000  1.0 0.3393356708
C  C14  1  0.81289000  0.27526000  0.97936000  1.0 -0.1580046575
C  C15  1  0.22351000  0.45197000  0.41322000  1.0 0.3321634013
C  C16  1  0.09371000  0.50196000  0.45345000  1.0 -0.1580046575
C  C17  1  0.54047000  0.20486000  0.56175000  1.0 0.3393356708
C  C18  1  0.31335000  0.22473000  0.47952000  1.0 -0.1580046575
C  C19  1  0.68408000  0.06266000  0.93819000  1.0 0.3321634013
C  C20  1  0.51220000  0.03049000  0.00727000  1.0 -0.1580046575
C  C21  1  0.03983000  0.70482000  0.56144000  1.0 0.3464766031
C  C22  1  0.81315000  0.72478000  0.47921000  1.0 -0.1491920988
C  C23  1  0.19152000  0.56286000  0.94043000  1.0 0.3393356708
C  C24  1  0.02013000  0.53148000  0.01261000  1.0 -0.1704380328
C  C25  1  0.45962000  0.20485000  0.93833000  1.0 0.3393356708
C  C26  1  0.68653000  0.22471000  0.02059000  1.0 -0.1580046575
C  C27  1  0.31072000  0.06216000  0.56167000  1.0 0.3321634013
C  C28  1  0.47934000  0.03072000  0.48789000  1.0 -0.1580046575
C  C29  1  0.96021000  0.70491000  0.93854000  1.0 0.3393356708
C  C30  1  0.18707000  0.72472000  0.02062000  1.0 -0.1580046575
C  C31  1  0.77661000  0.54799000  0.58567000  1.0 0.3321634013
C  C32  1  0.90592000  0.49807000  0.54538000  1.0 -0.1580046575
N  N1  1  0.26352000  0.81176000  0.37135000  1.0 -0.4821111152
N  N2  1  0.16024000  0.91212000  0.12216000  1.0 -0.472111162
N  N3  1  0.76435000  0.31178000  0.37116000  1.0 -0.4821111152
N  N4  1  0.66357000  0.41257000  0.12244000  1.0 -0.4821111152
N  N5  1  0.73667000  0.81176000  0.12841000  1.0 -0.4821111152
N  N6  1  0.83957000  0.91208000  0.37683000  1.0 -0.472111162
N  N7  1  0.23635000  0.31181000  0.12778000  1.0 -0.4853678609
N  N8  1  0.33549000  0.40934000  0.38078000  1.0 -0.472111162
N  N9  1  0.73659000  0.18815000  0.62860000  1.0 -0.4821111152
N  N10  1  0.83693000  0.08765000  0.87833000  1.0 -0.4821111152
N  N11  1  0.23610000  0.68827000  0.62859000  1.0 -0.4821111152
N  N12  1  0.33902000  0.58768000  0.87535000  1.0 -0.4821111152
N  N13  1  0.26341000  0.18814000  0.87143000  1.0 -0.4821111152
N  N14  1  0.16110000  0.08785000  0.62313000  1.0 -0.4821111152
N  N15  1  0.76374000  0.68821000  0.87200000  1.0 -0.4821111152
N  N16  1  0.66385000  0.59079000  0.61778000  1.0 -0.4821111152
