# DDEC6 charges by PACMAN v1.1 (https://github.com/mtap-research/PACMAN-charge/)
data_MIGVON_ASR_pacman
_symmetry_space_group_name_H-M   'P 1'
_cell_length_a   13.69900000
_cell_length_b   21.59400000
_cell_length_c   22.22000000
_cell_angle_alpha   90.00000000
_cell_angle_beta   90.00000000
_cell_angle_gamma   90.00000000
_symmetry_Int_Tables_number   1
_chemical_formula_structural   Co2H56C42S3(N9O2)2
_chemical_formula_sum   'Co8 H224 C168 S12 N72 O16'
_cell_volume   6573.03609732
_cell_formula_units_Z   4
loop_
 _symmetry_equiv_pos_site_id
 _symmetry_equiv_pos_as_xyz
  1  'x, y, z'
loop_
 _atom_site_type_symbol
 _atom_site_label
 _atom_site_symmetry_multiplicity
 _atom_site_fract_x
 _atom_site_fract_y
 _atom_site_fract_z
 _atom_site_occupancy
 _atom_site_charge
Co  Co1  1  0.77433000  0.84719000  0.13498000  1.0 0.7606214918
Co  Co2  1  0.72567000  0.15281000  0.63498000  1.0 0.7606214918
Co  Co3  1  0.22567000  0.34719000  0.36502000  1.0 0.7606214918
Co  Co4  1  0.27433000  0.65281000  0.86502000  1.0 0.7606214918
Co  Co5  1  0.73185000  0.65405000  0.36812000  1.0 0.7453024424
Co  Co6  1  0.76815000  0.34595000  0.86812000  1.0 0.7453024424
Co  Co7  1  0.26815000  0.15405000  0.13188000  1.0 0.7446099557
Co  Co8  1  0.23185000  0.84595000  0.63188000  1.0 0.7446099557
H  H1  1  0.57430000  0.78900000  0.16450000  1.0 0.2827537531
H  H2  1  0.92570000  0.21100000  0.66450000  1.0 0.2827537531
H  H3  1  0.42570000  0.28900000  0.33550000  1.0 0.2827537531
H  H4  1  0.07430000  0.71100000  0.83550000  1.0 0.2827537531
H  H5  1  0.28850000  0.79240000  0.89520000  1.0 0.2883298583
H  H6  1  0.21150000  0.20760000  0.39520000  1.0 0.2883298583
H  H7  1  0.71150000  0.29240000  0.60480000  1.0 0.2883298583
H  H8  1  0.78850000  0.70760000  0.10480000  1.0 0.2883298583
H  H9  1  0.96460000  0.81820000  0.20930000  1.0 0.2827537531
H  H10  1  0.53540000  0.18180000  0.70930000  1.0 0.2827537531
H  H11  1  0.03540000  0.31820000  0.29070000  1.0 0.2827537531
H  H12  1  0.46460000  0.68180000  0.79070000  1.0 0.2827537531
H  H13  1  0.22250000  0.10100000  0.25720000  1.0 0.2883298583
H  H14  1  0.27750000  0.89900000  0.75720000  1.0 0.2883298583
H  H15  1  0.77750000  0.60100000  0.24280000  1.0 0.2883298583
H  H16  1  0.72250000  0.39900000  0.74280000  1.0 0.2883298583
H  H17  1  0.92970000  0.71180000  0.33020000  1.0 0.2827537531
H  H18  1  0.57030000  0.28820000  0.83020000  1.0 0.2827537531
H  H19  1  0.07030000  0.21180000  0.16980000  1.0 0.2827537531
H  H20  1  0.42970000  0.78820000  0.66980000  1.0 0.2827537531
H  H21  1  0.19860000  0.70460000  0.60660000  1.0 0.2827537531
H  H22  1  0.30140000  0.29540000  0.10660000  1.0 0.2827537531
H  H23  1  0.80140000  0.20460000  0.89340000  1.0 0.2827537531
H  H24  1  0.69860000  0.79540000  0.39340000  1.0 0.2827537531
H  H25  1  0.45400000  0.17890000  0.20730000  1.0 0.2827537531
H  H26  1  0.04600000  0.82110000  0.70730000  1.0 0.2827537531
H  H27  1  0.54600000  0.67890000  0.29270000  1.0 0.2827537531
H  H28  1  0.95400000  0.32110000  0.79270000  1.0 0.2827537531
H  H29  1  0.70580000  0.89510000  0.26140000  1.0 0.2827537531
H  H30  1  0.79420000  0.10490000  0.76140000  1.0 0.2827537531
H  H31  1  0.29420000  0.39510000  0.23860000  1.0 0.2827537531
H  H32  1  0.20580000  0.60490000  0.73860000  1.0 0.2827537531
H  H33  1  0.40370000  0.75910000  0.16480000  1.0 0.1505577237
H  H34  1  0.09630000  0.24090000  0.66480000  1.0 0.1505577237
H  H35  1  0.59630000  0.25910000  0.33520000  1.0 0.1505577237
H  H36  1  0.90370000  0.74090000  0.83520000  1.0 0.1505577237
H  H37  1  0.38050000  0.71560000  0.11020000  1.0 0.1505577237
H  H38  1  0.11950000  0.28440000  0.61020000  1.0 0.1505577237
H  H39  1  0.61950000  0.21560000  0.38980000  1.0 0.1505577237
H  H40  1  0.88050000  0.78440000  0.88980000  1.0 0.1505577237
H  H41  1  0.34770000  0.78520000  0.10870000  1.0 0.1413818053
H  H42  1  0.15230000  0.21480000  0.60870000  1.0 0.1413818053
H  H43  1  0.65230000  0.28520000  0.39130000  1.0 0.1413818053
H  H44  1  0.84770000  0.71480000  0.89130000  1.0 0.1413818053
H  H45  1  0.74880000  0.81480000  0.99440000  1.0 0.1413818053
H  H46  1  0.75120000  0.18520000  0.49440000  1.0 0.1413818053
H  H47  1  0.25120000  0.31480000  0.50560000  1.0 0.1413818053
H  H48  1  0.24880000  0.68520000  0.00560000  1.0 0.1413818053
H  H49  1  0.65890000  0.83650000  0.95610000  1.0 0.1505577237
H  H50  1  0.84110000  0.16350000  0.45610000  1.0 0.1505577237
H  H51  1  0.34110000  0.33650000  0.54390000  1.0 0.1505577237
H  H52  1  0.15890000  0.66350000  0.04390000  1.0 0.1505577237
H  H53  1  0.68760000  0.76630000  0.95780000  1.0 0.1413818053
H  H54  1  0.81240000  0.23370000  0.45780000  1.0 0.1413818053
H  H55  1  0.31240000  0.26630000  0.54220000  1.0 0.1413818053
H  H56  1  0.18760000  0.73370000  0.04220000  1.0 0.1413818053
H  H57  1  0.49430000  0.63110000  0.91420000  1.0 0.1413818053
H  H58  1  0.00570000  0.36890000  0.41420000  1.0 0.1413818053
H  H59  1  0.50570000  0.13110000  0.58580000  1.0 0.1413818053
H  H60  1  0.99430000  0.86890000  0.08580000  1.0 0.1413818053
H  H61  1  0.51320000  0.64060000  0.98310000  1.0 0.1564417158
H  H62  1  0.98680000  0.35940000  0.48310000  1.0 0.1564417158
H  H63  1  0.48680000  0.14060000  0.51690000  1.0 0.1564417158
H  H64  1  0.01320000  0.85940000  0.01690000  1.0 0.1564417158
H  H65  1  0.58110000  0.67280000  0.93580000  1.0 0.1413818053
H  H66  1  0.91890000  0.32720000  0.43580000  1.0 0.1413818053
H  H67  1  0.41890000  0.17280000  0.56420000  1.0 0.1413818053
H  H68  1  0.08110000  0.82720000  0.06420000  1.0 0.1413818053
H  H69  1  0.29670000  0.88390000  0.95850000  1.0 0.1505577237
H  H70  1  0.20330000  0.11610000  0.45850000  1.0 0.1505577237
H  H71  1  0.70330000  0.38390000  0.54150000  1.0 0.1505577237
H  H72  1  0.79670000  0.61610000  0.04150000  1.0 0.1505577237
H  H73  1  0.40380000  0.89800000  0.97920000  1.0 0.1564417158
H  H74  1  0.09620000  0.10200000  0.47920000  1.0 0.1564417158
H  H75  1  0.59620000  0.39800000  0.52080000  1.0 0.1564417158
H  H76  1  0.90380000  0.60200000  0.02080000  1.0 0.1564417158
H  H77  1  0.33030000  0.86660000  0.02380000  1.0 0.1505577237
H  H78  1  0.16970000  0.13340000  0.52380000  1.0 0.1505577237
H  H79  1  0.66970000  0.36660000  0.47620000  1.0 0.1505577237
H  H80  1  0.83030000  0.63340000  0.97620000  1.0 0.1505577237
H  H81  1  0.78990000  0.98840000  0.16280000  1.0 0.1413818053
H  H82  1  0.71010000  0.01160000  0.66280000  1.0 0.1413818053
H  H83  1  0.21010000  0.48840000  0.33720000  1.0 0.1413818053
H  H84  1  0.28990000  0.51160000  0.83720000  1.0 0.1413818053
H  H85  1  0.87960000  0.02650000  0.13940000  1.0 0.1413818053
H  H86  1  0.62040000  0.97350000  0.63940000  1.0 0.1413818053
H  H87  1  0.12040000  0.52650000  0.36060000  1.0 0.1413818053
H  H88  1  0.37960000  0.47350000  0.86060000  1.0 0.1413818053
H  H89  1  0.84930000  0.03030000  0.20730000  1.0 0.1505577237
H  H90  1  0.65070000  0.96970000  0.70730000  1.0 0.1505577237
H  H91  1  0.15070000  0.53030000  0.29270000  1.0 0.1505577237
H  H92  1  0.34930000  0.46970000  0.79270000  1.0 0.1505577237
H  H93  1  0.13190000  0.82060000  0.23690000  1.0 0.1505577237
H  H94  1  0.36810000  0.17940000  0.73690000  1.0 0.1505577237
H  H95  1  0.86810000  0.32060000  0.26310000  1.0 0.1505577237
H  H96  1  0.63190000  0.67940000  0.76310000  1.0 0.1505577237
H  H97  1  0.16030000  0.88170000  0.27080000  1.0 0.1413818053
H  H98  1  0.33970000  0.11830000  0.77080000  1.0 0.1413818053
H  H99  1  0.83970000  0.38170000  0.22920000  1.0 0.1413818053
H  H100  1  0.66030000  0.61830000  0.72920000  1.0 0.1413818053
H  H101  1  0.18830000  0.87320000  0.20290000  1.0 0.1505577237
H  H102  1  0.31170000  0.12680000  0.70290000  1.0 0.1505577237
H  H103  1  0.81170000  0.37320000  0.29710000  1.0 0.1505577237
H  H104  1  0.68830000  0.62680000  0.79710000  1.0 0.1505577237
H  H105  1  0.08950000  0.08230000  0.07340000  1.0 0.1413818053
H  H106  1  0.41050000  0.91770000  0.57340000  1.0 0.1413818053
H  H107  1  0.91050000  0.58230000  0.42660000  1.0 0.1413818053
H  H108  1  0.58950000  0.41770000  0.92660000  1.0 0.1413818053
H  H109  1  0.99260000  0.05290000  0.09770000  1.0 0.1413818053
H  H110  1  0.50740000  0.94710000  0.59770000  1.0 0.1413818053
H  H111  1  0.00740000  0.55290000  0.40230000  1.0 0.1413818053
H  H112  1  0.49260000  0.44710000  0.90230000  1.0 0.1413818053
H  H113  1  0.07890000  0.01010000  0.07720000  1.0 0.1564417158
H  H114  1  0.42110000  0.98990000  0.57720000  1.0 0.1564417158
H  H115  1  0.92110000  0.51010000  0.42280000  1.0 0.1564417158
H  H116  1  0.57890000  0.48990000  0.92280000  1.0 0.1505577237
H  H117  1  0.19200000  0.03260000  0.33840000  1.0 0.1413818053
H  H118  1  0.30800000  0.96740000  0.83840000  1.0 0.1413818053
H  H119  1  0.80800000  0.53260000  0.16160000  1.0 0.1413818053
H  H120  1  0.69200000  0.46740000  0.66160000  1.0 0.1413818053
H  H121  1  0.17420000  0.96480000  0.31580000  1.0 0.1413818053
H  H122  1  0.32580000  0.03520000  0.81580000  1.0 0.1413818053
H  H123  1  0.82580000  0.46480000  0.18420000  1.0 0.1413818053
H  H124  1  0.67420000  0.53520000  0.68420000  1.0 0.1413818053
H  H125  1  0.08580000  0.00550000  0.33680000  1.0 0.1505577237
H  H126  1  0.41420000  0.99450000  0.83680000  1.0 0.1505577237
H  H127  1  0.91420000  0.50550000  0.16320000  1.0 0.1505577237
H  H128  1  0.58580000  0.49450000  0.66320000  1.0 0.1505577237
H  H129  1  0.09930000  0.73390000  0.32810000  1.0 0.1505577237
H  H130  1  0.40070000  0.26610000  0.82810000  1.0 0.1505577237
H  H131  1  0.90070000  0.23390000  0.17190000  1.0 0.1505577237
H  H132  1  0.59930000  0.76610000  0.67190000  1.0 0.1505577237
H  H133  1  0.15220000  0.70590000  0.38450000  1.0 0.1505577237
H  H134  1  0.34780000  0.29410000  0.88450000  1.0 0.1505577237
H  H135  1  0.84780000  0.20590000  0.11550000  1.0 0.1505577237
H  H136  1  0.65220000  0.79410000  0.61550000  1.0 0.1505577237
H  H137  1  0.13250000  0.77740000  0.38080000  1.0 0.1564417158
H  H138  1  0.36750000  0.22260000  0.88080000  1.0 0.1564417158
H  H139  1  0.86750000  0.27740000  0.11920000  1.0 0.1564417158
H  H140  1  0.63250000  0.72260000  0.61920000  1.0 0.1564417158
H  H141  1  0.75330000  0.70530000  0.49990000  1.0 0.1413818053
H  H142  1  0.74670000  0.29470000  0.99990000  1.0 0.1413818053
H  H143  1  0.24670000  0.20530000  0.00010000  1.0 0.1413818053
H  H144  1  0.25330000  0.79470000  0.50010000  1.0 0.1413818053
H  H145  1  0.81980000  0.75380000  0.53260000  1.0 0.1413818053
H  H146  1  0.68020000  0.24620000  0.03260000  1.0 0.1413818053
H  H147  1  0.18020000  0.25380000  0.96740000  1.0 0.1413818053
H  H148  1  0.31980000  0.74620000  0.46740000  1.0 0.1413818053
H  H149  1  0.84070000  0.68280000  0.53980000  1.0 0.1505577237
H  H150  1  0.65930000  0.31720000  0.03980000  1.0 0.1505577237
H  H151  1  0.15930000  0.18280000  0.96020000  1.0 0.1505577237
H  H152  1  0.34070000  0.81720000  0.46020000  1.0 0.1505577237
H  H153  1  0.02450000  0.87890000  0.57300000  1.0 0.1505577237
H  H154  1  0.47550000  0.12110000  0.07300000  1.0 0.1505577237
H  H155  1  0.97550000  0.37890000  0.92700000  1.0 0.1505577237
H  H156  1  0.52450000  0.62110000  0.42700000  1.0 0.1505577237
H  H157  1  0.93500000  0.84210000  0.54740000  1.0 0.1413818053
H  H158  1  0.56500000  0.15790000  0.04740000  1.0 0.1413818053
H  H159  1  0.06500000  0.34210000  0.95260000  1.0 0.1413818053
H  H160  1  0.43500000  0.65790000  0.45260000  1.0 0.1413818053
H  H161  1  0.01550000  0.86730000  0.50350000  1.0 0.1564417158
H  H162  1  0.48450000  0.13270000  0.00350000  1.0 0.1564417158
H  H163  1  0.98450000  0.36730000  0.99650000  1.0 0.1564417158
H  H164  1  0.51550000  0.63270000  0.49650000  1.0 0.1564417158
H  H165  1  0.17940000  0.61210000  0.54610000  1.0 0.1505577237
H  H166  1  0.32060000  0.38790000  0.04610000  1.0 0.1505577237
H  H167  1  0.82060000  0.11210000  0.95390000  1.0 0.1505577237
H  H168  1  0.67940000  0.88790000  0.45390000  1.0 0.1505577237
H  H169  1  0.15470000  0.62820000  0.47910000  1.0 0.1413818053
H  H170  1  0.34530000  0.37180000  0.97910000  1.0 0.1413818053
H  H171  1  0.84530000  0.12820000  0.02090000  1.0 0.1413818053
H  H172  1  0.65470000  0.87180000  0.52090000  1.0 0.1413818053
H  H173  1  0.07200000  0.60560000  0.52260000  1.0 0.1505577237
H  H174  1  0.42800000  0.39440000  0.02260000  1.0 0.1505577237
H  H175  1  0.92800000  0.10560000  0.97740000  1.0 0.1505577237
H  H176  1  0.57200000  0.89440000  0.47740000  1.0 0.1505577237
H  H177  1  0.29390000  0.01080000  0.13980000  1.0 0.1413818053
H  H178  1  0.20610000  0.98920000  0.63980000  1.0 0.1413818053
H  H179  1  0.70610000  0.51080000  0.36020000  1.0 0.1413818053
H  H180  1  0.79390000  0.48920000  0.86020000  1.0 0.1413818053
H  H181  1  0.34760000  0.96540000  0.18370000  1.0 0.1505577237
H  H182  1  0.15240000  0.03460000  0.68370000  1.0 0.1505577237
H  H183  1  0.65240000  0.46540000  0.31630000  1.0 0.1505577237
H  H184  1  0.84760000  0.53460000  0.81630000  1.0 0.1505577237
H  H185  1  0.38870000  0.97640000  0.11880000  1.0 0.1413818053
H  H186  1  0.11130000  0.02360000  0.61880000  1.0 0.1413818053
H  H187  1  0.61130000  0.47640000  0.38120000  1.0 0.1413818053
H  H188  1  0.88870000  0.52360000  0.88120000  1.0 0.1413818053
H  H189  1  0.61850000  0.17480000  0.24710000  1.0 0.1505577237
H  H190  1  0.88150000  0.82520000  0.74710000  1.0 0.1505577237
H  H191  1  0.38150000  0.67480000  0.25290000  1.0 0.1505577237
H  H192  1  0.11850000  0.32520000  0.75290000  1.0 0.1505577237
H  H193  1  0.68080000  0.12320000  0.21560000  1.0 0.1505577237
H  H194  1  0.81920000  0.87680000  0.71560000  1.0 0.1505577237
H  H195  1  0.31920000  0.62320000  0.28440000  1.0 0.1505577237
H  H196  1  0.18080000  0.37680000  0.78440000  1.0 0.1505577237
H  H197  1  0.63740000  0.11170000  0.27990000  1.0 0.1505577237
H  H198  1  0.86260000  0.88830000  0.77990000  1.0 0.1505577237
H  H199  1  0.36260000  0.61170000  0.22010000  1.0 0.1505577237
H  H200  1  0.13740000  0.38830000  0.72010000  1.0 0.1505577237
H  H201  1  0.62070000  0.92530000  0.06830000  1.0 0.1505577237
H  H202  1  0.87930000  0.07470000  0.56830000  1.0 0.1505577237
H  H203  1  0.37930000  0.42530000  0.43170000  1.0 0.1505577237
H  H204  1  0.12070000  0.57470000  0.93170000  1.0 0.1505577237
H  H205  1  0.60920000  0.99710000  0.07590000  1.0 0.1505577237
H  H206  1  0.89080000  0.00290000  0.57590000  1.0 0.1505577237
H  H207  1  0.39080000  0.49710000  0.42410000  1.0 0.1505577237
H  H208  1  0.10920000  0.50290000  0.92410000  1.0 0.1505577237
H  H209  1  0.51850000  0.95360000  0.08420000  1.0 0.1413818053
H  H210  1  0.98150000  0.04640000  0.58420000  1.0 0.1413818053
H  H211  1  0.48150000  0.45360000  0.41580000  1.0 0.1413818053
H  H212  1  0.01850000  0.54640000  0.91580000  1.0 0.1413818053
H  H213  1  0.64520000  0.95570000  0.34310000  1.0 0.1505577237
H  H214  1  0.85480000  0.04430000  0.84310000  1.0 0.1505577237
H  H215  1  0.35480000  0.45570000  0.15690000  1.0 0.1505577237
H  H216  1  0.14520000  0.54430000  0.65690000  1.0 0.1505577237
H  H217  1  0.53880000  0.97880000  0.33030000  1.0 0.1505577237
H  H218  1  0.96120000  0.02120000  0.83030000  1.0 0.1505577237
H  H219  1  0.46120000  0.47880000  0.16970000  1.0 0.1505577237
H  H220  1  0.03880000  0.52120000  0.66970000  1.0 0.1505577237
H  H221  1  0.62690000  0.02470000  0.32450000  1.0 0.1413818053
H  H222  1  0.87310000  0.97530000  0.82450000  1.0 0.1413818053
H  H223  1  0.37310000  0.52470000  0.17550000  1.0 0.1413818053
H  H224  1  0.12690000  0.47530000  0.67550000  1.0 0.1413818053
C  C1  1  0.62000000  0.79460000  0.03340000  1.0 0.2099604651
C  C2  1  0.88000000  0.20540000  0.53340000  1.0 0.2099604651
C  C3  1  0.38000000  0.29460000  0.46660000  1.0 0.2099604651
C  C4  1  0.12000000  0.70540000  0.96660000  1.0 0.2099604651
C  C5  1  0.52000000  0.77820000  0.03320000  1.0 -0.120895864
C  C6  1  0.98000000  0.22180000  0.53320000  1.0 -0.120895864
C  C7  1  0.48000000  0.27820000  0.46680000  1.0 -0.120895864
C  C8  1  0.02000000  0.72180000  0.96680000  1.0 -0.120895864
C  C9  1  0.49320000  0.77450000  0.09320000  1.0 0.1911376817
C  C10  1  0.00680000  0.22550000  0.59320000  1.0 0.1911376817
C  C11  1  0.50680000  0.27450000  0.40680000  1.0 0.1911376817
C  C12  1  0.99320000  0.72550000  0.90680000  1.0 0.1911376817
C  C13  1  0.39760000  0.75700000  0.12180000  1.0 -0.4793470227
C  C14  1  0.10240000  0.24300000  0.62180000  1.0 -0.4793470227
C  C15  1  0.60240000  0.25700000  0.37820000  1.0 -0.4793470227
C  C16  1  0.89760000  0.74300000  0.87820000  1.0 -0.4793470227
C  C17  1  0.68450000  0.80390000  0.98080000  1.0 -0.4714754895
C  C18  1  0.81550000  0.19610000  0.48080000  1.0 -0.4714754895
C  C19  1  0.31550000  0.30390000  0.51920000  1.0 -0.4714754895
C  C20  1  0.18450000  0.69610000  0.01920000  1.0 -0.4714754895
C  C21  1  0.38190000  0.80670000  0.96060000  1.0 0.1911376817
C  C22  1  0.11810000  0.19330000  0.46060000  1.0 0.1911376817
C  C23  1  0.61810000  0.30670000  0.53940000  1.0 0.1911376817
C  C24  1  0.88190000  0.69330000  0.03940000  1.0 0.1911376817
C  C25  1  0.45540000  0.76770000  0.98080000  1.0 -0.120895864
C  C26  1  0.04460000  0.23230000  0.48080000  1.0 -0.120895864
C  C27  1  0.54460000  0.26770000  0.51920000  1.0 -0.120895864
C  C28  1  0.95540000  0.73230000  0.01920000  1.0 -0.120895864
C  C29  1  0.44940000  0.71550000  0.94390000  1.0 0.2099604651
C  C30  1  0.05060000  0.28450000  0.44390000  1.0 0.2099604651
C  C31  1  0.55060000  0.21550000  0.55610000  1.0 0.2099604651
C  C32  1  0.94940000  0.78450000  0.05610000  1.0 0.2099604651
C  C33  1  0.51540000  0.66000000  0.94430000  1.0 -0.4714754895
C  C34  1  0.98460000  0.34000000  0.44430000  1.0 -0.4714754895
C  C35  1  0.48460000  0.16000000  0.55570000  1.0 -0.4714754895
C  C36  1  0.01540000  0.84000000  0.05570000  1.0 -0.4714754895
C  C37  1  0.35030000  0.86950000  0.98250000  1.0 -0.4793470227
C  C38  1  0.14970000  0.13050000  0.48250000  1.0 -0.4793470227
C  C39  1  0.64970000  0.36950000  0.51750000  1.0 -0.4793470227
C  C40  1  0.85030000  0.63050000  0.01750000  1.0 -0.4793470227
C  C41  1  0.04540000  0.89290000  0.21480000  1.0 0.1715895533
C  C42  1  0.45460000  0.10710000  0.71480000  1.0 0.1715895533
C  C43  1  0.95460000  0.39290000  0.28520000  1.0 0.1715895533
C  C44  1  0.54540000  0.60710000  0.78520000  1.0 0.1715895533
C  C45  1  0.01890000  0.95270000  0.20360000  1.0 -0.120895864
C  C46  1  0.48110000  0.04730000  0.70360000  1.0 -0.120895864
C  C47  1  0.98110000  0.45270000  0.29640000  1.0 -0.120895864
C  C48  1  0.51890000  0.54730000  0.79640000  1.0 -0.120895864
C  C49  1  0.91970000  0.95030000  0.18690000  1.0 0.2171865192
C  C50  1  0.58030000  0.04970000  0.68690000  1.0 0.2171865192
C  C51  1  0.08030000  0.45030000  0.31310000  1.0 0.2171865192
C  C52  1  0.41970000  0.54970000  0.81310000  1.0 0.2171865192
C  C53  1  0.85370000  0.00370000  0.17280000  1.0 -0.4714754895
C  C54  1  0.64630000  0.99630000  0.67280000  1.0 -0.4714754895
C  C55  1  0.14630000  0.50370000  0.32720000  1.0 -0.4714754895
C  C56  1  0.35370000  0.49630000  0.82720000  1.0 -0.4714754895
C  C57  1  0.13990000  0.86460000  0.23300000  1.0 -0.4714754895
C  C58  1  0.36010000  0.13540000  0.73300000  1.0 -0.4714754895
C  C59  1  0.86010000  0.36460000  0.26700000  1.0 -0.4714754895
C  C60  1  0.63990000  0.63540000  0.76700000  1.0 -0.4714754895
C  C61  1  0.13560000  0.02950000  0.25430000  1.0 0.1911376817
C  C62  1  0.36440000  0.97050000  0.75430000  1.0 0.1911376817
C  C63  1  0.86440000  0.52950000  0.24570000  1.0 0.1911376817
C  C64  1  0.63560000  0.47050000  0.74570000  1.0 0.1911376817
C  C65  1  0.08080000  0.00810000  0.20560000  1.0 -0.120895864
C  C66  1  0.41920000  0.99190000  0.70560000  1.0 -0.120895864
C  C67  1  0.91920000  0.50810000  0.29440000  1.0 -0.120895864
C  C68  1  0.58080000  0.49190000  0.79440000  1.0 -0.120895864
C  C69  1  0.10250000  0.04970000  0.15840000  1.0 0.2171865192
C  C70  1  0.39750000  0.95030000  0.65840000  1.0 0.2171865192
C  C71  1  0.89750000  0.54970000  0.34160000  1.0 0.2171865192
C  C72  1  0.60250000  0.45030000  0.84160000  1.0 0.2171865192
C  C73  1  0.06230000  0.04860000  0.09620000  1.0 -0.4714754895
C  C74  1  0.43770000  0.95140000  0.59620000  1.0 -0.4714754895
C  C75  1  0.93770000  0.54860000  0.40380000  1.0 -0.4714754895
C  C76  1  0.56230000  0.45140000  0.90380000  1.0 -0.4714754895
C  C77  1  0.14800000  0.00600000  0.31690000  1.0 -0.4714754895
C  C78  1  0.35200000  0.99400000  0.81690000  1.0 -0.4714754895
C  C79  1  0.85200000  0.50600000  0.18310000  1.0 -0.4714754895
C  C80  1  0.64800000  0.49400000  0.68310000  1.0 -0.4714754895
C  C81  1  0.88360000  0.71640000  0.45980000  1.0 0.2099604651
C  C82  1  0.61640000  0.28360000  0.95980000  1.0 0.2099604651
C  C83  1  0.11640000  0.21640000  0.04020000  1.0 0.2099604651
C  C84  1  0.38360000  0.78360000  0.54020000  1.0 0.2099604651
C  C85  1  0.98460000  0.72850000  0.46030000  1.0 -0.120895864
C  C86  1  0.51540000  0.27150000  0.96030000  1.0 -0.120895864
C  C87  1  0.01540000  0.22850000  0.03970000  1.0 -0.120895864
C  C88  1  0.48460000  0.77150000  0.53970000  1.0 -0.120895864
C  C89  1  0.01170000  0.72820000  0.40090000  1.0 0.1715895533
C  C90  1  0.48830000  0.27180000  0.90090000  1.0 0.1715895533
C  C91  1  0.98830000  0.22820000  0.09910000  1.0 0.1715895533
C  C92  1  0.51170000  0.77180000  0.59910000  1.0 0.1715895533
C  C93  1  0.10740000  0.73710000  0.37090000  1.0 -0.4793470227
C  C94  1  0.39260000  0.26290000  0.87090000  1.0 -0.4714754895
C  C95  1  0.89260000  0.23710000  0.12910000  1.0 -0.4793470227
C  C96  1  0.60740000  0.76290000  0.62910000  1.0 -0.4793470227
C  C97  1  0.81870000  0.71440000  0.51260000  1.0 -0.4714754895
C  C98  1  0.68130000  0.28560000  0.01260000  1.0 -0.4714754895
C  C99  1  0.18130000  0.21440000  0.98740000  1.0 -0.4714754895
C  C100  1  0.31870000  0.78560000  0.48740000  1.0 -0.4714754895
C  C101  1  0.11140000  0.69420000  0.53720000  1.0 0.1836286988
C  C102  1  0.38860000  0.30580000  0.03720000  1.0 0.1836286988
C  C103  1  0.88860000  0.19420000  0.96280000  1.0 0.1836286988
C  C104  1  0.61140000  0.80580000  0.46280000  1.0 0.1836286988
C  C105  1  0.04790000  0.73820000  0.51300000  1.0 -0.120895864
C  C106  1  0.45210000  0.26180000  0.01300000  1.0 -0.120895864
C  C107  1  0.95210000  0.23820000  0.98700000  1.0 -0.120895864
C  C108  1  0.54790000  0.76180000  0.48700000  1.0 -0.120895864
C  C109  1  0.05860000  0.79120000  0.54930000  1.0 0.2099604651
C  C110  1  0.44140000  0.20880000  0.04930000  1.0 0.2099604651
C  C111  1  0.94140000  0.29120000  0.95070000  1.0 0.2099604651
C  C112  1  0.55860000  0.70880000  0.45070000  1.0 0.2099604651
C  C113  1  0.00350000  0.85010000  0.54270000  1.0 -0.4714754895
C  C114  1  0.49650000  0.14990000  0.04270000  1.0 -0.4714754895
C  C115  1  0.99650000  0.35010000  0.95730000  1.0 -0.4714754895
C  C116  1  0.50350000  0.64990000  0.45730000  1.0 -0.4714754895
C  C117  1  0.13110000  0.62940000  0.51970000  1.0 -0.4858846851
C  C118  1  0.36890000  0.37060000  0.01970000  1.0 -0.4858846851
C  C119  1  0.86890000  0.12940000  0.98030000  1.0 -0.4858846851
C  C120  1  0.63110000  0.87060000  0.48030000  1.0 -0.4858846851
C  C121  1  0.53690000  0.10510000  0.21430000  1.0 0.1836286988
C  C122  1  0.96310000  0.89490000  0.71430000  1.0 0.1836286988
C  C123  1  0.46310000  0.60510000  0.28570000  1.0 0.1836286988
C  C124  1  0.03690000  0.39490000  0.78570000  1.0 0.1836286988
C  C125  1  0.51300000  0.04440000  0.19790000  1.0 -0.120895864
C  C126  1  0.98700000  0.95560000  0.69790000  1.0 -0.120895864
C  C127  1  0.48700000  0.54440000  0.30210000  1.0 -0.120895864
C  C128  1  0.01300000  0.45560000  0.80210000  1.0 -0.120895864
C  C129  1  0.41690000  0.04770000  0.17530000  1.0 0.2099604651
C  C130  1  0.08310000  0.95230000  0.67530000  1.0 0.2099604651
C  C131  1  0.58310000  0.54770000  0.32470000  1.0 0.2099604651
C  C132  1  0.91690000  0.45230000  0.82470000  1.0 0.2099604651
C  C133  1  0.35640000  0.99540000  0.15240000  1.0 -0.4793470227
C  C134  1  0.14360000  0.00460000  0.65240000  1.0 -0.4793470227
C  C135  1  0.64360000  0.49540000  0.34760000  1.0 -0.4793470227
C  C136  1  0.85640000  0.50460000  0.84760000  1.0 -0.4793470227
C  C137  1  0.62620000  0.13100000  0.24160000  1.0 -0.4714754895
C  C138  1  0.87380000  0.86900000  0.74160000  1.0 -0.4714754895
C  C139  1  0.37380000  0.63100000  0.25840000  1.0 -0.4714754895
C  C140  1  0.12620000  0.36900000  0.75840000  1.0 -0.4714754895
C  C141  1  0.61710000  0.96540000  0.25420000  1.0 0.1911376817
C  C142  1  0.88290000  0.03460000  0.75420000  1.0 0.1911376817
C  C143  1  0.38290000  0.46540000  0.24580000  1.0 0.1911376817
C  C144  1  0.11710000  0.53460000  0.74580000  1.0 0.1911376817
C  C145  1  0.57640000  0.98980000  0.20240000  1.0 -0.120895864
C  C146  1  0.92360000  0.01020000  0.70240000  1.0 -0.120895864
C  C147  1  0.42360000  0.48980000  0.29760000  1.0 -0.120895864
C  C148  1  0.07640000  0.51020000  0.79760000  1.0 -0.1316380032
C  C149  1  0.61040000  0.95160000  0.15500000  1.0 0.2171865192
C  C150  1  0.88960000  0.04840000  0.65500000  1.0 0.2171865192
C  C151  1  0.38960000  0.45160000  0.34500000  1.0 0.2171865192
C  C152  1  0.11040000  0.54840000  0.84500000  1.0 0.2171865192
C  C153  1  0.58770000  0.95740000  0.09010000  1.0 -0.4714754895
C  C154  1  0.91230000  0.04260000  0.59010000  1.0 -0.4714754895
C  C155  1  0.41230000  0.45740000  0.40990000  1.0 -0.4714754895
C  C156  1  0.08770000  0.54260000  0.90990000  1.0 -0.4714754895
C  C157  1  0.60600000  0.98270000  0.31880000  1.0 -0.4714754895
C  C158  1  0.89400000  0.01730000  0.81880000  1.0 -0.4714754895
C  C159  1  0.39400000  0.48270000  0.18120000  1.0 -0.4714754895
C  C160  1  0.10600000  0.51730000  0.68120000  1.0 -0.4714754895
C  C161  1  0.72810000  0.57060000  0.48490000  1.0 0.2721201442
C  C162  1  0.77190000  0.42940000  0.98490000  1.0 0.2721201442
C  C163  1  0.27190000  0.07060000  0.01510000  1.0 0.2721201442
C  C164  1  0.22810000  0.92940000  0.51510000  1.0 0.2721201442
C  C165  1  0.82910000  0.92610000  0.01860000  1.0 0.2721201442
C  C166  1  0.67090000  0.07390000  0.51860000  1.0 0.2721201442
C  C167  1  0.17090000  0.42610000  0.48140000  1.0 0.2721201442
C  C168  1  0.32910000  0.57390000  0.98140000  1.0 0.2721201442
S  S1  1  0.71255000  0.76461000  0.26177000  1.0 1.391660843
S  S2  1  0.78745000  0.23539000  0.76177000  1.0 1.391660843
S  S3  1  0.28745000  0.26461000  0.23823000  1.0 1.391660843
S  S4  1  0.21255000  0.73539000  0.73823000  1.0 1.391660843
S  S5  1  0.86690000  0.95614000  0.95589000  1.0 -0.3254323565
S  S6  1  0.63310000  0.04386000  0.45589000  1.0 -0.3254323565
S  S7  1  0.13310000  0.45614000  0.54411000  1.0 -0.3254323565
S  S8  1  0.36690000  0.54386000  0.04411000  1.0 -0.3254323565
S  S9  1  0.73840000  0.52970000  0.54669000  1.0 -0.3487656601
S  S10  1  0.76160000  0.47030000  0.04669000  1.0 -0.3487656601
S  S11  1  0.26160000  0.02970000  0.95331000  1.0 -0.3487656601
S  S12  1  0.23840000  0.97030000  0.45331000  1.0 -0.3487656601
N  N1  1  0.65180000  0.80120000  0.09030000  1.0 -0.2698327862
N  N2  1  0.84820000  0.19880000  0.59030000  1.0 -0.2698327862
N  N3  1  0.34820000  0.30120000  0.40970000  1.0 -0.2698327862
N  N4  1  0.15180000  0.69880000  0.90970000  1.0 -0.2698327862
N  N5  1  0.57300000  0.78830000  0.12590000  1.0 -0.1464803182
N  N6  1  0.92700000  0.21170000  0.62590000  1.0 -0.1464803182
N  N7  1  0.42700000  0.28830000  0.37410000  1.0 -0.1464803182
N  N8  1  0.07300000  0.71170000  0.87410000  1.0 -0.1464803182
N  N9  1  0.37760000  0.72090000  0.90400000  1.0 -0.248999916
N  N10  1  0.12240000  0.27910000  0.40400000  1.0 -0.248999916
N  N11  1  0.62240000  0.22090000  0.59600000  1.0 -0.248999916
N  N12  1  0.87760000  0.77910000  0.09600000  1.0 -0.248999916
N  N13  1  0.33700000  0.77740000  0.91500000  1.0 -0.1464803182
N  N14  1  0.16300000  0.22260000  0.41500000  1.0 -0.1464803182
N  N15  1  0.66300000  0.27740000  0.58500000  1.0 -0.1464803182
N  N16  1  0.83700000  0.72260000  0.08500000  1.0 -0.1464803182
N  N17  1  0.88810000  0.89170000  0.18700000  1.0 -0.2408149317
N  N18  1  0.61190000  0.10830000  0.68700000  1.0 -0.2408149317
N  N19  1  0.11190000  0.39170000  0.31300000  1.0 -0.2408149317
N  N20  1  0.38810000  0.60830000  0.81300000  1.0 -0.2408149317
N  N21  1  0.96580000  0.85770000  0.20480000  1.0 -0.1406911835
N  N22  1  0.53420000  0.14230000  0.70480000  1.0 -0.1406911835
N  N23  1  0.03420000  0.35770000  0.29520000  1.0 -0.1406911835
N  N24  1  0.46580000  0.64230000  0.79520000  1.0 -0.1406911835
N  N25  1  0.16370000  0.09290000  0.17680000  1.0 -0.248999916
N  N26  1  0.33630000  0.90710000  0.67680000  1.0 -0.248999916
N  N27  1  0.83630000  0.59290000  0.32320000  1.0 -0.248999916
N  N28  1  0.66370000  0.40710000  0.82320000  1.0 -0.248999916
N  N29  1  0.18360000  0.07960000  0.23510000  1.0 -0.1406911835
N  N30  1  0.31640000  0.92040000  0.73510000  1.0 -0.1406911835
N  N31  1  0.81640000  0.57960000  0.26490000  1.0 -0.1406911835
N  N32  1  0.68360000  0.42040000  0.76490000  1.0 -0.1406911835
N  N33  1  0.85150000  0.70810000  0.40410000  1.0 -0.2408149317
N  N34  1  0.64850000  0.29190000  0.90410000  1.0 -0.2408149317
N  N35  1  0.14850000  0.20810000  0.09590000  1.0 -0.2408149317
N  N36  1  0.35150000  0.79190000  0.59590000  1.0 -0.2408149317
N  N37  1  0.93070000  0.71520000  0.36870000  1.0 -0.1406911835
N  N38  1  0.56930000  0.28480000  0.86870000  1.0 -0.1406911835
N  N39  1  0.06930000  0.21520000  0.13130000  1.0 -0.1406911835
N  N40  1  0.43070000  0.78480000  0.63130000  1.0 -0.1406911835
N  N41  1  0.15590000  0.72240000  0.58410000  1.0 -0.1406911835
N  N42  1  0.34410000  0.27760000  0.08410000  1.0 -0.1406911835
N  N43  1  0.84410000  0.22240000  0.91590000  1.0 -0.1406911835
N  N44  1  0.65590000  0.77760000  0.41590000  1.0 -0.1406911835
N  N45  1  0.12600000  0.78180000  0.59180000  1.0 -0.2629575022
N  N46  1  0.37400000  0.21820000  0.09180000  1.0 -0.2629575022
N  N47  1  0.87400000  0.28180000  0.90820000  1.0 -0.2629575022
N  N48  1  0.62600000  0.71820000  0.40820000  1.0 -0.2629575022
N  N49  1  0.45770000  0.13960000  0.20110000  1.0 -0.1316380032
N  N50  1  0.04230000  0.86040000  0.70110000  1.0 -0.1316380032
N  N51  1  0.54230000  0.63960000  0.29890000  1.0 -0.1316380032
N  N52  1  0.95770000  0.36040000  0.79890000  1.0 -0.1316380032
N  N53  1  0.38570000  0.10610000  0.17740000  1.0 -0.2408149317
N  N54  1  0.11430000  0.89390000  0.67740000  1.0 -0.2408149317
N  N55  1  0.61430000  0.60610000  0.32260000  1.0 -0.2408149317
N  N56  1  0.88570000  0.39390000  0.82260000  1.0 -0.2408149317
N  N57  1  0.66940000  0.90770000  0.17650000  1.0 -0.2629575022
N  N58  1  0.83060000  0.09230000  0.67650000  1.0 -0.2629575022
N  N59  1  0.33060000  0.40770000  0.32350000  1.0 -0.2629575022
N  N60  1  0.16940000  0.59230000  0.82350000  1.0 -0.2629575022
N  N61  1  0.67220000  0.91740000  0.23690000  1.0 -0.1406911835
N  N62  1  0.82780000  0.08260000  0.73690000  1.0 -0.1406911835
N  N63  1  0.32780000  0.41740000  0.26310000  1.0 -0.1406911835
N  N64  1  0.17220000  0.58260000  0.76310000  1.0 -0.1406911835
N  N65  1  0.80150000  0.90490000  0.06330000  1.0 -0.4567964338
N  N66  1  0.69850000  0.09510000  0.56330000  1.0 -0.4567964338
N  N67  1  0.19850000  0.40490000  0.43670000  1.0 -0.4567964338
N  N68  1  0.30150000  0.59510000  0.93670000  1.0 -0.4567964338
N  N69  1  0.72430000  0.59810000  0.44180000  1.0 -0.4426722192
N  N70  1  0.77570000  0.40190000  0.94180000  1.0 -0.4426722192
N  N71  1  0.27570000  0.09810000  0.05820000  1.0 -0.4426722192
N  N72  1  0.22430000  0.90190000  0.55820000  1.0 -0.4426722192
O  O1  1  0.74990000  0.70572000  0.28595000  1.0 -0.6831772589
O  O2  1  0.75010000  0.29428000  0.78595000  1.0 -0.6831772589
O  O3  1  0.25010000  0.20572000  0.21405000  1.0 -0.6831772589
O  O4  1  0.24990000  0.79428000  0.71405000  1.0 -0.6831772589
O  O5  1  0.76440000  0.77638000  0.20408000  1.0 -0.6910514348
O  O6  1  0.73560000  0.22362000  0.70408000  1.0 -0.6910514348
O  O7  1  0.23560000  0.27638000  0.29592000  1.0 -0.6910514348
O  O8  1  0.26440000  0.72362000  0.79592000  1.0 -0.6910514348
O  O9  1  0.73220000  0.81519000  0.30388000  1.0 -0.6504524462
O  O10  1  0.76780000  0.18481000  0.80388000  1.0 -0.6504524462
O  O11  1  0.26780000  0.31519000  0.19612000  1.0 -0.6504524462
O  O12  1  0.23220000  0.68481000  0.69612000  1.0 -0.6504524462
O  O13  1  0.60750000  0.75810000  0.24993000  1.0 -0.6622289978
O  O14  1  0.89250000  0.24190000  0.74993000  1.0 -0.6622289978
O  O15  1  0.39250000  0.25810000  0.25007000  1.0 -0.6622289978
O  O16  1  0.10750000  0.74190000  0.75007000  1.0 -0.6622289978
