# DDEC6 charges by PACMAN v1.1 (https://github.com/mtap-research/PACMAN-charge/)
data_MIHVIM_FSR_pacman
_symmetry_space_group_name_H-M   'P 1'
_cell_length_a   16.77380000
_cell_length_b   16.77380000
_cell_length_c   9.22410000
_cell_angle_alpha   90.00000000
_cell_angle_beta   90.00000000
_cell_angle_gamma   120.00000000
_symmetry_Int_Tables_number   1
_chemical_formula_structural   Ca3Dy2H36C42N6(ClO6)6
_chemical_formula_sum   'Ca3 Dy2 H36 C42 N6 Cl6 O36'
_cell_volume   2247.59240151
_cell_formula_units_Z   1
loop_
 _symmetry_equiv_pos_site_id
 _symmetry_equiv_pos_as_xyz
  1  'x, y, z'
loop_
 _atom_site_type_symbol
 _atom_site_label
 _atom_site_symmetry_multiplicity
 _atom_site_fract_x
 _atom_site_fract_y
 _atom_site_fract_z
 _atom_site_occupancy
 _atom_site_charge
Ca  Ca1  1  0.50000000  0.50000000  0.50000000  1.0 1.3949621869
Ca  Ca2  1  0.50000000  0.00000000  0.50000000  1.0 1.3949621869
Ca  Ca3  1  0.00000000  0.50000000  0.50000000  1.0 1.3949621869
Dy  Dy1  1  0.33333333  0.66666667  0.00059000  1.0 1.8517276002
Dy  Dy2  1  0.66666667  0.33333333  0.99941000  1.0 1.8517276002
H  H1  1  0.37530000  0.55940000  0.53290000  1.0 0.3439325048
H  H2  1  0.44060000  0.81590000  0.53290000  1.0 0.3439325048
H  H3  1  0.18410000  0.62470000  0.53290000  1.0 0.3439325048
H  H4  1  0.62470000  0.44060000  0.46710000  1.0 0.3439325048
H  H5  1  0.55940000  0.18410000  0.46710000  1.0 0.3439325048
H  H6  1  0.81590000  0.37530000  0.46710000  1.0 0.3439325048
H  H7  1  0.43470000  0.59960000  0.64100000  1.0 0.3511058642
H  H8  1  0.40040000  0.83510000  0.64100000  1.0 0.3511058642
H  H9  1  0.16490000  0.56530000  0.64100000  1.0 0.3511058642
H  H10  1  0.56530000  0.40040000  0.35900000  1.0 0.3511058642
H  H11  1  0.59960000  0.16490000  0.35900000  1.0 0.3511058642
H  H12  1  0.83510000  0.43470000  0.35900000  1.0 0.3511058642
H  H13  1  0.36500000  0.35040000  0.35300000  1.0 0.3105109958
H  H14  1  0.64960000  0.01460000  0.35300000  1.0 0.3105109958
H  H15  1  0.98540000  0.63500000  0.35300000  1.0 0.3105109958
H  H16  1  0.63500000  0.64960000  0.64700000  1.0 0.3105109958
H  H17  1  0.35040000  0.98540000  0.64700000  1.0 0.3105109958
H  H18  1  0.01460000  0.36500000  0.64700000  1.0 0.3105109958
H  H19  1  0.39340000  0.31400000  0.39830000  1.0 0.3105109958
H  H20  1  0.68600000  0.07940000  0.39830000  1.0 0.3105109958
H  H21  1  0.92060000  0.60660000  0.39830000  1.0 0.3105109958
H  H22  1  0.60660000  0.68600000  0.60170000  1.0 0.3105109958
H  H23  1  0.31400000  0.92060000  0.60170000  1.0 0.3105109958
H  H24  1  0.07940000  0.39340000  0.60170000  1.0 0.3105109958
H  H25  1  0.42370000  0.40720000  0.13030000  1.0 0.1503070828
H  H26  1  0.59280000  0.01650000  0.13030000  1.0 0.1503070828
H  H27  1  0.98350000  0.57630000  0.13030000  1.0 0.1503070828
H  H28  1  0.57630000  0.59280000  0.86970000  1.0 0.1503070828
H  H29  1  0.40720000  0.98350000  0.86970000  1.0 0.1503070828
H  H30  1  0.01650000  0.42370000  0.86970000  1.0 0.1503070828
H  H31  1  0.24580000  0.33110000  0.79760000  1.0 0.1632158561
H  H32  1  0.66890000  0.91470000  0.79760000  1.0 0.1632158561
H  H33  1  0.08530000  0.75420000  0.79760000  1.0 0.1632158561
H  H34  1  0.75420000  0.66890000  0.20240000  1.0 0.1632158561
H  H35  1  0.33110000  0.08530000  0.20240000  1.0 0.1632158561
H  H36  1  0.91470000  0.24580000  0.20240000  1.0 0.1632158561
C  C1  1  0.38000000  0.49740000  0.08010000  1.0 0.1503070828
C  C2  1  0.50260000  0.88260000  0.08010000  1.0 0.1503070828
C  C3  1  0.11740000  0.62000000  0.08010000  1.0 0.1503070828
C  C4  1  0.62000000  0.50260000  0.91990000  1.0 0.1503070828
C  C5  1  0.49740000  0.11740000  0.91990000  1.0 0.1503070828
C  C6  1  0.88260000  0.38000000  0.91990000  1.0 0.1503070828
C  C7  1  0.43160000  0.57110000  0.19200000  1.0 0.577253635
C  C8  1  0.42890000  0.86050000  0.19200000  1.0 0.577253635
C  C9  1  0.13950000  0.56840000  0.19200000  1.0 0.577253635
C  C10  1  0.56840000  0.42890000  0.80800000  1.0 0.577253635
C  C11  1  0.57110000  0.13950000  0.80800000  1.0 0.577253635
C  C12  1  0.86050000  0.43160000  0.80800000  1.0 0.577253635
C  C13  1  0.38670000  0.41830000  0.06810000  1.0 -0.2141875224
C  C14  1  0.58170000  0.96840000  0.06810000  1.0 -0.2141875224
C  C15  1  0.03160000  0.61330000  0.06810000  1.0 -0.2141875224
C  C16  1  0.61330000  0.58170000  0.93190000  1.0 -0.2141875224
C  C17  1  0.41830000  0.03160000  0.93190000  1.0 -0.2141875224
C  C18  1  0.96840000  0.38670000  0.93190000  1.0 -0.2141875224
C  C19  1  0.22220000  0.47980000  0.79480000  1.0 0.5479661776
C  C20  1  0.52020000  0.74240000  0.79480000  1.0 0.5479661776
C  C21  1  0.25760000  0.77780000  0.79480000  1.0 0.5479661776
C  C22  1  0.77780000  0.52020000  0.20520000  1.0 0.5479661776
C  C23  1  0.47980000  0.25760000  0.20520000  1.0 0.5479661776
C  C24  1  0.74240000  0.22220000  0.20520000  1.0 0.5479661776
C  C25  1  0.27940000  0.45397000  0.88880000  1.0 0.1503070828
C  C26  1  0.54603000  0.82543000  0.88880000  1.0 0.1503070828
C  C27  1  0.17457000  0.72060000  0.88880000  1.0 0.1503070828
C  C28  1  0.72060000  0.54603000  0.11120000  1.0 0.1503070828
C  C29  1  0.45397000  0.17457000  0.11120000  1.0 0.1503070828
C  C30  1  0.82543000  0.27940000  0.11120000  1.0 0.1503070828
C  C31  1  0.33610000  0.35710000  0.95990000  1.0 0.1755621734
C  C32  1  0.64290000  0.97900000  0.95990000  1.0 0.1755621734
C  C33  1  0.02100000  0.66390000  0.95990000  1.0 0.1755621734
C  C34  1  0.66390000  0.64290000  0.04010000  1.0 0.1755621734
C  C35  1  0.35710000  0.02100000  0.04010000  1.0 0.1755621734
C  C36  1  0.97900000  0.33610000  0.04010000  1.0 0.1755621734
C  C37  1  0.28090000  0.37300000  0.86930000  1.0 -0.1784335943
C  C38  1  0.62700000  0.90790000  0.86930000  1.0 -0.1784335943
C  C39  1  0.09210000  0.71910000  0.86930000  1.0 -0.1784335943
C  C40  1  0.71910000  0.62700000  0.13070000  1.0 -0.1784335943
C  C41  1  0.37300000  0.09210000  0.13070000  1.0 -0.1784335943
C  C42  1  0.90790000  0.28090000  0.13070000  1.0 -0.1784335943
N  N1  1  0.32762000  0.51470000  0.99140000  1.0 -0.3344901847
N  N2  1  0.48530000  0.81292000  0.99140000  1.0 -0.3344901847
N  N3  1  0.18708000  0.67238000  0.99140000  1.0 -0.3344901847
N  N4  1  0.67238000  0.48530000  0.00860000  1.0 -0.3344901847
N  N5  1  0.51470000  0.18708000  0.00860000  1.0 -0.3344901847
N  N6  1  0.81292000  0.32762000  0.00860000  1.0 -0.3344901847
Cl  Cl1  1  0.34108000  0.25756000  0.93689000  1.0 -0.0560681569
Cl  Cl2  1  0.74244000  0.08352000  0.93689000  1.0 -0.0560681569
Cl  Cl3  1  0.91648000  0.65892000  0.93689000  1.0 -0.0560681569
Cl  Cl4  1  0.65892000  0.74244000  0.06311000  1.0 -0.0560681569
Cl  Cl5  1  0.25756000  0.91648000  0.06311000  1.0 -0.0560681569
Cl  Cl6  1  0.08352000  0.34108000  0.06311000  1.0 -0.0560681569
O  O1  1  0.47733000  0.55808000  0.28380000  1.0 -0.5931741145
O  O2  1  0.44192000  0.91925000  0.28380000  1.0 -0.5931741145
O  O3  1  0.08075000  0.52267000  0.28380000  1.0 -0.5931741145
O  O4  1  0.52267000  0.44192000  0.71620000  1.0 -0.5931741145
O  O5  1  0.55808000  0.08075000  0.71620000  1.0 -0.5931741145
O  O6  1  0.91925000  0.47733000  0.71620000  1.0 -0.5931741145
O  O7  1  0.40357000  0.54796000  0.59890000  1.0 -0.7096111225
O  O8  1  0.45204000  0.85561000  0.59890000  1.0 -0.7096111225
O  O9  1  0.14439000  0.59643000  0.59890000  1.0 -0.7096111225
O  O10  1  0.59643000  0.45204000  0.40110000  1.0 -0.7096111225
O  O11  1  0.54796000  0.14439000  0.40110000  1.0 -0.7096111225
O  O12  1  0.85561000  0.40357000  0.40110000  1.0 -0.7096111225
O  O13  1  0.42351000  0.64167000  0.17980000  1.0 -0.5931741145
O  O14  1  0.35833000  0.78184000  0.17980000  1.0 -0.5931741145
O  O15  1  0.21816000  0.57649000  0.17980000  1.0 -0.5931741145
O  O16  1  0.57649000  0.35833000  0.82020000  1.0 -0.5931741145
O  O17  1  0.64167000  0.21816000  0.82020000  1.0 -0.5931741145
O  O18  1  0.78184000  0.42351000  0.82020000  1.0 -0.5931741145
O  O19  1  0.17220000  0.42399000  0.70240000  1.0 -0.5234542337
O  O20  1  0.57601000  0.74821000  0.70240000  1.0 -0.5234542337
O  O21  1  0.25179000  0.82780000  0.70240000  1.0 -0.5234542337
O  O22  1  0.82780000  0.57601000  0.29760000  1.0 -0.5234542337
O  O23  1  0.42399000  0.25179000  0.29760000  1.0 -0.5234542337
O  O24  1  0.74821000  0.17220000  0.29760000  1.0 -0.5234542337
O  O25  1  0.23172000  0.55855000  0.81900000  1.0 -0.6111064004
O  O26  1  0.44145000  0.67317000  0.81900000  1.0 -0.6111064004
O  O27  1  0.32683000  0.76828000  0.81900000  1.0 -0.6111064004
O  O28  1  0.76828000  0.44145000  0.18100000  1.0 -0.6111064004
O  O29  1  0.55855000  0.32683000  0.18100000  1.0 -0.6111064004
O  O30  1  0.67317000  0.23172000  0.18100000  1.0 -0.6111064004
O  O31  1  0.37330000  0.35770000  0.44400000  1.0 -0.7320036339
O  O32  1  0.64230000  0.01560000  0.44400000  1.0 -0.7320036339
O  O33  1  0.98440000  0.62670000  0.44400000  1.0 -0.7320036339
O  O34  1  0.62670000  0.64230000  0.55600000  1.0 -0.7320036339
O  O35  1  0.35770000  0.98440000  0.55600000  1.0 -0.7320036339
O  O36  1  0.01560000  0.37330000  0.55600000  1.0 -0.7320036339
