# DDEC6 charges by PACMAN v1.1 (https://github.com/mtap-research/PACMAN-charge/)
data_MIHVAE_ASR_pacman
_symmetry_space_group_name_H-M   'P 1'
_cell_length_a   11.23470000
_cell_length_b   13.42270000
_cell_length_c   15.47610000
_cell_angle_alpha   107.17500000
_cell_angle_beta   98.06300000
_cell_angle_gamma   94.80300000
_symmetry_Int_Tables_number   1
_chemical_formula_structural   Ca2DyH18C30N4Cl4O19
_chemical_formula_sum   'Ca4 Dy2 H36 C60 N8 Cl8 O38'
_cell_volume   2188.27833953
_cell_formula_units_Z   2
loop_
 _symmetry_equiv_pos_site_id
 _symmetry_equiv_pos_as_xyz
  1  'x, y, z'
loop_
 _atom_site_type_symbol
 _atom_site_label
 _atom_site_symmetry_multiplicity
 _atom_site_fract_x
 _atom_site_fract_y
 _atom_site_fract_z
 _atom_site_occupancy
 _atom_site_charge
Ca  Ca1  1  0.12745000  0.60081000  0.61323000  1.0 1.317894701
Ca  Ca2  1  0.87255000  0.39919000  0.38677000  1.0 1.317894701
Ca  Ca3  1  0.82909000  0.65600000  0.22832000  1.0 1.3333621063
Ca  Ca4  1  0.17091000  0.34400000  0.77168000  1.0 1.3333621063
Dy  Dy1  1  0.26835000  0.44198000  0.22927000  1.0 1.8232349792
Dy  Dy2  1  0.73165000  0.55802000  0.77073000  1.0 1.8232349792
H  H1  1  0.38610000  0.39050000  0.55900000  1.0 0.1604164698
H  H2  1  0.61390000  0.60950000  0.44100000  1.0 0.1604164698
H  H3  1  0.46510000  0.15150000  0.35650000  1.0 0.1604164698
H  H4  1  0.53490000  0.84850000  0.64350000  1.0 0.1604164698
H  H5  1  0.92830000  0.78120000  0.59830000  1.0 0.1604164698
H  H6  1  0.07170000  0.21880000  0.40170000  1.0 0.1604164698
H  H7  1  0.83660000  0.01560000  0.50110000  1.0 0.148768197
H  H8  1  0.16340000  0.98440000  0.49890000  1.0 0.148768197
H  H9  1  0.10370000  0.86770000  0.90960000  1.0 0.1680382659
H  H10  1  0.89630000  0.13230000  0.09040000  1.0 0.1680382659
H  H11  1  0.22530000  0.82490000  0.64100000  1.0 0.3106489071
H  H12  1  0.77470000  0.17510000  0.35900000  1.0 0.3106489071
H  H13  1  0.26880000  0.55020000  0.71110000  1.0 0.398353357
H  H14  1  0.73120000  0.44980000  0.28890000  1.0 0.398353357
H  H15  1  0.38100000  0.62680000  0.73090000  1.0 0.4217924514
H  H16  1  0.61900000  0.37320000  0.26910000  1.0 0.4217924514
H  H17  1  0.93640000  0.80950000  0.10720000  1.0 0.1680382659
H  H18  1  0.06360000  0.19050000  0.89280000  1.0 0.1680382659
H  H19  1  0.56140000  0.77530000  0.22470000  1.0 0.1604164698
H  H20  1  0.43860000  0.22470000  0.77530000  1.0 0.1604164698
H  H21  1  0.21190000  0.82740000  0.21000000  1.0 0.148768197
H  H22  1  0.78810000  0.17260000  0.79000000  1.0 0.148768197
H  H23  1  0.26630000  0.74300000  0.39050000  1.0 0.1122207587
H  H24  1  0.73370000  0.25700000  0.60950000  1.0 0.1122207587
H  H25  1  0.14890000  0.79690000  0.40470000  1.0 0.1161591747
H  H26  1  0.85110000  0.20310000  0.59530000  1.0 0.1161591747
H  H27  1  0.15010000  0.67990000  0.40390000  1.0 0.1394089548
H  H28  1  0.84990000  0.32010000  0.59610000  1.0 0.1394089548
H  H29  1  0.32190000  0.76890000  0.52140000  1.0 0.0968236366
H  H30  1  0.67810000  0.23110000  0.47860000  1.0 0.0968236366
H  H31  1  0.24310000  0.85840000  0.53120000  1.0 0.0916805082
H  H32  1  0.75690000  0.14160000  0.46880000  1.0 0.0916805082
H  H33  1  0.12930000  0.80910000  0.60180000  1.0 0.2651120165
H  H34  1  0.87070000  0.19090000  0.39820000  1.0 0.2643586436
H  H35  1  0.19030000  0.75920000  0.53400000  1.0 0.1768080109
H  H36  1  0.80970000  0.24080000  0.46600000  1.0 0.1768080109
C  C1  1  0.35260000  0.40540000  0.43160000  1.0 0.1394089548
C  C2  1  0.64740000  0.59460000  0.56840000  1.0 0.1394089548
C  C3  1  0.38840000  0.35840000  0.49720000  1.0 -0.1994178592
C  C4  1  0.61160000  0.64160000  0.50280000  1.0 -0.1994178592
C  C5  1  0.42790000  0.26120000  0.46690000  1.0 0.1768080109
C  C6  1  0.57210000  0.73880000  0.53310000  1.0 0.1768080109
C  C7  1  0.43550000  0.21550000  0.37620000  1.0 -0.1994178592
C  C8  1  0.56450000  0.78450000  0.62380000  1.0 -0.1994178592
C  C9  1  0.39710000  0.26870000  0.31540000  1.0 0.148768197
C  C10  1  0.60290000  0.73130000  0.68460000  1.0 0.148768197
C  C11  1  0.30040000  0.50860000  0.45110000  1.0 0.5799034127
C  C12  1  0.69960000  0.49140000  0.54890000  1.0 0.5799034127
C  C13  1  0.39050000  0.22550000  0.21190000  1.0 0.5520342776
C  C14  1  0.60950000  0.77450000  0.78810000  1.0 0.5520342776
C  C15  1  0.89940000  0.74500000  0.45970000  1.0 0.1274345574
C  C16  1  0.10060000  0.25500000  0.54030000  1.0 0.1274345574
C  C17  1  0.90680000  0.80700000  0.54950000  1.0 -0.2103033921
C  C18  1  0.09320000  0.19300000  0.45050000  1.0 -0.2103033921
C  C19  1  0.88110000  0.90810000  0.56380000  1.0 0.1604164698
C  C20  1  0.11890000  0.09190000  0.43620000  1.0 0.1604164698
C  C21  1  0.85200000  0.94640000  0.49130000  1.0 -0.2103033921
C  C22  1  0.14800000  0.05360000  0.50870000  1.0 -0.2103033921
C  C23  1  0.84620000  0.87870000  0.40330000  1.0 0.1394089548
C  C24  1  0.15380000  0.12130000  0.59670000  1.0 0.1394089548
C  C25  1  0.92180000  0.63140000  0.43520000  1.0 0.5552105346
C  C26  1  0.07820000  0.36860000  0.56480000  1.0 0.5552105346
C  C27  1  0.80890000  0.90950000  0.31740000  1.0 0.5251478591
C  C28  1  0.19110000  0.09050000  0.68260000  1.0 0.5251478591
C  C29  1  0.97360000  0.74070000  0.86590000  1.0 0.148768197
C  C30  1  0.02640000  0.25930000  0.13410000  1.0 0.1394089548
C  C31  1  0.04610000  0.82800000  0.92800000  1.0 -0.186168108
C  C32  1  0.95390000  0.17200000  0.07200000  1.0 -0.186168108
C  C33  1  0.02930000  0.85400000  0.01890000  1.0 0.1680382659
C  C34  1  0.97070000  0.14600000  0.98110000  1.0 0.1680382659
C  C35  1  0.94590000  0.79370000  0.04610000  1.0 -0.1662436611
C  C36  1  0.05410000  0.20630000  0.95390000  1.0 -0.1662436611
C  C37  1  0.87670000  0.70810000  0.97840000  1.0 0.148768197
C  C38  1  0.12330000  0.29190000  0.02160000  1.0 0.148768197
C  C39  1  0.98210000  0.70050000  0.76490000  1.0 0.5520342776
C  C40  1  0.01790000  0.29950000  0.23510000  1.0 0.5520342776
C  C41  1  0.77910000  0.63650000  0.99660000  1.0 0.6014179328
C  C42  1  0.22090000  0.36350000  0.00340000  1.0 0.6014179328
C  C43  1  0.44290000  0.65610000  0.22970000  1.0 0.1274345574
C  C44  1  0.55710000  0.34390000  0.77030000  1.0 0.1274345574
C  C45  1  0.48030000  0.75350000  0.22360000  1.0 -0.186168108
C  C46  1  0.51970000  0.24650000  0.77640000  1.0 -0.186168108
C  C47  1  0.39170000  0.81810000  0.21570000  1.0 0.1680382659
C  C48  1  0.60830000  0.18190000  0.78430000  1.0 0.1680382659
C  C49  1  0.27170000  0.78430000  0.21430000  1.0 -0.1838374994
C  C50  1  0.72830000  0.21570000  0.78570000  1.0 -0.1838374994
C  C51  1  0.24370000  0.68500000  0.21930000  1.0 0.1394089548
C  C52  1  0.75630000  0.31500000  0.78070000  1.0 0.1394089548
C  C53  1  0.52960000  0.57900000  0.24210000  1.0 0.59169871
C  C54  1  0.47040000  0.42100000  0.75790000  1.0 0.59169871
C  C55  1  0.11520000  0.63640000  0.21450000  1.0 0.5799034127
C  C56  1  0.88480000  0.36360000  0.78550000  1.0 0.5799034127
C  C57  1  0.19760000  0.74780000  0.42140000  1.0 -0.4716720543
C  C58  1  0.80240000  0.25220000  0.57860000  1.0 -0.4716720543
C  C59  1  0.23830000  0.78270000  0.51740000  1.0 0.1122207587
C  C60  1  0.76170000  0.21730000  0.48260000  1.0 0.1122207587
N  N1  1  0.35750000  0.36140000  0.34290000  1.0 -0.352335628
N  N2  1  0.64250000  0.63860000  0.65710000  1.0 -0.352335628
N  N3  1  0.86860000  0.77920000  0.38810000  1.0 -0.329680804
N  N4  1  0.13140000  0.22080000  0.61190000  1.0 -0.329680804
N  N5  1  0.88990000  0.68400000  0.89070000  1.0 -0.329680804
N  N6  1  0.11010000  0.31600000  0.10930000  1.0 -0.329680804
N  N7  1  0.32740000  0.62190000  0.22750000  1.0 -0.3387880585
N  N8  1  0.67260000  0.37810000  0.77250000  1.0 -0.3387880585
Cl  Cl1  1  0.46690000  0.19499000  0.54523000  1.0 -0.0559343005
Cl  Cl2  1  0.53310000  0.80501000  0.45477000  1.0 -0.0559343005
Cl  Cl3  1  0.88600000  0.98873000  0.67479000  1.0 -0.0511533505
Cl  Cl4  1  0.11400000  0.01127000  0.32521000  1.0 -0.0511533505
Cl  Cl5  1  0.11422000  0.96461000  0.09830000  1.0 -0.0715806967
Cl  Cl6  1  0.88578000  0.03539000  0.90170000  1.0 -0.0715806967
Cl  Cl7  1  0.43099000  0.94204000  0.20885000  1.0 -0.0386184714
Cl  Cl8  1  0.56901000  0.05796000  0.79115000  1.0 -0.0386184714
O  O1  1  0.28290000  0.54570000  0.38584000  1.0 -0.56744937
O  O2  1  0.71710000  0.45430000  0.61416000  1.0 -0.56744937
O  O3  1  0.27890000  0.54810000  0.53020000  1.0 -0.56744937
O  O4  1  0.72110000  0.45190000  0.46980000  1.0 -0.5632574122
O  O5  1  0.34510000  0.28020000  0.16634000  1.0 -0.5903371534
O  O6  1  0.65490000  0.71980000  0.83366000  1.0 -0.5903371534
O  O7  1  0.42790000  0.14050000  0.17990000  1.0 -0.4967511854
O  O8  1  0.57210000  0.85950000  0.82010000  1.0 -0.4967511854
O  O9  1  0.89220000  0.57510000  0.35249000  1.0 -0.5994583479
O  O10  1  0.10780000  0.42490000  0.64751000  1.0 -0.5994583479
O  O11  1  0.96410000  0.59710000  0.49810000  1.0 -0.5632574122
O  O12  1  0.03590000  0.40290000  0.50190000  1.0 -0.5632574122
O  O13  1  0.79510000  0.83790000  0.24320000  1.0 -0.5496790967
O  O14  1  0.20490000  0.16210000  0.75680000  1.0 -0.5496790967
O  O15  1  0.79500000  0.00340000  0.32820000  1.0 -0.5355115494
O  O16  1  0.20500000  0.99660000  0.67180000  1.0 -0.5355115494
O  O17  1  0.07340000  0.73190000  0.73910000  1.0 -0.5315235219
O  O18  1  0.92660000  0.26810000  0.26090000  1.0 -0.5315235219
O  O19  1  0.89630000  0.63420000  0.71516000  1.0 -0.580757177
O  O20  1  0.10370000  0.36580000  0.28484000  1.0 -0.580757177
O  O21  1  0.76530000  0.64970000  0.07728000  1.0 -0.56744937
O  O22  1  0.23470000  0.35030000  0.92272000  1.0 -0.56744937
O  O23  1  0.71820000  0.56680000  0.92732000  1.0 -0.580757177
O  O24  1  0.28180000  0.43320000  0.07268000  1.0 -0.580757177
O  O25  1  0.63890000  0.60580000  0.24560000  1.0 -0.5994583479
O  O26  1  0.36110000  0.39420000  0.75440000  1.0 -0.5994583479
O  O27  1  0.48410000  0.49420000  0.24990000  1.0 -0.5903371534
O  O28  1  0.51590000  0.50580000  0.75010000  1.0 -0.5903371534
O  O29  1  0.03290000  0.69270000  0.21540000  1.0 -0.56744937
O  O30  1  0.96710000  0.30730000  0.78460000  1.0 -0.56744937
O  O31  1  0.10300000  0.54040000  0.20870000  1.0 -0.580757177
O  O32  1  0.89700000  0.45960000  0.79130000  1.0 -0.580757177
O  O33  1  0.20900000  0.76890000  0.59930000  1.0 -0.4628832302
O  O34  1  0.79100000  0.23110000  0.40070000  1.0 -0.4628832302
O  O35  1  0.29570000  0.62270000  0.73800000  1.0 -0.7338486872
O  O36  1  0.70430000  0.37730000  0.26200000  1.0 -0.7338486872
O  O37  1  0.18700000  0.76900000  0.59210000  1.0 -0.4716720543
O  O38  1  0.81300000  0.23100000  0.40790000  1.0 -0.4716720543
