# DDEC6 charges by PACMAN v1.1 (https://github.com/mtap-research/PACMAN-charge/)
data_MIJRIJ_ASR_pacman
_symmetry_space_group_name_H-M   'P 1'
_cell_length_a   38.51920000
_cell_length_b   38.51920000
_cell_length_c   38.51920000
_cell_angle_alpha   109.47100000
_cell_angle_beta   109.47100000
_cell_angle_gamma   109.47100000
_symmetry_Int_Tables_number   1
_chemical_formula_structural   Fe3H30C50O13
_chemical_formula_sum   'Fe36 H360 C600 O156'
_cell_volume   43996.02428349
_cell_formula_units_Z   12
loop_
 _symmetry_equiv_pos_site_id
 _symmetry_equiv_pos_as_xyz
  1  'x, y, z'
loop_
 _atom_site_type_symbol
 _atom_site_label
 _atom_site_symmetry_multiplicity
 _atom_site_fract_x
 _atom_site_fract_y
 _atom_site_fract_z
 _atom_site_occupancy
 _atom_site_charge
Fe  Fe1  1  0.28900000  0.05238000  0.76338000  1.0 1.1109565942
Fe  Fe2  1  0.71100000  0.94762000  0.23662000  1.0 1.1109565942
Fe  Fe3  1  0.71100000  0.47438000  0.76338000  1.0 1.1109565942
Fe  Fe4  1  0.28900000  0.52562000  0.23662000  1.0 1.1109565942
Fe  Fe5  1  0.23662000  0.71100000  0.94762000  1.0 1.1109565942
Fe  Fe6  1  0.76338000  0.28900000  0.05238000  1.0 1.1109565942
Fe  Fe7  1  0.23662000  0.28900000  0.52562000  1.0 1.1109565942
Fe  Fe8  1  0.76338000  0.71100000  0.47438000  1.0 1.1109565942
Fe  Fe9  1  0.52562000  0.23662000  0.28900000  1.0 1.1109565942
Fe  Fe10  1  0.47438000  0.76338000  0.71100000  1.0 1.1109565942
Fe  Fe11  1  0.94762000  0.23662000  0.71100000  1.0 1.1109565942
Fe  Fe12  1  0.05238000  0.76338000  0.28900000  1.0 1.1109565942
Fe  Fe13  1  0.23662000  0.94762000  0.71100000  1.0 1.1109565942
Fe  Fe14  1  0.76338000  0.05238000  0.28900000  1.0 1.1109565942
Fe  Fe15  1  0.23662000  0.52562000  0.28900000  1.0 1.1109565942
Fe  Fe16  1  0.76338000  0.47438000  0.71100000  1.0 1.1109565942
Fe  Fe17  1  0.05238000  0.28900000  0.76338000  1.0 1.1109565942
Fe  Fe18  1  0.94762000  0.71100000  0.23662000  1.0 1.1109565942
Fe  Fe19  1  0.47438000  0.71100000  0.76338000  1.0 1.1109565942
Fe  Fe20  1  0.52562000  0.28900000  0.23662000  1.0 1.1109565942
Fe  Fe21  1  0.71100000  0.76338000  0.47438000  1.0 1.1109565942
Fe  Fe22  1  0.28900000  0.23662000  0.52562000  1.0 1.1109565942
Fe  Fe23  1  0.28900000  0.76338000  0.05238000  1.0 1.1109565942
Fe  Fe24  1  0.71100000  0.23662000  0.94762000  1.0 1.1109565942
Fe  Fe25  1  0.30838000  0.00000000  0.69162000  1.0 1.2327331005
Fe  Fe26  1  0.69162000  0.00000000  0.30838000  1.0 1.2327331005
Fe  Fe27  1  0.69162000  0.38324000  0.69162000  1.0 1.2327331005
Fe  Fe28  1  0.30838000  0.61676000  0.30838000  1.0 1.2327331005
Fe  Fe29  1  0.30838000  0.69162000  0.00000000  1.0 1.2327331005
Fe  Fe30  1  0.69162000  0.30838000  0.00000000  1.0 1.2327331005
Fe  Fe31  1  0.30838000  0.30838000  0.61676000  1.0 1.2327331005
Fe  Fe32  1  0.69162000  0.69162000  0.38324000  1.0 1.2327331005
Fe  Fe33  1  0.61676000  0.30838000  0.30838000  1.0 1.2327331005
Fe  Fe34  1  0.38324000  0.69162000  0.69162000  1.0 1.2327331005
Fe  Fe35  1  0.00000000  0.30838000  0.69162000  1.0 1.2327331005
Fe  Fe36  1  0.00000000  0.69162000  0.30838000  1.0 1.2327331005
H  H1  1  0.41107000  0.14571000  0.85214000  1.0 0.1320915405
H  H2  1  0.44054000  0.07280000  0.77846000  1.0 0.1320915405
H  H3  1  0.51457000  0.09331000  0.80340000  1.0 0.1193336119
H  H4  1  0.25658000  0.94259000  0.88405000  1.0 0.098469532
H  H5  1  0.24017000  0.94199000  0.81958000  1.0 0.098469532
H  H6  1  0.35998000  0.06020000  0.94658000  1.0 0.098469532
H  H7  1  0.28465000  0.94171000  0.82310000  1.0 0.098469532
H  H8  1  0.70643000  0.85429000  0.26536000  1.0 0.1320915405
H  H9  1  0.70566000  0.92720000  0.36774000  1.0 0.1320915405
H  H10  1  0.71009000  0.90669000  0.42126000  1.0 0.1193336119
H  H11  1  0.94146000  0.05741000  0.31399000  1.0 0.098469532
H  H12  1  0.87759000  0.05801000  0.29818000  1.0 0.098469532
H  H13  1  0.88638000  0.93980000  0.29978000  1.0 0.098469532
H  H14  1  0.88139000  0.05829000  0.34294000  1.0 0.098469532
H  H15  1  0.58893000  0.44107000  0.73464000  1.0 0.1320915405
H  H16  1  0.55946000  0.33792000  0.63226000  1.0 0.1320915405
H  H17  1  0.48543000  0.28883000  0.57874000  1.0 0.1193336119
H  H18  1  0.74342000  0.62747000  0.68601000  1.0 0.098469532
H  H19  1  0.75983000  0.57941000  0.70182000  1.0 0.098469532
H  H20  1  0.64002000  0.58660000  0.70022000  1.0 0.098469532
H  H21  1  0.71535000  0.53845000  0.65706000  1.0 0.098469532
H  H22  1  0.29357000  0.55893000  0.14786000  1.0 0.1320915405
H  H23  1  0.29434000  0.66208000  0.22154000  1.0 0.1320915405
H  H24  1  0.28991000  0.71117000  0.19660000  1.0 0.1193336119
H  H25  1  0.05854000  0.37253000  0.11595000  1.0 0.098469532
H  H26  1  0.12241000  0.42059000  0.18042000  1.0 0.098469532
H  H27  1  0.11362000  0.41340000  0.05342000  1.0 0.098469532
H  H28  1  0.11861000  0.46155000  0.17690000  1.0 0.098469532
H  H29  1  0.26536000  0.70643000  0.85429000  1.0 0.1320915405
H  H30  1  0.36774000  0.70566000  0.92720000  1.0 0.1320915405
H  H31  1  0.42126000  0.71009000  0.90669000  1.0 0.1193336119
H  H32  1  0.31399000  0.94146000  0.05741000  1.0 0.098469532
H  H33  1  0.29818000  0.87759000  0.05801000  1.0 0.098469532
H  H34  1  0.29978000  0.88638000  0.93980000  1.0 0.098469532
H  H35  1  0.34294000  0.88139000  0.05829000  1.0 0.098469532
H  H36  1  0.85214000  0.41107000  0.14571000  1.0 0.1320915405
H  H37  1  0.77846000  0.44054000  0.07280000  1.0 0.1320915405
H  H38  1  0.80340000  0.51457000  0.09331000  1.0 0.1193336119
H  H39  1  0.88405000  0.25658000  0.94259000  1.0 0.098469532
H  H40  1  0.81958000  0.24017000  0.94199000  1.0 0.098469532
H  H41  1  0.94658000  0.35998000  0.06020000  1.0 0.098469532
H  H42  1  0.82310000  0.28465000  0.94171000  1.0 0.098469532
H  H43  1  0.14786000  0.29357000  0.55893000  1.0 0.1320915405
H  H44  1  0.22154000  0.29434000  0.66208000  1.0 0.1320915405
H  H45  1  0.19660000  0.28991000  0.71117000  1.0 0.1193336119
H  H46  1  0.11595000  0.05854000  0.37253000  1.0 0.098469532
H  H47  1  0.18042000  0.12241000  0.42059000  1.0 0.098469532
H  H48  1  0.05342000  0.11362000  0.41340000  1.0 0.098469532
H  H49  1  0.17690000  0.11861000  0.46155000  1.0 0.098469532
H  H50  1  0.73464000  0.58893000  0.44107000  1.0 0.1320915405
H  H51  1  0.63226000  0.55946000  0.33792000  1.0 0.1320915405
H  H52  1  0.57874000  0.48543000  0.28883000  1.0 0.1193336119
H  H53  1  0.68601000  0.74342000  0.62747000  1.0 0.098469532
H  H54  1  0.70182000  0.75983000  0.57941000  1.0 0.098469532
H  H55  1  0.70022000  0.64002000  0.58660000  1.0 0.098469532
H  H56  1  0.65706000  0.71535000  0.53845000  1.0 0.098469532
H  H57  1  0.55893000  0.14786000  0.29357000  1.0 0.1320915405
H  H58  1  0.66208000  0.22154000  0.29434000  1.0 0.1320915405
H  H59  1  0.71117000  0.19660000  0.28991000  1.0 0.1193336119
H  H60  1  0.37253000  0.11595000  0.05854000  1.0 0.098469532
H  H61  1  0.42059000  0.18042000  0.12241000  1.0 0.098469532
H  H62  1  0.41340000  0.05342000  0.11362000  1.0 0.098469532
H  H63  1  0.46155000  0.17690000  0.11861000  1.0 0.098469532
H  H64  1  0.44107000  0.73464000  0.58893000  1.0 0.1320915405
H  H65  1  0.33792000  0.63226000  0.55946000  1.0 0.1320915405
H  H66  1  0.28883000  0.57874000  0.48543000  1.0 0.1193336119
H  H67  1  0.62747000  0.68601000  0.74342000  1.0 0.098469532
H  H68  1  0.57941000  0.70182000  0.75983000  1.0 0.098469532
H  H69  1  0.58660000  0.70022000  0.64002000  1.0 0.098469532
H  H70  1  0.53845000  0.65706000  0.71535000  1.0 0.098469532
H  H71  1  0.85429000  0.26536000  0.70643000  1.0 0.1320915405
H  H72  1  0.92720000  0.36774000  0.70566000  1.0 0.1320915405
H  H73  1  0.90669000  0.42126000  0.71009000  1.0 0.1193336119
H  H74  1  0.05741000  0.31399000  0.94146000  1.0 0.098469532
H  H75  1  0.05801000  0.29818000  0.87759000  1.0 0.098469532
H  H76  1  0.93980000  0.29978000  0.88638000  1.0 0.098469532
H  H77  1  0.05829000  0.34294000  0.88139000  1.0 0.098469532
H  H78  1  0.14571000  0.85214000  0.41107000  1.0 0.1320915405
H  H79  1  0.07280000  0.77846000  0.44054000  1.0 0.1320915405
H  H80  1  0.09331000  0.80340000  0.51457000  1.0 0.1193336119
H  H81  1  0.94259000  0.88405000  0.25658000  1.0 0.098469532
H  H82  1  0.94199000  0.81958000  0.24017000  1.0 0.098469532
H  H83  1  0.06020000  0.94658000  0.35998000  1.0 0.098469532
H  H84  1  0.94171000  0.82310000  0.28465000  1.0 0.098469532
H  H85  1  0.14786000  0.85429000  0.58893000  1.0 0.1320915405
H  H86  1  0.22154000  0.92720000  0.55946000  1.0 0.1320915405
H  H87  1  0.19660000  0.90669000  0.48543000  1.0 0.1193336119
H  H88  1  0.11595000  0.05741000  0.74342000  1.0 0.098469532
H  H89  1  0.18042000  0.05801000  0.75983000  1.0 0.098469532
H  H90  1  0.05342000  0.93980000  0.64002000  1.0 0.098469532
H  H91  1  0.17690000  0.05829000  0.71535000  1.0 0.098469532
H  H92  1  0.73464000  0.14571000  0.29357000  1.0 0.1320915405
H  H93  1  0.63226000  0.07280000  0.29434000  1.0 0.1320915405
H  H94  1  0.57874000  0.09331000  0.28991000  1.0 0.1193336119
H  H95  1  0.68601000  0.94259000  0.05854000  1.0 0.098469532
H  H96  1  0.70182000  0.94199000  0.12241000  1.0 0.098469532
H  H97  1  0.70022000  0.06020000  0.11362000  1.0 0.098469532
H  H98  1  0.65706000  0.94171000  0.11861000  1.0 0.098469532
H  H99  1  0.26536000  0.55893000  0.41107000  1.0 0.1320915405
H  H100  1  0.36774000  0.66208000  0.44054000  1.0 0.1320915405
H  H101  1  0.42126000  0.71117000  0.51457000  1.0 0.1193336119
H  H102  1  0.31399000  0.37253000  0.25658000  1.0 0.098469532
H  H103  1  0.29818000  0.42059000  0.24017000  1.0 0.098469532
H  H104  1  0.29978000  0.41340000  0.35998000  1.0 0.098469532
H  H105  1  0.34294000  0.46155000  0.28465000  1.0 0.098469532
H  H106  1  0.85214000  0.44107000  0.70643000  1.0 0.1320915405
H  H107  1  0.77846000  0.33792000  0.70566000  1.0 0.1320915405
H  H108  1  0.80340000  0.28883000  0.71009000  1.0 0.1193336119
H  H109  1  0.88405000  0.62747000  0.94146000  1.0 0.098469532
H  H110  1  0.81958000  0.57941000  0.87759000  1.0 0.098469532
H  H111  1  0.94658000  0.58660000  0.88638000  1.0 0.098469532
H  H112  1  0.82310000  0.53845000  0.88139000  1.0 0.098469532
H  H113  1  0.14571000  0.29357000  0.73464000  1.0 0.1320915405
H  H114  1  0.07280000  0.29434000  0.63226000  1.0 0.1320915405
H  H115  1  0.09331000  0.28991000  0.57874000  1.0 0.1193336119
H  H116  1  0.94259000  0.05854000  0.68601000  1.0 0.098469532
H  H117  1  0.94199000  0.12241000  0.70182000  1.0 0.098469532
H  H118  1  0.06020000  0.11362000  0.70022000  1.0 0.098469532
H  H119  1  0.94171000  0.11861000  0.65706000  1.0 0.098469532
H  H120  1  0.85429000  0.58893000  0.14786000  1.0 0.1320915405
H  H121  1  0.92720000  0.55946000  0.22154000  1.0 0.1320915405
H  H122  1  0.90669000  0.48543000  0.19660000  1.0 0.1193336119
H  H123  1  0.05741000  0.74342000  0.11595000  1.0 0.098469532
H  H124  1  0.05801000  0.75983000  0.18042000  1.0 0.098469532
H  H125  1  0.93980000  0.64002000  0.05342000  1.0 0.098469532
H  H126  1  0.05829000  0.71535000  0.17690000  1.0 0.098469532
H  H127  1  0.44107000  0.70643000  0.85214000  1.0 0.1320915405
H  H128  1  0.33792000  0.70566000  0.77846000  1.0 0.1320915405
H  H129  1  0.28883000  0.71009000  0.80340000  1.0 0.1193336119
H  H130  1  0.62747000  0.94146000  0.88405000  1.0 0.098469532
H  H131  1  0.57941000  0.87759000  0.81958000  1.0 0.098469532
H  H132  1  0.58660000  0.88638000  0.94658000  1.0 0.098469532
H  H133  1  0.53845000  0.88139000  0.82310000  1.0 0.098469532
H  H134  1  0.55893000  0.41107000  0.26536000  1.0 0.1320915405
H  H135  1  0.66208000  0.44054000  0.36774000  1.0 0.1320915405
H  H136  1  0.71117000  0.51457000  0.42126000  1.0 0.1193336119
H  H137  1  0.37253000  0.25658000  0.31399000  1.0 0.098469532
H  H138  1  0.42059000  0.24017000  0.29818000  1.0 0.098469532
H  H139  1  0.41340000  0.35998000  0.29978000  1.0 0.098469532
H  H140  1  0.46155000  0.28465000  0.34294000  1.0 0.098469532
H  H141  1  0.70643000  0.85214000  0.44107000  1.0 0.1320915405
H  H142  1  0.70566000  0.77846000  0.33792000  1.0 0.1320915405
H  H143  1  0.71009000  0.80340000  0.28883000  1.0 0.1193336119
H  H144  1  0.94146000  0.88405000  0.62747000  1.0 0.098469532
H  H145  1  0.87759000  0.81958000  0.57941000  1.0 0.098469532
H  H146  1  0.88638000  0.94658000  0.58660000  1.0 0.098469532
H  H147  1  0.88139000  0.82310000  0.53845000  1.0 0.098469532
H  H148  1  0.41107000  0.26536000  0.55893000  1.0 0.1320915405
H  H149  1  0.44054000  0.36774000  0.66208000  1.0 0.1320915405
H  H150  1  0.51457000  0.42126000  0.71117000  1.0 0.1193336119
H  H151  1  0.25658000  0.31399000  0.37253000  1.0 0.098469532
H  H152  1  0.24017000  0.29818000  0.42059000  1.0 0.098469532
H  H153  1  0.35998000  0.29978000  0.41340000  1.0 0.098469532
H  H154  1  0.28465000  0.34294000  0.46155000  1.0 0.098469532
H  H155  1  0.29357000  0.73464000  0.14571000  1.0 0.1320915405
H  H156  1  0.29434000  0.63226000  0.07280000  1.0 0.1320915405
H  H157  1  0.28991000  0.57874000  0.09331000  1.0 0.1193336119
H  H158  1  0.05854000  0.68601000  0.94259000  1.0 0.098469532
H  H159  1  0.12241000  0.70182000  0.94199000  1.0 0.098469532
H  H160  1  0.11362000  0.70022000  0.06020000  1.0 0.098469532
H  H161  1  0.11861000  0.65706000  0.94171000  1.0 0.098469532
H  H162  1  0.58893000  0.14786000  0.85429000  1.0 0.1320915405
H  H163  1  0.55946000  0.22154000  0.92720000  1.0 0.1320915405
H  H164  1  0.48543000  0.19660000  0.90669000  1.0 0.1193336119
H  H165  1  0.74342000  0.11595000  0.05741000  1.0 0.098469532
H  H166  1  0.75983000  0.18042000  0.05801000  1.0 0.098469532
H  H167  1  0.64002000  0.05342000  0.93980000  1.0 0.098469532
H  H168  1  0.71535000  0.17690000  0.05829000  1.0 0.098469532
H  H169  1  0.58893000  0.85429000  0.14786000  1.0 0.1320915405
H  H170  1  0.55946000  0.92720000  0.22154000  1.0 0.1320915405
H  H171  1  0.48543000  0.90669000  0.19660000  1.0 0.1193336119
H  H172  1  0.74342000  0.05741000  0.11595000  1.0 0.098469532
H  H173  1  0.75983000  0.05801000  0.18042000  1.0 0.098469532
H  H174  1  0.64002000  0.93980000  0.05342000  1.0 0.098469532
H  H175  1  0.71535000  0.05829000  0.17690000  1.0 0.098469532
H  H176  1  0.29357000  0.14571000  0.73464000  1.0 0.1320915405
H  H177  1  0.29434000  0.07280000  0.63226000  1.0 0.1320915405
H  H178  1  0.28991000  0.09331000  0.57874000  1.0 0.1193336119
H  H179  1  0.05854000  0.94259000  0.68601000  1.0 0.098469532
H  H180  1  0.12241000  0.94199000  0.70182000  1.0 0.098469532
H  H181  1  0.11362000  0.06020000  0.70022000  1.0 0.098469532
H  H182  1  0.11861000  0.94171000  0.65706000  1.0 0.098469532
H  H183  1  0.41107000  0.55893000  0.26536000  1.0 0.1320915405
H  H184  1  0.44054000  0.66208000  0.36774000  1.0 0.1320915405
H  H185  1  0.51457000  0.71117000  0.42126000  1.0 0.1193336119
H  H186  1  0.25658000  0.37253000  0.31399000  1.0 0.098469532
H  H187  1  0.24017000  0.42059000  0.29818000  1.0 0.098469532
H  H188  1  0.35998000  0.41340000  0.29978000  1.0 0.098469532
H  H189  1  0.28465000  0.46155000  0.34294000  1.0 0.098469532
H  H190  1  0.70643000  0.44107000  0.85214000  1.0 0.1320915405
H  H191  1  0.70566000  0.33792000  0.77846000  1.0 0.1320915405
H  H192  1  0.71009000  0.28883000  0.80340000  1.0 0.1193336119
H  H193  1  0.94146000  0.62747000  0.88405000  1.0 0.098469532
H  H194  1  0.87759000  0.57941000  0.81958000  1.0 0.098469532
H  H195  1  0.88638000  0.58660000  0.94658000  1.0 0.098469532
H  H196  1  0.88139000  0.53845000  0.82310000  1.0 0.098469532
H  H197  1  0.73464000  0.29357000  0.14571000  1.0 0.1320915405
H  H198  1  0.63226000  0.29434000  0.07280000  1.0 0.1320915405
H  H199  1  0.57874000  0.28991000  0.09331000  1.0 0.1193336119
H  H200  1  0.68601000  0.05854000  0.94259000  1.0 0.098469532
H  H201  1  0.70182000  0.12241000  0.94199000  1.0 0.098469532
H  H202  1  0.70022000  0.11362000  0.06020000  1.0 0.098469532
H  H203  1  0.65706000  0.11861000  0.94171000  1.0 0.098469532
H  H204  1  0.14786000  0.58893000  0.85429000  1.0 0.1320915405
H  H205  1  0.22154000  0.55946000  0.92720000  1.0 0.1320915405
H  H206  1  0.19660000  0.48543000  0.90669000  1.0 0.1193336119
H  H207  1  0.11595000  0.74342000  0.05741000  1.0 0.098469532
H  H208  1  0.18042000  0.75983000  0.05801000  1.0 0.098469532
H  H209  1  0.05342000  0.64002000  0.93980000  1.0 0.098469532
H  H210  1  0.17690000  0.71535000  0.05829000  1.0 0.098469532
H  H211  1  0.85214000  0.70643000  0.44107000  1.0 0.1320915405
H  H212  1  0.77846000  0.70566000  0.33792000  1.0 0.1320915405
H  H213  1  0.80340000  0.71009000  0.28883000  1.0 0.1193336119
H  H214  1  0.88405000  0.94146000  0.62747000  1.0 0.098469532
H  H215  1  0.81958000  0.87759000  0.57941000  1.0 0.098469532
H  H216  1  0.94658000  0.88638000  0.58660000  1.0 0.098469532
H  H217  1  0.82310000  0.88139000  0.53845000  1.0 0.098469532
H  H218  1  0.26536000  0.41107000  0.55893000  1.0 0.1320915405
H  H219  1  0.36774000  0.44054000  0.66208000  1.0 0.1320915405
H  H220  1  0.42126000  0.51457000  0.71117000  1.0 0.1193336119
H  H221  1  0.31399000  0.25658000  0.37253000  1.0 0.098469532
H  H222  1  0.29818000  0.24017000  0.42059000  1.0 0.098469532
H  H223  1  0.29978000  0.35998000  0.41340000  1.0 0.098469532
H  H224  1  0.34294000  0.28465000  0.46155000  1.0 0.098469532
H  H225  1  0.44107000  0.85214000  0.70643000  1.0 0.1320915405
H  H226  1  0.33792000  0.77846000  0.70566000  1.0 0.1320915405
H  H227  1  0.28883000  0.80340000  0.71009000  1.0 0.1193336119
H  H228  1  0.62747000  0.88405000  0.94146000  1.0 0.098469532
H  H229  1  0.57941000  0.81958000  0.87759000  1.0 0.098469532
H  H230  1  0.58660000  0.94658000  0.88638000  1.0 0.098469532
H  H231  1  0.53845000  0.82310000  0.88139000  1.0 0.098469532
H  H232  1  0.55893000  0.26536000  0.41107000  1.0 0.1320915405
H  H233  1  0.66208000  0.36774000  0.44054000  1.0 0.1320915405
H  H234  1  0.71117000  0.42126000  0.51457000  1.0 0.1193336119
H  H235  1  0.37253000  0.31399000  0.25658000  1.0 0.098469532
H  H236  1  0.42059000  0.29818000  0.24017000  1.0 0.098469532
H  H237  1  0.41340000  0.29978000  0.35998000  1.0 0.098469532
H  H238  1  0.46155000  0.34294000  0.28465000  1.0 0.098469532
H  H239  1  0.14571000  0.73464000  0.29357000  1.0 0.1320915405
H  H240  1  0.07280000  0.63226000  0.29434000  1.0 0.1320915405
H  H241  1  0.09331000  0.57874000  0.28991000  1.0 0.1193336119
H  H242  1  0.94259000  0.68601000  0.05854000  1.0 0.098469532
H  H243  1  0.94199000  0.70182000  0.12241000  1.0 0.098469532
H  H244  1  0.06020000  0.70022000  0.11362000  1.0 0.098469532
H  H245  1  0.94171000  0.65706000  0.11861000  1.0 0.098469532
H  H246  1  0.85429000  0.14786000  0.58893000  1.0 0.1320915405
H  H247  1  0.92720000  0.22154000  0.55946000  1.0 0.1320915405
H  H248  1  0.90669000  0.19660000  0.48543000  1.0 0.1193336119
H  H249  1  0.05741000  0.11595000  0.74342000  1.0 0.098469532
H  H250  1  0.05801000  0.18042000  0.75983000  1.0 0.098469532
H  H251  1  0.93980000  0.05342000  0.64002000  1.0 0.098469532
H  H252  1  0.05829000  0.17690000  0.71535000  1.0 0.098469532
H  H253  1  0.85214000  0.14571000  0.41107000  1.0 0.1320915405
H  H254  1  0.77846000  0.07280000  0.44054000  1.0 0.1320915405
H  H255  1  0.80340000  0.09331000  0.51457000  1.0 0.1193336119
H  H256  1  0.88405000  0.94259000  0.25658000  1.0 0.098469532
H  H257  1  0.81958000  0.94199000  0.24017000  1.0 0.098469532
H  H258  1  0.94658000  0.06020000  0.35998000  1.0 0.098469532
H  H259  1  0.82310000  0.94171000  0.28465000  1.0 0.098469532
H  H260  1  0.26536000  0.85429000  0.70643000  1.0 0.1320915405
H  H261  1  0.36774000  0.92720000  0.70566000  1.0 0.1320915405
H  H262  1  0.42126000  0.90669000  0.71009000  1.0 0.1193336119
H  H263  1  0.31399000  0.05741000  0.94146000  1.0 0.098469532
H  H264  1  0.29818000  0.05801000  0.87759000  1.0 0.098469532
H  H265  1  0.29978000  0.93980000  0.88638000  1.0 0.098469532
H  H266  1  0.34294000  0.05829000  0.88139000  1.0 0.098469532
H  H267  1  0.73464000  0.44107000  0.58893000  1.0 0.1320915405
H  H268  1  0.63226000  0.33792000  0.55946000  1.0 0.1320915405
H  H269  1  0.57874000  0.28883000  0.48543000  1.0 0.1193336119
H  H270  1  0.68601000  0.62747000  0.74342000  1.0 0.098469532
H  H271  1  0.70182000  0.57941000  0.75983000  1.0 0.098469532
H  H272  1  0.70022000  0.58660000  0.64002000  1.0 0.098469532
H  H273  1  0.65706000  0.53845000  0.71535000  1.0 0.098469532
H  H274  1  0.14786000  0.55893000  0.29357000  1.0 0.1320915405
H  H275  1  0.22154000  0.66208000  0.29434000  1.0 0.1320915405
H  H276  1  0.19660000  0.71117000  0.28991000  1.0 0.1193336119
H  H277  1  0.11595000  0.37253000  0.05854000  1.0 0.098469532
H  H278  1  0.18042000  0.42059000  0.12241000  1.0 0.098469532
H  H279  1  0.05342000  0.41340000  0.11362000  1.0 0.098469532
H  H280  1  0.17690000  0.46155000  0.11861000  1.0 0.098469532
H  H281  1  0.85429000  0.70643000  0.26536000  1.0 0.1320915405
H  H282  1  0.92720000  0.70566000  0.36774000  1.0 0.1320915405
H  H283  1  0.90669000  0.71009000  0.42126000  1.0 0.1193336119
H  H284  1  0.05741000  0.94146000  0.31399000  1.0 0.098469532
H  H285  1  0.05801000  0.87759000  0.29818000  1.0 0.098469532
H  H286  1  0.93980000  0.88638000  0.29978000  1.0 0.098469532
H  H287  1  0.05829000  0.88139000  0.34294000  1.0 0.098469532
H  H288  1  0.14571000  0.41107000  0.85214000  1.0 0.1320915405
H  H289  1  0.07280000  0.44054000  0.77846000  1.0 0.1320915405
H  H290  1  0.09331000  0.51457000  0.80340000  1.0 0.1193336119
H  H291  1  0.94259000  0.25658000  0.88405000  1.0 0.098469532
H  H292  1  0.94199000  0.24017000  0.81958000  1.0 0.098469532
H  H293  1  0.06020000  0.35998000  0.94658000  1.0 0.098469532
H  H294  1  0.94171000  0.28465000  0.82310000  1.0 0.098469532
H  H295  1  0.55893000  0.29357000  0.14786000  1.0 0.1320915405
H  H296  1  0.66208000  0.29434000  0.22154000  1.0 0.1320915405
H  H297  1  0.71117000  0.28991000  0.19660000  1.0 0.1193336119
H  H298  1  0.37253000  0.05854000  0.11595000  1.0 0.098469532
H  H299  1  0.42059000  0.12241000  0.18042000  1.0 0.098469532
H  H300  1  0.41340000  0.11362000  0.05342000  1.0 0.098469532
H  H301  1  0.46155000  0.11861000  0.17690000  1.0 0.098469532
H  H302  1  0.44107000  0.58893000  0.73464000  1.0 0.1320915405
H  H303  1  0.33792000  0.55946000  0.63226000  1.0 0.1320915405
H  H304  1  0.28883000  0.48543000  0.57874000  1.0 0.1193336119
H  H305  1  0.62747000  0.74342000  0.68601000  1.0 0.098469532
H  H306  1  0.57941000  0.75983000  0.70182000  1.0 0.098469532
H  H307  1  0.58660000  0.64002000  0.70022000  1.0 0.098469532
H  H308  1  0.53845000  0.71535000  0.65706000  1.0 0.098469532
H  H309  1  0.29357000  0.14786000  0.55893000  1.0 0.1320915405
H  H310  1  0.29434000  0.22154000  0.66208000  1.0 0.1320915405
H  H311  1  0.28991000  0.19660000  0.71117000  1.0 0.1193336119
H  H312  1  0.05854000  0.11595000  0.37253000  1.0 0.098469532
H  H313  1  0.12241000  0.18042000  0.42059000  1.0 0.098469532
H  H314  1  0.11362000  0.05342000  0.41340000  1.0 0.098469532
H  H315  1  0.11861000  0.17690000  0.46155000  1.0 0.098469532
H  H316  1  0.58893000  0.73464000  0.44107000  1.0 0.1320915405
H  H317  1  0.55946000  0.63226000  0.33792000  1.0 0.1320915405
H  H318  1  0.48543000  0.57874000  0.28883000  1.0 0.1193336119
H  H319  1  0.74342000  0.68601000  0.62747000  1.0 0.098469532
H  H320  1  0.75983000  0.70182000  0.57941000  1.0 0.098469532
H  H321  1  0.64002000  0.70022000  0.58660000  1.0 0.098469532
H  H322  1  0.71535000  0.65706000  0.53845000  1.0 0.098469532
H  H323  1  0.70643000  0.26536000  0.85429000  1.0 0.1320915405
H  H324  1  0.70566000  0.36774000  0.92720000  1.0 0.1320915405
H  H325  1  0.71009000  0.42126000  0.90669000  1.0 0.1193336119
H  H326  1  0.94146000  0.31399000  0.05741000  1.0 0.098469532
H  H327  1  0.87759000  0.29818000  0.05801000  1.0 0.098469532
H  H328  1  0.88638000  0.29978000  0.93980000  1.0 0.098469532
H  H329  1  0.88139000  0.34294000  0.05829000  1.0 0.098469532
H  H330  1  0.41107000  0.85214000  0.14571000  1.0 0.1320915405
H  H331  1  0.44054000  0.77846000  0.07280000  1.0 0.1320915405
H  H332  1  0.51457000  0.80340000  0.09331000  1.0 0.1193336119
H  H333  1  0.25658000  0.88405000  0.94259000  1.0 0.098469532
H  H334  1  0.24017000  0.81958000  0.94199000  1.0 0.098469532
H  H335  1  0.35998000  0.94658000  0.06020000  1.0 0.098469532
H  H336  1  0.28465000  0.82310000  0.94171000  1.0 0.098469532
H  H337  1  0.29050000  0.93526000  0.93526000  1.0 0.1085744939
H  H338  1  0.00000000  0.06474000  0.35524000  1.0 0.1085744939
H  H339  1  0.70950000  0.64476000  0.64476000  1.0 0.1085744939
H  H340  1  0.00000000  0.35524000  0.06474000  1.0 0.1085744939
H  H341  1  0.35524000  0.00000000  0.06474000  1.0 0.1085744939
H  H342  1  0.93526000  0.29050000  0.93526000  1.0 0.1085744939
H  H343  1  0.06474000  0.00000000  0.35524000  1.0 0.1085744939
H  H344  1  0.64476000  0.70950000  0.64476000  1.0 0.1085744939
H  H345  1  0.35524000  0.06474000  0.00000000  1.0 0.1085744939
H  H346  1  0.64476000  0.64476000  0.70950000  1.0 0.1085744939
H  H347  1  0.06474000  0.35524000  0.00000000  1.0 0.1085744939
H  H348  1  0.93526000  0.93526000  0.29050000  1.0 0.1085744939
H  H349  1  0.06474000  0.06474000  0.70950000  1.0 0.1085744939
H  H350  1  0.64476000  0.93526000  0.00000000  1.0 0.1085744939
H  H351  1  0.35524000  0.35524000  0.29050000  1.0 0.1085744939
H  H352  1  0.93526000  0.64476000  0.00000000  1.0 0.1085744939
H  H353  1  0.93526000  0.00000000  0.64476000  1.0 0.1085744939
H  H354  1  0.06474000  0.70950000  0.06474000  1.0 0.1085744939
H  H355  1  0.64476000  0.00000000  0.93526000  1.0 0.1085744939
H  H356  1  0.35524000  0.29050000  0.35524000  1.0 0.1085744939
H  H357  1  0.00000000  0.93526000  0.64476000  1.0 0.1085744939
H  H358  1  0.29050000  0.35524000  0.35524000  1.0 0.1085744939
H  H359  1  0.00000000  0.64476000  0.93526000  1.0 0.1085744939
H  H360  1  0.70950000  0.06474000  0.06474000  1.0 0.1085744939
C  C1  1  0.37800000  0.07420000  0.78180000  1.0 0.6003117137
C  C2  1  0.42390000  0.10650000  0.81580000  1.0 -0.026876802
C  C3  1  0.43330000  0.14150000  0.84960000  1.0 -0.1085818005
C  C4  1  0.44980000  0.09680000  0.80440000  1.0 -0.1431812175
C  C5  1  0.49470000  0.12798000  0.83688000  1.0 0.0584921142
C  C6  1  0.52300000  0.11850000  0.82770000  1.0 -0.1477117369
C  C7  1  0.27480000  0.96570000  0.88330000  1.0 -0.067513481
C  C8  1  0.26480000  0.96580000  0.84500000  1.0 -0.067513481
C  C9  1  0.33640000  0.03560000  0.92080000  1.0 -0.067513481
C  C10  1  0.29100000  0.96560000  0.84740000  1.0 -0.067513481
C  C11  1  0.70760000  0.92580000  0.30380000  1.0 0.6003117137
C  C12  1  0.70930000  0.89350000  0.31740000  1.0 -0.026876802
C  C13  1  0.70810000  0.85850000  0.29180000  1.0 -0.1085818005
C  C14  1  0.70760000  0.90320000  0.35300000  1.0 -0.1431812175
C  C15  1  0.70890000  0.87202000  0.36672000  1.0 0.0584921142
C  C16  1  0.70920000  0.88150000  0.40450000  1.0 -0.1477117369
C  C17  1  0.91760000  0.03430000  0.30910000  1.0 -0.067513481
C  C18  1  0.87920000  0.03420000  0.29900000  1.0 -0.0616614912
C  C19  1  0.88520000  0.96440000  0.30080000  1.0 -0.067513481
C  C20  1  0.88180000  0.03440000  0.32540000  1.0 -0.067513481
C  C21  1  0.62200000  0.40380000  0.69620000  1.0 0.6003117137
C  C22  1  0.57610000  0.39190000  0.68260000  1.0 -0.026876802
C  C23  1  0.56670000  0.41630000  0.70820000  1.0 -0.1085818005
C  C24  1  0.55020000  0.35460000  0.64700000  1.0 -0.1431812175
C  C25  1  0.50530000  0.34218000  0.63328000  1.0 0.0584921142
C  C26  1  0.47700000  0.30470000  0.59550000  1.0 -0.1477117369
C  C27  1  0.72520000  0.60850000  0.69090000  1.0 -0.067513481
C  C28  1  0.73520000  0.58020000  0.70100000  1.0 -0.067513481
C  C29  1  0.66360000  0.58440000  0.69920000  1.0 -0.0616614912
C  C30  1  0.70900000  0.55640000  0.67460000  1.0 -0.067513481
C  C31  1  0.29240000  0.59620000  0.21820000  1.0 0.6003117137
C  C32  1  0.29070000  0.60810000  0.18420000  1.0 -0.026876802
C  C33  1  0.29190000  0.58370000  0.15040000  1.0 -0.1085818005
C  C34  1  0.29240000  0.64540000  0.19560000  1.0 -0.1431812175
C  C35  1  0.29110000  0.65782000  0.16312000  1.0 0.0584921142
C  C36  1  0.29080000  0.69530000  0.17230000  1.0 -0.1477117369
C  C37  1  0.08240000  0.39150000  0.11670000  1.0 -0.067513481
C  C38  1  0.12080000  0.41980000  0.15500000  1.0 -0.067513481
C  C39  1  0.11480000  0.41560000  0.07920000  1.0 -0.067513481
C  C40  1  0.11820000  0.44360000  0.15260000  1.0 -0.067513481
C  C41  1  0.30380000  0.70760000  0.92580000  1.0 0.6003117137
C  C42  1  0.31740000  0.70930000  0.89350000  1.0 -0.026876802
C  C43  1  0.29180000  0.70810000  0.85850000  1.0 -0.1085818005
C  C44  1  0.35300000  0.70760000  0.90320000  1.0 -0.1431812175
C  C45  1  0.36672000  0.70890000  0.87202000  1.0 0.0584921142
C  C46  1  0.40450000  0.70920000  0.88150000  1.0 -0.1477117369
C  C47  1  0.30910000  0.91760000  0.03430000  1.0 -0.067513481
C  C48  1  0.29900000  0.87920000  0.03420000  1.0 -0.067513481
C  C49  1  0.30080000  0.88520000  0.96440000  1.0 -0.067513481
C  C50  1  0.32540000  0.88180000  0.03440000  1.0 -0.067513481
C  C51  1  0.78180000  0.37800000  0.07420000  1.0 0.6003117137
C  C52  1  0.81580000  0.42390000  0.10650000  1.0 -0.026876802
C  C53  1  0.84960000  0.43330000  0.14150000  1.0 -0.1085818005
C  C54  1  0.80440000  0.44980000  0.09680000  1.0 -0.1431812175
C  C55  1  0.83688000  0.49470000  0.12798000  1.0 0.0584921142
C  C56  1  0.82770000  0.52300000  0.11850000  1.0 -0.1477117369
C  C57  1  0.88330000  0.27480000  0.96570000  1.0 -0.067513481
C  C58  1  0.84500000  0.26480000  0.96580000  1.0 -0.067513481
C  C59  1  0.92080000  0.33640000  0.03560000  1.0 -0.067513481
C  C60  1  0.84740000  0.29100000  0.96560000  1.0 -0.067513481
C  C61  1  0.21820000  0.29240000  0.59620000  1.0 0.6003117137
C  C62  1  0.18420000  0.29070000  0.60810000  1.0 -0.026876802
C  C63  1  0.15040000  0.29190000  0.58370000  1.0 -0.1085818005
C  C64  1  0.19560000  0.29240000  0.64540000  1.0 -0.1431812175
C  C65  1  0.16312000  0.29110000  0.65782000  1.0 0.0584921142
C  C66  1  0.17230000  0.29080000  0.69530000  1.0 -0.1477117369
C  C67  1  0.11670000  0.08240000  0.39150000  1.0 -0.067513481
C  C68  1  0.15500000  0.12080000  0.41980000  1.0 -0.067513481
C  C69  1  0.07920000  0.11480000  0.41560000  1.0 -0.067513481
C  C70  1  0.15260000  0.11820000  0.44360000  1.0 -0.067513481
C  C71  1  0.69620000  0.62200000  0.40380000  1.0 0.6003117137
C  C72  1  0.68260000  0.57610000  0.39190000  1.0 -0.026876802
C  C73  1  0.70820000  0.56670000  0.41630000  1.0 -0.1085818005
C  C74  1  0.64700000  0.55020000  0.35460000  1.0 -0.1431812175
C  C75  1  0.63328000  0.50530000  0.34218000  1.0 0.0584921142
C  C76  1  0.59550000  0.47700000  0.30470000  1.0 -0.1477117369
C  C77  1  0.69090000  0.72520000  0.60850000  1.0 -0.067513481
C  C78  1  0.70100000  0.73520000  0.58020000  1.0 -0.067513481
C  C79  1  0.69920000  0.66360000  0.58440000  1.0 -0.067513481
C  C80  1  0.67460000  0.70900000  0.55640000  1.0 -0.067513481
C  C81  1  0.59620000  0.21820000  0.29240000  1.0 0.6003117137
C  C82  1  0.60810000  0.18420000  0.29070000  1.0 -0.026876802
C  C83  1  0.58370000  0.15040000  0.29190000  1.0 -0.1085818005
C  C84  1  0.64540000  0.19560000  0.29240000  1.0 -0.1431812175
C  C85  1  0.65782000  0.16312000  0.29110000  1.0 0.0584921142
C  C86  1  0.69530000  0.17230000  0.29080000  1.0 -0.1477117369
C  C87  1  0.39150000  0.11670000  0.08240000  1.0 -0.067513481
C  C88  1  0.41980000  0.15500000  0.12080000  1.0 -0.067513481
C  C89  1  0.41560000  0.07920000  0.11480000  1.0 -0.0616614912
C  C90  1  0.44360000  0.15260000  0.11820000  1.0 -0.067513481
C  C91  1  0.40380000  0.69620000  0.62200000  1.0 0.6003117137
C  C92  1  0.39190000  0.68260000  0.57610000  1.0 -0.026876802
C  C93  1  0.41630000  0.70820000  0.56670000  1.0 -0.1085818005
C  C94  1  0.35460000  0.64700000  0.55020000  1.0 -0.1431812175
C  C95  1  0.34218000  0.63328000  0.50530000  1.0 0.0584921142
C  C96  1  0.30470000  0.59550000  0.47700000  1.0 -0.1477117369
C  C97  1  0.60850000  0.69090000  0.72520000  1.0 -0.067513481
C  C98  1  0.58020000  0.70100000  0.73520000  1.0 -0.067513481
C  C99  1  0.58440000  0.69920000  0.66360000  1.0 -0.067513481
C  C100  1  0.55640000  0.67460000  0.70900000  1.0 -0.067513481
C  C101  1  0.92580000  0.30380000  0.70760000  1.0 0.6003117137
C  C102  1  0.89350000  0.31740000  0.70930000  1.0 -0.026876802
C  C103  1  0.85850000  0.29180000  0.70810000  1.0 -0.1085818005
C  C104  1  0.90320000  0.35300000  0.70760000  1.0 -0.1431812175
C  C105  1  0.87202000  0.36672000  0.70890000  1.0 0.0584921142
C  C106  1  0.88150000  0.40450000  0.70920000  1.0 -0.1477117369
C  C107  1  0.03430000  0.30910000  0.91760000  1.0 -0.067513481
C  C108  1  0.03420000  0.29900000  0.87920000  1.0 -0.067513481
C  C109  1  0.96440000  0.30080000  0.88520000  1.0 -0.067513481
C  C110  1  0.03440000  0.32540000  0.88180000  1.0 -0.067513481
C  C111  1  0.07420000  0.78180000  0.37800000  1.0 0.6003117137
C  C112  1  0.10650000  0.81580000  0.42390000  1.0 -0.026876802
C  C113  1  0.14150000  0.84960000  0.43330000  1.0 -0.1085818005
C  C114  1  0.09680000  0.80440000  0.44980000  1.0 -0.1431812175
C  C115  1  0.12798000  0.83688000  0.49470000  1.0 0.0584921142
C  C116  1  0.11850000  0.82770000  0.52300000  1.0 -0.1477117369
C  C117  1  0.96570000  0.88330000  0.27480000  1.0 -0.067513481
C  C118  1  0.96580000  0.84500000  0.26480000  1.0 -0.067513481
C  C119  1  0.03560000  0.92080000  0.33640000  1.0 -0.067513481
C  C120  1  0.96560000  0.84740000  0.29100000  1.0 -0.067513481
C  C121  1  0.21820000  0.92580000  0.62200000  1.0 0.6003117137
C  C122  1  0.18420000  0.89350000  0.57610000  1.0 -0.026876802
C  C123  1  0.15040000  0.85850000  0.56670000  1.0 -0.1085818005
C  C124  1  0.19560000  0.90320000  0.55020000  1.0 -0.1431812175
C  C125  1  0.16312000  0.87202000  0.50530000  1.0 0.0584921142
C  C126  1  0.17230000  0.88150000  0.47700000  1.0 -0.1477117369
C  C127  1  0.11670000  0.03430000  0.72520000  1.0 -0.067513481
C  C128  1  0.15500000  0.03420000  0.73520000  1.0 -0.067513481
C  C129  1  0.07920000  0.96440000  0.66360000  1.0 -0.067513481
C  C130  1  0.15260000  0.03440000  0.70900000  1.0 -0.067513481
C  C131  1  0.69620000  0.07420000  0.29240000  1.0 0.6003117137
C  C132  1  0.68260000  0.10650000  0.29070000  1.0 -0.026876802
C  C133  1  0.70820000  0.14150000  0.29190000  1.0 -0.1085818005
C  C134  1  0.64700000  0.09680000  0.29240000  1.0 -0.1431812175
C  C135  1  0.63328000  0.12798000  0.29110000  1.0 0.0584921142
C  C136  1  0.59550000  0.11850000  0.29080000  1.0 -0.1477117369
C  C137  1  0.69090000  0.96570000  0.08240000  1.0 -0.067513481
C  C138  1  0.70100000  0.96580000  0.12080000  1.0 -0.067513481
C  C139  1  0.69920000  0.03560000  0.11480000  1.0 -0.067513481
C  C140  1  0.67460000  0.96560000  0.11820000  1.0 -0.067513481
C  C141  1  0.30380000  0.59620000  0.37800000  1.0 0.6003117137
C  C142  1  0.31740000  0.60810000  0.42390000  1.0 -0.026876802
C  C143  1  0.29180000  0.58370000  0.43330000  1.0 -0.1085818005
C  C144  1  0.35300000  0.64540000  0.44980000  1.0 -0.1431812175
C  C145  1  0.36672000  0.65782000  0.49470000  1.0 0.0584921142
C  C146  1  0.40450000  0.69530000  0.52300000  1.0 -0.1477117369
C  C147  1  0.30910000  0.39150000  0.27480000  1.0 -0.067513481
C  C148  1  0.29900000  0.41980000  0.26480000  1.0 -0.067513481
C  C149  1  0.30080000  0.41560000  0.33640000  1.0 -0.067513481
C  C150  1  0.32540000  0.44360000  0.29100000  1.0 -0.067513481
C  C151  1  0.78180000  0.40380000  0.70760000  1.0 0.6003117137
C  C152  1  0.81580000  0.39190000  0.70930000  1.0 -0.026876802
C  C153  1  0.84960000  0.41630000  0.70810000  1.0 -0.1085818005
C  C154  1  0.80440000  0.35460000  0.70760000  1.0 -0.1431812175
C  C155  1  0.83688000  0.34218000  0.70890000  1.0 0.0584921142
C  C156  1  0.82770000  0.30470000  0.70920000  1.0 -0.1477117369
C  C157  1  0.88330000  0.60850000  0.91760000  1.0 -0.067513481
C  C158  1  0.84500000  0.58020000  0.87920000  1.0 -0.0616614912
C  C159  1  0.92080000  0.58440000  0.88520000  1.0 -0.067513481
C  C160  1  0.84740000  0.55640000  0.88180000  1.0 -0.067513481
C  C161  1  0.07420000  0.29240000  0.69620000  1.0 0.6003117137
C  C162  1  0.10650000  0.29070000  0.68260000  1.0 -0.026876802
C  C163  1  0.14150000  0.29190000  0.70820000  1.0 -0.1085818005
C  C164  1  0.09680000  0.29240000  0.64700000  1.0 -0.1431812175
C  C165  1  0.12798000  0.29110000  0.63328000  1.0 0.0584921142
C  C166  1  0.11850000  0.29080000  0.59550000  1.0 -0.1477117369
C  C167  1  0.96570000  0.08240000  0.69090000  1.0 -0.067513481
C  C168  1  0.96580000  0.12080000  0.70100000  1.0 -0.067513481
C  C169  1  0.03560000  0.11480000  0.69920000  1.0 -0.067513481
C  C170  1  0.96560000  0.11820000  0.67460000  1.0 -0.067513481
C  C171  1  0.92580000  0.62200000  0.21820000  1.0 0.6003117137
C  C172  1  0.89350000  0.57610000  0.18420000  1.0 -0.026876802
C  C173  1  0.85850000  0.56670000  0.15040000  1.0 -0.1085818005
C  C174  1  0.90320000  0.55020000  0.19560000  1.0 -0.1431812175
C  C175  1  0.87202000  0.50530000  0.16312000  1.0 0.0584921142
C  C176  1  0.88150000  0.47700000  0.17230000  1.0 -0.1431812175
C  C177  1  0.03430000  0.72520000  0.11670000  1.0 -0.067513481
C  C178  1  0.03420000  0.73520000  0.15500000  1.0 -0.067513481
C  C179  1  0.96440000  0.66360000  0.07920000  1.0 -0.0616614912
C  C180  1  0.03440000  0.70900000  0.15260000  1.0 -0.067513481
C  C181  1  0.40380000  0.70760000  0.78180000  1.0 0.6003117137
C  C182  1  0.39190000  0.70930000  0.81580000  1.0 -0.026876802
C  C183  1  0.41630000  0.70810000  0.84960000  1.0 -0.1085818005
C  C184  1  0.35460000  0.70760000  0.80440000  1.0 -0.1431812175
C  C185  1  0.34218000  0.70890000  0.83688000  1.0 0.0584921142
C  C186  1  0.30470000  0.70920000  0.82770000  1.0 -0.1477117369
C  C187  1  0.60850000  0.91760000  0.88330000  1.0 -0.067513481
C  C188  1  0.58020000  0.87920000  0.84500000  1.0 -0.067513481
C  C189  1  0.58440000  0.88520000  0.92080000  1.0 -0.067513481
C  C190  1  0.55640000  0.88180000  0.84740000  1.0 -0.067513481
C  C191  1  0.59620000  0.37800000  0.30380000  1.0 0.6003117137
C  C192  1  0.60810000  0.42390000  0.31740000  1.0 -0.026876802
C  C193  1  0.58370000  0.43330000  0.29180000  1.0 -0.1085818005
C  C194  1  0.64540000  0.44980000  0.35300000  1.0 -0.1431812175
C  C195  1  0.65782000  0.49470000  0.36672000  1.0 0.0584921142
C  C196  1  0.69530000  0.52300000  0.40450000  1.0 -0.1477117369
C  C197  1  0.39150000  0.27480000  0.30910000  1.0 -0.067513481
C  C198  1  0.41980000  0.26480000  0.29900000  1.0 -0.067513481
C  C199  1  0.41560000  0.33640000  0.30080000  1.0 -0.067513481
C  C200  1  0.44360000  0.29100000  0.32540000  1.0 -0.067513481
C  C201  1  0.70760000  0.78180000  0.40380000  1.0 0.6003117137
C  C202  1  0.70930000  0.81580000  0.39190000  1.0 -0.026876802
C  C203  1  0.70810000  0.84960000  0.41630000  1.0 -0.1085818005
C  C204  1  0.70760000  0.80440000  0.35460000  1.0 -0.1431812175
C  C205  1  0.70890000  0.83688000  0.34218000  1.0 0.0584921142
C  C206  1  0.70920000  0.82770000  0.30470000  1.0 -0.1477117369
C  C207  1  0.91760000  0.88330000  0.60850000  1.0 -0.067513481
C  C208  1  0.87920000  0.84500000  0.58020000  1.0 -0.067513481
C  C209  1  0.88520000  0.92080000  0.58440000  1.0 -0.067513481
C  C210  1  0.88180000  0.84740000  0.55640000  1.0 -0.067513481
C  C211  1  0.37800000  0.30380000  0.59620000  1.0 0.6003117137
C  C212  1  0.42390000  0.31740000  0.60810000  1.0 -0.026876802
C  C213  1  0.43330000  0.29180000  0.58370000  1.0 -0.1085818005
C  C214  1  0.44980000  0.35300000  0.64540000  1.0 -0.1431812175
C  C215  1  0.49470000  0.36672000  0.65782000  1.0 0.0584921142
C  C216  1  0.52300000  0.40450000  0.69530000  1.0 -0.1477117369
C  C217  1  0.27480000  0.30910000  0.39150000  1.0 -0.067513481
C  C218  1  0.26480000  0.29900000  0.41980000  1.0 -0.067513481
C  C219  1  0.33640000  0.30080000  0.41560000  1.0 -0.067513481
C  C220  1  0.29100000  0.32540000  0.44360000  1.0 -0.067513481
C  C221  1  0.29240000  0.69620000  0.07420000  1.0 0.6003117137
C  C222  1  0.29070000  0.68260000  0.10650000  1.0 -0.026876802
C  C223  1  0.29190000  0.70820000  0.14150000  1.0 -0.1085818005
C  C224  1  0.29240000  0.64700000  0.09680000  1.0 -0.1431812175
C  C225  1  0.29110000  0.63328000  0.12798000  1.0 0.0584921142
C  C226  1  0.29080000  0.59550000  0.11850000  1.0 -0.1477117369
C  C227  1  0.08240000  0.69090000  0.96570000  1.0 -0.067513481
C  C228  1  0.12080000  0.70100000  0.96580000  1.0 -0.067513481
C  C229  1  0.11480000  0.69920000  0.03560000  1.0 -0.067513481
C  C230  1  0.11820000  0.67460000  0.96560000  1.0 -0.067513481
C  C231  1  0.62200000  0.21820000  0.92580000  1.0 0.6003117137
C  C232  1  0.57610000  0.18420000  0.89350000  1.0 -0.026876802
C  C233  1  0.56670000  0.15040000  0.85850000  1.0 -0.1085818005
C  C234  1  0.55020000  0.19560000  0.90320000  1.0 -0.1431812175
C  C235  1  0.50530000  0.16312000  0.87202000  1.0 0.0584921142
C  C236  1  0.47700000  0.17230000  0.88150000  1.0 -0.1477117369
C  C237  1  0.72520000  0.11670000  0.03430000  1.0 -0.0616614912
C  C238  1  0.73520000  0.15500000  0.03420000  1.0 -0.067513481
C  C239  1  0.66360000  0.07920000  0.96440000  1.0 -0.067513481
C  C240  1  0.70900000  0.15260000  0.03440000  1.0 -0.067513481
C  C241  1  0.62200000  0.92580000  0.21820000  1.0 0.6003117137
C  C242  1  0.57610000  0.89350000  0.18420000  1.0 -0.026876802
C  C243  1  0.56670000  0.85850000  0.15040000  1.0 -0.1085818005
C  C244  1  0.55020000  0.90320000  0.19560000  1.0 -0.1431812175
C  C245  1  0.50530000  0.87202000  0.16312000  1.0 0.0584921142
C  C246  1  0.47700000  0.88150000  0.17230000  1.0 -0.1477117369
C  C247  1  0.72520000  0.03430000  0.11670000  1.0 -0.067513481
C  C248  1  0.73520000  0.03420000  0.15500000  1.0 -0.067513481
C  C249  1  0.66360000  0.96440000  0.07920000  1.0 -0.067513481
C  C250  1  0.70900000  0.03440000  0.15260000  1.0 -0.067513481
C  C251  1  0.29240000  0.07420000  0.69620000  1.0 0.6003117137
C  C252  1  0.29070000  0.10650000  0.68260000  1.0 -0.026876802
C  C253  1  0.29190000  0.14150000  0.70820000  1.0 -0.1085818005
C  C254  1  0.29240000  0.09680000  0.64700000  1.0 -0.1431812175
C  C255  1  0.29110000  0.12798000  0.63328000  1.0 0.0584921142
C  C256  1  0.29080000  0.11850000  0.59550000  1.0 -0.1477117369
C  C257  1  0.08240000  0.96570000  0.69090000  1.0 -0.067513481
C  C258  1  0.12080000  0.96580000  0.70100000  1.0 -0.067513481
C  C259  1  0.11480000  0.03560000  0.69920000  1.0 -0.067513481
C  C260  1  0.11820000  0.96560000  0.67460000  1.0 -0.067513481
C  C261  1  0.37800000  0.59620000  0.30380000  1.0 0.6003117137
C  C262  1  0.42390000  0.60810000  0.31740000  1.0 -0.026876802
C  C263  1  0.43330000  0.58370000  0.29180000  1.0 -0.1085818005
C  C264  1  0.44980000  0.64540000  0.35300000  1.0 -0.1431812175
C  C265  1  0.49470000  0.65782000  0.36672000  1.0 0.0584921142
C  C266  1  0.52300000  0.69530000  0.40450000  1.0 -0.1431812175
C  C267  1  0.27480000  0.39150000  0.30910000  1.0 -0.067513481
C  C268  1  0.26480000  0.41980000  0.29900000  1.0 -0.067513481
C  C269  1  0.33640000  0.41560000  0.30080000  1.0 -0.067513481
C  C270  1  0.29100000  0.44360000  0.32540000  1.0 -0.067513481
C  C271  1  0.70760000  0.40380000  0.78180000  1.0 0.6003117137
C  C272  1  0.70930000  0.39190000  0.81580000  1.0 -0.026876802
C  C273  1  0.70810000  0.41630000  0.84960000  1.0 -0.1085818005
C  C274  1  0.70760000  0.35460000  0.80440000  1.0 -0.1431812175
C  C275  1  0.70890000  0.34218000  0.83688000  1.0 0.0584921142
C  C276  1  0.70920000  0.30470000  0.82770000  1.0 -0.1477117369
C  C277  1  0.91760000  0.60850000  0.88330000  1.0 -0.067513481
C  C278  1  0.87920000  0.58020000  0.84500000  1.0 -0.067513481
C  C279  1  0.88520000  0.58440000  0.92080000  1.0 -0.067513481
C  C280  1  0.88180000  0.55640000  0.84740000  1.0 -0.067513481
C  C281  1  0.69620000  0.29240000  0.07420000  1.0 0.6003117137
C  C282  1  0.68260000  0.29070000  0.10650000  1.0 -0.026876802
C  C283  1  0.70820000  0.29190000  0.14150000  1.0 -0.1085818005
C  C284  1  0.64700000  0.29240000  0.09680000  1.0 -0.1431812175
C  C285  1  0.63328000  0.29110000  0.12798000  1.0 0.0584921142
C  C286  1  0.59550000  0.29080000  0.11850000  1.0 -0.1431812175
C  C287  1  0.69090000  0.08240000  0.96570000  1.0 -0.067513481
C  C288  1  0.70100000  0.12080000  0.96580000  1.0 -0.067513481
C  C289  1  0.69920000  0.11480000  0.03560000  1.0 -0.0616614912
C  C290  1  0.67460000  0.11820000  0.96560000  1.0 -0.067513481
C  C291  1  0.21820000  0.62200000  0.92580000  1.0 0.6003117137
C  C292  1  0.18420000  0.57610000  0.89350000  1.0 -0.026876802
C  C293  1  0.15040000  0.56670000  0.85850000  1.0 -0.1085818005
C  C294  1  0.19560000  0.55020000  0.90320000  1.0 -0.1431812175
C  C295  1  0.16312000  0.50530000  0.87202000  1.0 0.0584921142
C  C296  1  0.17230000  0.47700000  0.88150000  1.0 -0.1477117369
C  C297  1  0.11670000  0.72520000  0.03430000  1.0 -0.0616614912
C  C298  1  0.15500000  0.73520000  0.03420000  1.0 -0.067513481
C  C299  1  0.07920000  0.66360000  0.96440000  1.0 -0.067513481
C  C300  1  0.15260000  0.70900000  0.03440000  1.0 -0.067513481
C  C301  1  0.78180000  0.70760000  0.40380000  1.0 0.6003117137
C  C302  1  0.81580000  0.70930000  0.39190000  1.0 -0.026876802
C  C303  1  0.84960000  0.70810000  0.41630000  1.0 -0.1085818005
C  C304  1  0.80440000  0.70760000  0.35460000  1.0 -0.1431812175
C  C305  1  0.83688000  0.70890000  0.34218000  1.0 0.0584921142
C  C306  1  0.82770000  0.70920000  0.30470000  1.0 -0.1477117369
C  C307  1  0.88330000  0.91760000  0.60850000  1.0 -0.067513481
C  C308  1  0.84500000  0.87920000  0.58020000  1.0 -0.0616614912
C  C309  1  0.92080000  0.88520000  0.58440000  1.0 -0.067513481
C  C310  1  0.84740000  0.88180000  0.55640000  1.0 -0.067513481
C  C311  1  0.30380000  0.37800000  0.59620000  1.0 0.6003117137
C  C312  1  0.31740000  0.42390000  0.60810000  1.0 -0.026876802
C  C313  1  0.29180000  0.43330000  0.58370000  1.0 -0.1085818005
C  C314  1  0.35300000  0.44980000  0.64540000  1.0 -0.1431812175
C  C315  1  0.36672000  0.49470000  0.65782000  1.0 0.0584921142
C  C316  1  0.40450000  0.52300000  0.69530000  1.0 -0.1477117369
C  C317  1  0.30910000  0.27480000  0.39150000  1.0 -0.067513481
C  C318  1  0.29900000  0.26480000  0.41980000  1.0 -0.067513481
C  C319  1  0.30080000  0.33640000  0.41560000  1.0 -0.067513481
C  C320  1  0.32540000  0.29100000  0.44360000  1.0 -0.067513481
C  C321  1  0.40380000  0.78180000  0.70760000  1.0 0.6003117137
C  C322  1  0.39190000  0.81580000  0.70930000  1.0 -0.026876802
C  C323  1  0.41630000  0.84960000  0.70810000  1.0 -0.1085818005
C  C324  1  0.35460000  0.80440000  0.70760000  1.0 -0.1431812175
C  C325  1  0.34218000  0.83688000  0.70890000  1.0 0.0584921142
C  C326  1  0.30470000  0.82770000  0.70920000  1.0 -0.1477117369
C  C327  1  0.60850000  0.88330000  0.91760000  1.0 -0.067513481
C  C328  1  0.58020000  0.84500000  0.87920000  1.0 -0.067513481
C  C329  1  0.58440000  0.92080000  0.88520000  1.0 -0.067513481
C  C330  1  0.55640000  0.84740000  0.88180000  1.0 -0.067513481
C  C331  1  0.59620000  0.30380000  0.37800000  1.0 0.6003117137
C  C332  1  0.60810000  0.31740000  0.42390000  1.0 -0.026876802
C  C333  1  0.58370000  0.29180000  0.43330000  1.0 -0.1085818005
C  C334  1  0.64540000  0.35300000  0.44980000  1.0 -0.1431812175
C  C335  1  0.65782000  0.36672000  0.49470000  1.0 0.0584921142
C  C336  1  0.69530000  0.40450000  0.52300000  1.0 -0.1477117369
C  C337  1  0.39150000  0.30910000  0.27480000  1.0 -0.0616614912
C  C338  1  0.41980000  0.29900000  0.26480000  1.0 -0.067513481
C  C339  1  0.41560000  0.30080000  0.33640000  1.0 -0.067513481
C  C340  1  0.44360000  0.32540000  0.29100000  1.0 -0.067513481
C  C341  1  0.07420000  0.69620000  0.29240000  1.0 0.6003117137
C  C342  1  0.10650000  0.68260000  0.29070000  1.0 -0.026876802
C  C343  1  0.14150000  0.70820000  0.29190000  1.0 -0.1085818005
C  C344  1  0.09680000  0.64700000  0.29240000  1.0 -0.1431812175
C  C345  1  0.12798000  0.63328000  0.29110000  1.0 0.0584921142
C  C346  1  0.11850000  0.59550000  0.29080000  1.0 -0.1477117369
C  C347  1  0.96570000  0.69090000  0.08240000  1.0 -0.0616614912
C  C348  1  0.96580000  0.70100000  0.12080000  1.0 -0.067513481
C  C349  1  0.03560000  0.69920000  0.11480000  1.0 -0.067513481
C  C350  1  0.96560000  0.67460000  0.11820000  1.0 -0.067513481
C  C351  1  0.92580000  0.21820000  0.62200000  1.0 0.6003117137
C  C352  1  0.89350000  0.18420000  0.57610000  1.0 -0.026876802
C  C353  1  0.85850000  0.15040000  0.56670000  1.0 -0.1085818005
C  C354  1  0.90320000  0.19560000  0.55020000  1.0 -0.1431812175
C  C355  1  0.87202000  0.16312000  0.50530000  1.0 0.0584921142
C  C356  1  0.88150000  0.17230000  0.47700000  1.0 -0.1431812175
C  C357  1  0.03430000  0.11670000  0.72520000  1.0 -0.067513481
C  C358  1  0.03420000  0.15500000  0.73520000  1.0 -0.067513481
C  C359  1  0.96440000  0.07920000  0.66360000  1.0 -0.067513481
C  C360  1  0.03440000  0.15260000  0.70900000  1.0 -0.067513481
C  C361  1  0.78180000  0.07420000  0.37800000  1.0 0.6003117137
C  C362  1  0.81580000  0.10650000  0.42390000  1.0 -0.026876802
C  C363  1  0.84960000  0.14150000  0.43330000  1.0 -0.1085818005
C  C364  1  0.80440000  0.09680000  0.44980000  1.0 -0.1431812175
C  C365  1  0.83688000  0.12798000  0.49470000  1.0 0.0584921142
C  C366  1  0.82770000  0.11850000  0.52300000  1.0 -0.1477117369
C  C367  1  0.88330000  0.96570000  0.27480000  1.0 -0.067513481
C  C368  1  0.84500000  0.96580000  0.26480000  1.0 -0.067513481
C  C369  1  0.92080000  0.03560000  0.33640000  1.0 -0.067513481
C  C370  1  0.84740000  0.96560000  0.29100000  1.0 -0.067513481
C  C371  1  0.30380000  0.92580000  0.70760000  1.0 0.6003117137
C  C372  1  0.31740000  0.89350000  0.70930000  1.0 -0.026876802
C  C373  1  0.29180000  0.85850000  0.70810000  1.0 -0.1085818005
C  C374  1  0.35300000  0.90320000  0.70760000  1.0 -0.1431812175
C  C375  1  0.36672000  0.87202000  0.70890000  1.0 0.0584921142
C  C376  1  0.40450000  0.88150000  0.70920000  1.0 -0.1477117369
C  C377  1  0.30910000  0.03430000  0.91760000  1.0 -0.067513481
C  C378  1  0.29900000  0.03420000  0.87920000  1.0 -0.067513481
C  C379  1  0.30080000  0.96440000  0.88520000  1.0 -0.067513481
C  C380  1  0.32540000  0.03440000  0.88180000  1.0 -0.067513481
C  C381  1  0.69620000  0.40380000  0.62200000  1.0 0.6003117137
C  C382  1  0.68260000  0.39190000  0.57610000  1.0 -0.026876802
C  C383  1  0.70820000  0.41630000  0.56670000  1.0 -0.1085818005
C  C384  1  0.64700000  0.35460000  0.55020000  1.0 -0.1431812175
C  C385  1  0.63328000  0.34218000  0.50530000  1.0 0.0584921142
C  C386  1  0.59550000  0.30470000  0.47700000  1.0 -0.1477117369
C  C387  1  0.69090000  0.60850000  0.72520000  1.0 -0.067513481
C  C388  1  0.70100000  0.58020000  0.73520000  1.0 -0.067513481
C  C389  1  0.69920000  0.58440000  0.66360000  1.0 -0.067513481
C  C390  1  0.67460000  0.55640000  0.70900000  1.0 -0.067513481
C  C391  1  0.21820000  0.59620000  0.29240000  1.0 0.6003117137
C  C392  1  0.18420000  0.60810000  0.29070000  1.0 -0.026876802
C  C393  1  0.15040000  0.58370000  0.29190000  1.0 -0.1085818005
C  C394  1  0.19560000  0.64540000  0.29240000  1.0 -0.1431812175
C  C395  1  0.16312000  0.65782000  0.29110000  1.0 0.0584921142
C  C396  1  0.17230000  0.69530000  0.29080000  1.0 -0.1477117369
C  C397  1  0.11670000  0.39150000  0.08240000  1.0 -0.067513481
C  C398  1  0.15500000  0.41980000  0.12080000  1.0 -0.067513481
C  C399  1  0.07920000  0.41560000  0.11480000  1.0 -0.067513481
C  C400  1  0.15260000  0.44360000  0.11820000  1.0 -0.067513481
C  C401  1  0.92580000  0.70760000  0.30380000  1.0 0.6003117137
C  C402  1  0.89350000  0.70930000  0.31740000  1.0 -0.026876802
C  C403  1  0.85850000  0.70810000  0.29180000  1.0 -0.1085818005
C  C404  1  0.90320000  0.70760000  0.35300000  1.0 -0.1431812175
C  C405  1  0.87202000  0.70890000  0.36672000  1.0 0.0584921142
C  C406  1  0.88150000  0.70920000  0.40450000  1.0 -0.1477117369
C  C407  1  0.03430000  0.91760000  0.30910000  1.0 -0.067513481
C  C408  1  0.03420000  0.87920000  0.29900000  1.0 -0.067513481
C  C409  1  0.96440000  0.88520000  0.30080000  1.0 -0.0616614912
C  C410  1  0.03440000  0.88180000  0.32540000  1.0 -0.067513481
C  C411  1  0.07420000  0.37800000  0.78180000  1.0 0.6003117137
C  C412  1  0.10650000  0.42390000  0.81580000  1.0 -0.026876802
C  C413  1  0.14150000  0.43330000  0.84960000  1.0 -0.1085818005
C  C414  1  0.09680000  0.44980000  0.80440000  1.0 -0.1431812175
C  C415  1  0.12798000  0.49470000  0.83688000  1.0 0.0584921142
C  C416  1  0.11850000  0.52300000  0.82770000  1.0 -0.1477117369
C  C417  1  0.96570000  0.27480000  0.88330000  1.0 -0.067513481
C  C418  1  0.96580000  0.26480000  0.84500000  1.0 -0.067513481
C  C419  1  0.03560000  0.33640000  0.92080000  1.0 -0.067513481
C  C420  1  0.96560000  0.29100000  0.84740000  1.0 -0.067513481
C  C421  1  0.59620000  0.29240000  0.21820000  1.0 0.6003117137
C  C422  1  0.60810000  0.29070000  0.18420000  1.0 -0.026876802
C  C423  1  0.58370000  0.29190000  0.15040000  1.0 -0.1085818005
C  C424  1  0.64540000  0.29240000  0.19560000  1.0 -0.1431812175
C  C425  1  0.65782000  0.29110000  0.16312000  1.0 0.0584921142
C  C426  1  0.69530000  0.29080000  0.17230000  1.0 -0.1477117369
C  C427  1  0.39150000  0.08240000  0.11670000  1.0 -0.067513481
C  C428  1  0.41980000  0.12080000  0.15500000  1.0 -0.067513481
C  C429  1  0.41560000  0.11480000  0.07920000  1.0 -0.0616614912
C  C430  1  0.44360000  0.11820000  0.15260000  1.0 -0.067513481
C  C431  1  0.40380000  0.62200000  0.69620000  1.0 0.6003117137
C  C432  1  0.39190000  0.57610000  0.68260000  1.0 -0.026876802
C  C433  1  0.41630000  0.56670000  0.70820000  1.0 -0.1085818005
C  C434  1  0.35460000  0.55020000  0.64700000  1.0 -0.1431812175
C  C435  1  0.34218000  0.50530000  0.63328000  1.0 0.0584921142
C  C436  1  0.30470000  0.47700000  0.59550000  1.0 -0.1477117369
C  C437  1  0.60850000  0.72520000  0.69090000  1.0 -0.067513481
C  C438  1  0.58020000  0.73520000  0.70100000  1.0 -0.067513481
C  C439  1  0.58440000  0.66360000  0.69920000  1.0 -0.067513481
C  C440  1  0.55640000  0.70900000  0.67460000  1.0 -0.067513481
C  C441  1  0.29240000  0.21820000  0.59620000  1.0 0.6003117137
C  C442  1  0.29070000  0.18420000  0.60810000  1.0 -0.026876802
C  C443  1  0.29190000  0.15040000  0.58370000  1.0 -0.1085818005
C  C444  1  0.29240000  0.19560000  0.64540000  1.0 -0.1431812175
C  C445  1  0.29110000  0.16312000  0.65782000  1.0 0.0584921142
C  C446  1  0.29080000  0.17230000  0.69530000  1.0 -0.1477117369
C  C447  1  0.08240000  0.11670000  0.39150000  1.0 -0.067513481
C  C448  1  0.12080000  0.15500000  0.41980000  1.0 -0.067513481
C  C449  1  0.11480000  0.07920000  0.41560000  1.0 -0.067513481
C  C450  1  0.11820000  0.15260000  0.44360000  1.0 -0.067513481
C  C451  1  0.62200000  0.69620000  0.40380000  1.0 0.6003117137
C  C452  1  0.57610000  0.68260000  0.39190000  1.0 -0.026876802
C  C453  1  0.56670000  0.70820000  0.41630000  1.0 -0.1085818005
C  C454  1  0.55020000  0.64700000  0.35460000  1.0 -0.1431812175
C  C455  1  0.50530000  0.63328000  0.34218000  1.0 0.0584921142
C  C456  1  0.47700000  0.59550000  0.30470000  1.0 -0.1477117369
C  C457  1  0.72520000  0.69090000  0.60850000  1.0 -0.067513481
C  C458  1  0.73520000  0.70100000  0.58020000  1.0 -0.067513481
C  C459  1  0.66360000  0.69920000  0.58440000  1.0 -0.067513481
C  C460  1  0.70900000  0.67460000  0.55640000  1.0 -0.067513481
C  C461  1  0.70760000  0.30380000  0.92580000  1.0 0.6003117137
C  C462  1  0.70930000  0.31740000  0.89350000  1.0 -0.026876802
C  C463  1  0.70810000  0.29180000  0.85850000  1.0 -0.1085818005
C  C464  1  0.70760000  0.35300000  0.90320000  1.0 -0.1431812175
C  C465  1  0.70890000  0.36672000  0.87202000  1.0 0.0584921142
C  C466  1  0.70920000  0.40450000  0.88150000  1.0 -0.1477117369
C  C467  1  0.91760000  0.30910000  0.03430000  1.0 -0.0616614912
C  C468  1  0.87920000  0.29900000  0.03420000  1.0 -0.067513481
C  C469  1  0.88520000  0.30080000  0.96440000  1.0 -0.067513481
C  C470  1  0.88180000  0.32540000  0.03440000  1.0 -0.067513481
C  C471  1  0.37800000  0.78180000  0.07420000  1.0 0.6003117137
C  C472  1  0.42390000  0.81580000  0.10650000  1.0 -0.026876802
C  C473  1  0.43330000  0.84960000  0.14150000  1.0 -0.1085818005
C  C474  1  0.44980000  0.80440000  0.09680000  1.0 -0.1431812175
C  C475  1  0.49470000  0.83688000  0.12798000  1.0 0.0584921142
C  C476  1  0.52300000  0.82770000  0.11850000  1.0 -0.1477117369
C  C477  1  0.27480000  0.88330000  0.96570000  1.0 -0.067513481
C  C478  1  0.26480000  0.84500000  0.96580000  1.0 -0.067513481
C  C479  1  0.33640000  0.92080000  0.03560000  1.0 -0.067513481
C  C480  1  0.29100000  0.84740000  0.96560000  1.0 -0.067513481
C  C481  1  0.28140000  0.00000000  0.80560000  1.0 0.4788589327
C  C482  1  0.29020000  0.00000000  0.84340000  1.0 -0.0459136049
C  C483  1  0.31180000  0.00000000  0.92060000  1.0 0.0281001094
C  C484  1  0.32090000  0.00000000  0.96150000  1.0 0.089839782
C  C485  1  0.80560000  0.00000000  0.28140000  1.0 0.4788589327
C  C486  1  0.84340000  0.00000000  0.29020000  1.0 -0.0459136049
C  C487  1  0.92060000  0.00000000  0.31180000  1.0 0.0281001094
C  C488  1  0.96150000  0.00000000  0.32090000  1.0 0.089839782
C  C489  1  0.71860000  0.52420000  0.71860000  1.0 0.4788589327
C  C490  1  0.70980000  0.55320000  0.70980000  1.0 -0.0459136049
C  C491  1  0.68820000  0.60880000  0.68820000  1.0 0.0281001094
C  C492  1  0.67910000  0.64060000  0.67910000  1.0 0.089839782
C  C493  1  0.19440000  0.47580000  0.19440000  1.0 0.4788589327
C  C494  1  0.15660000  0.44680000  0.15660000  1.0 -0.0459136049
C  C495  1  0.07940000  0.39120000  0.07940000  1.0 0.0281001094
C  C496  1  0.03850000  0.35940000  0.03850000  1.0 0.089839782
C  C497  1  0.28140000  0.80560000  0.00000000  1.0 0.4788589327
C  C498  1  0.29020000  0.84340000  0.00000000  1.0 -0.0459136049
C  C499  1  0.31180000  0.92060000  0.00000000  1.0 0.0281001094
C  C500  1  0.32090000  0.96150000  0.00000000  1.0 0.089839782
C  C501  1  0.80560000  0.28140000  0.00000000  1.0 0.4788589327
C  C502  1  0.84340000  0.29020000  0.00000000  1.0 -0.0459136049
C  C503  1  0.92060000  0.31180000  0.00000000  1.0 0.0281001094
C  C504  1  0.96150000  0.32090000  0.00000000  1.0 0.089839782
C  C505  1  0.19440000  0.19440000  0.47580000  1.0 0.4788589327
C  C506  1  0.15660000  0.15660000  0.44680000  1.0 -0.0459136049
C  C507  1  0.07940000  0.07940000  0.39120000  1.0 0.0281001094
C  C508  1  0.03850000  0.03850000  0.35940000  1.0 0.089839782
C  C509  1  0.71860000  0.71860000  0.52420000  1.0 0.4788589327
C  C510  1  0.70980000  0.70980000  0.55320000  1.0 -0.0459136049
C  C511  1  0.68820000  0.68820000  0.60880000  1.0 0.0281001094
C  C512  1  0.67910000  0.67910000  0.64060000  1.0 0.098469532
C  C513  1  0.47580000  0.19440000  0.19440000  1.0 0.4788589327
C  C514  1  0.44680000  0.15660000  0.15660000  1.0 -0.0459136049
C  C515  1  0.39120000  0.07940000  0.07940000  1.0 0.0281001094
C  C516  1  0.35940000  0.03850000  0.03850000  1.0 0.089839782
C  C517  1  0.52420000  0.71860000  0.71860000  1.0 0.4788589327
C  C518  1  0.55320000  0.70980000  0.70980000  1.0 -0.0459136049
C  C519  1  0.60880000  0.68820000  0.68820000  1.0 0.0281001094
C  C520  1  0.64060000  0.67910000  0.67910000  1.0 0.089839782
C  C521  1  0.00000000  0.28140000  0.80560000  1.0 0.4788589327
C  C522  1  0.00000000  0.29020000  0.84340000  1.0 -0.0459136049
C  C523  1  0.00000000  0.31180000  0.92060000  1.0 0.0281001094
C  C524  1  0.00000000  0.32090000  0.96150000  1.0 0.089839782
C  C525  1  0.00000000  0.80560000  0.28140000  1.0 0.4788589327
C  C526  1  0.00000000  0.84340000  0.29020000  1.0 -0.0459136049
C  C527  1  0.00000000  0.92060000  0.31180000  1.0 0.0281001094
C  C528  1  0.00000000  0.96150000  0.32090000  1.0 0.089839782
C  C529  1  0.19440000  0.00000000  0.71860000  1.0 0.4788589327
C  C530  1  0.15660000  0.00000000  0.70980000  1.0 -0.0459136049
C  C531  1  0.07940000  0.00000000  0.68820000  1.0 0.0281001094
C  C532  1  0.03850000  0.00000000  0.67910000  1.0 0.089839782
C  C533  1  0.71860000  0.00000000  0.19440000  1.0 0.4788589327
C  C534  1  0.70980000  0.00000000  0.15660000  1.0 -0.0459136049
C  C535  1  0.68820000  0.00000000  0.07940000  1.0 0.0281001094
C  C536  1  0.67910000  0.00000000  0.03850000  1.0 0.089839782
C  C537  1  0.28140000  0.47580000  0.28140000  1.0 0.4788589327
C  C538  1  0.29020000  0.44680000  0.29020000  1.0 -0.0459136049
C  C539  1  0.31180000  0.39120000  0.31180000  1.0 0.0281001094
C  C540  1  0.32090000  0.35940000  0.32090000  1.0 0.089839782
C  C541  1  0.80560000  0.52420000  0.80560000  1.0 0.4788589327
C  C542  1  0.84340000  0.55320000  0.84340000  1.0 -0.0459136049
C  C543  1  0.92060000  0.60880000  0.92060000  1.0 0.0281001094
C  C544  1  0.96150000  0.64060000  0.96150000  1.0 0.089839782
C  C545  1  0.00000000  0.19440000  0.71860000  1.0 0.4788589327
C  C546  1  0.00000000  0.15660000  0.70980000  1.0 -0.0459136049
C  C547  1  0.00000000  0.07940000  0.68820000  1.0 0.0281001094
C  C548  1  0.00000000  0.03850000  0.67910000  1.0 0.089839782
C  C549  1  0.00000000  0.71860000  0.19440000  1.0 0.4788589327
C  C550  1  0.00000000  0.70980000  0.15660000  1.0 -0.0459136049
C  C551  1  0.00000000  0.68820000  0.07940000  1.0 0.0281001094
C  C552  1  0.00000000  0.67910000  0.03850000  1.0 0.089839782
C  C553  1  0.52420000  0.80560000  0.80560000  1.0 0.4788589327
C  C554  1  0.55320000  0.84340000  0.84340000  1.0 -0.0459136049
C  C555  1  0.60880000  0.92060000  0.92060000  1.0 0.0281001094
C  C556  1  0.64060000  0.96150000  0.96150000  1.0 0.089839782
C  C557  1  0.47580000  0.28140000  0.28140000  1.0 0.4788589327
C  C558  1  0.44680000  0.29020000  0.29020000  1.0 -0.0459136049
C  C559  1  0.39120000  0.31180000  0.31180000  1.0 0.0281001094
C  C560  1  0.35940000  0.32090000  0.32090000  1.0 0.089839782
C  C561  1  0.80560000  0.80560000  0.52420000  1.0 0.4788589327
C  C562  1  0.84340000  0.84340000  0.55320000  1.0 -0.0459136049
C  C563  1  0.92060000  0.92060000  0.60880000  1.0 0.0281001094
C  C564  1  0.96150000  0.96150000  0.64060000  1.0 0.089839782
C  C565  1  0.28140000  0.28140000  0.47580000  1.0 0.4788589327
C  C566  1  0.29020000  0.29020000  0.44680000  1.0 -0.0459136049
C  C567  1  0.31180000  0.31180000  0.39120000  1.0 0.0281001094
C  C568  1  0.32090000  0.32090000  0.35940000  1.0 0.089839782
C  C569  1  0.19440000  0.71860000  0.00000000  1.0 0.4788589327
C  C570  1  0.15660000  0.70980000  0.00000000  1.0 -0.0459136049
C  C571  1  0.07940000  0.68820000  0.00000000  1.0 0.0281001094
C  C572  1  0.03850000  0.67910000  0.00000000  1.0 0.089839782
C  C573  1  0.71860000  0.19440000  0.00000000  1.0 0.4788589327
C  C574  1  0.70980000  0.15660000  0.00000000  1.0 -0.0459136049
C  C575  1  0.68820000  0.07940000  0.00000000  1.0 0.0281001094
C  C576  1  0.67910000  0.03850000  0.00000000  1.0 0.089839782
C  C577  1  0.30800000  0.96140000  0.96140000  1.0 -0.2987587888
C  C578  1  0.00000000  0.03860000  0.34660000  1.0 -0.2987587888
C  C579  1  0.69200000  0.65340000  0.65340000  1.0 -0.2987587888
C  C580  1  0.00000000  0.34660000  0.03860000  1.0 -0.2987587888
C  C581  1  0.34660000  0.00000000  0.03860000  1.0 -0.2987587888
C  C582  1  0.96140000  0.30800000  0.96140000  1.0 -0.2987587888
C  C583  1  0.03860000  0.00000000  0.34660000  1.0 -0.2987587888
C  C584  1  0.65340000  0.69200000  0.65340000  1.0 -0.2987587888
C  C585  1  0.34660000  0.03860000  0.00000000  1.0 -0.2987587888
C  C586  1  0.65340000  0.65340000  0.69200000  1.0 -0.2987587888
C  C587  1  0.03860000  0.34660000  0.00000000  1.0 -0.2987587888
C  C588  1  0.96140000  0.96140000  0.30800000  1.0 -0.2987587888
C  C589  1  0.03860000  0.03860000  0.69200000  1.0 -0.2987587888
C  C590  1  0.65340000  0.96140000  0.00000000  1.0 -0.2987587888
C  C591  1  0.34660000  0.34660000  0.30800000  1.0 -0.2987587888
C  C592  1  0.96140000  0.65340000  0.00000000  1.0 -0.2987587888
C  C593  1  0.96140000  0.00000000  0.65340000  1.0 -0.2987587888
C  C594  1  0.03860000  0.69200000  0.03860000  1.0 -0.2987587888
C  C595  1  0.65340000  0.00000000  0.96140000  1.0 -0.2987587888
C  C596  1  0.34660000  0.30800000  0.34660000  1.0 -0.2987587888
C  C597  1  0.00000000  0.96140000  0.65340000  1.0 -0.2987587888
C  C598  1  0.30800000  0.34660000  0.34660000  1.0 -0.2987587888
C  C599  1  0.00000000  0.65340000  0.96140000  1.0 -0.2987587888
C  C600  1  0.69200000  0.03860000  0.03860000  1.0 -0.2987587888
O  O1  1  0.36455000  0.04560000  0.74555000  1.0 -0.5332970422
O  O2  1  0.35257000  0.08090000  0.79187000  1.0 -0.5131086622
O  O3  1  0.29219000  0.03576000  0.80659000  1.0 -0.5131086622
O  O4  1  0.69995000  0.95440000  0.31895000  1.0 -0.5332970422
O  O5  1  0.71097000  0.91910000  0.27167000  1.0 -0.5131086622
O  O6  1  0.77083000  0.96424000  0.25643000  1.0 -0.5131086622
O  O7  1  0.63545000  0.38100000  0.68105000  1.0 -0.5332970422
O  O8  1  0.64743000  0.43930000  0.72833000  1.0 -0.5131086622
O  O9  1  0.70781000  0.51440000  0.74357000  1.0 -0.5131086622
O  O10  1  0.30005000  0.61900000  0.25445000  1.0 -0.5332970422
O  O11  1  0.28903000  0.56070000  0.20813000  1.0 -0.5131086622
O  O12  1  0.22917000  0.48560000  0.19341000  1.0 -0.5131086622
O  O13  1  0.31895000  0.69995000  0.95440000  1.0 -0.5332970422
O  O14  1  0.27167000  0.71097000  0.91910000  1.0 -0.5131086622
O  O15  1  0.25643000  0.77083000  0.96424000  1.0 -0.5131086622
O  O16  1  0.74555000  0.36455000  0.04560000  1.0 -0.5332970422
O  O17  1  0.79187000  0.35257000  0.08090000  1.0 -0.5131086622
O  O18  1  0.80659000  0.29219000  0.03576000  1.0 -0.5131086622
O  O19  1  0.25445000  0.30005000  0.61900000  1.0 -0.5332970422
O  O20  1  0.20813000  0.28903000  0.56070000  1.0 -0.5131086622
O  O21  1  0.19341000  0.22917000  0.48560000  1.0 -0.5131086622
O  O22  1  0.68105000  0.63545000  0.38100000  1.0 -0.5332970422
O  O23  1  0.72833000  0.64743000  0.43930000  1.0 -0.5131086622
O  O24  1  0.74357000  0.70781000  0.51440000  1.0 -0.5131086622
O  O25  1  0.61900000  0.25445000  0.30005000  1.0 -0.5332970422
O  O26  1  0.56070000  0.20813000  0.28903000  1.0 -0.5131086622
O  O27  1  0.48560000  0.19341000  0.22917000  1.0 -0.5131086622
O  O28  1  0.38100000  0.68105000  0.63545000  1.0 -0.5332970422
O  O29  1  0.43930000  0.72833000  0.64743000  1.0 -0.5131086622
O  O30  1  0.51440000  0.74357000  0.70781000  1.0 -0.5131086622
O  O31  1  0.95440000  0.31895000  0.69995000  1.0 -0.5332970422
O  O32  1  0.91910000  0.27167000  0.71097000  1.0 -0.5131086622
O  O33  1  0.96424000  0.25643000  0.77083000  1.0 -0.5131086622
O  O34  1  0.04560000  0.74555000  0.36455000  1.0 -0.5332970422
O  O35  1  0.08090000  0.79187000  0.35257000  1.0 -0.5131086622
O  O36  1  0.03576000  0.80659000  0.29219000  1.0 -0.5131086622
O  O37  1  0.25445000  0.95440000  0.63545000  1.0 -0.5332970422
O  O38  1  0.20813000  0.91910000  0.64743000  1.0 -0.5131086622
O  O39  1  0.19341000  0.96424000  0.70781000  1.0 -0.5131086622
O  O40  1  0.68105000  0.04560000  0.30005000  1.0 -0.5332970422
O  O41  1  0.72833000  0.08090000  0.28903000  1.0 -0.5131086622
O  O42  1  0.74357000  0.03576000  0.22917000  1.0 -0.5131086622
O  O43  1  0.31895000  0.61900000  0.36455000  1.0 -0.5332970422
O  O44  1  0.27167000  0.56070000  0.35257000  1.0 -0.5131086622
O  O45  1  0.25643000  0.48560000  0.29219000  1.0 -0.5131086622
O  O46  1  0.74555000  0.38100000  0.69995000  1.0 -0.5332970422
O  O47  1  0.79187000  0.43930000  0.71097000  1.0 -0.5131086622
O  O48  1  0.80659000  0.51440000  0.77083000  1.0 -0.5131086622
O  O49  1  0.04560000  0.30005000  0.68105000  1.0 -0.5332970422
O  O50  1  0.08090000  0.28903000  0.72833000  1.0 -0.5131086622
O  O51  1  0.03576000  0.22917000  0.74357000  1.0 -0.5131086622
O  O52  1  0.95440000  0.63545000  0.25445000  1.0 -0.5332970422
O  O53  1  0.91910000  0.64743000  0.20813000  1.0 -0.5131086622
O  O54  1  0.96424000  0.70781000  0.19341000  1.0 -0.5131086622
O  O55  1  0.38100000  0.69995000  0.74555000  1.0 -0.5332970422
O  O56  1  0.43930000  0.71097000  0.79187000  1.0 -0.5131086622
O  O57  1  0.51440000  0.77083000  0.80659000  1.0 -0.5131086622
O  O58  1  0.61900000  0.36455000  0.31895000  1.0 -0.5332970422
O  O59  1  0.56070000  0.35257000  0.27167000  1.0 -0.5131086622
O  O60  1  0.48560000  0.29219000  0.25643000  1.0 -0.5131086622
O  O61  1  0.69995000  0.74555000  0.38100000  1.0 -0.5332970422
O  O62  1  0.71097000  0.79187000  0.43930000  1.0 -0.5131086622
O  O63  1  0.77083000  0.80659000  0.51440000  1.0 -0.5131086622
O  O64  1  0.36455000  0.31895000  0.61900000  1.0 -0.5332970422
O  O65  1  0.35257000  0.27167000  0.56070000  1.0 -0.5131086622
O  O66  1  0.29219000  0.25643000  0.48560000  1.0 -0.5131086622
O  O67  1  0.30005000  0.68105000  0.04560000  1.0 -0.5332970422
O  O68  1  0.28903000  0.72833000  0.08090000  1.0 -0.5131086622
O  O69  1  0.22917000  0.74357000  0.03576000  1.0 -0.5131086622
O  O70  1  0.63545000  0.25445000  0.95440000  1.0 -0.5332970422
O  O71  1  0.64743000  0.20813000  0.91910000  1.0 -0.5131086622
O  O72  1  0.70781000  0.19341000  0.96424000  1.0 -0.5131086622
O  O73  1  0.63545000  0.95440000  0.25445000  1.0 -0.5332970422
O  O74  1  0.64743000  0.91910000  0.20813000  1.0 -0.5131086622
O  O75  1  0.70781000  0.96424000  0.19341000  1.0 -0.5131086622
O  O76  1  0.30005000  0.04560000  0.68105000  1.0 -0.5332970422
O  O77  1  0.28903000  0.08090000  0.72833000  1.0 -0.5131086622
O  O78  1  0.22917000  0.03576000  0.74357000  1.0 -0.5131086622
O  O79  1  0.36455000  0.61900000  0.31895000  1.0 -0.5332970422
O  O80  1  0.35257000  0.56070000  0.27167000  1.0 -0.5131086622
O  O81  1  0.29219000  0.48560000  0.25643000  1.0 -0.5131086622
O  O82  1  0.69995000  0.38100000  0.74555000  1.0 -0.5332970422
O  O83  1  0.71097000  0.43930000  0.79187000  1.0 -0.5131086622
O  O84  1  0.77083000  0.51440000  0.80659000  1.0 -0.5131086622
O  O85  1  0.68105000  0.30005000  0.04560000  1.0 -0.5332970422
O  O86  1  0.72833000  0.28903000  0.08090000  1.0 -0.5131086622
O  O87  1  0.74357000  0.22917000  0.03576000  1.0 -0.5131086622
O  O88  1  0.25445000  0.63545000  0.95440000  1.0 -0.5332970422
O  O89  1  0.20813000  0.64743000  0.91910000  1.0 -0.5131086622
O  O90  1  0.19341000  0.70781000  0.96424000  1.0 -0.5131086622
O  O91  1  0.74555000  0.69995000  0.38100000  1.0 -0.5332970422
O  O92  1  0.79187000  0.71097000  0.43930000  1.0 -0.5131086622
O  O93  1  0.80659000  0.77083000  0.51440000  1.0 -0.5131086622
O  O94  1  0.31895000  0.36455000  0.61900000  1.0 -0.5332970422
O  O95  1  0.27167000  0.35257000  0.56070000  1.0 -0.5131086622
O  O96  1  0.25643000  0.29219000  0.48560000  1.0 -0.5131086622
O  O97  1  0.38100000  0.74555000  0.69995000  1.0 -0.5332970422
O  O98  1  0.43930000  0.79187000  0.71097000  1.0 -0.5131086622
O  O99  1  0.51440000  0.80659000  0.77083000  1.0 -0.5131086622
O  O100  1  0.61900000  0.31895000  0.36455000  1.0 -0.5332970422
O  O101  1  0.56070000  0.27167000  0.35257000  1.0 -0.5131086622
O  O102  1  0.48560000  0.25643000  0.29219000  1.0 -0.5131086622
O  O103  1  0.04560000  0.68105000  0.30005000  1.0 -0.5332970422
O  O104  1  0.08090000  0.72833000  0.28903000  1.0 -0.5131086622
O  O105  1  0.03576000  0.74357000  0.22917000  1.0 -0.5131086622
O  O106  1  0.95440000  0.25445000  0.63545000  1.0 -0.5332970422
O  O107  1  0.91910000  0.20813000  0.64743000  1.0 -0.5131086622
O  O108  1  0.96424000  0.19341000  0.70781000  1.0 -0.5131086622
O  O109  1  0.74555000  0.04560000  0.36455000  1.0 -0.5332970422
O  O110  1  0.79187000  0.08090000  0.35257000  1.0 -0.5131086622
O  O111  1  0.80659000  0.03576000  0.29219000  1.0 -0.5131086622
O  O112  1  0.31895000  0.95440000  0.69995000  1.0 -0.5332970422
O  O113  1  0.27167000  0.91910000  0.71097000  1.0 -0.5131086622
O  O114  1  0.25643000  0.96424000  0.77083000  1.0 -0.5131086622
O  O115  1  0.68105000  0.38100000  0.63545000  1.0 -0.5332970422
O  O116  1  0.72833000  0.43930000  0.64743000  1.0 -0.5131086622
O  O117  1  0.74357000  0.51440000  0.70781000  1.0 -0.5131086622
O  O118  1  0.25445000  0.61900000  0.30005000  1.0 -0.5332970422
O  O119  1  0.20813000  0.56070000  0.28903000  1.0 -0.5131086622
O  O120  1  0.19341000  0.48560000  0.22917000  1.0 -0.5131086622
O  O121  1  0.95440000  0.69995000  0.31895000  1.0 -0.5332970422
O  O122  1  0.91910000  0.71097000  0.27167000  1.0 -0.5131086622
O  O123  1  0.96424000  0.77083000  0.25643000  1.0 -0.5131086622
O  O124  1  0.04560000  0.36455000  0.74555000  1.0 -0.5332970422
O  O125  1  0.08090000  0.35257000  0.79187000  1.0 -0.5131086622
O  O126  1  0.03576000  0.29219000  0.80659000  1.0 -0.5131086622
O  O127  1  0.61900000  0.30005000  0.25445000  1.0 -0.5332970422
O  O128  1  0.56070000  0.28903000  0.20813000  1.0 -0.5131086622
O  O129  1  0.48560000  0.22917000  0.19341000  1.0 -0.5131086622
O  O130  1  0.38100000  0.63545000  0.68105000  1.0 -0.5332970422
O  O131  1  0.43930000  0.64743000  0.72833000  1.0 -0.5131086622
O  O132  1  0.51440000  0.70781000  0.74357000  1.0 -0.5131086622
O  O133  1  0.30005000  0.25445000  0.61900000  1.0 -0.5332970422
O  O134  1  0.28903000  0.20813000  0.56070000  1.0 -0.5131086622
O  O135  1  0.22917000  0.19341000  0.48560000  1.0 -0.5131086622
O  O136  1  0.63545000  0.68105000  0.38100000  1.0 -0.5332970422
O  O137  1  0.64743000  0.72833000  0.43930000  1.0 -0.5131086622
O  O138  1  0.70781000  0.74357000  0.51440000  1.0 -0.5131086622
O  O139  1  0.69995000  0.31895000  0.95440000  1.0 -0.5332970422
O  O140  1  0.71097000  0.27167000  0.91910000  1.0 -0.5131086622
O  O141  1  0.77083000  0.25643000  0.96424000  1.0 -0.5131086622
O  O142  1  0.36455000  0.74555000  0.04560000  1.0 -0.5332970422
O  O143  1  0.35257000  0.79187000  0.08090000  1.0 -0.5131086622
O  O144  1  0.29219000  0.80659000  0.03576000  1.0 -0.5131086622
O  O145  1  0.27710000  0.00000000  0.72290000  1.0 -0.9062199843
O  O146  1  0.72290000  0.00000000  0.27710000  1.0 -0.9062199843
O  O147  1  0.72290000  0.44580000  0.72290000  1.0 -0.9062199843
O  O148  1  0.27710000  0.55420000  0.27710000  1.0 -0.9062199843
O  O149  1  0.27710000  0.72290000  0.00000000  1.0 -0.9062199843
O  O150  1  0.72290000  0.27710000  0.00000000  1.0 -0.9062199843
O  O151  1  0.27710000  0.27710000  0.55420000  1.0 -0.9062199843
O  O152  1  0.72290000  0.72290000  0.44580000  1.0 -0.9062199843
O  O153  1  0.55420000  0.27710000  0.27710000  1.0 -0.9062199843
O  O154  1  0.44580000  0.72290000  0.72290000  1.0 -0.9062199843
O  O155  1  0.00000000  0.27710000  0.72290000  1.0 -0.9062199843
O  O156  1  0.00000000  0.72290000  0.27710000  1.0 -0.9062199843
