# DDEC6 charges by PACMAN v1.1 (https://github.com/mtap-research/PACMAN-charge/)
data_MIJYEK_FSR_pacman
_symmetry_space_group_name_H-M   'P 1'
_cell_length_a   6.56000000
_cell_length_b   11.41100000
_cell_length_c   18.92900000
_cell_angle_alpha   90.00000000
_cell_angle_beta   90.00000000
_cell_angle_gamma   90.00000000
_symmetry_Int_Tables_number   1
_chemical_formula_structural   La2C4NO13
_chemical_formula_sum   'La8 C16 N4 O52'
_cell_volume   1416.95225264
_cell_formula_units_Z   4
loop_
 _symmetry_equiv_pos_site_id
 _symmetry_equiv_pos_as_xyz
  1  'x, y, z'
loop_
 _atom_site_type_symbol
 _atom_site_label
 _atom_site_symmetry_multiplicity
 _atom_site_fract_x
 _atom_site_fract_y
 _atom_site_fract_z
 _atom_site_occupancy
 _atom_site_charge
La  La1  1  0.86248000  0.00000000  0.24714000  1.0 1.7699790932
La  La2  1  0.13752000  0.00000000  0.75286000  1.0 1.7699790932
La  La3  1  0.36248000  0.50000000  0.25286000  1.0 1.7699790932
La  La4  1  0.63752000  0.50000000  0.74714000  1.0 1.7699790932
La  La5  1  0.75247000  0.50000000  0.08065000  1.0 1.7699790932
La  La6  1  0.24753000  0.50000000  0.91935000  1.0 1.7699790932
La  La7  1  0.25247000  0.00000000  0.41935000  1.0 1.7699790932
La  La8  1  0.74753000  0.00000000  0.58065000  1.0 1.7699790932
C  C1  1  0.74320000  0.72230000  0.20591000  1.0 0.4934294932
C  C2  1  0.25680000  0.72230000  0.79409000  1.0 0.4934294932
C  C3  1  0.24320000  0.77770000  0.29409000  1.0 0.4934294932
C  C4  1  0.75680000  0.77770000  0.70591000  1.0 0.4934294932
C  C5  1  0.25680000  0.27770000  0.79409000  1.0 0.4934294932
C  C6  1  0.74320000  0.27770000  0.20591000  1.0 0.4934294932
C  C7  1  0.75680000  0.22230000  0.70591000  1.0 0.4934294932
C  C8  1  0.24320000  0.22230000  0.29409000  1.0 0.4934294932
C  C9  1  0.85460000  0.77020000  0.13970000  1.0 0.5136088021
C  C10  1  0.14540000  0.77020000  0.86030000  1.0 0.5136088021
C  C11  1  0.35460000  0.72980000  0.36030000  1.0 0.5136088021
C  C12  1  0.64540000  0.72980000  0.63970000  1.0 0.5136088021
C  C13  1  0.14540000  0.22980000  0.86030000  1.0 0.5136088021
C  C14  1  0.85460000  0.22980000  0.13970000  1.0 0.5136088021
C  C15  1  0.64540000  0.27020000  0.63970000  1.0 0.5136088021
C  C16  1  0.35460000  0.27020000  0.36030000  1.0 0.5136088021
N  N1  1  0.70480000  0.00000000  0.39230000  1.0 0.7273330378
N  N2  1  0.29520000  0.00000000  0.60770000  1.0 0.7273330378
N  N3  1  0.20480000  0.50000000  0.10770000  1.0 0.724963177
N  N4  1  0.79520000  0.50000000  0.89230000  1.0 0.7273330378
O  O1  1  0.73220000  0.78870000  0.25785000  1.0 -0.5205672048
O  O2  1  0.26780000  0.78870000  0.74215000  1.0 -0.5205672048
O  O3  1  0.23220000  0.71130000  0.24215000  1.0 -0.5205672048
O  O4  1  0.76780000  0.71130000  0.75785000  1.0 -0.5205672048
O  O5  1  0.26780000  0.21130000  0.74215000  1.0 -0.5205672048
O  O6  1  0.73220000  0.21130000  0.25785000  1.0 -0.5205672048
O  O7  1  0.76780000  0.28870000  0.75785000  1.0 -0.5205672048
O  O8  1  0.23220000  0.28870000  0.24215000  1.0 -0.5205672048
O  O9  1  0.67410000  0.61990000  0.20082000  1.0 -0.5851848237
O  O10  1  0.32590000  0.61990000  0.79918000  1.0 -0.5851848237
O  O11  1  0.17410000  0.88010000  0.29918000  1.0 -0.5851848237
O  O12  1  0.82590000  0.88010000  0.70082000  1.0 -0.5844519399
O  O13  1  0.32590000  0.38010000  0.79918000  1.0 -0.5844519399
O  O14  1  0.67410000  0.38010000  0.20082000  1.0 -0.5851848237
O  O15  1  0.82590000  0.11990000  0.70082000  1.0 -0.5844519399
O  O16  1  0.17410000  0.11990000  0.29918000  1.0 -0.5844519399
O  O17  1  0.92700000  0.87250000  0.14428000  1.0 -0.5359470583
O  O18  1  0.07300000  0.87250000  0.85572000  1.0 -0.5359470583
O  O19  1  0.42700000  0.62750000  0.35572000  1.0 -0.5359470583
O  O20  1  0.57300000  0.62750000  0.64428000  1.0 -0.5359470583
O  O21  1  0.07300000  0.12750000  0.85572000  1.0 -0.5359470583
O  O22  1  0.92700000  0.12750000  0.14428000  1.0 -0.5359470583
O  O23  1  0.57300000  0.37250000  0.64428000  1.0 -0.5359470583
O  O24  1  0.42700000  0.37250000  0.35572000  1.0 -0.5359470583
O  O25  1  0.86800000  0.70640000  0.08688000  1.0 -0.5305629335
O  O26  1  0.13200000  0.70640000  0.91312000  1.0 -0.5305629335
O  O27  1  0.36800000  0.79360000  0.41312000  1.0 -0.5305629335
O  O28  1  0.63200000  0.79360000  0.58688000  1.0 -0.5305629335
O  O29  1  0.13200000  0.29360000  0.91312000  1.0 -0.5305629335
O  O30  1  0.86800000  0.29360000  0.08688000  1.0 -0.5305629335
O  O31  1  0.63200000  0.20640000  0.58688000  1.0 -0.5305629335
O  O32  1  0.36800000  0.20640000  0.41312000  1.0 -0.5305629335
O  O33  1  0.89610000  0.00000000  0.37810000  1.0 -0.5205672048
O  O34  1  0.10390000  0.00000000  0.62190000  1.0 -0.5205672048
O  O35  1  0.39610000  0.50000000  0.12190000  1.0 -0.5205672048
O  O36  1  0.60390000  0.50000000  0.87810000  1.0 -0.5205672048
O  O37  1  0.57930000  0.00000000  0.33986000  1.0 -0.5205672048
O  O38  1  0.42070000  0.00000000  0.66014000  1.0 -0.5205672048
O  O39  1  0.07930000  0.50000000  0.16014000  1.0 -0.5205672048
O  O40  1  0.92070000  0.50000000  0.83986000  1.0 -0.5205672048
O  O41  1  0.63720000  0.00000000  0.45459000  1.0 -0.4930056843
O  O42  1  0.36280000  0.00000000  0.54541000  1.0 -0.4951802306
O  O43  1  0.13720000  0.50000000  0.04541000  1.0 -0.4930056843
O  O44  1  0.86280000  0.50000000  0.95459000  1.0 -0.4930056843
O  O45  1  0.51340000  0.00000000  0.18270000  1.0 -0.0824506469
O  O46  1  0.48660000  0.00000000  0.81730000  1.0 -0.0824506469
O  O47  1  0.01340000  0.50000000  0.31730000  1.0 -0.0824506469
O  O48  1  0.98660000  0.50000000  0.68270000  1.0 -0.0824506469
O  O49  1  0.50000000  0.36310000  0.00000000  1.0 -0.3198498152
O  O50  1  0.00000000  0.13690000  0.50000000  1.0 -0.3198498152
O  O51  1  0.50000000  0.63690000  0.00000000  1.0 -0.3198498152
O  O52  1  0.00000000  0.86310000  0.50000000  1.0 -0.3198498152
