# DDEC6 charges by PACMAN v1.1 (https://github.com/mtap-research/PACMAN-charge/)
data_MILROQ_ASR_pacman
_symmetry_space_group_name_H-M   'P 1'
_cell_length_a   39.70500000
_cell_length_b   39.70500000
_cell_length_c   27.20100000
_cell_angle_alpha   90.00000000
_cell_angle_beta   90.00000000
_cell_angle_gamma   90.00000000
_symmetry_Int_Tables_number   1
_chemical_formula_structural   Cu9H65C77N13O12
_chemical_formula_sum   'Cu72 H520 C616 N104 O96'
_cell_volume   42882.02356702
_cell_formula_units_Z   8
loop_
 _symmetry_equiv_pos_site_id
 _symmetry_equiv_pos_as_xyz
  1  'x, y, z'
loop_
 _atom_site_type_symbol
 _atom_site_label
 _atom_site_symmetry_multiplicity
 _atom_site_fract_x
 _atom_site_fract_y
 _atom_site_fract_z
 _atom_site_occupancy
 _atom_site_charge
Cu  Cu1  1  0.50000000  0.00000000  0.72642000  1.0 0.8662541115
Cu  Cu2  1  0.50000000  0.00000000  0.22642000  1.0 0.8662541115
Cu  Cu3  1  0.50000000  0.00000000  0.62917000  1.0 0.7892844433
Cu  Cu4  1  0.50000000  0.00000000  0.12917000  1.0 0.7892844433
Cu  Cu5  1  0.73723000  0.50000000  0.42234000  1.0 0.7669484073
Cu  Cu6  1  0.26277000  0.50000000  0.42234000  1.0 0.7669484073
Cu  Cu7  1  0.00000000  0.76277000  0.92234000  1.0 0.7669484073
Cu  Cu8  1  0.00000000  0.23723000  0.92234000  1.0 0.7669484073
Cu  Cu9  1  0.67018000  0.50000000  0.42730000  1.0 0.8594018572
Cu  Cu10  1  0.32982000  0.50000000  0.42730000  1.0 0.8594018572
Cu  Cu11  1  0.00000000  0.82982000  0.92730000  1.0 0.8594018572
Cu  Cu12  1  0.00000000  0.17018000  0.92730000  1.0 0.8594018572
Cu  Cu13  1  0.76171000  0.74037000  0.67583000  1.0 0.2163774723
Cu  Cu14  1  0.23829000  0.25963000  0.67583000  1.0 0.2128327065
Cu  Cu15  1  0.24037000  0.73829000  0.17583000  1.0 0.2163774723
Cu  Cu16  1  0.75963000  0.26171000  0.17583000  1.0 0.2163774723
Cu  Cu17  1  0.76171000  0.25963000  0.67583000  1.0 0.2163774723
Cu  Cu18  1  0.75963000  0.73829000  0.17583000  1.0 0.2163774723
Cu  Cu19  1  0.23829000  0.74037000  0.67583000  1.0 0.2128327065
Cu  Cu20  1  0.24037000  0.26171000  0.17583000  1.0 0.2163774723
Cu  Cu21  1  0.73427000  0.80929000  0.71856000  1.0 0.170788517
Cu  Cu22  1  0.26573000  0.19071000  0.71856000  1.0 0.1794480414
Cu  Cu23  1  0.30929000  0.76573000  0.21856000  1.0 0.1794480414
Cu  Cu24  1  0.69071000  0.23427000  0.21856000  1.0 0.170788517
Cu  Cu25  1  0.73427000  0.19071000  0.71856000  1.0 0.1794480414
Cu  Cu26  1  0.69071000  0.76573000  0.21856000  1.0 0.1794480414
Cu  Cu27  1  0.26573000  0.80929000  0.71856000  1.0 0.170788517
Cu  Cu28  1  0.30929000  0.23427000  0.21856000  1.0 0.1794480414
Cu  Cu29  1  0.68920000  0.76289000  0.64489000  1.0 0.1978201702
Cu  Cu30  1  0.31080000  0.23711000  0.64489000  1.0 0.1978201702
Cu  Cu31  1  0.26289000  0.81080000  0.14489000  1.0 0.1978201702
Cu  Cu32  1  0.73711000  0.18920000  0.14489000  1.0 0.1978201702
Cu  Cu33  1  0.68920000  0.23711000  0.64489000  1.0 0.1978201702
Cu  Cu34  1  0.73711000  0.81080000  0.14489000  1.0 0.1978201702
Cu  Cu35  1  0.31080000  0.76289000  0.64489000  1.0 0.1978201702
Cu  Cu36  1  0.26289000  0.18920000  0.14489000  1.0 0.1978201702
Cu  Cu37  1  0.00000000  0.50000000  0.77358000  1.0 0.8662541115
Cu  Cu38  1  0.00000000  0.50000000  0.27358000  1.0 0.8662541115
Cu  Cu39  1  0.00000000  0.50000000  0.87083000  1.0 0.7892844433
Cu  Cu40  1  0.00000000  0.50000000  0.37083000  1.0 0.7892844433
Cu  Cu41  1  0.76277000  0.00000000  0.07766000  1.0 0.7669484073
Cu  Cu42  1  0.50000000  0.73723000  0.57766000  1.0 0.7669484073
Cu  Cu43  1  0.23723000  0.00000000  0.07766000  1.0 0.7669484073
Cu  Cu44  1  0.50000000  0.26277000  0.57766000  1.0 0.7669484073
Cu  Cu45  1  0.82982000  0.00000000  0.07270000  1.0 0.8594018572
Cu  Cu46  1  0.50000000  0.67018000  0.57270000  1.0 0.8594018572
Cu  Cu47  1  0.17018000  0.00000000  0.07270000  1.0 0.8594018572
Cu  Cu48  1  0.50000000  0.32982000  0.57270000  1.0 0.8594018572
Cu  Cu49  1  0.73829000  0.24037000  0.82417000  1.0 0.2163774723
Cu  Cu50  1  0.74037000  0.76171000  0.32417000  1.0 0.2163774723
Cu  Cu51  1  0.26171000  0.75963000  0.82417000  1.0 0.2163774723
Cu  Cu52  1  0.25963000  0.23829000  0.32417000  1.0 0.2128327065
Cu  Cu53  1  0.73829000  0.75963000  0.82417000  1.0 0.2163774723
Cu  Cu54  1  0.26171000  0.24037000  0.82417000  1.0 0.2128327065
Cu  Cu55  1  0.25963000  0.76171000  0.32417000  1.0 0.2163774723
Cu  Cu56  1  0.74037000  0.23829000  0.32417000  1.0 0.2128327065
Cu  Cu57  1  0.76573000  0.30929000  0.78144000  1.0 0.1794480414
Cu  Cu58  1  0.80929000  0.73427000  0.28144000  1.0 0.170788517
Cu  Cu59  1  0.23427000  0.69071000  0.78144000  1.0 0.170788517
Cu  Cu60  1  0.19071000  0.26573000  0.28144000  1.0 0.1794480414
Cu  Cu61  1  0.76573000  0.69071000  0.78144000  1.0 0.1794480414
Cu  Cu62  1  0.23427000  0.30929000  0.78144000  1.0 0.1794480414
Cu  Cu63  1  0.19071000  0.73427000  0.28144000  1.0 0.1794480414
Cu  Cu64  1  0.80929000  0.26573000  0.28144000  1.0 0.170788517
Cu  Cu65  1  0.81080000  0.26289000  0.85511000  1.0 0.1978201702
Cu  Cu66  1  0.76289000  0.68920000  0.35511000  1.0 0.1978201702
Cu  Cu67  1  0.18920000  0.73711000  0.85511000  1.0 0.1978201702
Cu  Cu68  1  0.23711000  0.31080000  0.35511000  1.0 0.1978201702
Cu  Cu69  1  0.81080000  0.73711000  0.85511000  1.0 0.1978201702
Cu  Cu70  1  0.18920000  0.26289000  0.85511000  1.0 0.1978201702
Cu  Cu71  1  0.23711000  0.68920000  0.35511000  1.0 0.1978201702
Cu  Cu72  1  0.76289000  0.31080000  0.35511000  1.0 0.1978201702
H  H1  1  0.61320000  0.87860000  0.60550000  1.0 0.1204412564
H  H2  1  0.38680000  0.12140000  0.60550000  1.0 0.1204412564
H  H3  1  0.37860000  0.88680000  0.10550000  1.0 0.1204412564
H  H4  1  0.62140000  0.11320000  0.10550000  1.0 0.1204412564
H  H5  1  0.61320000  0.12140000  0.60550000  1.0 0.1204412564
H  H6  1  0.62140000  0.88680000  0.10550000  1.0 0.1204412564
H  H7  1  0.38680000  0.87860000  0.60550000  1.0 0.1204412564
H  H8  1  0.37860000  0.11320000  0.10550000  1.0 0.1204412564
H  H9  1  0.61650000  0.88430000  0.75390000  1.0 0.1204412564
H  H10  1  0.38350000  0.11570000  0.75390000  1.0 0.1204412564
H  H11  1  0.38430000  0.88350000  0.25390000  1.0 0.1204412564
H  H12  1  0.61570000  0.11650000  0.25390000  1.0 0.1204412564
H  H13  1  0.61650000  0.11570000  0.75390000  1.0 0.1204412564
H  H14  1  0.61570000  0.88350000  0.25390000  1.0 0.1204412564
H  H15  1  0.38350000  0.88430000  0.75390000  1.0 0.1204412564
H  H16  1  0.38430000  0.11650000  0.25390000  1.0 0.1204412564
H  H17  1  0.57400000  0.92300000  0.60420000  1.0 0.1204412564
H  H18  1  0.42600000  0.07700000  0.60420000  1.0 0.1204412564
H  H19  1  0.42300000  0.92600000  0.10420000  1.0 0.1204412564
H  H20  1  0.57700000  0.07400000  0.10420000  1.0 0.1204412564
H  H21  1  0.57400000  0.07700000  0.60420000  1.0 0.1204412564
H  H22  1  0.57700000  0.92600000  0.10420000  1.0 0.1204412564
H  H23  1  0.42600000  0.92300000  0.60420000  1.0 0.1204412564
H  H24  1  0.42300000  0.07400000  0.10420000  1.0 0.1204412564
H  H25  1  0.57420000  0.92530000  0.75190000  1.0 0.1204412564
H  H26  1  0.42580000  0.07470000  0.75190000  1.0 0.1303457446
H  H27  1  0.42530000  0.92580000  0.25190000  1.0 0.1204412564
H  H28  1  0.57470000  0.07420000  0.25190000  1.0 0.1303457446
H  H29  1  0.57420000  0.07470000  0.75190000  1.0 0.1303457446
H  H30  1  0.57470000  0.92580000  0.25190000  1.0 0.1204412564
H  H31  1  0.42580000  0.92530000  0.75190000  1.0 0.1204412564
H  H32  1  0.42530000  0.07420000  0.25190000  1.0 0.1303457446
H  H33  1  0.62460000  0.78320000  0.61510000  1.0 0.1473295626
H  H34  1  0.37540000  0.21680000  0.61510000  1.0 0.1473295626
H  H35  1  0.28320000  0.87540000  0.11510000  1.0 0.1473295626
H  H36  1  0.71680000  0.12460000  0.11510000  1.0 0.1473295626
H  H37  1  0.62460000  0.21680000  0.61510000  1.0 0.1473295626
H  H38  1  0.71680000  0.87540000  0.11510000  1.0 0.1473295626
H  H39  1  0.37540000  0.78320000  0.61510000  1.0 0.1473295626
H  H40  1  0.28320000  0.12460000  0.11510000  1.0 0.1473295626
H  H41  1  0.59910000  0.81370000  0.62460000  1.0 0.1388553874
H  H42  1  0.40090000  0.18630000  0.62460000  1.0 0.1388553874
H  H43  1  0.31370000  0.90090000  0.12460000  1.0 0.1388553874
H  H44  1  0.68630000  0.09910000  0.12460000  1.0 0.1388553874
H  H45  1  0.59910000  0.18630000  0.62460000  1.0 0.1388553874
H  H46  1  0.68630000  0.90090000  0.12460000  1.0 0.1388553874
H  H47  1  0.40090000  0.81370000  0.62460000  1.0 0.1388553874
H  H48  1  0.31370000  0.09910000  0.12460000  1.0 0.1388553874
H  H49  1  0.62790000  0.81720000  0.58370000  1.0 0.1557045349
H  H50  1  0.37210000  0.18280000  0.58370000  1.0 0.1557045349
H  H51  1  0.31720000  0.87210000  0.08370000  1.0 0.1557045349
H  H52  1  0.68280000  0.12790000  0.08370000  1.0 0.1557045349
H  H53  1  0.62790000  0.18280000  0.58370000  1.0 0.1557045349
H  H54  1  0.68280000  0.87210000  0.08370000  1.0 0.1473295626
H  H55  1  0.37210000  0.81720000  0.58370000  1.0 0.1557045349
H  H56  1  0.31720000  0.12790000  0.08370000  1.0 0.1557045349
H  H57  1  0.66110000  0.58170000  0.53960000  1.0 0.1303457446
H  H58  1  0.33890000  0.41830000  0.53960000  1.0 0.1303457446
H  H59  1  0.08170000  0.83890000  0.03960000  1.0 0.1303457446
H  H60  1  0.91830000  0.16110000  0.03960000  1.0 0.1303457446
H  H61  1  0.66110000  0.41830000  0.53960000  1.0 0.1303457446
H  H62  1  0.91830000  0.83890000  0.03960000  1.0 0.1303457446
H  H63  1  0.33890000  0.58170000  0.53960000  1.0 0.1303457446
H  H64  1  0.08170000  0.16110000  0.03960000  1.0 0.1303457446
H  H65  1  0.76360000  0.64140000  0.53800000  1.0 0.1096678562
H  H66  1  0.23640000  0.35860000  0.53800000  1.0 0.1096678562
H  H67  1  0.14140000  0.73640000  0.03800000  1.0 0.1096678562
H  H68  1  0.85860000  0.26360000  0.03800000  1.0 0.1096678562
H  H69  1  0.76360000  0.35860000  0.53800000  1.0 0.1096678562
H  H70  1  0.85860000  0.73640000  0.03800000  1.0 0.1096678562
H  H71  1  0.23640000  0.64140000  0.53800000  1.0 0.1096678562
H  H72  1  0.14140000  0.26360000  0.03800000  1.0 0.1096678562
H  H73  1  0.71130000  0.87940000  0.74190000  1.0 0.1388553874
H  H74  1  0.28870000  0.12060000  0.74190000  1.0 0.1388553874
H  H75  1  0.37940000  0.78870000  0.24190000  1.0 0.1388553874
H  H76  1  0.62060000  0.21130000  0.24190000  1.0 0.1388553874
H  H77  1  0.71130000  0.12060000  0.74190000  1.0 0.1388553874
H  H78  1  0.62060000  0.78870000  0.24190000  1.0 0.1388553874
H  H79  1  0.28870000  0.87940000  0.74190000  1.0 0.1388553874
H  H80  1  0.37940000  0.21130000  0.24190000  1.0 0.1388553874
H  H81  1  0.67520000  0.89730000  0.74530000  1.0 0.1303457446
H  H82  1  0.32480000  0.10270000  0.74530000  1.0 0.1303457446
H  H83  1  0.39730000  0.82480000  0.24530000  1.0 0.1303457446
H  H84  1  0.60270000  0.17520000  0.24530000  1.0 0.1303457446
H  H85  1  0.67520000  0.10270000  0.74530000  1.0 0.1303457446
H  H86  1  0.60270000  0.82480000  0.24530000  1.0 0.1303457446
H  H87  1  0.32480000  0.89730000  0.74530000  1.0 0.1303457446
H  H88  1  0.39730000  0.17520000  0.24530000  1.0 0.1303457446
H  H89  1  0.68410000  0.86650000  0.78100000  1.0 0.1388553874
H  H90  1  0.31590000  0.13350000  0.78100000  1.0 0.1388553874
H  H91  1  0.36650000  0.81590000  0.28100000  1.0 0.1388553874
H  H92  1  0.63350000  0.18410000  0.28100000  1.0 0.1388553874
H  H93  1  0.68410000  0.13350000  0.78100000  1.0 0.1388553874
H  H94  1  0.63350000  0.81590000  0.28100000  1.0 0.1388553874
H  H95  1  0.31590000  0.86650000  0.78100000  1.0 0.1388553874
H  H96  1  0.36650000  0.18410000  0.28100000  1.0 0.1388553874
H  H97  1  0.75990000  0.58850000  0.49870000  1.0 0.1204412564
H  H98  1  0.24010000  0.41150000  0.49870000  1.0 0.1303457446
H  H99  1  0.08850000  0.74010000  0.99870000  1.0 0.1303457446
H  H100  1  0.91150000  0.25990000  0.99870000  1.0 0.1204412564
H  H101  1  0.75990000  0.41150000  0.49870000  1.0 0.1204412564
H  H102  1  0.91150000  0.74010000  0.99870000  1.0 0.1303457446
H  H103  1  0.24010000  0.58850000  0.49870000  1.0 0.1303457446
H  H104  1  0.08850000  0.25990000  0.99870000  1.0 0.1303457446
H  H105  1  0.92160000  0.74820000  0.82420000  1.0 0.1204412564
H  H106  1  0.07840000  0.25180000  0.82420000  1.0 0.1204412564
H  H107  1  0.24820000  0.57840000  0.32420000  1.0 0.1204412564
H  H108  1  0.75180000  0.42160000  0.32420000  1.0 0.1204412564
H  H109  1  0.92160000  0.25180000  0.82420000  1.0 0.1204412564
H  H110  1  0.75180000  0.57840000  0.32420000  1.0 0.1204412564
H  H111  1  0.07840000  0.74820000  0.82420000  1.0 0.1204412564
H  H112  1  0.24820000  0.42160000  0.32420000  1.0 0.1204412564
H  H113  1  0.91950000  0.84970000  0.82240000  1.0 0.1303457446
H  H114  1  0.08050000  0.15030000  0.82240000  1.0 0.1303457446
H  H115  1  0.34970000  0.58050000  0.32240000  1.0 0.1303457446
H  H116  1  0.65030000  0.41950000  0.32240000  1.0 0.1303457446
H  H117  1  0.91950000  0.15030000  0.82240000  1.0 0.1303457446
H  H118  1  0.65030000  0.58050000  0.32240000  1.0 0.1303457446
H  H119  1  0.08050000  0.84970000  0.82240000  1.0 0.1303457446
H  H120  1  0.34970000  0.41950000  0.32240000  1.0 0.1303457446
H  H121  1  0.86820000  0.84410000  0.78250000  1.0 0.1204412564
H  H122  1  0.13180000  0.15590000  0.78250000  1.0 0.1204412564
H  H123  1  0.34410000  0.63180000  0.28250000  1.0 0.1204412564
H  H124  1  0.65590000  0.36820000  0.28250000  1.0 0.1204412564
H  H125  1  0.86820000  0.15590000  0.78250000  1.0 0.1204412564
H  H126  1  0.65590000  0.63180000  0.28250000  1.0 0.1204412564
H  H127  1  0.13180000  0.84410000  0.78250000  1.0 0.1204412564
H  H128  1  0.34410000  0.36820000  0.28250000  1.0 0.1204412564
H  H129  1  0.65150000  0.72250000  0.56590000  1.0 0.1473295626
H  H130  1  0.34850000  0.27750000  0.56590000  1.0 0.1473295626
H  H131  1  0.22250000  0.84850000  0.06590000  1.0 0.1473295626
H  H132  1  0.77750000  0.15150000  0.06590000  1.0 0.1473295626
H  H133  1  0.65150000  0.27750000  0.56590000  1.0 0.1473295626
H  H134  1  0.77750000  0.84850000  0.06590000  1.0 0.1473295626
H  H135  1  0.34850000  0.72250000  0.56590000  1.0 0.1473295626
H  H136  1  0.22250000  0.15150000  0.06590000  1.0 0.1473295626
H  H137  1  0.65430000  0.68440000  0.54730000  1.0 0.1473295626
H  H138  1  0.34570000  0.31560000  0.54730000  1.0 0.1473295626
H  H139  1  0.18440000  0.84570000  0.04730000  1.0 0.1473295626
H  H140  1  0.81560000  0.15430000  0.04730000  1.0 0.1473295626
H  H141  1  0.65430000  0.31560000  0.54730000  1.0 0.1473295626
H  H142  1  0.81560000  0.84570000  0.04730000  1.0 0.1473295626
H  H143  1  0.34570000  0.68440000  0.54730000  1.0 0.1473295626
H  H144  1  0.18440000  0.15430000  0.04730000  1.0 0.1473295626
H  H145  1  0.64020000  0.69230000  0.60120000  1.0 0.1473295626
H  H146  1  0.35980000  0.30770000  0.60120000  1.0 0.1473295626
H  H147  1  0.19230000  0.85980000  0.10120000  1.0 0.1473295626
H  H148  1  0.80770000  0.14020000  0.10120000  1.0 0.1473295626
H  H149  1  0.64020000  0.30770000  0.60120000  1.0 0.1473295626
H  H150  1  0.80770000  0.85980000  0.10120000  1.0 0.1473295626
H  H151  1  0.35980000  0.69230000  0.60120000  1.0 0.1473295626
H  H152  1  0.19230000  0.14020000  0.10120000  1.0 0.1473295626
H  H153  1  0.77720000  0.84260000  0.79890000  1.0 0.1388553874
H  H154  1  0.22280000  0.15740000  0.79890000  1.0 0.1388553874
H  H155  1  0.34260000  0.72280000  0.29890000  1.0 0.1388553874
H  H156  1  0.65740000  0.27720000  0.29890000  1.0 0.1388553874
H  H157  1  0.77720000  0.15740000  0.79890000  1.0 0.1388553874
H  H158  1  0.65740000  0.72280000  0.29890000  1.0 0.1388553874
H  H159  1  0.22280000  0.84260000  0.79890000  1.0 0.1388553874
H  H160  1  0.34260000  0.27720000  0.29890000  1.0 0.1388553874
H  H161  1  0.81700000  0.84800000  0.80390000  1.0 0.1303457446
H  H162  1  0.18300000  0.15200000  0.80390000  1.0 0.1303457446
H  H163  1  0.34800000  0.68300000  0.30390000  1.0 0.1303457446
H  H164  1  0.65200000  0.31700000  0.30390000  1.0 0.1303457446
H  H165  1  0.81700000  0.15200000  0.80390000  1.0 0.1303457446
H  H166  1  0.65200000  0.68300000  0.30390000  1.0 0.1303457446
H  H167  1  0.18300000  0.84800000  0.80390000  1.0 0.1303457446
H  H168  1  0.34800000  0.31700000  0.30390000  1.0 0.1303457446
H  H169  1  0.79760000  0.86120000  0.75610000  1.0 0.1473295626
H  H170  1  0.20240000  0.13880000  0.75610000  1.0 0.1473295626
H  H171  1  0.36120000  0.70240000  0.25610000  1.0 0.1473295626
H  H172  1  0.63880000  0.29760000  0.25610000  1.0 0.1473295626
H  H173  1  0.79760000  0.13880000  0.75610000  1.0 0.1473295626
H  H174  1  0.63880000  0.70240000  0.25610000  1.0 0.1473295626
H  H175  1  0.20240000  0.86120000  0.75610000  1.0 0.1473295626
H  H176  1  0.36120000  0.29760000  0.25610000  1.0 0.1473295626
H  H177  1  0.66710000  0.63100000  0.58780000  1.0 0.1204412564
H  H178  1  0.33290000  0.36900000  0.58780000  1.0 0.1204412564
H  H179  1  0.13100000  0.83290000  0.08780000  1.0 0.1204412564
H  H180  1  0.86900000  0.16710000  0.08780000  1.0 0.1204412564
H  H181  1  0.66710000  0.36900000  0.58780000  1.0 0.1204412564
H  H182  1  0.86900000  0.83290000  0.08780000  1.0 0.1204412564
H  H183  1  0.33290000  0.63100000  0.58780000  1.0 0.1204412564
H  H184  1  0.13100000  0.16710000  0.08780000  1.0 0.1204412564
H  H185  1  0.88570000  0.50000000  0.39950000  1.0 0.1204412564
H  H186  1  0.11430000  0.50000000  0.39950000  1.0 0.1204412564
H  H187  1  0.00000000  0.61430000  0.89950000  1.0 0.1204412564
H  H188  1  0.00000000  0.38570000  0.89950000  1.0 0.1204412564
H  H189  1  0.85640000  0.55100000  0.40500000  1.0 0.1096678562
H  H190  1  0.14360000  0.44900000  0.40500000  1.0 0.1096678562
H  H191  1  0.05100000  0.64360000  0.90500000  1.0 0.1096678562
H  H192  1  0.94900000  0.35640000  0.90500000  1.0 0.1096678562
H  H193  1  0.85640000  0.44900000  0.40500000  1.0 0.1096678562
H  H194  1  0.94900000  0.64360000  0.90500000  1.0 0.1096678562
H  H195  1  0.14360000  0.55100000  0.40500000  1.0 0.1096678562
H  H196  1  0.05100000  0.35640000  0.90500000  1.0 0.1096678562
H  H197  1  0.79790000  0.55100000  0.41580000  1.0 0.1096678562
H  H198  1  0.20210000  0.44900000  0.41580000  1.0 0.1096678562
H  H199  1  0.05100000  0.70210000  0.91580000  1.0 0.1096678562
H  H200  1  0.94900000  0.29790000  0.91580000  1.0 0.1096678562
H  H201  1  0.79790000  0.44900000  0.41580000  1.0 0.1096678562
H  H202  1  0.94900000  0.70210000  0.91580000  1.0 0.1096678562
H  H203  1  0.20210000  0.55100000  0.41580000  1.0 0.1096678562
H  H204  1  0.05100000  0.29790000  0.91580000  1.0 0.1096678562
H  H205  1  0.86820000  0.74300000  0.79110000  1.0 0.1096678562
H  H206  1  0.13180000  0.25700000  0.79110000  1.0 0.1096678562
H  H207  1  0.24300000  0.63180000  0.29110000  1.0 0.1096678562
H  H208  1  0.75700000  0.36820000  0.29110000  1.0 0.1096678562
H  H209  1  0.86820000  0.25700000  0.79110000  1.0 0.1096678562
H  H210  1  0.75700000  0.63180000  0.29110000  1.0 0.1096678562
H  H211  1  0.13180000  0.74300000  0.79110000  1.0 0.1096678562
H  H212  1  0.24300000  0.36820000  0.29110000  1.0 0.1096678562
H  H213  1  0.84890000  0.71780000  0.73500000  1.0 0.1388553874
H  H214  1  0.15110000  0.28220000  0.73500000  1.0 0.1388553874
H  H215  1  0.21780000  0.65110000  0.23500000  1.0 0.1388553874
H  H216  1  0.78220000  0.34890000  0.23500000  1.0 0.1388553874
H  H217  1  0.84890000  0.28220000  0.73500000  1.0 0.1388553874
H  H218  1  0.78220000  0.65110000  0.23500000  1.0 0.1388553874
H  H219  1  0.15110000  0.71780000  0.73500000  1.0 0.1388553874
H  H220  1  0.21780000  0.34890000  0.23500000  1.0 0.1388553874
H  H221  1  0.82710000  0.71590000  0.68570000  1.0 0.1303457446
H  H222  1  0.17290000  0.28410000  0.68570000  1.0 0.1303457446
H  H223  1  0.21590000  0.67290000  0.18570000  1.0 0.1303457446
H  H224  1  0.78410000  0.32710000  0.18570000  1.0 0.1303457446
H  H225  1  0.82710000  0.28410000  0.68570000  1.0 0.1303457446
H  H226  1  0.78410000  0.67290000  0.18570000  1.0 0.1388553874
H  H227  1  0.17290000  0.71590000  0.68570000  1.0 0.1303457446
H  H228  1  0.21590000  0.32710000  0.18570000  1.0 0.1303457446
H  H229  1  0.86090000  0.73790000  0.68710000  1.0 0.1557045349
H  H230  1  0.13910000  0.26210000  0.68710000  1.0 0.1557045349
H  H231  1  0.23790000  0.63910000  0.18710000  1.0 0.1557045349
H  H232  1  0.76210000  0.36090000  0.18710000  1.0 0.1557045349
H  H233  1  0.86090000  0.26210000  0.68710000  1.0 0.1557045349
H  H234  1  0.76210000  0.63910000  0.18710000  1.0 0.1557045349
H  H235  1  0.13910000  0.73790000  0.68710000  1.0 0.1557045349
H  H236  1  0.23790000  0.36090000  0.18710000  1.0 0.1557045349
H  H237  1  0.78830000  0.67770000  0.65260000  1.0 0.1303457446
H  H238  1  0.21170000  0.32230000  0.65260000  1.0 0.1303457446
H  H239  1  0.17770000  0.71170000  0.15260000  1.0 0.1303457446
H  H240  1  0.82230000  0.28830000  0.15260000  1.0 0.1303457446
H  H241  1  0.78830000  0.32230000  0.65260000  1.0 0.1303457446
H  H242  1  0.82230000  0.71170000  0.15260000  1.0 0.1303457446
H  H243  1  0.21170000  0.67770000  0.65260000  1.0 0.1303457446
H  H244  1  0.17770000  0.28830000  0.15260000  1.0 0.1303457446
H  H245  1  0.77390000  0.64310000  0.63070000  1.0 0.1473295626
H  H246  1  0.22610000  0.35690000  0.63070000  1.0 0.1473295626
H  H247  1  0.14310000  0.72610000  0.13070000  1.0 0.1473295626
H  H248  1  0.85690000  0.27390000  0.13070000  1.0 0.1473295626
H  H249  1  0.77390000  0.35690000  0.63070000  1.0 0.1473295626
H  H250  1  0.85690000  0.72610000  0.13070000  1.0 0.1473295626
H  H251  1  0.22610000  0.64310000  0.63070000  1.0 0.1473295626
H  H252  1  0.14310000  0.27390000  0.13070000  1.0 0.1473295626
H  H253  1  0.79070000  0.67030000  0.59490000  1.0 0.1473295626
H  H254  1  0.20930000  0.32970000  0.59490000  1.0 0.1473295626
H  H255  1  0.17030000  0.70930000  0.09490000  1.0 0.1473295626
H  H256  1  0.82970000  0.29070000  0.09490000  1.0 0.1473295626
H  H257  1  0.79070000  0.32970000  0.59490000  1.0 0.1473295626
H  H258  1  0.82970000  0.70930000  0.09490000  1.0 0.1473295626
H  H259  1  0.20930000  0.67030000  0.59490000  1.0 0.1473295626
H  H260  1  0.17030000  0.29070000  0.09490000  1.0 0.1473295626
H  H261  1  0.88680000  0.37860000  0.89450000  1.0 0.1204412564
H  H262  1  0.87860000  0.61320000  0.39450000  1.0 0.1204412564
H  H263  1  0.11320000  0.62140000  0.89450000  1.0 0.1204412564
H  H264  1  0.12140000  0.38680000  0.39450000  1.0 0.1204412564
H  H265  1  0.88680000  0.62140000  0.89450000  1.0 0.1204412564
H  H266  1  0.11320000  0.37860000  0.89450000  1.0 0.1204412564
H  H267  1  0.12140000  0.61320000  0.39450000  1.0 0.1204412564
H  H268  1  0.87860000  0.38680000  0.39450000  1.0 0.1204412564
H  H269  1  0.88350000  0.38430000  0.74610000  1.0 0.1204412564
H  H270  1  0.88430000  0.61650000  0.24610000  1.0 0.1204412564
H  H271  1  0.11650000  0.61570000  0.74610000  1.0 0.1204412564
H  H272  1  0.11570000  0.38350000  0.24610000  1.0 0.1204412564
H  H273  1  0.88350000  0.61570000  0.74610000  1.0 0.1204412564
H  H274  1  0.11650000  0.38430000  0.74610000  1.0 0.1204412564
H  H275  1  0.11570000  0.61650000  0.24610000  1.0 0.1204412564
H  H276  1  0.88430000  0.38350000  0.24610000  1.0 0.1204412564
H  H277  1  0.92600000  0.42300000  0.89580000  1.0 0.1204412564
H  H278  1  0.92300000  0.57400000  0.39580000  1.0 0.1204412564
H  H279  1  0.07400000  0.57700000  0.89580000  1.0 0.1204412564
H  H280  1  0.07700000  0.42600000  0.39580000  1.0 0.1204412564
H  H281  1  0.92600000  0.57700000  0.89580000  1.0 0.1204412564
H  H282  1  0.07400000  0.42300000  0.89580000  1.0 0.1204412564
H  H283  1  0.07700000  0.57400000  0.39580000  1.0 0.1204412564
H  H284  1  0.92300000  0.42600000  0.39580000  1.0 0.1204412564
H  H285  1  0.92580000  0.42530000  0.74810000  1.0 0.1204412564
H  H286  1  0.92530000  0.57420000  0.24810000  1.0 0.1204412564
H  H287  1  0.07420000  0.57470000  0.74810000  1.0 0.1303457446
H  H288  1  0.07470000  0.42580000  0.24810000  1.0 0.1303457446
H  H289  1  0.92580000  0.57470000  0.74810000  1.0 0.1204412564
H  H290  1  0.07420000  0.42530000  0.74810000  1.0 0.1204412564
H  H291  1  0.07470000  0.57420000  0.24810000  1.0 0.1303457446
H  H292  1  0.92530000  0.42580000  0.24810000  1.0 0.1204412564
H  H293  1  0.87540000  0.28320000  0.88490000  1.0 0.1473295626
H  H294  1  0.78320000  0.62460000  0.38490000  1.0 0.1473295626
H  H295  1  0.12460000  0.71680000  0.88490000  1.0 0.1473295626
H  H296  1  0.21680000  0.37540000  0.38490000  1.0 0.1473295626
H  H297  1  0.87540000  0.71680000  0.88490000  1.0 0.1473295626
H  H298  1  0.12460000  0.28320000  0.88490000  1.0 0.1473295626
H  H299  1  0.21680000  0.62460000  0.38490000  1.0 0.1473295626
H  H300  1  0.78320000  0.37540000  0.38490000  1.0 0.1473295626
H  H301  1  0.90090000  0.31370000  0.87540000  1.0 0.1388553874
H  H302  1  0.81370000  0.59910000  0.37540000  1.0 0.1388553874
H  H303  1  0.09910000  0.68630000  0.87540000  1.0 0.1388553874
H  H304  1  0.18630000  0.40090000  0.37540000  1.0 0.1388553874
H  H305  1  0.90090000  0.68630000  0.87540000  1.0 0.1388553874
H  H306  1  0.09910000  0.31370000  0.87540000  1.0 0.1388553874
H  H307  1  0.18630000  0.59910000  0.37540000  1.0 0.1388553874
H  H308  1  0.81370000  0.40090000  0.37540000  1.0 0.1388553874
H  H309  1  0.87210000  0.31720000  0.91630000  1.0 0.1557045349
H  H310  1  0.81720000  0.62790000  0.41630000  1.0 0.1557045349
H  H311  1  0.12790000  0.68280000  0.91630000  1.0 0.1557045349
H  H312  1  0.18280000  0.37210000  0.41630000  1.0 0.1557045349
H  H313  1  0.87210000  0.68280000  0.91630000  1.0 0.1557045349
H  H314  1  0.12790000  0.31720000  0.91630000  1.0 0.1557045349
H  H315  1  0.18280000  0.62790000  0.41630000  1.0 0.1557045349
H  H316  1  0.81720000  0.37210000  0.41630000  1.0 0.1557045349
H  H317  1  0.83890000  0.08170000  0.96040000  1.0 0.1303457446
H  H318  1  0.58170000  0.66110000  0.46040000  1.0 0.1303457446
H  H319  1  0.16110000  0.91830000  0.96040000  1.0 0.1303457446
H  H320  1  0.41830000  0.33890000  0.46040000  1.0 0.1303457446
H  H321  1  0.83890000  0.91830000  0.96040000  1.0 0.1303457446
H  H322  1  0.16110000  0.08170000  0.96040000  1.0 0.1303457446
H  H323  1  0.41830000  0.66110000  0.46040000  1.0 0.1303457446
H  H324  1  0.58170000  0.33890000  0.46040000  1.0 0.1303457446
H  H325  1  0.73640000  0.14140000  0.96200000  1.0 0.1096678562
H  H326  1  0.64140000  0.76360000  0.46200000  1.0 0.1096678562
H  H327  1  0.26360000  0.85860000  0.96200000  1.0 0.1096678562
H  H328  1  0.35860000  0.23640000  0.46200000  1.0 0.1096678562
H  H329  1  0.73640000  0.85860000  0.96200000  1.0 0.1096678562
H  H330  1  0.26360000  0.14140000  0.96200000  1.0 0.1096678562
H  H331  1  0.35860000  0.76360000  0.46200000  1.0 0.1096678562
H  H332  1  0.64140000  0.23640000  0.46200000  1.0 0.1096678562
H  H333  1  0.78870000  0.37940000  0.75810000  1.0 0.1388553874
H  H334  1  0.87940000  0.71130000  0.25810000  1.0 0.1388553874
H  H335  1  0.21130000  0.62060000  0.75810000  1.0 0.1388553874
H  H336  1  0.12060000  0.28870000  0.25810000  1.0 0.1388553874
H  H337  1  0.78870000  0.62060000  0.75810000  1.0 0.1388553874
H  H338  1  0.21130000  0.37940000  0.75810000  1.0 0.1388553874
H  H339  1  0.12060000  0.71130000  0.25810000  1.0 0.1388553874
H  H340  1  0.87940000  0.28870000  0.25810000  1.0 0.1388553874
H  H341  1  0.82480000  0.39730000  0.75470000  1.0 0.1303457446
H  H342  1  0.89730000  0.67520000  0.25470000  1.0 0.1303457446
H  H343  1  0.17520000  0.60270000  0.75470000  1.0 0.1303457446
H  H344  1  0.10270000  0.32480000  0.25470000  1.0 0.1303457446
H  H345  1  0.82480000  0.60270000  0.75470000  1.0 0.1303457446
H  H346  1  0.17520000  0.39730000  0.75470000  1.0 0.1303457446
H  H347  1  0.10270000  0.67520000  0.25470000  1.0 0.1303457446
H  H348  1  0.89730000  0.32480000  0.25470000  1.0 0.1303457446
H  H349  1  0.81590000  0.36650000  0.71900000  1.0 0.1388553874
H  H350  1  0.86650000  0.68410000  0.21900000  1.0 0.1388553874
H  H351  1  0.18410000  0.63350000  0.71900000  1.0 0.1388553874
H  H352  1  0.13350000  0.31590000  0.21900000  1.0 0.1388553874
H  H353  1  0.81590000  0.63350000  0.71900000  1.0 0.1388553874
H  H354  1  0.18410000  0.36650000  0.71900000  1.0 0.1388553874
H  H355  1  0.13350000  0.68410000  0.21900000  1.0 0.1388553874
H  H356  1  0.86650000  0.31590000  0.21900000  1.0 0.1388553874
H  H357  1  0.74010000  0.08850000  0.00130000  1.0 0.1204412564
H  H358  1  0.58850000  0.75990000  0.50130000  1.0 0.1303457446
H  H359  1  0.25990000  0.91150000  0.00130000  1.0 0.1204412564
H  H360  1  0.41150000  0.24010000  0.50130000  1.0 0.1303457446
H  H361  1  0.74010000  0.91150000  0.00130000  1.0 0.1204412564
H  H362  1  0.25990000  0.08850000  0.00130000  1.0 0.1204412564
H  H363  1  0.41150000  0.75990000  0.50130000  1.0 0.1303457446
H  H364  1  0.58850000  0.24010000  0.50130000  1.0 0.1303457446
H  H365  1  0.57840000  0.24820000  0.67580000  1.0 0.1204412564
H  H366  1  0.74820000  0.92160000  0.17580000  1.0 0.1204412564
H  H367  1  0.42160000  0.75180000  0.67580000  1.0 0.1204412564
H  H368  1  0.25180000  0.07840000  0.17580000  1.0 0.1204412564
H  H369  1  0.57840000  0.75180000  0.67580000  1.0 0.1204412564
H  H370  1  0.42160000  0.24820000  0.67580000  1.0 0.1204412564
H  H371  1  0.25180000  0.92160000  0.17580000  1.0 0.1204412564
H  H372  1  0.74820000  0.07840000  0.17580000  1.0 0.1204412564
H  H373  1  0.58050000  0.34970000  0.67760000  1.0 0.1303457446
H  H374  1  0.84970000  0.91950000  0.17760000  1.0 0.1303457446
H  H375  1  0.41950000  0.65030000  0.67760000  1.0 0.1303457446
H  H376  1  0.15030000  0.08050000  0.17760000  1.0 0.1303457446
H  H377  1  0.58050000  0.65030000  0.67760000  1.0 0.1303457446
H  H378  1  0.41950000  0.34970000  0.67760000  1.0 0.1303457446
H  H379  1  0.15030000  0.91950000  0.17760000  1.0 0.1303457446
H  H380  1  0.84970000  0.08050000  0.17760000  1.0 0.1303457446
H  H381  1  0.63180000  0.34410000  0.71750000  1.0 0.1204412564
H  H382  1  0.84410000  0.86820000  0.21750000  1.0 0.1204412564
H  H383  1  0.36820000  0.65590000  0.71750000  1.0 0.1204412564
H  H384  1  0.15590000  0.13180000  0.21750000  1.0 0.1204412564
H  H385  1  0.63180000  0.65590000  0.71750000  1.0 0.1204412564
H  H386  1  0.36820000  0.34410000  0.71750000  1.0 0.1204412564
H  H387  1  0.15590000  0.86820000  0.21750000  1.0 0.1204412564
H  H388  1  0.84410000  0.13180000  0.21750000  1.0 0.1204412564
H  H389  1  0.84850000  0.22250000  0.93410000  1.0 0.1473295626
H  H390  1  0.72250000  0.65150000  0.43410000  1.0 0.1473295626
H  H391  1  0.15150000  0.77750000  0.93410000  1.0 0.1473295626
H  H392  1  0.27750000  0.34850000  0.43410000  1.0 0.1473295626
H  H393  1  0.84850000  0.77750000  0.93410000  1.0 0.1473295626
H  H394  1  0.15150000  0.22250000  0.93410000  1.0 0.1473295626
H  H395  1  0.27750000  0.65150000  0.43410000  1.0 0.1473295626
H  H396  1  0.72250000  0.34850000  0.43410000  1.0 0.1473295626
H  H397  1  0.84570000  0.18440000  0.95270000  1.0 0.1473295626
H  H398  1  0.68440000  0.65430000  0.45270000  1.0 0.1473295626
H  H399  1  0.15430000  0.81560000  0.95270000  1.0 0.1473295626
H  H400  1  0.31560000  0.34570000  0.45270000  1.0 0.1473295626
H  H401  1  0.84570000  0.81560000  0.95270000  1.0 0.1473295626
H  H402  1  0.15430000  0.18440000  0.95270000  1.0 0.1473295626
H  H403  1  0.31560000  0.65430000  0.45270000  1.0 0.1473295626
H  H404  1  0.68440000  0.34570000  0.45270000  1.0 0.1473295626
H  H405  1  0.85980000  0.19230000  0.89880000  1.0 0.1473295626
H  H406  1  0.69230000  0.64020000  0.39880000  1.0 0.1473295626
H  H407  1  0.14020000  0.80770000  0.89880000  1.0 0.1473295626
H  H408  1  0.30770000  0.35980000  0.39880000  1.0 0.1473295626
H  H409  1  0.85980000  0.80770000  0.89880000  1.0 0.1473295626
H  H410  1  0.14020000  0.19230000  0.89880000  1.0 0.1473295626
H  H411  1  0.30770000  0.64020000  0.39880000  1.0 0.1473295626
H  H412  1  0.69230000  0.35980000  0.39880000  1.0 0.1473295626
H  H413  1  0.72280000  0.34260000  0.70110000  1.0 0.1388553874
H  H414  1  0.84260000  0.77720000  0.20110000  1.0 0.1388553874
H  H415  1  0.27720000  0.65740000  0.70110000  1.0 0.1388553874
H  H416  1  0.15740000  0.22280000  0.20110000  1.0 0.1388553874
H  H417  1  0.72280000  0.65740000  0.70110000  1.0 0.1388553874
H  H418  1  0.27720000  0.34260000  0.70110000  1.0 0.1388553874
H  H419  1  0.15740000  0.77720000  0.20110000  1.0 0.1388553874
H  H420  1  0.84260000  0.22280000  0.20110000  1.0 0.1388553874
H  H421  1  0.68300000  0.34800000  0.69610000  1.0 0.1303457446
H  H422  1  0.84800000  0.81700000  0.19610000  1.0 0.1303457446
H  H423  1  0.31700000  0.65200000  0.69610000  1.0 0.1303457446
H  H424  1  0.15200000  0.18300000  0.19610000  1.0 0.1303457446
H  H425  1  0.68300000  0.65200000  0.69610000  1.0 0.1303457446
H  H426  1  0.31700000  0.34800000  0.69610000  1.0 0.1303457446
H  H427  1  0.15200000  0.81700000  0.19610000  1.0 0.1303457446
H  H428  1  0.84800000  0.18300000  0.19610000  1.0 0.1303457446
H  H429  1  0.70240000  0.36120000  0.74390000  1.0 0.1473295626
H  H430  1  0.86120000  0.79760000  0.24390000  1.0 0.1473295626
H  H431  1  0.29760000  0.63880000  0.74390000  1.0 0.1473295626
H  H432  1  0.13880000  0.20240000  0.24390000  1.0 0.1473295626
H  H433  1  0.70240000  0.63880000  0.74390000  1.0 0.1473295626
H  H434  1  0.29760000  0.36120000  0.74390000  1.0 0.1473295626
H  H435  1  0.13880000  0.79760000  0.24390000  1.0 0.1473295626
H  H436  1  0.86120000  0.20240000  0.24390000  1.0 0.1473295626
H  H437  1  0.83290000  0.13100000  0.91220000  1.0 0.1204412564
H  H438  1  0.63100000  0.66710000  0.41220000  1.0 0.1204412564
H  H439  1  0.16710000  0.86900000  0.91220000  1.0 0.1204412564
H  H440  1  0.36900000  0.33290000  0.41220000  1.0 0.1204412564
H  H441  1  0.83290000  0.86900000  0.91220000  1.0 0.1204412564
H  H442  1  0.16710000  0.13100000  0.91220000  1.0 0.1204412564
H  H443  1  0.36900000  0.66710000  0.41220000  1.0 0.1204412564
H  H444  1  0.63100000  0.33290000  0.41220000  1.0 0.1204412564
H  H445  1  0.61430000  0.00000000  0.10050000  1.0 0.1204412564
H  H446  1  0.50000000  0.88570000  0.60050000  1.0 0.1204412564
H  H447  1  0.38570000  0.00000000  0.10050000  1.0 0.1204412564
H  H448  1  0.50000000  0.11430000  0.60050000  1.0 0.1204412564
H  H449  1  0.64360000  0.05100000  0.09500000  1.0 0.1096678562
H  H450  1  0.55100000  0.85640000  0.59500000  1.0 0.1096678562
H  H451  1  0.35640000  0.94900000  0.09500000  1.0 0.1096678562
H  H452  1  0.44900000  0.14360000  0.59500000  1.0 0.1096678562
H  H453  1  0.64360000  0.94900000  0.09500000  1.0 0.1096678562
H  H454  1  0.35640000  0.05100000  0.09500000  1.0 0.1096678562
H  H455  1  0.44900000  0.85640000  0.59500000  1.0 0.1096678562
H  H456  1  0.55100000  0.14360000  0.59500000  1.0 0.1096678562
H  H457  1  0.70210000  0.05100000  0.08420000  1.0 0.1096678562
H  H458  1  0.55100000  0.79790000  0.58420000  1.0 0.1096678562
H  H459  1  0.29790000  0.94900000  0.08420000  1.0 0.1096678562
H  H460  1  0.44900000  0.20210000  0.58420000  1.0 0.1096678562
H  H461  1  0.70210000  0.94900000  0.08420000  1.0 0.1096678562
H  H462  1  0.29790000  0.05100000  0.08420000  1.0 0.1096678562
H  H463  1  0.44900000  0.79790000  0.58420000  1.0 0.1096678562
H  H464  1  0.55100000  0.20210000  0.58420000  1.0 0.1096678562
H  H465  1  0.63180000  0.24300000  0.70890000  1.0 0.1096678562
H  H466  1  0.74300000  0.86820000  0.20890000  1.0 0.1096678562
H  H467  1  0.36820000  0.75700000  0.70890000  1.0 0.1096678562
H  H468  1  0.25700000  0.13180000  0.20890000  1.0 0.1096678562
H  H469  1  0.63180000  0.75700000  0.70890000  1.0 0.1096678562
H  H470  1  0.36820000  0.24300000  0.70890000  1.0 0.1096678562
H  H471  1  0.25700000  0.86820000  0.20890000  1.0 0.1096678562
H  H472  1  0.74300000  0.13180000  0.20890000  1.0 0.1096678562
H  H473  1  0.65110000  0.21780000  0.76500000  1.0 0.1388553874
H  H474  1  0.71780000  0.84890000  0.26500000  1.0 0.1388553874
H  H475  1  0.34890000  0.78220000  0.76500000  1.0 0.1388553874
H  H476  1  0.28220000  0.15110000  0.26500000  1.0 0.1388553874
H  H477  1  0.65110000  0.78220000  0.76500000  1.0 0.1388553874
H  H478  1  0.34890000  0.21780000  0.76500000  1.0 0.1388553874
H  H479  1  0.28220000  0.84890000  0.26500000  1.0 0.1388553874
H  H480  1  0.71780000  0.15110000  0.26500000  1.0 0.1388553874
H  H481  1  0.67290000  0.21590000  0.81430000  1.0 0.1303457446
H  H482  1  0.71590000  0.82710000  0.31430000  1.0 0.1303457446
H  H483  1  0.32710000  0.78410000  0.81430000  1.0 0.1303457446
H  H484  1  0.28410000  0.17290000  0.31430000  1.0 0.1388553874
H  H485  1  0.67290000  0.78410000  0.81430000  1.0 0.1303457446
H  H486  1  0.32710000  0.21590000  0.81430000  1.0 0.1303457446
H  H487  1  0.28410000  0.82710000  0.31430000  1.0 0.1303457446
H  H488  1  0.71590000  0.17290000  0.31430000  1.0 0.1388553874
H  H489  1  0.63910000  0.23790000  0.81290000  1.0 0.1557045349
H  H490  1  0.73790000  0.86090000  0.31290000  1.0 0.1557045349
H  H491  1  0.36090000  0.76210000  0.81290000  1.0 0.1557045349
H  H492  1  0.26210000  0.13910000  0.31290000  1.0 0.1557045349
H  H493  1  0.63910000  0.76210000  0.81290000  1.0 0.1557045349
H  H494  1  0.36090000  0.23790000  0.81290000  1.0 0.1557045349
H  H495  1  0.26210000  0.86090000  0.31290000  1.0 0.1557045349
H  H496  1  0.73790000  0.13910000  0.31290000  1.0 0.1557045349
H  H497  1  0.71170000  0.17770000  0.84740000  1.0 0.1303457446
H  H498  1  0.67770000  0.78830000  0.34740000  1.0 0.1303457446
H  H499  1  0.28830000  0.82230000  0.84740000  1.0 0.1303457446
H  H500  1  0.32230000  0.21170000  0.34740000  1.0 0.1303457446
H  H501  1  0.71170000  0.82230000  0.84740000  1.0 0.1303457446
H  H502  1  0.28830000  0.17770000  0.84740000  1.0 0.1303457446
H  H503  1  0.32230000  0.78830000  0.34740000  1.0 0.1303457446
H  H504  1  0.67770000  0.21170000  0.34740000  1.0 0.1303457446
H  H505  1  0.72610000  0.14310000  0.86930000  1.0 0.1473295626
H  H506  1  0.64310000  0.77390000  0.36930000  1.0 0.1473295626
H  H507  1  0.27390000  0.85690000  0.86930000  1.0 0.1473295626
H  H508  1  0.35690000  0.22610000  0.36930000  1.0 0.1473295626
H  H509  1  0.72610000  0.85690000  0.86930000  1.0 0.1473295626
H  H510  1  0.27390000  0.14310000  0.86930000  1.0 0.1473295626
H  H511  1  0.35690000  0.77390000  0.36930000  1.0 0.1473295626
H  H512  1  0.64310000  0.22610000  0.36930000  1.0 0.1473295626
H  H513  1  0.70930000  0.17030000  0.90510000  1.0 0.1473295626
H  H514  1  0.67030000  0.79070000  0.40510000  1.0 0.1473295626
H  H515  1  0.29070000  0.82970000  0.90510000  1.0 0.1473295626
H  H516  1  0.32970000  0.20930000  0.40510000  1.0 0.1473295626
H  H517  1  0.70930000  0.82970000  0.90510000  1.0 0.1473295626
H  H518  1  0.29070000  0.17030000  0.90510000  1.0 0.1473295626
H  H519  1  0.32970000  0.79070000  0.40510000  1.0 0.1473295626
H  H520  1  0.67030000  0.20930000  0.40510000  1.0 0.1473295626
C  C1  1  0.54390000  0.95430000  0.67330000  1.0 0.5578426772
C  C2  1  0.45610000  0.04570000  0.67330000  1.0 0.5578426772
C  C3  1  0.45430000  0.95610000  0.17330000  1.0 0.5578426772
C  C4  1  0.54570000  0.04390000  0.17330000  1.0 0.5578426772
C  C5  1  0.54390000  0.04570000  0.67330000  1.0 0.5578426772
C  C6  1  0.54570000  0.95610000  0.17330000  1.0 0.5578426772
C  C7  1  0.45610000  0.95430000  0.67330000  1.0 0.5578426772
C  C8  1  0.45430000  0.04390000  0.17330000  1.0 0.5578426772
C  C9  1  0.60570000  0.88830000  0.63550000  1.0 -0.1629143103
C  C10  1  0.39430000  0.11170000  0.63550000  1.0 -0.1629143103
C  C11  1  0.38830000  0.89430000  0.13550000  1.0 -0.1629143103
C  C12  1  0.61170000  0.10570000  0.13550000  1.0 -0.1629143103
C  C13  1  0.60570000  0.11170000  0.63550000  1.0 -0.1629143103
C  C14  1  0.61170000  0.89430000  0.13550000  1.0 -0.1629143103
C  C15  1  0.39430000  0.88830000  0.63550000  1.0 -0.1629143103
C  C16  1  0.38830000  0.10570000  0.13550000  1.0 -0.1629143103
C  C17  1  0.61840000  0.87670000  0.67980000  1.0 0.1204412564
C  C18  1  0.38160000  0.12330000  0.67980000  1.0 0.1204412564
C  C19  1  0.37670000  0.88160000  0.17980000  1.0 0.1204412564
C  C20  1  0.62330000  0.11840000  0.17980000  1.0 0.1204412564
C  C21  1  0.61840000  0.12330000  0.67980000  1.0 0.1204412564
C  C22  1  0.62330000  0.88160000  0.17980000  1.0 0.1204412564
C  C23  1  0.38160000  0.87670000  0.67980000  1.0 0.1204412564
C  C24  1  0.37670000  0.11840000  0.17980000  1.0 0.1204412564
C  C25  1  0.60730000  0.89130000  0.72330000  1.0 -0.1497707254
C  C26  1  0.39270000  0.10870000  0.72330000  1.0 -0.1497707254
C  C27  1  0.39130000  0.89270000  0.22330000  1.0 -0.1497707254
C  C28  1  0.60870000  0.10730000  0.22330000  1.0 -0.1497707254
C  C29  1  0.60730000  0.10870000  0.72330000  1.0 -0.1497707254
C  C30  1  0.60870000  0.89270000  0.22330000  1.0 -0.1497707254
C  C31  1  0.39270000  0.89130000  0.72330000  1.0 -0.1497707254
C  C32  1  0.39130000  0.10730000  0.22330000  1.0 -0.1497707254
C  C33  1  0.64570000  0.85090000  0.68150000  1.0 -0.1790036639
C  C34  1  0.35430000  0.14910000  0.68150000  1.0 -0.1790036639
C  C35  1  0.35090000  0.85430000  0.18150000  1.0 -0.1790036639
C  C36  1  0.64910000  0.14570000  0.18150000  1.0 -0.1790036639
C  C37  1  0.64570000  0.14910000  0.68150000  1.0 -0.1790036639
C  C38  1  0.64910000  0.85430000  0.18150000  1.0 -0.1790036639
C  C39  1  0.35430000  0.85090000  0.68150000  1.0 -0.1790036639
C  C40  1  0.35090000  0.14570000  0.18150000  1.0 -0.1790036639
C  C41  1  0.58180000  0.91450000  0.63490000  1.0 -0.0963246802
C  C42  1  0.41820000  0.08550000  0.63490000  1.0 -0.0963246802
C  C43  1  0.41450000  0.91820000  0.13490000  1.0 -0.0963246802
C  C44  1  0.58550000  0.08180000  0.13490000  1.0 -0.0963246802
C  C45  1  0.58180000  0.08550000  0.63490000  1.0 -0.0963246802
C  C46  1  0.58550000  0.91820000  0.13490000  1.0 -0.0963246802
C  C47  1  0.41820000  0.91450000  0.63490000  1.0 -0.0963246802
C  C48  1  0.41450000  0.08180000  0.13490000  1.0 -0.0963246802
C  C49  1  0.56950000  0.92820000  0.67790000  1.0 -0.0629471189
C  C50  1  0.43050000  0.07180000  0.67790000  1.0 -0.0629471189
C  C51  1  0.42820000  0.93050000  0.17790000  1.0 -0.0629471189
C  C52  1  0.57180000  0.06950000  0.17790000  1.0 -0.0629471189
C  C53  1  0.56950000  0.07180000  0.67790000  1.0 -0.0629471189
C  C54  1  0.57180000  0.93050000  0.17790000  1.0 -0.0629471189
C  C55  1  0.43050000  0.92820000  0.67790000  1.0 -0.0629471189
C  C56  1  0.42820000  0.06950000  0.17790000  1.0 -0.0629471189
C  C57  1  0.58240000  0.91620000  0.72180000  1.0 -0.0819563645
C  C58  1  0.41760000  0.08380000  0.72180000  1.0 -0.0819563645
C  C59  1  0.41620000  0.91760000  0.22180000  1.0 -0.0819563645
C  C60  1  0.58380000  0.08240000  0.22180000  1.0 -0.0819563645
C  C61  1  0.58240000  0.08380000  0.72180000  1.0 -0.0819563645
C  C62  1  0.58380000  0.91760000  0.22180000  1.0 -0.0819563645
C  C63  1  0.41760000  0.91620000  0.72180000  1.0 -0.0819563645
C  C64  1  0.41620000  0.08240000  0.22180000  1.0 -0.0819563645
C  C65  1  0.62240000  0.80780000  0.61600000  1.0 -0.4888425024
C  C66  1  0.37760000  0.19220000  0.61600000  1.0 -0.4888425024
C  C67  1  0.30780000  0.87760000  0.11600000  1.0 -0.4888425024
C  C68  1  0.69220000  0.12240000  0.11600000  1.0 -0.4888425024
C  C69  1  0.62240000  0.19220000  0.61600000  1.0 -0.4888425024
C  C70  1  0.69220000  0.87760000  0.11600000  1.0 -0.4888425024
C  C71  1  0.37760000  0.80780000  0.61600000  1.0 -0.4888425024
C  C72  1  0.30780000  0.12240000  0.11600000  1.0 -0.4888425024
C  C73  1  0.68190000  0.59350000  0.54060000  1.0 -0.113375583
C  C74  1  0.31810000  0.40650000  0.54060000  1.0 -0.113375583
C  C75  1  0.09350000  0.81810000  0.04060000  1.0 -0.113375583
C  C76  1  0.90650000  0.18190000  0.04060000  1.0 -0.113375583
C  C77  1  0.68190000  0.40650000  0.54060000  1.0 -0.113375583
C  C78  1  0.90650000  0.81810000  0.04060000  1.0 -0.113375583
C  C79  1  0.31810000  0.59350000  0.54060000  1.0 -0.113375583
C  C80  1  0.09350000  0.18190000  0.04060000  1.0 -0.113375583
C  C81  1  0.92510000  0.79840000  0.83090000  1.0 -0.0680378324
C  C82  1  0.07490000  0.20160000  0.83090000  1.0 -0.0680378324
C  C83  1  0.29840000  0.57490000  0.33090000  1.0 -0.0680378324
C  C84  1  0.70160000  0.42510000  0.33090000  1.0 -0.0680378324
C  C85  1  0.92510000  0.20160000  0.83090000  1.0 -0.0680378324
C  C86  1  0.70160000  0.57490000  0.33090000  1.0 -0.0680378324
C  C87  1  0.07490000  0.79840000  0.83090000  1.0 -0.0680378324
C  C88  1  0.29840000  0.42510000  0.33090000  1.0 -0.0680378324
C  C89  1  0.64620000  0.82210000  0.65420000  1.0 0.1905666569
C  C90  1  0.35380000  0.17790000  0.65420000  1.0 0.1905666569
C  C91  1  0.32210000  0.85380000  0.15420000  1.0 0.1905666569
C  C92  1  0.67790000  0.14620000  0.15420000  1.0 0.1905666569
C  C93  1  0.64620000  0.17790000  0.65420000  1.0 0.1905666569
C  C94  1  0.67790000  0.85380000  0.15420000  1.0 0.1905666569
C  C95  1  0.35380000  0.82210000  0.65420000  1.0 0.1905666569
C  C96  1  0.32210000  0.14620000  0.15420000  1.0 0.1905666569
C  C97  1  0.74320000  0.62880000  0.53790000  1.0 -0.1497707254
C  C98  1  0.25680000  0.37120000  0.53790000  1.0 -0.1497707254
C  C99  1  0.12880000  0.75680000  0.03790000  1.0 -0.1497707254
C  C100  1  0.87120000  0.24320000  0.03790000  1.0 -0.1497707254
C  C101  1  0.74320000  0.37120000  0.53790000  1.0 -0.1497707254
C  C102  1  0.87120000  0.75680000  0.03790000  1.0 -0.1497707254
C  C103  1  0.25680000  0.62880000  0.53790000  1.0 -0.1497707254
C  C104  1  0.12880000  0.24320000  0.03790000  1.0 -0.1497707254
C  C105  1  0.68720000  0.87580000  0.74790000  1.0 -0.459928944
C  C106  1  0.31280000  0.12420000  0.74790000  1.0 -0.459928944
C  C107  1  0.37580000  0.81280000  0.24790000  1.0 -0.459928944
C  C108  1  0.62420000  0.18720000  0.24790000  1.0 -0.459928944
C  C109  1  0.68720000  0.12420000  0.74790000  1.0 -0.459928944
C  C110  1  0.62420000  0.81280000  0.24790000  1.0 -0.459928944
C  C111  1  0.31280000  0.87580000  0.74790000  1.0 -0.459928944
C  C112  1  0.37580000  0.18720000  0.24790000  1.0 -0.459928944
C  C113  1  0.74090000  0.59800000  0.51480000  1.0 -0.1222841537
C  C114  1  0.25910000  0.40200000  0.51480000  1.0 -0.1222841537
C  C115  1  0.09800000  0.75910000  0.01480000  1.0 -0.1222841537
C  C116  1  0.90200000  0.24090000  0.01480000  1.0 -0.1222841537
C  C117  1  0.74090000  0.40200000  0.51480000  1.0 -0.1222841537
C  C118  1  0.90200000  0.75910000  0.01480000  1.0 -0.1222841537
C  C119  1  0.25910000  0.59800000  0.51480000  1.0 -0.1222841537
C  C120  1  0.09800000  0.24090000  0.01480000  1.0 -0.1222841537
C  C121  1  0.67340000  0.85130000  0.71010000  1.0 0.1905666569
C  C122  1  0.32660000  0.14870000  0.71010000  1.0 0.1905666569
C  C123  1  0.35130000  0.82660000  0.21010000  1.0 0.1905666569
C  C124  1  0.64870000  0.17340000  0.21010000  1.0 0.1905666569
C  C125  1  0.67340000  0.14870000  0.71010000  1.0 0.1905666569
C  C126  1  0.64870000  0.82660000  0.21010000  1.0 0.1905666569
C  C127  1  0.32660000  0.85130000  0.71010000  1.0 0.1905666569
C  C128  1  0.35130000  0.17340000  0.21010000  1.0 0.1905666569
C  C129  1  0.71000000  0.58100000  0.51540000  1.0 0.0089872093
C  C130  1  0.29000000  0.41900000  0.51540000  1.0 0.0089872093
C  C131  1  0.08100000  0.79000000  0.01540000  1.0 0.0089872093
C  C132  1  0.91900000  0.21000000  0.01540000  1.0 0.0089872093
C  C133  1  0.71000000  0.41900000  0.51540000  1.0 0.0089872093
C  C134  1  0.91900000  0.79000000  0.01540000  1.0 0.0089872093
C  C135  1  0.29000000  0.58100000  0.51540000  1.0 0.0089872093
C  C136  1  0.08100000  0.21000000  0.01540000  1.0 0.0089872093
C  C137  1  0.90960000  0.76830000  0.81730000  1.0 -0.0856883174
C  C138  1  0.09040000  0.23170000  0.81730000  1.0 -0.0856883174
C  C139  1  0.26830000  0.59040000  0.31730000  1.0 -0.0856883174
C  C140  1  0.73170000  0.40960000  0.31730000  1.0 -0.0856883174
C  C141  1  0.90960000  0.23170000  0.81730000  1.0 -0.0856883174
C  C142  1  0.73170000  0.59040000  0.31730000  1.0 -0.0856883174
C  C143  1  0.09040000  0.76830000  0.81730000  1.0 -0.0856883174
C  C144  1  0.26830000  0.40960000  0.31730000  1.0 -0.0856883174
C  C145  1  0.90990000  0.82820000  0.81620000  1.0 -0.0819563645
C  C146  1  0.09010000  0.17180000  0.81620000  1.0 -0.0819563645
C  C147  1  0.32820000  0.59010000  0.31620000  1.0 -0.0819563645
C  C148  1  0.67180000  0.40990000  0.31620000  1.0 -0.0819563645
C  C149  1  0.90990000  0.17180000  0.81620000  1.0 -0.0819563645
C  C150  1  0.67180000  0.59010000  0.31620000  1.0 -0.0819563645
C  C151  1  0.09010000  0.82820000  0.81620000  1.0 -0.0819563645
C  C152  1  0.32820000  0.40990000  0.31620000  1.0 -0.0819563645
C  C153  1  0.70950000  0.54690000  0.48400000  1.0 0.5578426772
C  C154  1  0.29050000  0.45310000  0.48400000  1.0 0.5578426772
C  C155  1  0.04690000  0.79050000  0.98400000  1.0 0.5578426772
C  C156  1  0.95310000  0.20950000  0.98400000  1.0 0.5578426772
C  C157  1  0.70950000  0.45310000  0.48400000  1.0 0.5578426772
C  C158  1  0.95310000  0.79050000  0.98400000  1.0 0.5578426772
C  C159  1  0.29050000  0.54690000  0.48400000  1.0 0.5578426772
C  C160  1  0.04690000  0.20950000  0.98400000  1.0 0.5578426772
C  C161  1  0.95410000  0.79960000  0.86340000  1.0 0.5680222118
C  C162  1  0.04590000  0.20040000  0.86340000  1.0 0.5680222118
C  C163  1  0.29960000  0.54590000  0.36340000  1.0 0.5680222118
C  C164  1  0.70040000  0.45410000  0.36340000  1.0 0.5680222118
C  C165  1  0.95410000  0.20040000  0.86340000  1.0 0.5680222118
C  C166  1  0.70040000  0.54590000  0.36340000  1.0 0.5680222118
C  C167  1  0.04590000  0.79960000  0.86340000  1.0 0.5680222118
C  C168  1  0.29960000  0.45410000  0.36340000  1.0 0.5680222118
C  C169  1  0.87940000  0.82390000  0.79160000  1.0 -0.1629143103
C  C170  1  0.12060000  0.17610000  0.79160000  1.0 -0.1629143103
C  C171  1  0.32390000  0.62060000  0.29160000  1.0 -0.1629143103
C  C172  1  0.67610000  0.37940000  0.29160000  1.0 -0.1629143103
C  C173  1  0.87940000  0.17610000  0.79160000  1.0 -0.1629143103
C  C174  1  0.67610000  0.62060000  0.29160000  1.0 -0.1629143103
C  C175  1  0.12060000  0.82390000  0.79160000  1.0 -0.1629143103
C  C176  1  0.32390000  0.37940000  0.29160000  1.0 -0.1629143103
C  C177  1  0.65630000  0.69930000  0.57590000  1.0 -0.4993230573
C  C178  1  0.34370000  0.30070000  0.57590000  1.0 -0.4993230573
C  C179  1  0.19930000  0.84370000  0.07590000  1.0 -0.4993230573
C  C180  1  0.80070000  0.15630000  0.07590000  1.0 -0.4993230573
C  C181  1  0.65630000  0.30070000  0.57590000  1.0 -0.4993230573
C  C182  1  0.80070000  0.84370000  0.07590000  1.0 -0.4993230573
C  C183  1  0.34370000  0.69930000  0.57590000  1.0 -0.4993230573
C  C184  1  0.19930000  0.15630000  0.07590000  1.0 -0.4993230573
C  C185  1  0.82090000  0.76120000  0.72270000  1.0 0.1978201702
C  C186  1  0.17910000  0.23880000  0.72270000  1.0 0.1978201702
C  C187  1  0.26120000  0.67910000  0.22270000  1.0 0.1978201702
C  C188  1  0.73880000  0.32090000  0.22270000  1.0 0.1978201702
C  C189  1  0.82090000  0.23880000  0.72270000  1.0 0.1978201702
C  C190  1  0.73880000  0.67910000  0.22270000  1.0 0.1978201702
C  C191  1  0.17910000  0.76120000  0.72270000  1.0 0.1978201702
C  C192  1  0.26120000  0.32090000  0.22270000  1.0 0.1978201702
C  C193  1  0.79860000  0.84330000  0.78100000  1.0 -0.4796733762
C  C194  1  0.20140000  0.15670000  0.78100000  1.0 -0.4796733762
C  C195  1  0.34330000  0.70140000  0.28100000  1.0 -0.4796733762
C  C196  1  0.65670000  0.29860000  0.28100000  1.0 -0.4796733762
C  C197  1  0.79860000  0.15670000  0.78100000  1.0 -0.4796733762
C  C198  1  0.65670000  0.70140000  0.28100000  1.0 -0.4796733762
C  C199  1  0.20140000  0.84330000  0.78100000  1.0 -0.4796733762
C  C200  1  0.34330000  0.29860000  0.28100000  1.0 -0.4796733762
C  C201  1  0.71610000  0.67260000  0.59100000  1.0 -0.1497707254
C  C202  1  0.28390000  0.32740000  0.59100000  1.0 -0.1497707254
C  C203  1  0.17260000  0.78390000  0.09100000  1.0 -0.1497707254
C  C204  1  0.82740000  0.21610000  0.09100000  1.0 -0.1497707254
C  C205  1  0.71610000  0.32740000  0.59100000  1.0 -0.1497707254
C  C206  1  0.82740000  0.78390000  0.09100000  1.0 -0.1497707254
C  C207  1  0.28390000  0.67260000  0.59100000  1.0 -0.1497707254
C  C208  1  0.17260000  0.21610000  0.09100000  1.0 -0.1497707254
C  C209  1  0.69180000  0.69720000  0.59630000  1.0 0.1978201702
C  C210  1  0.30820000  0.30280000  0.59630000  1.0 0.1978201702
C  C211  1  0.19720000  0.80820000  0.09630000  1.0 0.1978201702
C  C212  1  0.80280000  0.19180000  0.09630000  1.0 0.1978201702
C  C213  1  0.69180000  0.30280000  0.59630000  1.0 0.1978201702
C  C214  1  0.80280000  0.80820000  0.09630000  1.0 0.1978201702
C  C215  1  0.30820000  0.69720000  0.59630000  1.0 0.1978201702
C  C216  1  0.19720000  0.19180000  0.09630000  1.0 0.1978201702
C  C217  1  0.80460000  0.80980000  0.75600000  1.0 0.1905666569
C  C218  1  0.19540000  0.19020000  0.75600000  1.0 0.1905666569
C  C219  1  0.30980000  0.69540000  0.25600000  1.0 0.1905666569
C  C220  1  0.69020000  0.30460000  0.25600000  1.0 0.1905666569
C  C221  1  0.80460000  0.19020000  0.75600000  1.0 0.1905666569
C  C222  1  0.69020000  0.69540000  0.25600000  1.0 0.1905666569
C  C223  1  0.19540000  0.80980000  0.75600000  1.0 0.1905666569
C  C224  1  0.30980000  0.30460000  0.25600000  1.0 0.1905666569
C  C225  1  0.74320000  0.68350000  0.61700000  1.0 0.1794480414
C  C226  1  0.25680000  0.31650000  0.61700000  1.0 0.1794480414
C  C227  1  0.18350000  0.75680000  0.11700000  1.0 0.1794480414
C  C228  1  0.81650000  0.24320000  0.11700000  1.0 0.1794480414
C  C229  1  0.74320000  0.31650000  0.61700000  1.0 0.1794480414
C  C230  1  0.81650000  0.75680000  0.11700000  1.0 0.1794480414
C  C231  1  0.25680000  0.68350000  0.61700000  1.0 0.1794480414
C  C232  1  0.18350000  0.24320000  0.11700000  1.0 0.1794480414
C  C233  1  0.68460000  0.62310000  0.56700000  1.0 -0.1444544272
C  C234  1  0.31540000  0.37690000  0.56700000  1.0 -0.1444544272
C  C235  1  0.12310000  0.81540000  0.06700000  1.0 -0.1444544272
C  C236  1  0.87690000  0.18460000  0.06700000  1.0 -0.1444544272
C  C237  1  0.68460000  0.37690000  0.56700000  1.0 -0.1444544272
C  C238  1  0.87690000  0.81540000  0.06700000  1.0 -0.1444544272
C  C239  1  0.31540000  0.62310000  0.56700000  1.0 -0.1444544272
C  C240  1  0.12310000  0.18460000  0.06700000  1.0 -0.1444544272
C  C241  1  0.86190000  0.50000000  0.40380000  1.0 -0.0485523699
C  C242  1  0.13810000  0.50000000  0.40380000  1.0 -0.0485523699
C  C243  1  0.00000000  0.63810000  0.90380000  1.0 -0.0485523699
C  C244  1  0.00000000  0.36190000  0.90380000  1.0 -0.0485523699
C  C245  1  0.84440000  0.53022000  0.40720000  1.0 -0.1497707254
C  C246  1  0.15560000  0.46978000  0.40720000  1.0 -0.1497707254
C  C247  1  0.03022000  0.65560000  0.90720000  1.0 -0.1497707254
C  C248  1  0.96978000  0.34440000  0.90720000  1.0 -0.1497707254
C  C249  1  0.84440000  0.46978000  0.40720000  1.0 -0.1497707254
C  C250  1  0.96978000  0.65560000  0.90720000  1.0 -0.1497707254
C  C251  1  0.15560000  0.53022000  0.40720000  1.0 -0.1497707254
C  C252  1  0.03022000  0.34440000  0.90720000  1.0 -0.1497707254
C  C253  1  0.80980000  0.53019000  0.41360000  1.0 0.0773102192
C  C254  1  0.19020000  0.46981000  0.41360000  1.0 0.0773102192
C  C255  1  0.03019000  0.69020000  0.91360000  1.0 0.0773102192
C  C256  1  0.96981000  0.30980000  0.91360000  1.0 0.0773102192
C  C257  1  0.80980000  0.46981000  0.41360000  1.0 0.0773102192
C  C258  1  0.96981000  0.69020000  0.91360000  1.0 0.0773102192
C  C259  1  0.19020000  0.53019000  0.41360000  1.0 0.0773102192
C  C260  1  0.03019000  0.30980000  0.91360000  1.0 0.0773102192
C  C261  1  0.83170000  0.78810000  0.74990000  1.0 -0.1790036639
C  C262  1  0.16830000  0.21190000  0.74990000  1.0 -0.1790036639
C  C263  1  0.28810000  0.66830000  0.24990000  1.0 -0.1790036639
C  C264  1  0.71190000  0.33170000  0.24990000  1.0 -0.1790036639
C  C265  1  0.83170000  0.21190000  0.74990000  1.0 -0.1790036639
C  C266  1  0.71190000  0.66830000  0.24990000  1.0 -0.1790036639
C  C267  1  0.16830000  0.78810000  0.74990000  1.0 -0.1790036639
C  C268  1  0.28810000  0.33170000  0.24990000  1.0 -0.1790036639
C  C269  1  0.71450000  0.64060000  0.56100000  1.0 0.1041249519
C  C270  1  0.28550000  0.35940000  0.56100000  1.0 0.1041249519
C  C271  1  0.14060000  0.78550000  0.06100000  1.0 0.1041249519
C  C272  1  0.85940000  0.21450000  0.06100000  1.0 0.1041249519
C  C273  1  0.71450000  0.35940000  0.56100000  1.0 0.1041249519
C  C274  1  0.85940000  0.78550000  0.06100000  1.0 0.1041249519
C  C275  1  0.28550000  0.64060000  0.56100000  1.0 0.1041249519
C  C276  1  0.14060000  0.21450000  0.06100000  1.0 0.1041249519
C  C277  1  0.87840000  0.76450000  0.79500000  1.0 -0.1718694794
C  C278  1  0.12160000  0.23550000  0.79500000  1.0 -0.1718694794
C  C279  1  0.26450000  0.62160000  0.29500000  1.0 -0.1718694794
C  C280  1  0.73550000  0.37840000  0.29500000  1.0 -0.1718694794
C  C281  1  0.87840000  0.23550000  0.79500000  1.0 -0.1718694794
C  C282  1  0.73550000  0.62160000  0.29500000  1.0 -0.1718694794
C  C283  1  0.12160000  0.76450000  0.79500000  1.0 -0.1718694794
C  C284  1  0.26450000  0.37840000  0.29500000  1.0 -0.1718694794
C  C285  1  0.86300000  0.79420000  0.77830000  1.0 0.1204412564
C  C286  1  0.13700000  0.20580000  0.77830000  1.0 0.1204412564
C  C287  1  0.29420000  0.63700000  0.27830000  1.0 0.1204412564
C  C288  1  0.70580000  0.36300000  0.27830000  1.0 0.1204412564
C  C289  1  0.86300000  0.20580000  0.77830000  1.0 0.1204412564
C  C290  1  0.70580000  0.63700000  0.27830000  1.0 0.1204412564
C  C291  1  0.13700000  0.79420000  0.77830000  1.0 0.1204412564
C  C292  1  0.29420000  0.36300000  0.27830000  1.0 0.1204412564
C  C293  1  0.84130000  0.73040000  0.70610000  1.0 -0.4796733762
C  C294  1  0.15870000  0.26960000  0.70610000  1.0 -0.4796733762
C  C295  1  0.23040000  0.65870000  0.20610000  1.0 -0.4796733762
C  C296  1  0.76960000  0.34130000  0.20610000  1.0 -0.4796733762
C  C297  1  0.84130000  0.26960000  0.70610000  1.0 -0.4796733762
C  C298  1  0.76960000  0.65870000  0.20610000  1.0 -0.4796733762
C  C299  1  0.15870000  0.73040000  0.70610000  1.0 -0.4796733762
C  C300  1  0.23040000  0.34130000  0.20610000  1.0 -0.4796733762
C  C301  1  0.77700000  0.66720000  0.62440000  1.0 -0.4796733762
C  C302  1  0.22300000  0.33280000  0.62440000  1.0 -0.4796733762
C  C303  1  0.16720000  0.72300000  0.12440000  1.0 -0.4796733762
C  C304  1  0.83280000  0.27700000  0.12440000  1.0 -0.4796733762
C  C305  1  0.77700000  0.33280000  0.62440000  1.0 -0.4796733762
C  C306  1  0.83280000  0.72300000  0.12440000  1.0 -0.4796733762
C  C307  1  0.22300000  0.66720000  0.62440000  1.0 -0.4796733762
C  C308  1  0.16720000  0.27700000  0.12440000  1.0 -0.4796733762
C  C309  1  0.95610000  0.45430000  0.82670000  1.0 0.5578426772
C  C310  1  0.95430000  0.54390000  0.32670000  1.0 0.5578426772
C  C311  1  0.04390000  0.54570000  0.82670000  1.0 0.5578426772
C  C312  1  0.04570000  0.45610000  0.32670000  1.0 0.5578426772
C  C313  1  0.95610000  0.54570000  0.82670000  1.0 0.5578426772
C  C314  1  0.04390000  0.45430000  0.82670000  1.0 0.5578426772
C  C315  1  0.04570000  0.54390000  0.32670000  1.0 0.5578426772
C  C316  1  0.95430000  0.45610000  0.32670000  1.0 0.5578426772
C  C317  1  0.89430000  0.38830000  0.86450000  1.0 -0.1629143103
C  C318  1  0.88830000  0.60570000  0.36450000  1.0 -0.1629143103
C  C319  1  0.10570000  0.61170000  0.86450000  1.0 -0.1629143103
C  C320  1  0.11170000  0.39430000  0.36450000  1.0 -0.1629143103
C  C321  1  0.89430000  0.61170000  0.86450000  1.0 -0.1629143103
C  C322  1  0.10570000  0.38830000  0.86450000  1.0 -0.1629143103
C  C323  1  0.11170000  0.60570000  0.36450000  1.0 -0.1629143103
C  C324  1  0.88830000  0.39430000  0.36450000  1.0 -0.1629143103
C  C325  1  0.88160000  0.37670000  0.82020000  1.0 0.1204412564
C  C326  1  0.87670000  0.61840000  0.32020000  1.0 0.1204412564
C  C327  1  0.11840000  0.62330000  0.82020000  1.0 0.1204412564
C  C328  1  0.12330000  0.38160000  0.32020000  1.0 0.1204412564
C  C329  1  0.88160000  0.62330000  0.82020000  1.0 0.1204412564
C  C330  1  0.11840000  0.37670000  0.82020000  1.0 0.1204412564
C  C331  1  0.12330000  0.61840000  0.32020000  1.0 0.1204412564
C  C332  1  0.87670000  0.38160000  0.32020000  1.0 0.1204412564
C  C333  1  0.89270000  0.39130000  0.77670000  1.0 -0.1497707254
C  C334  1  0.89130000  0.60730000  0.27670000  1.0 -0.1497707254
C  C335  1  0.10730000  0.60870000  0.77670000  1.0 -0.1497707254
C  C336  1  0.10870000  0.39270000  0.27670000  1.0 -0.1497707254
C  C337  1  0.89270000  0.60870000  0.77670000  1.0 -0.1497707254
C  C338  1  0.10730000  0.39130000  0.77670000  1.0 -0.1497707254
C  C339  1  0.10870000  0.60730000  0.27670000  1.0 -0.1497707254
C  C340  1  0.89130000  0.39270000  0.27670000  1.0 -0.1497707254
C  C341  1  0.85430000  0.35090000  0.81850000  1.0 -0.1790036639
C  C342  1  0.85090000  0.64570000  0.31850000  1.0 -0.1790036639
C  C343  1  0.14570000  0.64910000  0.81850000  1.0 -0.1790036639
C  C344  1  0.14910000  0.35430000  0.31850000  1.0 -0.1790036639
C  C345  1  0.85430000  0.64910000  0.81850000  1.0 -0.1790036639
C  C346  1  0.14570000  0.35090000  0.81850000  1.0 -0.1790036639
C  C347  1  0.14910000  0.64570000  0.31850000  1.0 -0.1790036639
C  C348  1  0.85090000  0.35430000  0.31850000  1.0 -0.1790036639
C  C349  1  0.91820000  0.41450000  0.86510000  1.0 -0.0963246802
C  C350  1  0.91450000  0.58180000  0.36510000  1.0 -0.0963246802
C  C351  1  0.08180000  0.58550000  0.86510000  1.0 -0.0963246802
C  C352  1  0.08550000  0.41820000  0.36510000  1.0 -0.0963246802
C  C353  1  0.91820000  0.58550000  0.86510000  1.0 -0.0963246802
C  C354  1  0.08180000  0.41450000  0.86510000  1.0 -0.0963246802
C  C355  1  0.08550000  0.58180000  0.36510000  1.0 -0.0963246802
C  C356  1  0.91450000  0.41820000  0.36510000  1.0 -0.0963246802
C  C357  1  0.93050000  0.42820000  0.82210000  1.0 -0.0629471189
C  C358  1  0.92820000  0.56950000  0.32210000  1.0 -0.0629471189
C  C359  1  0.06950000  0.57180000  0.82210000  1.0 -0.0629471189
C  C360  1  0.07180000  0.43050000  0.32210000  1.0 -0.0629471189
C  C361  1  0.93050000  0.57180000  0.82210000  1.0 -0.0629471189
C  C362  1  0.06950000  0.42820000  0.82210000  1.0 -0.0629471189
C  C363  1  0.07180000  0.56950000  0.32210000  1.0 -0.0629471189
C  C364  1  0.92820000  0.43050000  0.32210000  1.0 -0.0629471189
C  C365  1  0.91760000  0.41620000  0.77820000  1.0 -0.0819563645
C  C366  1  0.91620000  0.58240000  0.27820000  1.0 -0.0819563645
C  C367  1  0.08240000  0.58380000  0.77820000  1.0 -0.0819563645
C  C368  1  0.08380000  0.41760000  0.27820000  1.0 -0.0819563645
C  C369  1  0.91760000  0.58380000  0.77820000  1.0 -0.0819563645
C  C370  1  0.08240000  0.41620000  0.77820000  1.0 -0.0819563645
C  C371  1  0.08380000  0.58240000  0.27820000  1.0 -0.0819563645
C  C372  1  0.91620000  0.41760000  0.27820000  1.0 -0.0819563645
C  C373  1  0.87760000  0.30780000  0.88400000  1.0 -0.4888425024
C  C374  1  0.80780000  0.62240000  0.38400000  1.0 -0.4888425024
C  C375  1  0.12240000  0.69220000  0.88400000  1.0 -0.4888425024
C  C376  1  0.19220000  0.37760000  0.38400000  1.0 -0.4888425024
C  C377  1  0.87760000  0.69220000  0.88400000  1.0 -0.4888425024
C  C378  1  0.12240000  0.30780000  0.88400000  1.0 -0.4888425024
C  C379  1  0.19220000  0.62240000  0.38400000  1.0 -0.4888425024
C  C380  1  0.80780000  0.37760000  0.38400000  1.0 -0.4888425024
C  C381  1  0.81810000  0.09350000  0.95940000  1.0 -0.113375583
C  C382  1  0.59350000  0.68190000  0.45940000  1.0 -0.113375583
C  C383  1  0.18190000  0.90650000  0.95940000  1.0 -0.113375583
C  C384  1  0.40650000  0.31810000  0.45940000  1.0 -0.113375583
C  C385  1  0.81810000  0.90650000  0.95940000  1.0 -0.113375583
C  C386  1  0.18190000  0.09350000  0.95940000  1.0 -0.113375583
C  C387  1  0.40650000  0.68190000  0.45940000  1.0 -0.113375583
C  C388  1  0.59350000  0.31810000  0.45940000  1.0 -0.113375583
C  C389  1  0.57490000  0.29840000  0.66910000  1.0 -0.0680378324
C  C390  1  0.79840000  0.92510000  0.16910000  1.0 -0.0680378324
C  C391  1  0.42510000  0.70160000  0.66910000  1.0 -0.0680378324
C  C392  1  0.20160000  0.07490000  0.16910000  1.0 -0.0680378324
C  C393  1  0.57490000  0.70160000  0.66910000  1.0 -0.0680378324
C  C394  1  0.42510000  0.29840000  0.66910000  1.0 -0.0680378324
C  C395  1  0.20160000  0.92510000  0.16910000  1.0 -0.0680378324
C  C396  1  0.79840000  0.07490000  0.16910000  1.0 -0.0680378324
C  C397  1  0.85380000  0.32210000  0.84580000  1.0 0.1905666569
C  C398  1  0.82210000  0.64620000  0.34580000  1.0 0.1905666569
C  C399  1  0.14620000  0.67790000  0.84580000  1.0 0.1905666569
C  C400  1  0.17790000  0.35380000  0.34580000  1.0 0.1905666569
C  C401  1  0.85380000  0.67790000  0.84580000  1.0 0.1905666569
C  C402  1  0.14620000  0.32210000  0.84580000  1.0 0.1905666569
C  C403  1  0.17790000  0.64620000  0.34580000  1.0 0.1905666569
C  C404  1  0.82210000  0.35380000  0.34580000  1.0 0.1905666569
C  C405  1  0.75680000  0.12880000  0.96210000  1.0 -0.1497707254
C  C406  1  0.62880000  0.74320000  0.46210000  1.0 -0.1497707254
C  C407  1  0.24320000  0.87120000  0.96210000  1.0 -0.1497707254
C  C408  1  0.37120000  0.25680000  0.46210000  1.0 -0.1497707254
C  C409  1  0.75680000  0.87120000  0.96210000  1.0 -0.1497707254
C  C410  1  0.24320000  0.12880000  0.96210000  1.0 -0.1497707254
C  C411  1  0.37120000  0.74320000  0.46210000  1.0 -0.1497707254
C  C412  1  0.62880000  0.25680000  0.46210000  1.0 -0.1497707254
C  C413  1  0.81280000  0.37580000  0.75210000  1.0 -0.459928944
C  C414  1  0.87580000  0.68720000  0.25210000  1.0 -0.459928944
C  C415  1  0.18720000  0.62420000  0.75210000  1.0 -0.459928944
C  C416  1  0.12420000  0.31280000  0.25210000  1.0 -0.459928944
C  C417  1  0.81280000  0.62420000  0.75210000  1.0 -0.459928944
C  C418  1  0.18720000  0.37580000  0.75210000  1.0 -0.459928944
C  C419  1  0.12420000  0.68720000  0.25210000  1.0 -0.459928944
C  C420  1  0.87580000  0.31280000  0.25210000  1.0 -0.459928944
C  C421  1  0.75910000  0.09800000  0.98520000  1.0 -0.1222841537
C  C422  1  0.59800000  0.74090000  0.48520000  1.0 -0.1222841537
C  C423  1  0.24090000  0.90200000  0.98520000  1.0 -0.1222841537
C  C424  1  0.40200000  0.25910000  0.48520000  1.0 -0.1222841537
C  C425  1  0.75910000  0.90200000  0.98520000  1.0 -0.1222841537
C  C426  1  0.24090000  0.09800000  0.98520000  1.0 -0.1222841537
C  C427  1  0.40200000  0.74090000  0.48520000  1.0 -0.1222841537
C  C428  1  0.59800000  0.25910000  0.48520000  1.0 -0.1222841537
C  C429  1  0.82660000  0.35130000  0.78990000  1.0 0.1905666569
C  C430  1  0.85130000  0.67340000  0.28990000  1.0 0.1905666569
C  C431  1  0.17340000  0.64870000  0.78990000  1.0 0.1905666569
C  C432  1  0.14870000  0.32660000  0.28990000  1.0 0.1905666569
C  C433  1  0.82660000  0.64870000  0.78990000  1.0 0.1905666569
C  C434  1  0.17340000  0.35130000  0.78990000  1.0 0.1905666569
C  C435  1  0.14870000  0.67340000  0.28990000  1.0 0.1905666569
C  C436  1  0.85130000  0.32660000  0.28990000  1.0 0.1905666569
C  C437  1  0.79000000  0.08100000  0.98460000  1.0 0.0089872093
C  C438  1  0.58100000  0.71000000  0.48460000  1.0 0.0089872093
C  C439  1  0.21000000  0.91900000  0.98460000  1.0 0.0089872093
C  C440  1  0.41900000  0.29000000  0.48460000  1.0 0.0089872093
C  C441  1  0.79000000  0.91900000  0.98460000  1.0 0.0089872093
C  C442  1  0.21000000  0.08100000  0.98460000  1.0 0.0089872093
C  C443  1  0.41900000  0.71000000  0.48460000  1.0 0.0089872093
C  C444  1  0.58100000  0.29000000  0.48460000  1.0 0.0089872093
C  C445  1  0.59040000  0.26830000  0.68270000  1.0 -0.0856883174
C  C446  1  0.76830000  0.90960000  0.18270000  1.0 -0.0856883174
C  C447  1  0.40960000  0.73170000  0.68270000  1.0 -0.0856883174
C  C448  1  0.23170000  0.09040000  0.18270000  1.0 -0.0856883174
C  C449  1  0.59040000  0.73170000  0.68270000  1.0 -0.0856883174
C  C450  1  0.40960000  0.26830000  0.68270000  1.0 -0.0856883174
C  C451  1  0.23170000  0.90960000  0.18270000  1.0 -0.0819563645
C  C452  1  0.76830000  0.09040000  0.18270000  1.0 -0.0856883174
C  C453  1  0.59010000  0.32820000  0.68380000  1.0 -0.0819563645
C  C454  1  0.82820000  0.90990000  0.18380000  1.0 -0.0819563645
C  C455  1  0.40990000  0.67180000  0.68380000  1.0 -0.0819563645
C  C456  1  0.17180000  0.09010000  0.18380000  1.0 -0.0819563645
C  C457  1  0.59010000  0.67180000  0.68380000  1.0 -0.0819563645
C  C458  1  0.40990000  0.32820000  0.68380000  1.0 -0.0819563645
C  C459  1  0.17180000  0.90990000  0.18380000  1.0 -0.0819563645
C  C460  1  0.82820000  0.09010000  0.18380000  1.0 -0.0819563645
C  C461  1  0.79050000  0.04690000  0.01600000  1.0 0.5578426772
C  C462  1  0.54690000  0.70950000  0.51600000  1.0 0.5578426772
C  C463  1  0.20950000  0.95310000  0.01600000  1.0 0.5578426772
C  C464  1  0.45310000  0.29050000  0.51600000  1.0 0.5578426772
C  C465  1  0.79050000  0.95310000  0.01600000  1.0 0.5578426772
C  C466  1  0.20950000  0.04690000  0.01600000  1.0 0.5578426772
C  C467  1  0.45310000  0.70950000  0.51600000  1.0 0.5578426772
C  C468  1  0.54690000  0.29050000  0.51600000  1.0 0.5578426772
C  C469  1  0.54590000  0.29960000  0.63660000  1.0 0.5680222118
C  C470  1  0.79960000  0.95410000  0.13660000  1.0 0.5680222118
C  C471  1  0.45410000  0.70040000  0.63660000  1.0 0.5680222118
C  C472  1  0.20040000  0.04590000  0.13660000  1.0 0.5680222118
C  C473  1  0.54590000  0.70040000  0.63660000  1.0 0.5680222118
C  C474  1  0.45410000  0.29960000  0.63660000  1.0 0.5680222118
C  C475  1  0.20040000  0.95410000  0.13660000  1.0 0.5680222118
C  C476  1  0.79960000  0.04590000  0.13660000  1.0 0.5680222118
C  C477  1  0.62060000  0.32390000  0.70840000  1.0 -0.1629143103
C  C478  1  0.82390000  0.87940000  0.20840000  1.0 -0.1629143103
C  C479  1  0.37940000  0.67610000  0.70840000  1.0 -0.1629143103
C  C480  1  0.17610000  0.12060000  0.20840000  1.0 -0.1629143103
C  C481  1  0.62060000  0.67610000  0.70840000  1.0 -0.1629143103
C  C482  1  0.37940000  0.32390000  0.70840000  1.0 -0.1629143103
C  C483  1  0.17610000  0.87940000  0.20840000  1.0 -0.1629143103
C  C484  1  0.82390000  0.12060000  0.20840000  1.0 -0.1629143103
C  C485  1  0.84370000  0.19930000  0.92410000  1.0 -0.4993230573
C  C486  1  0.69930000  0.65630000  0.42410000  1.0 -0.4993230573
C  C487  1  0.15630000  0.80070000  0.92410000  1.0 -0.4993230573
C  C488  1  0.30070000  0.34370000  0.42410000  1.0 -0.4993230573
C  C489  1  0.84370000  0.80070000  0.92410000  1.0 -0.4993230573
C  C490  1  0.15630000  0.19930000  0.92410000  1.0 -0.4993230573
C  C491  1  0.30070000  0.65630000  0.42410000  1.0 -0.4993230573
C  C492  1  0.69930000  0.34370000  0.42410000  1.0 -0.4993230573
C  C493  1  0.67910000  0.26120000  0.77730000  1.0 0.1978201702
C  C494  1  0.76120000  0.82090000  0.27730000  1.0 0.1978201702
C  C495  1  0.32090000  0.73880000  0.77730000  1.0 0.1978201702
C  C496  1  0.23880000  0.17910000  0.27730000  1.0 0.1978201702
C  C497  1  0.67910000  0.73880000  0.77730000  1.0 0.1978201702
C  C498  1  0.32090000  0.26120000  0.77730000  1.0 0.1978201702
C  C499  1  0.23880000  0.82090000  0.27730000  1.0 0.1978201702
C  C500  1  0.76120000  0.17910000  0.27730000  1.0 0.1978201702
C  C501  1  0.70140000  0.34330000  0.71900000  1.0 -0.4796733762
C  C502  1  0.84330000  0.79860000  0.21900000  1.0 -0.4796733762
C  C503  1  0.29860000  0.65670000  0.71900000  1.0 -0.4796733762
C  C504  1  0.15670000  0.20140000  0.21900000  1.0 -0.4796733762
C  C505  1  0.70140000  0.65670000  0.71900000  1.0 -0.4796733762
C  C506  1  0.29860000  0.34330000  0.71900000  1.0 -0.4796733762
C  C507  1  0.15670000  0.79860000  0.21900000  1.0 -0.4796733762
C  C508  1  0.84330000  0.20140000  0.21900000  1.0 -0.4796733762
C  C509  1  0.78390000  0.17260000  0.90900000  1.0 -0.1497707254
C  C510  1  0.67260000  0.71610000  0.40900000  1.0 -0.1497707254
C  C511  1  0.21610000  0.82740000  0.90900000  1.0 -0.1497707254
C  C512  1  0.32740000  0.28390000  0.40900000  1.0 -0.1497707254
C  C513  1  0.78390000  0.82740000  0.90900000  1.0 -0.1497707254
C  C514  1  0.21610000  0.17260000  0.90900000  1.0 -0.1497707254
C  C515  1  0.32740000  0.71610000  0.40900000  1.0 -0.1497707254
C  C516  1  0.67260000  0.28390000  0.40900000  1.0 -0.1497707254
C  C517  1  0.80820000  0.19720000  0.90370000  1.0 0.1978201702
C  C518  1  0.69720000  0.69180000  0.40370000  1.0 0.1978201702
C  C519  1  0.19180000  0.80280000  0.90370000  1.0 0.1978201702
C  C520  1  0.30280000  0.30820000  0.40370000  1.0 0.1978201702
C  C521  1  0.80820000  0.80280000  0.90370000  1.0 0.1978201702
C  C522  1  0.19180000  0.19720000  0.90370000  1.0 0.1978201702
C  C523  1  0.30280000  0.69180000  0.40370000  1.0 0.1978201702
C  C524  1  0.69720000  0.30820000  0.40370000  1.0 0.1978201702
C  C525  1  0.69540000  0.30980000  0.74400000  1.0 0.1905666569
C  C526  1  0.80980000  0.80460000  0.24400000  1.0 0.1905666569
C  C527  1  0.30460000  0.69020000  0.74400000  1.0 0.1905666569
C  C528  1  0.19020000  0.19540000  0.24400000  1.0 0.1905666569
C  C529  1  0.69540000  0.69020000  0.74400000  1.0 0.1905666569
C  C530  1  0.30460000  0.30980000  0.74400000  1.0 0.1905666569
C  C531  1  0.19020000  0.80460000  0.24400000  1.0 0.1905666569
C  C532  1  0.80980000  0.19540000  0.24400000  1.0 0.1905666569
C  C533  1  0.75680000  0.18350000  0.88300000  1.0 0.1794480414
C  C534  1  0.68350000  0.74320000  0.38300000  1.0 0.1794480414
C  C535  1  0.24320000  0.81650000  0.88300000  1.0 0.1794480414
C  C536  1  0.31650000  0.25680000  0.38300000  1.0 0.1794480414
C  C537  1  0.75680000  0.81650000  0.88300000  1.0 0.1794480414
C  C538  1  0.24320000  0.18350000  0.88300000  1.0 0.1794480414
C  C539  1  0.31650000  0.74320000  0.38300000  1.0 0.1794480414
C  C540  1  0.68350000  0.25680000  0.38300000  1.0 0.1794480414
C  C541  1  0.81540000  0.12310000  0.93300000  1.0 -0.1444544272
C  C542  1  0.62310000  0.68460000  0.43300000  1.0 -0.1444544272
C  C543  1  0.18460000  0.87690000  0.93300000  1.0 -0.1497707254
C  C544  1  0.37690000  0.31540000  0.43300000  1.0 -0.1444544272
C  C545  1  0.81540000  0.87690000  0.93300000  1.0 -0.1444544272
C  C546  1  0.18460000  0.12310000  0.93300000  1.0 -0.1444544272
C  C547  1  0.37690000  0.68460000  0.43300000  1.0 -0.1444544272
C  C548  1  0.62310000  0.31540000  0.43300000  1.0 -0.1444544272
C  C549  1  0.63810000  0.00000000  0.09620000  1.0 -0.0485523699
C  C550  1  0.50000000  0.86190000  0.59620000  1.0 -0.0485523699
C  C551  1  0.36190000  0.00000000  0.09620000  1.0 -0.0485523699
C  C552  1  0.50000000  0.13810000  0.59620000  1.0 -0.0485523699
C  C553  1  0.65560000  0.03022000  0.09280000  1.0 -0.1497707254
C  C554  1  0.53022000  0.84440000  0.59280000  1.0 -0.1497707254
C  C555  1  0.34440000  0.96978000  0.09280000  1.0 -0.1497707254
C  C556  1  0.46978000  0.15560000  0.59280000  1.0 -0.1497707254
C  C557  1  0.65560000  0.96978000  0.09280000  1.0 -0.1497707254
C  C558  1  0.34440000  0.03022000  0.09280000  1.0 -0.1497707254
C  C559  1  0.46978000  0.84440000  0.59280000  1.0 -0.1497707254
C  C560  1  0.53022000  0.15560000  0.59280000  1.0 -0.1497707254
C  C561  1  0.69020000  0.03019000  0.08640000  1.0 0.0773102192
C  C562  1  0.53019000  0.80980000  0.58640000  1.0 0.0773102192
C  C563  1  0.30980000  0.96981000  0.08640000  1.0 0.0773102192
C  C564  1  0.46981000  0.19020000  0.58640000  1.0 0.0773102192
C  C565  1  0.69020000  0.96981000  0.08640000  1.0 0.0773102192
C  C566  1  0.30980000  0.03019000  0.08640000  1.0 0.0773102192
C  C567  1  0.46981000  0.80980000  0.58640000  1.0 0.0773102192
C  C568  1  0.53019000  0.19020000  0.58640000  1.0 0.0773102192
C  C569  1  0.66830000  0.28810000  0.75010000  1.0 -0.1790036639
C  C570  1  0.78810000  0.83170000  0.25010000  1.0 -0.1790036639
C  C571  1  0.33170000  0.71190000  0.75010000  1.0 -0.1790036639
C  C572  1  0.21190000  0.16830000  0.25010000  1.0 -0.1790036639
C  C573  1  0.66830000  0.71190000  0.75010000  1.0 -0.1790036639
C  C574  1  0.33170000  0.28810000  0.75010000  1.0 -0.1790036639
C  C575  1  0.21190000  0.83170000  0.25010000  1.0 -0.1790036639
C  C576  1  0.78810000  0.16830000  0.25010000  1.0 -0.1790036639
C  C577  1  0.78550000  0.14060000  0.93900000  1.0 0.1041249519
C  C578  1  0.64060000  0.71450000  0.43900000  1.0 0.1041249519
C  C579  1  0.21450000  0.85940000  0.93900000  1.0 0.1041249519
C  C580  1  0.35940000  0.28550000  0.43900000  1.0 0.1041249519
C  C581  1  0.78550000  0.85940000  0.93900000  1.0 0.1041249519
C  C582  1  0.21450000  0.14060000  0.93900000  1.0 0.1041249519
C  C583  1  0.35940000  0.71450000  0.43900000  1.0 0.1041249519
C  C584  1  0.64060000  0.28550000  0.43900000  1.0 0.1041249519
C  C585  1  0.62160000  0.26450000  0.70500000  1.0 -0.1718694794
C  C586  1  0.76450000  0.87840000  0.20500000  1.0 -0.1718694794
C  C587  1  0.37840000  0.73550000  0.70500000  1.0 -0.1718694794
C  C588  1  0.23550000  0.12160000  0.20500000  1.0 -0.1718694794
C  C589  1  0.62160000  0.73550000  0.70500000  1.0 -0.1718694794
C  C590  1  0.37840000  0.26450000  0.70500000  1.0 -0.1718694794
C  C591  1  0.23550000  0.87840000  0.20500000  1.0 -0.1718694794
C  C592  1  0.76450000  0.12160000  0.20500000  1.0 -0.1718694794
C  C593  1  0.63700000  0.29420000  0.72170000  1.0 0.1204412564
C  C594  1  0.79420000  0.86300000  0.22170000  1.0 0.1204412564
C  C595  1  0.36300000  0.70580000  0.72170000  1.0 0.1204412564
C  C596  1  0.20580000  0.13700000  0.22170000  1.0 0.1204412564
C  C597  1  0.63700000  0.70580000  0.72170000  1.0 0.1204412564
C  C598  1  0.36300000  0.29420000  0.72170000  1.0 0.1204412564
C  C599  1  0.20580000  0.86300000  0.22170000  1.0 0.1204412564
C  C600  1  0.79420000  0.13700000  0.22170000  1.0 0.1204412564
C  C601  1  0.65870000  0.23040000  0.79390000  1.0 -0.4796733762
C  C602  1  0.73040000  0.84130000  0.29390000  1.0 -0.4796733762
C  C603  1  0.34130000  0.76960000  0.79390000  1.0 -0.4796733762
C  C604  1  0.26960000  0.15870000  0.29390000  1.0 -0.4796733762
C  C605  1  0.65870000  0.76960000  0.79390000  1.0 -0.4796733762
C  C606  1  0.34130000  0.23040000  0.79390000  1.0 -0.4796733762
C  C607  1  0.26960000  0.84130000  0.29390000  1.0 -0.4796733762
C  C608  1  0.73040000  0.15870000  0.29390000  1.0 -0.4796733762
C  C609  1  0.72300000  0.16720000  0.87560000  1.0 -0.4796733762
C  C610  1  0.66720000  0.77700000  0.37560000  1.0 -0.4796733762
C  C611  1  0.27700000  0.83280000  0.87560000  1.0 -0.4796733762
C  C612  1  0.33280000  0.22300000  0.37560000  1.0 -0.4796733762
C  C613  1  0.72300000  0.83280000  0.87560000  1.0 -0.4796733762
C  C614  1  0.27700000  0.16720000  0.87560000  1.0 -0.4796733762
C  C615  1  0.33280000  0.77700000  0.37560000  1.0 -0.4796733762
C  C616  1  0.66720000  0.22300000  0.37560000  1.0 -0.4796733762
N  N1  1  0.79230000  0.50000000  0.41690000  1.0 -0.2685232929
N  N2  1  0.20770000  0.50000000  0.41690000  1.0 -0.2685232929
N  N3  1  0.00000000  0.70770000  0.91690000  1.0 -0.2685232929
N  N4  1  0.00000000  0.29230000  0.91690000  1.0 -0.2685232929
N  N5  1  0.67400000  0.80500000  0.66630000  1.0 -0.1718694794
N  N6  1  0.32600000  0.19500000  0.66630000  1.0 -0.1718694794
N  N7  1  0.30500000  0.82600000  0.16630000  1.0 -0.1718694794
N  N8  1  0.69500000  0.17400000  0.16630000  1.0 -0.1718694794
N  N9  1  0.67400000  0.19500000  0.66630000  1.0 -0.1718694794
N  N10  1  0.69500000  0.82600000  0.16630000  1.0 -0.1718694794
N  N11  1  0.32600000  0.80500000  0.66630000  1.0 -0.1718694794
N  N12  1  0.30500000  0.17400000  0.16630000  1.0 -0.1718694794
N  N13  1  0.69080000  0.82250000  0.70010000  1.0 -0.1907293424
N  N14  1  0.30920000  0.17750000  0.70010000  1.0 -0.1907293424
N  N15  1  0.32250000  0.80920000  0.20010000  1.0 -0.1907293424
N  N16  1  0.67750000  0.19080000  0.20010000  1.0 -0.1907293424
N  N17  1  0.69080000  0.17750000  0.70010000  1.0 -0.1907293424
N  N18  1  0.67750000  0.80920000  0.20010000  1.0 -0.1907293424
N  N19  1  0.30920000  0.82250000  0.70010000  1.0 -0.1907293424
N  N20  1  0.32250000  0.19080000  0.20010000  1.0 -0.1907293424
N  N21  1  0.70490000  0.72180000  0.62450000  1.0 -0.1790036639
N  N22  1  0.29510000  0.27820000  0.62450000  1.0 -0.1790036639
N  N23  1  0.22180000  0.79510000  0.12450000  1.0 -0.1790036639
N  N24  1  0.77820000  0.20490000  0.12450000  1.0 -0.1790036639
N  N25  1  0.70490000  0.27820000  0.62450000  1.0 -0.1790036639
N  N26  1  0.77820000  0.79510000  0.12450000  1.0 -0.1790036639
N  N27  1  0.29510000  0.72180000  0.62450000  1.0 -0.1790036639
N  N28  1  0.22180000  0.20490000  0.12450000  1.0 -0.1790036639
N  N29  1  0.77710000  0.79650000  0.73260000  1.0 -0.1907293424
N  N30  1  0.22290000  0.20350000  0.73260000  1.0 -0.1907293424
N  N31  1  0.29650000  0.72290000  0.23260000  1.0 -0.1907293424
N  N32  1  0.70350000  0.27710000  0.23260000  1.0 -0.1907293424
N  N33  1  0.77710000  0.20350000  0.73260000  1.0 -0.1907293424
N  N34  1  0.70350000  0.72290000  0.23260000  1.0 -0.1907293424
N  N35  1  0.22290000  0.79650000  0.73260000  1.0 -0.1907293424
N  N36  1  0.29650000  0.27710000  0.23260000  1.0 -0.1907293424
N  N37  1  0.73610000  0.71380000  0.63800000  1.0 -0.1907293424
N  N38  1  0.26390000  0.28620000  0.63800000  1.0 -0.1907293424
N  N39  1  0.21380000  0.76390000  0.13800000  1.0 -0.1907293424
N  N40  1  0.78620000  0.23610000  0.13800000  1.0 -0.1907293424
N  N41  1  0.73610000  0.28620000  0.63800000  1.0 -0.1907293424
N  N42  1  0.78620000  0.76390000  0.13800000  1.0 -0.1907293424
N  N43  1  0.26390000  0.71380000  0.63800000  1.0 -0.1907293424
N  N44  1  0.21380000  0.23610000  0.13800000  1.0 -0.1907293424
N  N45  1  0.78760000  0.76760000  0.71330000  1.0 -0.1907293424
N  N46  1  0.21240000  0.23240000  0.71330000  1.0 -0.1907293424
N  N47  1  0.26760000  0.71240000  0.21330000  1.0 -0.1907293424
N  N48  1  0.73240000  0.28760000  0.21330000  1.0 -0.1907293424
N  N49  1  0.78760000  0.23240000  0.71330000  1.0 -0.1907293424
N  N50  1  0.73240000  0.71240000  0.21330000  1.0 -0.1907293424
N  N51  1  0.21240000  0.76760000  0.71330000  1.0 -0.1907293424
N  N52  1  0.26760000  0.28760000  0.21330000  1.0 -0.1907293424
N  N53  1  0.70770000  0.00000000  0.08310000  1.0 -0.2685232929
N  N54  1  0.50000000  0.79230000  0.58310000  1.0 -0.2685232929
N  N55  1  0.29230000  0.00000000  0.08310000  1.0 -0.2685232929
N  N56  1  0.50000000  0.20770000  0.58310000  1.0 -0.2685232929
N  N57  1  0.82600000  0.30500000  0.83370000  1.0 -0.1718694794
N  N58  1  0.80500000  0.67400000  0.33370000  1.0 -0.1718694794
N  N59  1  0.17400000  0.69500000  0.83370000  1.0 -0.1718694794
N  N60  1  0.19500000  0.32600000  0.33370000  1.0 -0.1718694794
N  N61  1  0.82600000  0.69500000  0.83370000  1.0 -0.1718694794
N  N62  1  0.17400000  0.30500000  0.83370000  1.0 -0.1718694794
N  N63  1  0.19500000  0.67400000  0.33370000  1.0 -0.1718694794
N  N64  1  0.80500000  0.32600000  0.33370000  1.0 -0.1718694794
N  N65  1  0.80920000  0.32250000  0.79990000  1.0 -0.1907293424
N  N66  1  0.82250000  0.69080000  0.29990000  1.0 -0.1907293424
N  N67  1  0.19080000  0.67750000  0.79990000  1.0 -0.1907293424
N  N68  1  0.17750000  0.30920000  0.29990000  1.0 -0.1907293424
N  N69  1  0.80920000  0.67750000  0.79990000  1.0 -0.1907293424
N  N70  1  0.19080000  0.32250000  0.79990000  1.0 -0.1907293424
N  N71  1  0.17750000  0.69080000  0.29990000  1.0 -0.1907293424
N  N72  1  0.82250000  0.30920000  0.29990000  1.0 -0.1907293424
N  N73  1  0.79510000  0.22180000  0.87550000  1.0 -0.1790036639
N  N74  1  0.72180000  0.70490000  0.37550000  1.0 -0.1790036639
N  N75  1  0.20490000  0.77820000  0.87550000  1.0 -0.1790036639
N  N76  1  0.27820000  0.29510000  0.37550000  1.0 -0.1790036639
N  N77  1  0.79510000  0.77820000  0.87550000  1.0 -0.1790036639
N  N78  1  0.20490000  0.22180000  0.87550000  1.0 -0.1790036639
N  N79  1  0.27820000  0.70490000  0.37550000  1.0 -0.1790036639
N  N80  1  0.72180000  0.29510000  0.37550000  1.0 -0.1790036639
N  N81  1  0.72290000  0.29650000  0.76740000  1.0 -0.1907293424
N  N82  1  0.79650000  0.77710000  0.26740000  1.0 -0.1907293424
N  N83  1  0.27710000  0.70350000  0.76740000  1.0 -0.1907293424
N  N84  1  0.20350000  0.22290000  0.26740000  1.0 -0.1907293424
N  N85  1  0.72290000  0.70350000  0.76740000  1.0 -0.1907293424
N  N86  1  0.27710000  0.29650000  0.76740000  1.0 -0.1907293424
N  N87  1  0.20350000  0.77710000  0.26740000  1.0 -0.1907293424
N  N88  1  0.79650000  0.22290000  0.26740000  1.0 -0.1907293424
N  N89  1  0.76390000  0.21380000  0.86200000  1.0 -0.1907293424
N  N90  1  0.71380000  0.73610000  0.36200000  1.0 -0.1907293424
N  N91  1  0.23610000  0.78620000  0.86200000  1.0 -0.1907293424
N  N92  1  0.28620000  0.26390000  0.36200000  1.0 -0.1907293424
N  N93  1  0.76390000  0.78620000  0.86200000  1.0 -0.1907293424
N  N94  1  0.23610000  0.21380000  0.86200000  1.0 -0.1907293424
N  N95  1  0.28620000  0.73610000  0.36200000  1.0 -0.1907293424
N  N96  1  0.71380000  0.26390000  0.36200000  1.0 -0.1907293424
N  N97  1  0.71240000  0.26760000  0.78670000  1.0 -0.1907293424
N  N98  1  0.76760000  0.78760000  0.28670000  1.0 -0.1907293424
N  N99  1  0.28760000  0.73240000  0.78670000  1.0 -0.1907293424
N  N100  1  0.23240000  0.21240000  0.28670000  1.0 -0.1907293424
N  N101  1  0.71240000  0.73240000  0.78670000  1.0 -0.1907293424
N  N102  1  0.28760000  0.26760000  0.78670000  1.0 -0.1907293424
N  N103  1  0.23240000  0.78760000  0.28670000  1.0 -0.1907293424
N  N104  1  0.76760000  0.21240000  0.28670000  1.0 -0.1907293424
O  O1  1  0.53463000  0.96505000  0.63610000  1.0 -0.4318417574
O  O2  1  0.46537000  0.03495000  0.63610000  1.0 -0.4318417574
O  O3  1  0.46505000  0.96537000  0.13610000  1.0 -0.4318417574
O  O4  1  0.53495000  0.03463000  0.13610000  1.0 -0.4318417574
O  O5  1  0.53463000  0.03495000  0.63610000  1.0 -0.4318417574
O  O6  1  0.53495000  0.96537000  0.13610000  1.0 -0.4318417574
O  O7  1  0.46537000  0.96505000  0.63610000  1.0 -0.4318417574
O  O8  1  0.46505000  0.03463000  0.13610000  1.0 -0.4318417574
O  O9  1  0.53475000  0.96493000  0.71670000  1.0 -0.5204041547
O  O10  1  0.46525000  0.03507000  0.71670000  1.0 -0.5204041547
O  O11  1  0.46493000  0.96525000  0.21670000  1.0 -0.5204041547
O  O12  1  0.53507000  0.03475000  0.21670000  1.0 -0.5204041547
O  O13  1  0.53475000  0.03507000  0.71670000  1.0 -0.5204041547
O  O14  1  0.53507000  0.96525000  0.21670000  1.0 -0.5204041547
O  O15  1  0.46525000  0.96493000  0.71670000  1.0 -0.5204041547
O  O16  1  0.46493000  0.03475000  0.21670000  1.0 -0.5204041547
O  O17  1  0.67957000  0.53613000  0.47640000  1.0 -0.5277405551
O  O18  1  0.32043000  0.46387000  0.47640000  1.0 -0.5277405551
O  O19  1  0.03613000  0.82043000  0.97640000  1.0 -0.5277405551
O  O20  1  0.96387000  0.17957000  0.97640000  1.0 -0.5277405551
O  O21  1  0.67957000  0.46387000  0.47640000  1.0 -0.5277405551
O  O22  1  0.96387000  0.82043000  0.97640000  1.0 -0.5277405551
O  O23  1  0.32043000  0.53613000  0.47640000  1.0 -0.5277405551
O  O24  1  0.03613000  0.17957000  0.97640000  1.0 -0.5277405551
O  O25  1  0.73572000  0.53516000  0.47030000  1.0 -0.459928944
O  O26  1  0.26428000  0.46484000  0.47030000  1.0 -0.459928944
O  O27  1  0.03516000  0.76428000  0.97030000  1.0 -0.459928944
O  O28  1  0.96484000  0.23572000  0.97030000  1.0 -0.459928944
O  O29  1  0.73572000  0.46484000  0.47030000  1.0 -0.459928944
O  O30  1  0.96484000  0.76428000  0.97030000  1.0 -0.459928944
O  O31  1  0.26428000  0.53516000  0.47030000  1.0 -0.459928944
O  O32  1  0.03516000  0.23572000  0.97030000  1.0 -0.459928944
O  O33  1  0.96495000  0.82729000  0.87750000  1.0 -0.4796733762
O  O34  1  0.03505000  0.17271000  0.87750000  1.0 -0.4796733762
O  O35  1  0.32729000  0.53505000  0.37750000  1.0 -0.4796733762
O  O36  1  0.67271000  0.46495000  0.37750000  1.0 -0.4796733762
O  O37  1  0.96495000  0.17271000  0.87750000  1.0 -0.4796733762
O  O38  1  0.67271000  0.53505000  0.37750000  1.0 -0.4796733762
O  O39  1  0.03505000  0.82729000  0.87750000  1.0 -0.4796733762
O  O40  1  0.32729000  0.46495000  0.37750000  1.0 -0.4796733762
O  O41  1  0.96562000  0.77213000  0.87510000  1.0 -0.4796733762
O  O42  1  0.03438000  0.22787000  0.87510000  1.0 -0.4796733762
O  O43  1  0.27213000  0.53438000  0.37510000  1.0 -0.4796733762
O  O44  1  0.72787000  0.46562000  0.37510000  1.0 -0.4796733762
O  O45  1  0.96562000  0.22787000  0.87510000  1.0 -0.4796733762
O  O46  1  0.72787000  0.53438000  0.37510000  1.0 -0.4796733762
O  O47  1  0.03438000  0.77213000  0.87510000  1.0 -0.4796733762
O  O48  1  0.27213000  0.46562000  0.37510000  1.0 -0.4796733762
O  O49  1  0.96537000  0.46505000  0.86390000  1.0 -0.4318417574
O  O50  1  0.96505000  0.53463000  0.36390000  1.0 -0.4318417574
O  O51  1  0.03463000  0.53495000  0.86390000  1.0 -0.4318417574
O  O52  1  0.03495000  0.46537000  0.36390000  1.0 -0.4318417574
O  O53  1  0.96537000  0.53495000  0.86390000  1.0 -0.4318417574
O  O54  1  0.03463000  0.46505000  0.86390000  1.0 -0.4318417574
O  O55  1  0.03495000  0.53463000  0.36390000  1.0 -0.4318417574
O  O56  1  0.96505000  0.46537000  0.36390000  1.0 -0.4318417574
O  O57  1  0.96525000  0.46493000  0.78330000  1.0 -0.5204041547
O  O58  1  0.96493000  0.53475000  0.28330000  1.0 -0.5204041547
O  O59  1  0.03475000  0.53507000  0.78330000  1.0 -0.5204041547
O  O60  1  0.03507000  0.46525000  0.28330000  1.0 -0.5204041547
O  O61  1  0.96525000  0.53507000  0.78330000  1.0 -0.5204041547
O  O62  1  0.03475000  0.46493000  0.78330000  1.0 -0.5204041547
O  O63  1  0.03507000  0.53475000  0.28330000  1.0 -0.5204041547
O  O64  1  0.96493000  0.46525000  0.28330000  1.0 -0.5204041547
O  O65  1  0.82043000  0.03613000  0.02360000  1.0 -0.5277405551
O  O66  1  0.53613000  0.67957000  0.52360000  1.0 -0.5277405551
O  O67  1  0.17957000  0.96387000  0.02360000  1.0 -0.5277405551
O  O68  1  0.46387000  0.32043000  0.52360000  1.0 -0.5277405551
O  O69  1  0.82043000  0.96387000  0.02360000  1.0 -0.5277405551
O  O70  1  0.17957000  0.03613000  0.02360000  1.0 -0.5277405551
O  O71  1  0.46387000  0.67957000  0.52360000  1.0 -0.5277405551
O  O72  1  0.53613000  0.32043000  0.52360000  1.0 -0.5277405551
O  O73  1  0.76428000  0.03516000  0.02970000  1.0 -0.459928944
O  O74  1  0.53516000  0.73572000  0.52970000  1.0 -0.459928944
O  O75  1  0.23572000  0.96484000  0.02970000  1.0 -0.459928944
O  O76  1  0.46484000  0.26428000  0.52970000  1.0 -0.459928944
O  O77  1  0.76428000  0.96484000  0.02970000  1.0 -0.459928944
O  O78  1  0.23572000  0.03516000  0.02970000  1.0 -0.459928944
O  O79  1  0.46484000  0.73572000  0.52970000  1.0 -0.459928944
O  O80  1  0.53516000  0.26428000  0.52970000  1.0 -0.459928944
O  O81  1  0.53505000  0.32729000  0.62250000  1.0 -0.4796733762
O  O82  1  0.82729000  0.96495000  0.12250000  1.0 -0.4796733762
O  O83  1  0.46495000  0.67271000  0.62250000  1.0 -0.4796733762
O  O84  1  0.17271000  0.03505000  0.12250000  1.0 -0.4796733762
O  O85  1  0.53505000  0.67271000  0.62250000  1.0 -0.4796733762
O  O86  1  0.46495000  0.32729000  0.62250000  1.0 -0.4796733762
O  O87  1  0.17271000  0.96495000  0.12250000  1.0 -0.4796733762
O  O88  1  0.82729000  0.03505000  0.12250000  1.0 -0.4796733762
O  O89  1  0.53438000  0.27213000  0.62490000  1.0 -0.4796733762
O  O90  1  0.77213000  0.96562000  0.12490000  1.0 -0.4796733762
O  O91  1  0.46562000  0.72787000  0.62490000  1.0 -0.4796733762
O  O92  1  0.22787000  0.03438000  0.12490000  1.0 -0.4796733762
O  O93  1  0.53438000  0.72787000  0.62490000  1.0 -0.4796733762
O  O94  1  0.46562000  0.27213000  0.62490000  1.0 -0.4796733762
O  O95  1  0.22787000  0.96562000  0.12490000  1.0 -0.4796733762
O  O96  1  0.77213000  0.03438000  0.12490000  1.0 -0.4796733762
