# DDEC6 charges by PACMAN v1.1 (https://github.com/mtap-research/PACMAN-charge/)
data_MILSIL_ion_pacman
_symmetry_space_group_name_H-M   'P 1'
_cell_length_a   16.67400000
_cell_length_b   13.48400000
_cell_length_c   30.09400000
_cell_angle_alpha   90.00000000
_cell_angle_beta   96.87000000
_cell_angle_gamma   90.00000000
_symmetry_Int_Tables_number   1
_chemical_formula_structural   Ni5H104C86N16(ClO9)2
_chemical_formula_sum   'Ni10 H208 C172 N32 Cl4 O36'
_cell_volume   6717.52084505
_cell_formula_units_Z   2
loop_
 _symmetry_equiv_pos_site_id
 _symmetry_equiv_pos_as_xyz
  1  'x, y, z'
loop_
 _atom_site_type_symbol
 _atom_site_label
 _atom_site_symmetry_multiplicity
 _atom_site_fract_x
 _atom_site_fract_y
 _atom_site_fract_z
 _atom_site_occupancy
 _atom_site_charge
Ni  Ni1  1  0.59890000  0.98204000  0.92193000  1.0 0.8255456164
Ni  Ni2  1  0.40110000  0.48204000  0.57807000  1.0 0.8255456164
Ni  Ni3  1  0.40110000  0.01796000  0.07807000  1.0 0.8255456164
Ni  Ni4  1  0.59890000  0.51796000  0.42193000  1.0 0.8255456164
Ni  Ni5  1  0.50000000  0.00000000  0.00000000  1.0 0.949777834
Ni  Ni6  1  0.50000000  0.50000000  0.50000000  1.0 0.949777834
Ni  Ni7  1  0.59674000  0.80683000  0.01234000  1.0 0.8239363953
Ni  Ni8  1  0.40326000  0.30683000  0.48766000  1.0 0.8239363953
Ni  Ni9  1  0.40326000  0.19317000  0.98766000  1.0 0.8239363953
Ni  Ni10  1  0.59674000  0.69317000  0.51234000  1.0 0.8239363953
H  H1  1  0.45080000  0.12320000  0.61790000  1.0 0.1205411818
H  H2  1  0.54920000  0.62320000  0.88210000  1.0 0.1205411818
H  H3  1  0.54920000  0.87680000  0.38210000  1.0 0.1205411818
H  H4  1  0.45080000  0.37680000  0.11790000  1.0 0.1205411818
H  H5  1  0.35510000  0.13430000  0.60740000  1.0 0.1205411818
H  H6  1  0.64490000  0.63430000  0.89260000  1.0 0.1205411818
H  H7  1  0.64490000  0.86570000  0.39260000  1.0 0.1205411818
H  H8  1  0.35510000  0.36570000  0.10740000  1.0 0.1205411818
H  H9  1  0.45340000  0.22660000  0.67940000  1.0 0.0798912226
H  H10  1  0.54660000  0.72660000  0.82060000  1.0 0.0798912226
H  H11  1  0.54660000  0.77340000  0.32060000  1.0 0.0798912226
H  H12  1  0.45340000  0.27340000  0.17940000  1.0 0.0798912226
H  H13  1  0.35990000  0.25250000  0.66730000  1.0 0.0798912226
H  H14  1  0.64010000  0.75250000  0.83270000  1.0 0.0798912226
H  H15  1  0.64010000  0.74750000  0.33270000  1.0 0.0798912226
H  H16  1  0.35990000  0.24750000  0.16730000  1.0 0.0798912226
H  H17  1  0.32230000  0.09410000  0.68740000  1.0 0.1008279421
H  H18  1  0.67770000  0.59410000  0.81260000  1.0 0.1008279421
H  H19  1  0.67770000  0.90590000  0.31260000  1.0 0.1008279421
H  H20  1  0.32230000  0.40590000  0.18740000  1.0 0.1008279421
H  H21  1  0.41460000  0.05820000  0.69380000  1.0 0.0906212543
H  H22  1  0.58540000  0.55820000  0.80620000  1.0 0.0906212543
H  H23  1  0.58540000  0.94180000  0.30620000  1.0 0.0906212543
H  H24  1  0.41460000  0.44180000  0.19380000  1.0 0.0906212543
H  H25  1  0.44200000  0.17380000  0.75430000  1.0 0.0798912226
H  H26  1  0.55800000  0.67380000  0.74570000  1.0 0.0798912226
H  H27  1  0.55800000  0.82620000  0.24570000  1.0 0.0798912226
H  H28  1  0.44200000  0.32620000  0.25430000  1.0 0.0798912226
H  H29  1  0.34850000  0.20350000  0.74870000  1.0 0.1008279421
H  H30  1  0.65150000  0.70350000  0.75130000  1.0 0.1008279421
H  H31  1  0.65150000  0.79650000  0.25130000  1.0 0.1008279421
H  H32  1  0.34850000  0.29650000  0.24870000  1.0 0.1008279421
H  H33  1  0.40440000  0.00800000  0.77430000  1.0 0.0798912226
H  H34  1  0.59560000  0.50800000  0.72570000  1.0 0.0798912226
H  H35  1  0.59560000  0.99200000  0.22570000  1.0 0.0798912226
H  H36  1  0.40440000  0.49200000  0.27430000  1.0 0.0798912226
H  H37  1  0.31290000  0.04530000  0.77290000  1.0 0.1008279421
H  H38  1  0.68710000  0.54530000  0.72710000  1.0 0.1008279421
H  H39  1  0.68710000  0.95470000  0.22710000  1.0 0.1008279421
H  H40  1  0.31290000  0.45470000  0.27290000  1.0 0.1008279421
H  H41  1  0.34620000  0.15050000  0.83360000  1.0 0.0906212543
H  H42  1  0.65380000  0.65050000  0.66640000  1.0 0.0906212543
H  H43  1  0.65380000  0.84950000  0.16640000  1.0 0.0906212543
H  H44  1  0.34620000  0.34950000  0.33360000  1.0 0.0906212543
H  H45  1  0.44080000  0.13460000  0.83170000  1.0 0.0798912226
H  H46  1  0.55920000  0.63460000  0.66830000  1.0 0.0798912226
H  H47  1  0.55920000  0.86540000  0.16830000  1.0 0.0798912226
H  H48  1  0.44080000  0.36540000  0.33170000  1.0 0.0798912226
H  H49  1  0.42350000  0.96380000  0.85270000  1.0 0.1291210539
H  H50  1  0.57650000  0.46380000  0.64730000  1.0 0.1291210539
H  H51  1  0.57650000  0.03620000  0.14730000  1.0 0.1291210539
H  H52  1  0.42350000  0.53620000  0.35270000  1.0 0.1291210539
H  H53  1  0.33260000  0.99020000  0.86010000  1.0 0.1413114815
H  H54  1  0.66740000  0.49020000  0.63990000  1.0 0.1413114815
H  H55  1  0.66740000  0.00980000  0.13990000  1.0 0.1413114815
H  H56  1  0.33260000  0.50980000  0.36010000  1.0 0.1413114815
H  H57  1  0.57680000  0.33110000  0.96150000  1.0 0.0798912226
H  H58  1  0.42320000  0.83110000  0.53850000  1.0 0.0798912226
H  H59  1  0.42320000  0.66890000  0.03850000  1.0 0.0798912226
H  H60  1  0.57680000  0.16890000  0.46150000  1.0 0.0798912226
H  H61  1  0.61500000  0.30080000  0.01080000  1.0 0.1291210539
H  H62  1  0.38500000  0.80080000  0.48920000  1.0 0.1291210539
H  H63  1  0.38500000  0.69920000  0.98920000  1.0 0.1291210539
H  H64  1  0.61500000  0.19920000  0.51080000  1.0 0.1291210539
H  H65  1  0.70520000  0.26580000  0.93750000  1.0 0.0669449753
H  H66  1  0.29480000  0.76580000  0.56250000  1.0 0.0669449753
H  H67  1  0.29480000  0.73420000  0.06250000  1.0 0.0669449753
H  H68  1  0.70520000  0.23420000  0.43750000  1.0 0.0669449753
H  H69  1  0.74000000  0.27460000  0.98920000  1.0 0.1008279421
H  H70  1  0.26000000  0.77460000  0.51080000  1.0 0.1008279421
H  H71  1  0.26000000  0.72540000  0.01080000  1.0 0.1008279421
H  H72  1  0.74000000  0.22540000  0.48920000  1.0 0.1008279421
H  H73  1  0.67420000  0.45140000  0.96720000  1.0 0.0906212543
H  H74  1  0.32580000  0.95140000  0.53280000  1.0 0.0906212543
H  H75  1  0.32580000  0.54860000  0.03280000  1.0 0.0906212543
H  H76  1  0.67420000  0.04860000  0.46720000  1.0 0.0906212543
H  H77  1  0.76810000  0.42800000  0.97950000  1.0 0.0623317807
H  H78  1  0.23190000  0.92800000  0.52050000  1.0 0.0623317807
H  H79  1  0.23190000  0.57200000  0.02050000  1.0 0.0623317807
H  H80  1  0.76810000  0.07200000  0.47950000  1.0 0.0623317807
H  H81  1  0.69430000  0.40540000  0.88900000  1.0 0.0906212543
H  H82  1  0.30570000  0.90540000  0.61100000  1.0 0.0906212543
H  H83  1  0.30570000  0.59460000  0.11100000  1.0 0.0906212543
H  H84  1  0.69430000  0.09460000  0.38900000  1.0 0.0906212543
H  H85  1  0.73040000  0.51080000  0.90670000  1.0 0.0906212543
H  H86  1  0.26960000  0.01080000  0.59330000  1.0 0.0906212543
H  H87  1  0.26960000  0.48920000  0.09330000  1.0 0.0906212543
H  H88  1  0.73040000  0.98920000  0.40670000  1.0 0.0906212543
H  H89  1  0.84600000  0.44500000  0.88510000  1.0 0.0906212543
H  H90  1  0.15400000  0.94500000  0.61490000  1.0 0.0906212543
H  H91  1  0.15400000  0.55500000  0.11490000  1.0 0.0906212543
H  H92  1  0.84600000  0.05500000  0.38510000  1.0 0.0906212543
H  H93  1  0.81880000  0.33310000  0.89370000  1.0 0.1008279421
H  H94  1  0.18120000  0.83310000  0.60630000  1.0 0.1008279421
H  H95  1  0.18120000  0.66690000  0.10630000  1.0 0.1008279421
H  H96  1  0.81880000  0.16690000  0.39370000  1.0 0.1008279421
H  H97  1  0.85150000  0.45690000  0.97040000  1.0 0.0669449753
H  H98  1  0.14850000  0.95690000  0.52960000  1.0 0.0669449753
H  H99  1  0.14850000  0.54310000  0.02960000  1.0 0.0669449753
H  H100  1  0.85150000  0.04310000  0.47040000  1.0 0.0669449753
H  H101  1  0.86450000  0.33920000  0.96750000  1.0 0.0906212543
H  H102  1  0.13550000  0.83920000  0.53250000  1.0 0.0906212543
H  H103  1  0.13550000  0.66080000  0.03250000  1.0 0.0906212543
H  H104  1  0.86450000  0.16080000  0.46750000  1.0 0.0906212543
H  H105  1  0.97930000  0.36670000  0.92690000  1.0 0.1291210539
H  H106  1  0.02070000  0.86670000  0.57310000  1.0 0.1291210539
H  H107  1  0.02070000  0.63330000  0.07310000  1.0 0.1291210539
H  H108  1  0.97930000  0.13330000  0.42690000  1.0 0.1291210539
H  H109  1  0.99400000  0.41680000  0.97550000  1.0 0.1008279421
H  H110  1  0.00600000  0.91680000  0.52450000  1.0 0.1008279421
H  H111  1  0.00600000  0.58320000  0.02450000  1.0 0.1008279421
H  H112  1  0.99400000  0.08320000  0.47550000  1.0 0.1008279421
H  H113  1  0.57010000  0.91580000  0.81750000  1.0 0.1115650855
H  H114  1  0.42990000  0.41580000  0.68250000  1.0 0.1115650855
H  H115  1  0.42990000  0.08420000  0.18250000  1.0 0.1115650855
H  H116  1  0.57010000  0.58420000  0.31750000  1.0 0.1115650855
H  H117  1  0.61810000  0.18550000  0.86540000  1.0 0.1205411818
H  H118  1  0.38190000  0.68550000  0.63460000  1.0 0.1205411818
H  H119  1  0.38190000  0.81450000  0.13460000  1.0 0.1205411818
H  H120  1  0.61810000  0.31450000  0.36540000  1.0 0.1205411818
H  H121  1  0.62180000  0.19190000  0.78320000  1.0 0.1291210539
H  H122  1  0.37820000  0.69190000  0.71680000  1.0 0.1291210539
H  H123  1  0.37820000  0.80810000  0.21680000  1.0 0.1291210539
H  H124  1  0.62180000  0.30810000  0.28320000  1.0 0.1291210539
H  H125  1  0.65450000  0.12950000  0.71780000  1.0 0.1205411818
H  H126  1  0.34550000  0.62950000  0.78220000  1.0 0.1205411818
H  H127  1  0.34550000  0.87050000  0.28220000  1.0 0.1205411818
H  H128  1  0.65450000  0.37050000  0.21780000  1.0 0.1205411818
H  H129  1  0.64640000  0.08190000  0.64270000  1.0 0.1291210539
H  H130  1  0.35360000  0.58190000  0.85730000  1.0 0.1291210539
H  H131  1  0.35360000  0.91810000  0.35730000  1.0 0.1291210539
H  H132  1  0.64640000  0.41810000  0.14270000  1.0 0.1291210539
H  H133  1  0.51920000  0.83950000  0.66810000  1.0 0.1291210539
H  H134  1  0.48080000  0.33950000  0.83190000  1.0 0.1291210539
H  H135  1  0.48080000  0.16050000  0.33190000  1.0 0.1291210539
H  H136  1  0.51920000  0.66050000  0.16810000  1.0 0.1291210539
H  H137  1  0.52530000  0.88690000  0.74420000  1.0 0.1291210539
H  H138  1  0.47470000  0.38690000  0.75580000  1.0 0.1291210539
H  H139  1  0.47470000  0.11310000  0.25580000  1.0 0.1291210539
H  H140  1  0.52530000  0.61310000  0.24420000  1.0 0.1291210539
H  H141  1  0.58740000  0.77580000  0.60880000  1.0 0.1205411818
H  H142  1  0.41260000  0.27580000  0.89120000  1.0 0.1205411818
H  H143  1  0.41260000  0.22420000  0.39120000  1.0 0.1205411818
H  H144  1  0.58740000  0.72420000  0.10880000  1.0 0.1205411818
H  H145  1  0.57440000  0.94110000  0.50040000  1.0 0.1205411818
H  H146  1  0.42560000  0.44110000  0.99960000  1.0 0.1205411818
H  H147  1  0.42560000  0.05890000  0.49960000  1.0 0.1205411818
H  H148  1  0.57440000  0.55890000  0.00040000  1.0 0.1205411818
H  H149  1  0.57090000  0.05580000  0.56400000  1.0 0.1413114815
H  H150  1  0.42910000  0.55580000  0.93600000  1.0 0.1413114815
H  H151  1  0.42910000  0.94420000  0.43600000  1.0 0.1413114815
H  H152  1  0.57090000  0.44420000  0.06400000  1.0 0.1413114815
H  H153  1  0.76670000  0.09660000  0.94710000  1.0 0.1115650855
H  H154  1  0.23330000  0.59660000  0.55290000  1.0 0.1115650855
H  H155  1  0.23330000  0.90340000  0.05290000  1.0 0.1115650855
H  H156  1  0.76670000  0.40340000  0.44710000  1.0 0.1115650855
H  H157  1  0.74050000  0.82450000  0.90180000  1.0 0.1205411818
H  H158  1  0.25950000  0.32450000  0.59820000  1.0 0.1205411818
H  H159  1  0.25950000  0.17550000  0.09820000  1.0 0.1205411818
H  H160  1  0.74050000  0.67550000  0.40180000  1.0 0.1205411818
H  H161  1  0.88640000  0.85450000  0.91660000  1.0 0.1205411818
H  H162  1  0.11360000  0.35450000  0.58340000  1.0 0.1205411818
H  H163  1  0.11360000  0.14550000  0.08340000  1.0 0.1205411818
H  H164  1  0.88640000  0.64550000  0.41660000  1.0 0.1205411818
H  H165  1  0.99220000  0.96790000  0.90610000  1.0 0.1291210539
H  H166  1  0.00780000  0.46790000  0.59390000  1.0 0.1291210539
H  H167  1  0.00780000  0.03210000  0.09390000  1.0 0.1291210539
H  H168  1  0.99220000  0.53210000  0.40610000  1.0 0.1291210539
H  H169  1  0.11370000  0.04880000  0.92480000  1.0 0.1413114815
H  H170  1  0.88630000  0.54880000  0.57520000  1.0 0.1413114815
H  H171  1  0.88630000  0.95120000  0.07520000  1.0 0.1413114815
H  H172  1  0.11370000  0.45120000  0.42480000  1.0 0.1413114815
H  H173  1  0.01020000  0.22850000  0.00740000  1.0 0.1115650855
H  H174  1  0.98980000  0.72850000  0.49260000  1.0 0.1115650855
H  H175  1  0.98980000  0.77150000  0.99260000  1.0 0.1115650855
H  H176  1  0.01020000  0.27150000  0.50740000  1.0 0.1115650855
H  H177  1  0.88840000  0.14060000  0.99230000  1.0 0.1291210539
H  H178  1  0.11160000  0.64060000  0.50770000  1.0 0.1291210539
H  H179  1  0.11160000  0.85940000  0.00770000  1.0 0.1291210539
H  H180  1  0.88840000  0.35940000  0.49230000  1.0 0.1291210539
H  H181  1  0.23020000  0.09430000  0.96180000  1.0 0.1205411818
H  H182  1  0.76980000  0.59430000  0.53820000  1.0 0.1205411818
H  H183  1  0.76980000  0.90570000  0.03820000  1.0 0.1205411818
H  H184  1  0.23020000  0.40570000  0.46180000  1.0 0.1205411818
H  H185  1  0.26980000  0.36340000  0.01150000  1.0 0.1205411818
H  H186  1  0.73020000  0.86340000  0.48850000  1.0 0.1205411818
H  H187  1  0.73020000  0.63660000  0.98850000  1.0 0.1205411818
H  H188  1  0.26980000  0.13660000  0.51150000  1.0 0.1205411818
H  H189  1  0.12330000  0.33620000  0.00270000  1.0 0.1115650855
H  H190  1  0.87670000  0.83620000  0.49730000  1.0 0.1115650855
H  H191  1  0.87670000  0.66380000  0.99730000  1.0 0.1115650855
H  H192  1  0.12330000  0.16380000  0.50270000  1.0 0.1115650855
H  H193  1  0.00080000  0.63330000  0.93120000  1.0 0.3170669078
H  H194  1  0.99920000  0.13330000  0.56880000  1.0 0.3170669078
H  H195  1  0.99920000  0.36670000  0.06880000  1.0 0.3170669078
H  H196  1  0.00080000  0.86670000  0.43120000  1.0 0.3170669078
H  H197  1  0.64500000  0.97000000  0.00080000  1.0 0.3477375134
H  H198  1  0.35500000  0.47000000  0.49920000  1.0 0.3477375134
H  H199  1  0.35500000  0.03000000  0.99920000  1.0 0.3477375134
H  H200  1  0.64500000  0.53000000  0.50080000  1.0 0.3477375134
H  H201  1  0.66666667  0.27920000  0.92810000  1.0 0.0669449753
H  H202  1  0.33333333  0.77920000  0.57190000  1.0 0.0669449753
H  H203  1  0.33333333  0.72080000  0.07190000  1.0 0.0669449753
H  H204  1  0.66666667  0.22080000  0.42810000  1.0 0.0669449753
H  H205  1  0.58380000  0.34650000  0.93480000  1.0 0.0798912226
H  H206  1  0.41620000  0.84650000  0.56520000  1.0 0.0798912226
H  H207  1  0.41620000  0.65350000  0.06520000  1.0 0.0798912226
H  H208  1  0.58380000  0.15350000  0.43480000  1.0 0.0798912226
C  C1  1  0.41650000  0.25530000  0.58695000  1.0 0.6327900215
C  C2  1  0.58350000  0.75530000  0.91305000  1.0 0.6327900215
C  C3  1  0.58350000  0.74470000  0.41305000  1.0 0.6327900215
C  C4  1  0.41650000  0.24470000  0.08695000  1.0 0.6327900215
C  C5  1  0.40530000  0.17010000  0.61867000  1.0 -0.3575075344
C  C6  1  0.59470000  0.67010000  0.88133000  1.0 -0.3575075344
C  C7  1  0.59470000  0.82990000  0.38133000  1.0 -0.3575075344
C  C8  1  0.40530000  0.32990000  0.11867000  1.0 -0.3575075344
C  C9  1  0.40050000  0.19900000  0.66684000  1.0 -0.1398608685
C  C10  1  0.59950000  0.69900000  0.83316000  1.0 -0.1398608685
C  C11  1  0.59950000  0.80100000  0.33316000  1.0 -0.1398608685
C  C12  1  0.40050000  0.30100000  0.16684000  1.0 -0.1398608685
C  C13  1  0.37860000  0.11550000  0.69690000  1.0 -0.1890918465
C  C14  1  0.62140000  0.61550000  0.80310000  1.0 -0.1890918465
C  C15  1  0.62140000  0.88450000  0.30310000  1.0 -0.1890918465
C  C16  1  0.37860000  0.38450000  0.19690000  1.0 -0.1890918465
C  C17  1  0.38660000  0.14820000  0.74584000  1.0 -0.1805605934
C  C18  1  0.61340000  0.64820000  0.75416000  1.0 -0.1805605934
C  C19  1  0.61340000  0.85180000  0.25416000  1.0 -0.1805605934
C  C20  1  0.38660000  0.35180000  0.24584000  1.0 -0.1805605934
C  C21  1  0.37010000  0.06620000  0.77889000  1.0 -0.1805605934
C  C22  1  0.62990000  0.56620000  0.72111000  1.0 -0.1805605934
C  C23  1  0.62990000  0.93380000  0.22111000  1.0 -0.1805605934
C  C24  1  0.37010000  0.43380000  0.27889000  1.0 -0.1805605934
C  C25  1  0.38760000  0.10120000  0.82755000  1.0 -0.1398608685
C  C26  1  0.61240000  0.60120000  0.67245000  1.0 -0.1398608685
C  C27  1  0.61240000  0.89880000  0.17245000  1.0 -0.1398608685
C  C28  1  0.38760000  0.39880000  0.32755000  1.0 -0.1398608685
C  C29  1  0.38790000  0.01750000  0.86126000  1.0 -0.3303145954
C  C30  1  0.61210000  0.51750000  0.63874000  1.0 -0.3303145954
C  C31  1  0.61210000  0.98250000  0.13874000  1.0 -0.3303145954
C  C32  1  0.38790000  0.48250000  0.36126000  1.0 -0.3303145954
C  C33  1  0.41630000  0.04910000  0.90888000  1.0 0.6462560369
C  C34  1  0.58370000  0.54910000  0.59112000  1.0 0.6462560369
C  C35  1  0.58370000  0.95090000  0.09112000  1.0 0.6462560369
C  C36  1  0.41630000  0.45090000  0.40888000  1.0 0.6462560369
C  C37  1  0.58420000  0.18030000  0.97061000  1.0 0.5675396843
C  C38  1  0.41580000  0.68030000  0.52939000  1.0 0.5675396843
C  C39  1  0.41580000  0.81970000  0.02939000  1.0 0.5675396843
C  C40  1  0.58420000  0.31970000  0.47061000  1.0 0.5675396843
C  C41  1  0.61480000  0.28490000  0.97870000  1.0 -0.1958342121
C  C42  1  0.38520000  0.78490000  0.52130000  1.0 -0.1958342121
C  C43  1  0.38520000  0.71510000  0.02130000  1.0 -0.1958342121
C  C44  1  0.61480000  0.21510000  0.47870000  1.0 -0.1958342121
C  C45  1  0.69990000  0.30230000  0.96550000  1.0 -0.1230185827
C  C46  1  0.30010000  0.80230000  0.53450000  1.0 -0.1230185827
C  C47  1  0.30010000  0.69770000  0.03450000  1.0 -0.1230185827
C  C48  1  0.69990000  0.19770000  0.46550000  1.0 -0.1230185827
C  C49  1  0.71940000  0.41060000  0.95880000  1.0 -0.0731060301
C  C50  1  0.28060000  0.91060000  0.54120000  1.0 -0.0731060301
C  C51  1  0.28060000  0.58940000  0.04120000  1.0 -0.0731060301
C  C52  1  0.71940000  0.08940000  0.45880000  1.0 -0.0731060301
C  C53  1  0.73440000  0.43800000  0.91120000  1.0 -0.2471684293
C  C54  1  0.26560000  0.93800000  0.58880000  1.0 -0.2471684293
C  C55  1  0.26560000  0.56200000  0.08880000  1.0 -0.2471684293
C  C56  1  0.73440000  0.06200000  0.41120000  1.0 -0.2471684293
C  C57  1  0.82100000  0.40100000  0.90600000  1.0 -0.159110687
C  C58  1  0.17900000  0.90100000  0.59400000  1.0 -0.159110687
C  C59  1  0.17900000  0.59900000  0.09400000  1.0 -0.159110687
C  C60  1  0.82100000  0.09900000  0.40600000  1.0 -0.159110687
C  C61  1  0.87070000  0.40300000  0.95200000  1.0 -0.159110687
C  C62  1  0.12930000  0.90300000  0.54800000  1.0 -0.159110687
C  C63  1  0.12930000  0.59700000  0.04800000  1.0 -0.1497873442
C  C64  1  0.87070000  0.09700000  0.45200000  1.0 -0.159110687
C  C65  1  0.96080000  0.42000000  0.94600000  1.0 -0.3303145954
C  C66  1  0.03920000  0.92000000  0.55400000  1.0 -0.3303145954
C  C67  1  0.03920000  0.58000000  0.05400000  1.0 -0.3303145954
C  C68  1  0.96080000  0.08000000  0.44600000  1.0 -0.3303145954
C  C69  1  0.97200000  0.52130000  0.92420000  1.0 0.5769619866
C  C70  1  0.02800000  0.02130000  0.57580000  1.0 0.5769619866
C  C71  1  0.02800000  0.47870000  0.07580000  1.0 0.5769619866
C  C72  1  0.97200000  0.97870000  0.42420000  1.0 0.5769619866
C  C73  1  0.58250000  0.98460000  0.81938000  1.0 0.1008279421
C  C74  1  0.41750000  0.48460000  0.68062000  1.0 0.1008279421
C  C75  1  0.41750000  0.01540000  0.18062000  1.0 0.1008279421
C  C76  1  0.58250000  0.51540000  0.31938000  1.0 0.1008279421
C  C77  1  0.60880000  0.13140000  0.84531000  1.0 -0.0406492596
C  C78  1  0.39120000  0.63140000  0.65469000  1.0 -0.0406492596
C  C79  1  0.39120000  0.86860000  0.15469000  1.0 -0.0406492596
C  C80  1  0.60880000  0.36860000  0.34531000  1.0 -0.0406492596
C  C81  1  0.61060000  0.13520000  0.80017000  1.0 -0.1065714509
C  C82  1  0.38940000  0.63520000  0.69983000  1.0 -0.1065714509
C  C83  1  0.38940000  0.86480000  0.19983000  1.0 -0.1065714509
C  C84  1  0.61060000  0.36480000  0.30017000  1.0 -0.1065714509
C  C85  1  0.59050000  0.01140000  0.73811000  1.0 0.1578517034
C  C86  1  0.40950000  0.51140000  0.76189000  1.0 0.1578517034
C  C87  1  0.40950000  0.98860000  0.26189000  1.0 0.1578517034
C  C88  1  0.59050000  0.48860000  0.23811000  1.0 0.1578517034
C  C89  1  0.62680000  0.07050000  0.70793000  1.0 -0.1805605934
C  C90  1  0.37320000  0.57050000  0.79207000  1.0 -0.1805605934
C  C91  1  0.37320000  0.92950000  0.29207000  1.0 -0.1805605934
C  C92  1  0.62680000  0.42950000  0.20793000  1.0 -0.1805605934
C  C93  1  0.62200000  0.04220000  0.66345000  1.0 -0.159110687
C  C94  1  0.37800000  0.54220000  0.83655000  1.0 -0.159110687
C  C95  1  0.37800000  0.95780000  0.33655000  1.0 -0.159110687
C  C96  1  0.62200000  0.45780000  0.16345000  1.0 -0.159110687
C  C97  1  0.58200000  0.95720000  0.64927000  1.0 0.148553403
C  C98  1  0.41800000  0.45720000  0.85073000  1.0 0.148553403
C  C99  1  0.41800000  0.04280000  0.35073000  1.0 0.148553403
C  C100  1  0.58200000  0.54280000  0.14927000  1.0 0.148553403
C  C101  1  0.54640000  0.89860000  0.67837000  1.0 -0.1718819701
C  C102  1  0.45360000  0.39860000  0.82163000  1.0 -0.1718819701
C  C103  1  0.45360000  0.10140000  0.32163000  1.0 -0.1718819701
C  C104  1  0.54640000  0.60140000  0.17837000  1.0 -0.1718819701
C  C105  1  0.55040000  0.92660000  0.72375000  1.0 -0.1805605934
C  C106  1  0.44960000  0.42660000  0.77625000  1.0 -0.1805605934
C  C107  1  0.44960000  0.07340000  0.27625000  1.0 -0.1805605934
C  C108  1  0.55040000  0.57340000  0.22375000  1.0 -0.1805605934
C  C109  1  0.58330000  0.83170000  0.58946000  1.0 0.0906212543
C  C110  1  0.41670000  0.33170000  0.91054000  1.0 0.0906212543
C  C111  1  0.41670000  0.16830000  0.41054000  1.0 0.0906212543
C  C112  1  0.58330000  0.66830000  0.08946000  1.0 0.0906212543
C  C113  1  0.57630000  0.92200000  0.53093000  1.0 -0.0493077599
C  C114  1  0.42370000  0.42200000  0.96907000  1.0 -0.0493077599
C  C115  1  0.42370000  0.07800000  0.46907000  1.0 -0.0493077599
C  C116  1  0.57630000  0.57800000  0.03093000  1.0 -0.0493077599
C  C117  1  0.57440000  0.98560000  0.56541000  1.0 -0.1326311306
C  C118  1  0.42560000  0.48560000  0.93459000  1.0 -0.1326311306
C  C119  1  0.42560000  0.01440000  0.43459000  1.0 -0.1326311306
C  C120  1  0.57440000  0.51440000  0.06541000  1.0 -0.1326311306
C  C121  1  0.77810000  0.03210000  0.93686000  1.0 0.1205411818
C  C122  1  0.22190000  0.53210000  0.56314000  1.0 0.1205411818
C  C123  1  0.22190000  0.96790000  0.06314000  1.0 0.1205411818
C  C124  1  0.77810000  0.46790000  0.43686000  1.0 0.1205411818
C  C125  1  0.76480000  0.88480000  0.91280000  1.0 -0.0249050228
C  C126  1  0.23520000  0.38480000  0.58720000  1.0 -0.0249050228
C  C127  1  0.23520000  0.11520000  0.08720000  1.0 -0.0249050228
C  C128  1  0.76480000  0.61520000  0.41280000  1.0 -0.0249050228
C  C129  1  0.84470000  0.90050000  0.92040000  1.0 -0.1230185827
C  C130  1  0.15530000  0.40050000  0.57960000  1.0 -0.1230185827
C  C131  1  0.15530000  0.09950000  0.07960000  1.0 -0.1230185827
C  C132  1  0.84470000  0.59950000  0.42040000  1.0 -0.1230185827
C  C133  1  0.92800000  0.04960000  0.94597000  1.0 0.148553403
C  C134  1  0.07200000  0.54960000  0.55403000  1.0 0.148553403
C  C135  1  0.07200000  0.95040000  0.05403000  1.0 0.148553403
C  C136  1  0.92800000  0.45040000  0.44597000  1.0 0.148553403
C  C137  1  0.99550000  0.02130000  0.92690000  1.0 -0.159110687
C  C138  1  0.00450000  0.52130000  0.57310000  1.0 -0.159110687
C  C139  1  0.00450000  0.97870000  0.07310000  1.0 -0.159110687
C  C140  1  0.99550000  0.47870000  0.42690000  1.0 -0.159110687
C  C141  1  0.06720000  0.06960000  0.93770000  1.0 -0.159110687
C  C142  1  0.93280000  0.56960000  0.56230000  1.0 -0.159110687
C  C143  1  0.93280000  0.93040000  0.06230000  1.0 -0.159110687
C  C144  1  0.06720000  0.43040000  0.43770000  1.0 -0.159110687
C  C145  1  0.00650000  0.17470000  0.98680000  1.0 -0.1805605934
C  C146  1  0.99350000  0.67470000  0.51320000  1.0 -0.1805605934
C  C147  1  0.99350000  0.82530000  0.01320000  1.0 -0.1805605934
C  C148  1  0.00650000  0.32530000  0.48680000  1.0 -0.1805605934
C  C149  1  0.07260000  0.14770000  0.96683000  1.0 0.1413114815
C  C150  1  0.92740000  0.64770000  0.53317000  1.0 0.1413114815
C  C151  1  0.92740000  0.85230000  0.03317000  1.0 0.1413114815
C  C152  1  0.07260000  0.35230000  0.46683000  1.0 0.1413114815
C  C153  1  0.93360000  0.12400000  0.97730000  1.0 -0.1718819701
C  C154  1  0.06640000  0.62400000  0.52270000  1.0 -0.1718819701
C  C155  1  0.06640000  0.87600000  0.02270000  1.0 -0.1718819701
C  C156  1  0.93360000  0.37600000  0.47730000  1.0 -0.1718819701
C  C157  1  0.22190000  0.15910000  0.97284000  1.0 0.1205411818
C  C158  1  0.77810000  0.65910000  0.52716000  1.0 0.1205411818
C  C159  1  0.77810000  0.84090000  0.02716000  1.0 0.1205411818
C  C160  1  0.22190000  0.34090000  0.47284000  1.0 0.1205411818
C  C161  1  0.24290000  0.30510000  0.00000000  1.0 -0.0406492596
C  C162  1  0.75710000  0.80510000  0.50000000  1.0 -0.0406492596
C  C163  1  0.75710000  0.69490000  0.00000000  1.0 -0.0406492596
C  C164  1  0.24290000  0.19490000  0.50000000  1.0 -0.0406492596
C  C165  1  0.16290000  0.29050000  0.99520000  1.0 -0.1230185827
C  C166  1  0.83710000  0.79050000  0.50480000  1.0 -0.1230185827
C  C167  1  0.83710000  0.70950000  0.00480000  1.0 -0.1230185827
C  C168  1  0.16290000  0.20950000  0.49520000  1.0 -0.1230185827
C  C169  1  0.64320000  0.33920000  0.94040000  1.0 -0.1497873442
C  C170  1  0.35680000  0.83920000  0.55960000  1.0 -0.1497873442
C  C171  1  0.35680000  0.66080000  0.05960000  1.0 -0.1497873442
C  C172  1  0.64320000  0.16080000  0.44040000  1.0 -0.1497873442
N  N1  1  0.59110000  0.03560000  0.85678000  1.0 -0.2715893314
N  N2  1  0.40890000  0.53560000  0.64322000  1.0 -0.2715893314
N  N3  1  0.40890000  0.96440000  0.14322000  1.0 -0.2715893314
N  N4  1  0.59110000  0.46440000  0.35678000  1.0 -0.2715893314
N  N5  1  0.59350000  0.04230000  0.78392000  1.0 -0.0021085969
N  N6  1  0.40650000  0.54230000  0.71608000  1.0 -0.0021085969
N  N7  1  0.40650000  0.95770000  0.21608000  1.0 -0.0021085969
N  N8  1  0.59350000  0.45770000  0.28392000  1.0 -0.0021085969
N  N9  1  0.57860000  0.92610000  0.60363000  1.0 -0.0021085969
N  N10  1  0.42140000  0.42610000  0.89637000  1.0 -0.0021085969
N  N11  1  0.42140000  0.07390000  0.39637000  1.0 -0.0021085969
N  N12  1  0.57860000  0.57390000  0.10363000  1.0 -0.0021085969
N  N13  1  0.58150000  0.82590000  0.54603000  1.0 -0.2902879194
N  N14  1  0.41850000  0.32590000  0.95397000  1.0 -0.2902879194
N  N15  1  0.41850000  0.17410000  0.45397000  1.0 -0.2902879194
N  N16  1  0.58150000  0.67410000  0.04603000  1.0 -0.2902879194
N  N17  1  0.72300000  0.96760000  0.92306000  1.0 -0.2715893314
N  N18  1  0.27700000  0.46760000  0.57694000  1.0 -0.2715893314
N  N19  1  0.27700000  0.03240000  0.07694000  1.0 -0.2715893314
N  N20  1  0.72300000  0.53240000  0.42306000  1.0 -0.2715893314
N  N21  1  0.85370000  0.99740000  0.93502000  1.0 0.0026623361
N  N22  1  0.14630000  0.49740000  0.56498000  1.0 0.0026623361
N  N23  1  0.14630000  0.00260000  0.06498000  1.0 0.0026623361
N  N24  1  0.85370000  0.50260000  0.43502000  1.0 0.0026623361
N  N25  1  0.14870000  0.19740000  0.97751000  1.0 0.0026623361
N  N26  1  0.85130000  0.69740000  0.52249000  1.0 0.0026623361
N  N27  1  0.85130000  0.80260000  0.02249000  1.0 0.0026623361
N  N28  1  0.14870000  0.30260000  0.47751000  1.0 0.0026623361
N  N29  1  0.28000000  0.22160000  0.98527000  1.0 -0.2758053617
N  N30  1  0.72000000  0.72160000  0.51473000  1.0 -0.2758053617
N  N31  1  0.72000000  0.77840000  0.01473000  1.0 -0.2758053617
N  N32  1  0.28000000  0.27840000  0.48527000  1.0 -0.2758053617
Cl  Cl1  1  0.25743000  0.59204000  0.45352000  1.0 -0.6763649062
Cl  Cl2  1  0.74257000  0.09204000  0.04648000  1.0 -0.6763649062
Cl  Cl3  1  0.74257000  0.40796000  0.54648000  1.0 -0.6763649062
Cl  Cl4  1  0.25743000  0.90796000  0.95352000  1.0 -0.6763649062
O  O1  1  0.42030000  0.34120000  0.60252000  1.0 -0.5569713191
O  O2  1  0.57970000  0.84120000  0.89748000  1.0 -0.5569713191
O  O3  1  0.57970000  0.65880000  0.39748000  1.0 -0.5569713191
O  O4  1  0.42030000  0.15880000  0.10252000  1.0 -0.5569713191
O  O5  1  0.42100000  0.23040000  0.54698000  1.0 -0.569850363
O  O6  1  0.57900000  0.73040000  0.95302000  1.0 -0.569850363
O  O7  1  0.57900000  0.76960000  0.45302000  1.0 -0.569850363
O  O8  1  0.42100000  0.26960000  0.04698000  1.0 -0.569850363
O  O9  1  0.46998000  0.99500000  0.93106000  1.0 -0.569850363
O  O10  1  0.53002000  0.49500000  0.56894000  1.0 -0.569850363
O  O11  1  0.53002000  0.00500000  0.06894000  1.0 -0.569850363
O  O12  1  0.46998000  0.50500000  0.43106000  1.0 -0.569850363
O  O13  1  0.38500000  0.12470000  0.92380000  1.0 -0.5486489709
O  O14  1  0.61500000  0.62470000  0.57620000  1.0 -0.5486489709
O  O15  1  0.61500000  0.87530000  0.07620000  1.0 -0.5486489709
O  O16  1  0.38500000  0.37530000  0.42380000  1.0 -0.5486489709
O  O17  1  0.60555000  0.94300000  0.98637000  1.0 -0.8021815644
O  O18  1  0.39445000  0.44300000  0.51363000  1.0 -0.8021815644
O  O19  1  0.39445000  0.05700000  0.01363000  1.0 -0.8021815644
O  O20  1  0.60555000  0.55700000  0.48637000  1.0 -0.8021815644
O  O21  1  0.52998000  0.14930000  0.99377000  1.0 -0.5486489709
O  O22  1  0.47002000  0.64930000  0.50623000  1.0 -0.5486489709
O  O23  1  0.47002000  0.85070000  0.00623000  1.0 -0.5486489709
O  O24  1  0.52998000  0.35070000  0.49377000  1.0 -0.5486489709
O  O25  1  0.61480000  0.12930000  0.94178000  1.0 -0.5486489709
O  O26  1  0.38520000  0.62930000  0.55822000  1.0 -0.5486489709
O  O27  1  0.38520000  0.87070000  0.05822000  1.0 -0.5486489709
O  O28  1  0.61480000  0.37070000  0.44178000  1.0 -0.5486489709
O  O29  1  0.97470000  0.50050000  0.88820000  1.0 -0.2591425703
O  O30  1  0.02530000  0.00050000  0.61180000  1.0 -0.2591425703
O  O31  1  0.02530000  0.49950000  0.11180000  1.0 -0.2591425703
O  O32  1  0.97470000  0.99950000  0.38820000  1.0 -0.2591425703
O  O33  1  0.97200000  0.60000000  0.94320000  1.0 -0.3960644902
O  O34  1  0.02800000  0.10000000  0.55680000  1.0 -0.3960644902
O  O35  1  0.02800000  0.40000000  0.05680000  1.0 -0.3960644902
O  O36  1  0.97200000  0.90000000  0.44320000  1.0 -0.3960644902
