# DDEC6 charges by PACMAN v1.1 (https://github.com/mtap-research/PACMAN-charge/)
data_MIMFOF_FSR_pacman
_symmetry_space_group_name_H-M   'P 1'
_cell_length_a   9.21640000
_cell_length_b   10.22480000
_cell_length_c   12.60940000
_cell_angle_alpha   98.09800000
_cell_angle_beta   106.22700000
_cell_angle_gamma   106.14700000
_symmetry_Int_Tables_number   1
_chemical_formula_structural   Al4P5HO20
_chemical_formula_sum   'Al8 P10 H2 O40'
_cell_volume   1064.68939320
_cell_formula_units_Z   2
loop_
 _symmetry_equiv_pos_site_id
 _symmetry_equiv_pos_as_xyz
  1  'x, y, z'
loop_
 _atom_site_type_symbol
 _atom_site_label
 _atom_site_symmetry_multiplicity
 _atom_site_fract_x
 _atom_site_fract_y
 _atom_site_fract_z
 _atom_site_occupancy
 _atom_site_charge
Al  Al1  1  0.51309000  0.19975000  0.21989000  1.0 1.7425795232
Al  Al2  1  0.48691000  0.80025000  0.78011000  1.0 1.7425795232
Al  Al3  1  0.21272000  0.90005000  0.48137000  1.0 1.7900869683
Al  Al4  1  0.78728000  0.09995000  0.51863000  1.0 1.7848334149
Al  Al5  1  0.50107000  0.70758000  0.22639000  1.0 1.7425795232
Al  Al6  1  0.49893000  0.29242000  0.77361000  1.0 1.7460689381
Al  Al7  1  0.78207000  0.59730000  0.51514000  1.0 1.7900869683
Al  Al8  1  0.21793000  0.40270000  0.48486000  1.0 1.7951844767
P  P1  1  0.50413000  0.31559000  0.01993000  1.0 1.4890055493
P  P2  1  0.49587000  0.68441000  0.98007000  1.0 1.4993548229
P  P3  1  0.15230000  0.66154000  0.60088000  1.0 1.568391724
P  P4  1  0.84770000  0.33846000  0.39912000  1.0 1.568391724
P  P5  1  0.57582000  0.54145000  0.67439000  1.0 1.5766489938
P  P6  1  0.42418000  0.45855000  0.32561000  1.0 1.5766489938
P  P7  1  0.42842000  0.96869000  0.33447000  1.0 1.5596597031
P  P8  1  0.57158000  0.03131000  0.66553000  1.0 1.5596597031
P  P9  1  0.84208000  0.83939000  0.39487000  1.0 1.568391724
P  P10  1  0.15792000  0.16061000  0.60513000  1.0 1.568391724
H  H1  1  0.34100000  0.40100000  0.95100000  1.0 0.4131924794
H  H2  1  0.65900000  0.59900000  0.04900000  1.0 0.4131924794
O  O1  1  0.47990000  0.19050000  0.07516000  1.0 -0.7420880064
O  O2  1  0.52010000  0.80950000  0.92484000  1.0 -0.7420880064
O  O3  1  0.33520000  0.33350000  0.98154000  1.0 -0.52659394
O  O4  1  0.66480000  0.66650000  0.01846000  1.0 -0.52659394
O  O5  1  0.63090000  0.44590000  0.10015000  1.0 -0.6525376603
O  O6  1  0.36910000  0.55410000  0.89985000  1.0 -0.6525376603
O  O7  1  0.27660000  0.95330000  0.36684000  1.0 -0.7596270805
O  O8  1  0.72340000  0.04670000  0.63316000  1.0 -0.7596270805
O  O9  1  0.43340000  0.82170000  0.29889000  1.0 -0.7999188723
O  O10  1  0.56660000  0.17830000  0.70111000  1.0 -0.7999188723
O  O11  1  0.57790000  0.06230000  0.42891000  1.0 -0.7740402386
O  O12  1  0.42210000  0.93770000  0.57109000  1.0 -0.7763231561
O  O13  1  0.72440000  0.57530000  0.63765000  1.0 -0.753064768
O  O14  1  0.27560000  0.42470000  0.36235000  1.0 -0.753064768
O  O15  1  0.40690000  0.03450000  0.23094000  1.0 -0.7999188723
O  O16  1  0.59310000  0.96550000  0.76906000  1.0 -0.7999188723
O  O17  1  0.54630000  0.27590000  0.91358000  1.0 -0.7596270805
O  O18  1  0.45370000  0.72410000  0.08642000  1.0 -0.7596270805
O  O19  1  0.16190000  0.72430000  0.49898000  1.0 -0.8073100101
O  O20  1  0.83810000  0.27570000  0.50102000  1.0 -0.8073100101
O  O21  1  0.70770000  0.74910000  0.28435000  1.0 -0.8073100101
O  O22  1  0.29230000  0.25090000  0.71565000  1.0 -0.8073100101
O  O23  1  0.82850000  0.77290000  0.49465000  1.0 -0.8073100101
O  O24  1  0.17150000  0.22710000  0.50535000  1.0 -0.8073100101
O  O25  1  0.28310000  0.75720000  0.71128000  1.0 -0.7999188723
O  O26  1  0.71690000  0.24280000  0.28872000  1.0 -0.7999188723
O  O27  1  0.99370000  0.64700000  0.62148000  1.0 -0.7157094245
O  O28  1  0.00630000  0.35300000  0.37852000  1.0 -0.7157094245
O  O29  1  0.00010000  0.84990000  0.37374000  1.0 -0.7157094245
O  O30  1  0.99990000  0.15010000  0.62626000  1.0 -0.7141674325
O  O31  1  0.56810000  0.68300000  0.72679000  1.0 -0.8210560744
O  O32  1  0.43190000  0.31700000  0.27321000  1.0 -0.8210560744
O  O33  1  0.17460000  0.51940000  0.58165000  1.0 -0.8210560744
O  O34  1  0.82540000  0.48060000  0.41835000  1.0 -0.8210560744
O  O35  1  0.82790000  0.98490000  0.41858000  1.0 -0.8210560744
O  O36  1  0.17210000  0.01510000  0.58142000  1.0 -0.8210560744
O  O37  1  0.42620000  0.45440000  0.57799000  1.0 -0.7596270805
O  O38  1  0.57380000  0.54560000  0.42201000  1.0 -0.7596270805
O  O39  1  0.60470000  0.46060000  0.76782000  1.0 -0.8073100101
O  O40  1  0.39530000  0.53940000  0.23218000  1.0 -0.7999188723
