# DDEC6 charges by PACMAN v1.1 (https://github.com/mtap-research/PACMAN-charge/)
data_MIMWOY_FSR_pacman
_symmetry_space_group_name_H-M   'P 1'
_cell_length_a   11.88500000
_cell_length_b   12.08830000
_cell_length_c   13.04180000
_cell_angle_alpha   99.46100000
_cell_angle_beta   101.72900000
_cell_angle_gamma   105.72400000
_symmetry_Int_Tables_number   1
_chemical_formula_structural   EuH27C26S5(NO4)2
_chemical_formula_sum   'Eu2 H54 C52 S10 N4 O16'
_cell_volume   1717.38659848
_cell_formula_units_Z   2
loop_
 _symmetry_equiv_pos_site_id
 _symmetry_equiv_pos_as_xyz
  1  'x, y, z'
loop_
 _atom_site_type_symbol
 _atom_site_label
 _atom_site_symmetry_multiplicity
 _atom_site_fract_x
 _atom_site_fract_y
 _atom_site_fract_z
 _atom_site_occupancy
 _atom_site_charge
Eu  Eu1  1  0.67791000  0.52941000  0.54267000  1.0 1.9888761555
Eu  Eu2  1  0.32209000  0.47059000  0.45733000  1.0 1.9888761555
H  H1  1  0.93717000  0.76519000  0.57743000  1.0 0.0770266319
H  H2  1  0.06283000  0.23481000  0.42257000  1.0 0.0770266319
H  H3  1  0.19429000  0.87388000  0.53299000  1.0 0.0605027144
H  H4  1  0.80571000  0.12612000  0.46701000  1.0 0.0605027144
H  H5  1  0.12204000  0.87408000  0.62401000  1.0 0.0972114767
H  H6  1  0.87796000  0.12592000  0.37599000  1.0 0.0972114767
H  H7  1  0.10644000  0.95308000  0.53823000  1.0 0.0770266319
H  H8  1  0.89356000  0.04692000  0.46177000  1.0 0.0770266319
H  H9  1  0.92946000  0.65135000  0.32502000  1.0 0.0878217477
H  H10  1  0.07054000  0.34865000  0.67498000  1.0 0.0878217477
H  H11  1  0.05442000  0.63743000  0.38565000  1.0 0.0770266319
H  H12  1  0.94558000  0.36257000  0.61435000  1.0 0.0713982845
H  H13  1  0.05545000  0.74353000  0.32649000  1.0 0.0713982845
H  H14  1  0.94455000  0.25647000  0.67351000  1.0 0.0713982845
H  H15  1  0.86326000  0.42455000  0.38388000  1.0 0.1095613285
H  H16  1  0.13674000  0.57545000  0.61612000  1.0 0.1095613285
H  H17  1  0.76667000  0.29381000  0.14464000  1.0 0.1095613285
H  H18  1  0.23333000  0.70619000  0.85536000  1.0 0.1095613285
H  H19  1  0.82067000  0.19847000  0.19001000  1.0 0.120549278
H  H20  1  0.17933000  0.80153000  0.80999000  1.0 0.120549278
H  H21  1  0.89326000  0.33647000  0.23421000  1.0 0.1095613285
H  H22  1  0.10674000  0.66353000  0.76579000  1.0 0.1095613285
H  H23  1  0.58857000  0.17765000  0.19710000  1.0 0.1095613285
H  H24  1  0.41143000  0.82235000  0.80290000  1.0 0.1095613285
H  H25  1  0.58300000  0.23297000  0.31548000  1.0 0.1269497737
H  H26  1  0.41700000  0.76703000  0.68452000  1.0 0.1269497737
H  H27  1  0.63805000  0.12656000  0.29659000  1.0 0.1095613285
H  H28  1  0.36195000  0.87344000  0.70341000  1.0 0.1095613285
H  H29  1  0.87121000  0.33353000  0.83159000  1.0 0.120549278
H  H30  1  0.12879000  0.66647000  0.16841000  1.0 0.120549278
H  H31  1  0.67776000  0.57020000  0.91052000  1.0 0.1269497737
H  H32  1  0.32224000  0.42980000  0.08948000  1.0 0.1269497737
H  H33  1  0.62577000  0.22650000  0.57786000  1.0 0.1526963105
H  H34  1  0.37423000  0.77350000  0.42214000  1.0 0.1526963105
H  H35  1  0.97158000  0.66130000  0.34225000  1.0 0.0770266319
H  H36  1  0.02842000  0.33870000  0.65775000  1.0 0.0770266319
H  H37  1  0.11562000  0.70750000  0.38927000  1.0 0.0770266319
H  H38  1  0.88438000  0.29250000  0.61073000  1.0 0.0770266319
H  H39  1  0.04747000  0.79196000  0.34015000  1.0 0.0770266319
H  H40  1  0.95253000  0.20804000  0.65985000  1.0 0.0713982845
H  H41  1  0.13268000  0.92284000  0.46019000  1.0 0.0520238606
H  H42  1  0.86732000  0.07716000  0.53981000  1.0 0.0520238606
H  H43  1  0.13818000  0.93221000  0.67095000  1.0 0.0972114767
H  H44  1  0.86182000  0.06779000  0.32905000  1.0 0.0878217477
H  H45  1  0.06237000  0.00979000  0.61689000  1.0 0.0878217477
H  H46  1  0.93763000  0.99021000  0.38311000  1.0 0.0878217477
H  H47  1  0.88836000  0.87516000  0.59507000  1.0 0.120549278
H  H48  1  0.11164000  0.12484000  0.40493000  1.0 0.120549278
H  H49  1  0.96168000  0.82525000  0.68350000  1.0 0.1095613285
H  H50  1  0.03832000  0.17475000  0.31650000  1.0 0.1095613285
H  H51  1  0.00330000  0.30392000  0.06067000  1.0 0.1624473324
H  H52  1  0.99670000  0.69608000  0.93933000  1.0 0.1624473324
H  H53  1  0.67755000  0.54129000  0.15502000  1.0 0.1269497737
H  H54  1  0.32245000  0.45871000  0.84498000  1.0 0.1269497737
C  C1  1  0.93400000  0.72150000  0.50880000  1.0 0.0878217477
C  C2  1  0.06600000  0.27850000  0.49120000  1.0 0.0878217477
C  C3  1  0.11840000  0.87830000  0.54910000  1.0 -0.0694549336
C  C4  1  0.88160000  0.12170000  0.45090000  1.0 -0.0694549336
C  C5  1  0.01260000  0.69410000  0.36790000  1.0 -0.163491943
C  C6  1  0.98740000  0.30590000  0.63210000  1.0 -0.163491943
C  C7  1  0.78930000  0.36520000  0.37750000  1.0 0.1526963105
C  C8  1  0.21070000  0.63480000  0.62250000  1.0 0.1526963105
C  C9  1  0.81260000  0.27740000  0.20850000  1.0 -0.3614906008
C  C10  1  0.18740000  0.72260000  0.79150000  1.0 -0.3614906008
C  C11  1  0.63010000  0.19810000  0.27390000  1.0 -0.2997279252
C  C12  1  0.36990000  0.80190000  0.72610000  1.0 -0.2997279252
C  C13  1  0.82780000  0.51200000  0.73090000  1.0 0.4770225202
C  C14  1  0.17220000  0.48800000  0.26910000  1.0 0.4770225202
C  C15  1  0.89450000  0.50790000  0.83690000  1.0 -0.0184150307
C  C16  1  0.10550000  0.49210000  0.16310000  1.0 -0.0086563857
C  C17  1  0.90700000  0.41220000  0.87390000  1.0 -0.0986945751
C  C18  1  0.09300000  0.58780000  0.12610000  1.0 -0.0986945751
C  C19  1  0.97860000  0.44040000  0.98180000  1.0 -0.0184150307
C  C20  1  0.02140000  0.55960000  0.01820000  1.0 -0.0184150307
C  C21  1  0.49360000  0.52410000  0.71440000  1.0 0.6170416986
C  C22  1  0.50640000  0.47590000  0.28560000  1.0 0.6170416986
C  C23  1  0.49590000  0.51980000  0.82840000  1.0 -0.0403893443
C  C24  1  0.50410000  0.48020000  0.17160000  1.0 -0.0403893443
C  C25  1  0.59630000  0.54290000  0.91450000  1.0 -0.0912798218
C  C26  1  0.40370000  0.45710000  0.08550000  1.0 -0.0912798218
C  C27  1  0.56200000  0.52060000  0.00840000  1.0 -0.0403893443
C  C28  1  0.43800000  0.47940000  0.99160000  1.0 -0.0403893443
C  C29  1  0.41670000  0.27200000  0.46720000  1.0 0.6121894633
C  C30  1  0.58330000  0.72800000  0.53280000  1.0 0.6121894633
C  C31  1  0.45240000  0.16550000  0.47670000  1.0 -0.0694549336
C  C32  1  0.54760000  0.83450000  0.52330000  1.0 -0.0694549336
C  C33  1  0.55870000  0.15980000  0.53770000  1.0 -0.1670325781
C  C34  1  0.44130000  0.84020000  0.46230000  1.0 -0.1670325781
C  C35  1  0.55450000  0.04120000  0.53240000  1.0 -0.0086563857
C  C36  1  0.44550000  0.95880000  0.46760000  1.0 -0.0086563857
C  C37  1  0.92460000  0.72520000  0.52870000  1.0 0.1383356666
C  C38  1  0.07540000  0.27480000  0.47130000  1.0 0.1383356666
C  C39  1  0.02770000  0.77600000  0.48860000  1.0 -0.0468575977
C  C40  1  0.97230000  0.22400000  0.51140000  1.0 -0.0468575977
C  C41  1  0.04180000  0.73030000  0.38100000  1.0 -0.1421780819
C  C42  1  0.95820000  0.26970000  0.61900000  1.0 -0.1421780819
C  C43  1  0.08850000  0.88330000  0.50380000  1.0 -0.0184150307
C  C44  1  0.91150000  0.11670000  0.49620000  1.0 -0.0184150307
C  C45  1  0.07050000  0.92980000  0.61120000  1.0 -0.1929210211
C  C46  1  0.92950000  0.07020000  0.38880000  1.0 -0.1929210211
C  C47  1  0.95530000  0.84130000  0.61080000  1.0 -0.2748289789
C  C48  1  0.04470000  0.15870000  0.38920000  1.0 -0.2748289789
C  C49  1  0.02120000  0.38600000  0.06410000  1.0 -0.219469064
C  C50  1  0.97880000  0.61400000  0.93590000  1.0 -0.2257043357
C  C51  1  0.59400000  0.51800000  0.11730000  1.0 -0.0912798218
C  C52  1  0.40600000  0.48200000  0.88270000  1.0 -0.0912798218
S  S1  1  0.02456000  0.36118000  0.06802000  1.0 -0.0468575977
S  S2  1  0.97544000  0.63882000  0.93198000  1.0 -0.0403893443
S  S3  1  0.63937000  0.53067000  0.13689000  1.0 0.1095613285
S  S4  1  0.36063000  0.46933000  0.86311000  1.0 0.1095613285
S  S5  1  0.65261000  0.97209000  0.58708000  1.0 0.0162164578
S  S6  1  0.34739000  0.02791000  0.41292000  1.0 0.0162164578
S  S7  1  0.87950000  0.37360000  0.86680000  1.0 0.0770266319
S  S8  1  0.12050000  0.62640000  0.13320000  1.0 0.0770266319
S  S9  1  0.63350000  0.56490000  0.91760000  1.0 0.0713982845
S  S10  1  0.36650000  0.43510000  0.08240000  1.0 0.0713982845
N  N1  1  0.01030000  0.77280000  0.47230000  1.0 0.035379148
N  N2  1  0.98970000  0.22720000  0.52770000  1.0 0.035379148
N  N3  1  0.74930000  0.28240000  0.29270000  1.0 -0.0912798218
N  N4  1  0.25070000  0.71760000  0.70730000  1.0 -0.0912798218
O  O1  1  0.85310000  0.62760000  0.48170000  1.0 -0.3499051417
O  O2  1  0.14690000  0.37240000  0.51830000  1.0 -0.3499051417
O  O3  1  0.74100000  0.37570000  0.45260000  1.0 -0.5024249638
O  O4  1  0.25900000  0.62430000  0.54740000  1.0 -0.5024249638
O  O5  1  0.85050000  0.60850000  0.70190000  1.0 -0.5560584153
O  O6  1  0.14950000  0.39150000  0.29810000  1.0 -0.5560584153
O  O7  1  0.74910000  0.41910000  0.67140000  1.0 -0.5662870789
O  O8  1  0.25090000  0.58090000  0.32860000  1.0 -0.5662870789
O  O9  1  0.59380000  0.56080000  0.69450000  1.0 -0.6255933727
O  O10  1  0.40620000  0.43920000  0.30550000  1.0 -0.6255933727
O  O11  1  0.39080000  0.48930000  0.64830000  1.0 -0.6236613775
O  O12  1  0.60920000  0.51070000  0.35170000  1.0 -0.6236613775
O  O13  1  0.49640000  0.37300000  0.50300000  1.0 -0.7320241416
O  O14  1  0.50360000  0.62700000  0.49700000  1.0 -0.7320241416
O  O15  1  0.30810000  0.26030000  0.42700000  1.0 -0.5824639285
O  O16  1  0.69190000  0.73970000  0.57300000  1.0 -0.5824639285
