# DDEC6 charges by PACMAN v1.1 (https://github.com/mtap-research/PACMAN-charge/)
data_MIMWIS_FSR_pacman
_symmetry_space_group_name_H-M   'P 1'
_cell_length_a   11.29560000
_cell_length_b   12.08250000
_cell_length_c   13.04220000
_cell_angle_alpha   101.75700000
_cell_angle_beta   100.54700000
_cell_angle_gamma   104.87800000
_symmetry_Int_Tables_number   1
_chemical_formula_structural   EuH31C30S5(NO4)2
_chemical_formula_sum   'Eu2 H62 C60 S10 N4 O16'
_cell_volume   1631.28601360
_cell_formula_units_Z   2
loop_
 _symmetry_equiv_pos_site_id
 _symmetry_equiv_pos_as_xyz
  1  'x, y, z'
loop_
 _atom_site_type_symbol
 _atom_site_label
 _atom_site_symmetry_multiplicity
 _atom_site_fract_x
 _atom_site_fract_y
 _atom_site_fract_z
 _atom_site_occupancy
 _atom_site_charge
Eu  Eu1  1  0.31211000  0.47082000  0.45986000  1.0 1.8798127198
Eu  Eu2  1  0.68789000  0.52918000  0.54014000  1.0 1.8798127198
H  H1  1  0.92702000  0.33224000  0.61164000  1.0 0.0997632099
H  H2  1  0.07298000  0.66776000  0.38836000  1.0 0.0997632099
H  H3  1  0.92743000  0.18949000  0.71922000  1.0 0.0530293756
H  H4  1  0.07257000  0.81051000  0.28078000  1.0 0.0530293756
H  H5  1  0.03203000  0.06414000  0.61613000  1.0 0.0788837185
H  H6  1  0.96797000  0.93586000  0.38387000  1.0 0.0788837185
H  H7  1  0.13060000  0.15360000  0.72490000  1.0 0.0997632099
H  H8  1  0.86940000  0.84640000  0.27510000  1.0 0.0997632099
H  H9  1  0.23008000  0.24710000  0.63193000  1.0 0.0997632099
H  H10  1  0.76992000  0.75290000  0.36807000  1.0 0.0997632099
H  H11  1  0.13520000  0.15576000  0.52403000  1.0 0.0997632099
H  H12  1  0.86480000  0.84424000  0.47597000  1.0 0.0997632099
H  H13  1  0.12101000  0.61257000  0.62175000  1.0 0.0788837185
H  H14  1  0.87899000  0.38743000  0.37825000  1.0 0.0788837185
H  H15  1  0.40344000  0.72675000  0.79006000  1.0 0.1175828041
H  H16  1  0.59656000  0.27325000  0.20994000  1.0 0.1175828041
H  H17  1  0.41856000  0.85805000  0.77668000  1.0 0.0718804956
H  H18  1  0.58144000  0.14195000  0.22332000  1.0 0.0718804956
H  H19  1  0.40795000  0.75286000  0.67514000  1.0 0.0788837185
H  H20  1  0.59205000  0.24714000  0.32486000  1.0 0.0788837185
H  H21  1  0.13513000  0.74637000  0.81856000  1.0 0.0997632099
H  H22  1  0.86487000  0.25363000  0.18144000  1.0 0.0997632099
H  H23  1  0.12043000  0.83451000  0.74400000  1.0 0.0718804956
H  H24  1  0.87957000  0.16549000  0.25600000  1.0 0.0718804956
H  H25  1  0.24384000  0.86960000  0.84123000  1.0 0.0582237099
H  H26  1  0.75616000  0.13040000  0.15877000  1.0 0.0582237099
H  H27  1  0.15231000  0.66893000  0.16896000  1.0 0.1307678231
H  H28  1  0.84769000  0.33107000  0.83104000  1.0 0.1307678231
H  H29  1  0.35971000  0.77481000  0.44579000  1.0 0.1486352407
H  H30  1  0.64029000  0.22519000  0.55421000  1.0 0.1486352407
H  H31  1  0.31561000  0.43697000  0.09353000  1.0 0.112157689
H  H32  1  0.68439000  0.56303000  0.90647000  1.0 0.112157689
H  H33  1  0.05932000  0.26652000  0.38755000  1.0 0.1307678231
H  H34  1  0.94068000  0.73348000  0.61245000  1.0 0.1307678231
H  H35  1  0.96701000  0.20443000  0.63703000  1.0 0.0997632099
H  H36  1  0.03299000  0.79557000  0.36297000  1.0 0.0997632099
H  H37  1  0.07815000  0.31374000  0.63051000  1.0 0.1175828041
H  H38  1  0.92185000  0.68626000  0.36949000  1.0 0.1175828041
H  H39  1  0.09586000  0.18462000  0.61508000  1.0 0.0905645913
H  H40  1  0.90414000  0.81538000  0.38492000  1.0 0.0905645913
H  H41  1  0.80908000  0.09727000  0.46996000  1.0 0.112157689
H  H42  1  0.19092000  0.90273000  0.53004000  1.0 0.112157689
H  H43  1  0.89480000  0.03208000  0.41127000  1.0 0.0997632099
H  H44  1  0.10520000  0.96792000  0.58873000  1.0 0.0997632099
H  H45  1  0.83689000  0.12173000  0.35930000  1.0 0.0905645913
H  H46  1  0.16311000  0.87827000  0.64070000  1.0 0.0905645913
H  H47  1  0.43785000  0.86313000  0.70952000  1.0 0.0718804956
H  H48  1  0.56215000  0.13687000  0.29048000  1.0 0.0718804956
H  H49  1  0.37796000  0.89823000  0.88040000  1.0 0.0582237099
H  H50  1  0.62204000  0.10177000  0.11960000  1.0 0.0582237099
H  H51  1  0.25172000  0.70364000  0.88537000  1.0 0.0582237099
H  H52  1  0.74828000  0.29636000  0.11463000  1.0 0.0582237099
H  H53  1  0.15881000  0.77192000  0.83709000  1.0 0.0997632099
H  H54  1  0.84119000  0.22808000  0.16291000  1.0 0.0997632099
H  H55  1  0.10617000  0.64482000  0.68697000  1.0 0.0788837185
H  H56  1  0.89383000  0.35518000  0.31303000  1.0 0.0788837185
H  H57  1  0.20006000  0.57751000  0.73477000  1.0 0.0788837185
H  H58  1  0.79994000  0.42249000  0.26523000  1.0 0.0788837185
H  H59  1  0.99100000  0.67910000  0.91489000  1.0 0.1307678231
H  H60  1  0.00900000  0.32090000  0.08511000  1.0 0.1307678231
H  H61  1  0.31400000  0.45016000  0.84389000  1.0 0.112157689
H  H62  1  0.68600000  0.54984000  0.15611000  1.0 0.112157689
C  C1  1  0.09320000  0.30430000  0.56730000  1.0 0.112157689
C  C2  1  0.90680000  0.69570000  0.43270000  1.0 0.112157689
C  C3  1  0.98640000  0.28920000  0.61770000  1.0 -0.129746405
C  C4  1  0.01360000  0.71080000  0.38230000  1.0 -0.129746405
C  C5  1  0.98300000  0.20620000  0.67400000  1.0 -0.1190115302
C  C6  1  0.01700000  0.79380000  0.32600000  1.0 -0.1190115302
C  C7  1  0.07310000  0.14870000  0.65590000  1.0 -0.1602610177
C  C8  1  0.92690000  0.85130000  0.34410000  1.0 -0.1602610177
C  C9  1  0.13990000  0.21230000  0.59240000  1.0 -0.1952506579
C  C10  1  0.86010000  0.78770000  0.40760000  1.0 -0.1952506579
C  C11  1  0.20550000  0.66020000  0.63130000  1.0 0.0582237099
C  C12  1  0.79450000  0.33980000  0.36870000  1.0 0.0582237099
C  C13  1  0.37930000  0.77320000  0.74100000  1.0 -0.1190115302
C  C14  1  0.62070000  0.22680000  0.25900000  1.0 -0.1190115302
C  C15  1  0.18050000  0.80380000  0.78490000  1.0 -0.1481879628
C  C16  1  0.81950000  0.19620000  0.21510000  1.0 -0.1481879628
C  C17  1  0.15810000  0.49090000  0.27500000  1.0 0.4224475198
C  C18  1  0.84190000  0.50910000  0.72500000  1.0 0.4224475198
C  C19  1  0.09490000  0.49480000  0.16690000  1.0 -0.0699845576
C  C20  1  0.90510000  0.50520000  0.83310000  1.0 -0.0699845576
C  C21  1  0.10300000  0.59070000  0.12870000  1.0 -0.0991485096
C  C22  1  0.89700000  0.40930000  0.87130000  1.0 -0.0991485096
C  C23  1  0.02410000  0.56050000  0.01600000  1.0 -0.0791531405
C  C24  1  0.97590000  0.43950000  0.98400000  1.0 -0.0791531405
C  C25  1  0.58530000  0.72850000  0.53740000  1.0 0.5776382708
C  C26  1  0.41470000  0.27150000  0.46260000  1.0 0.5776382708
C  C27  1  0.54940000  0.83490000  0.52510000  1.0 -0.0791531405
C  C28  1  0.45060000  0.16510000  0.47490000  1.0 -0.0791531405
C  C29  1  0.43400000  0.84090000  0.47570000  1.0 -0.1905332706
C  C30  1  0.56600000  0.15910000  0.52430000  1.0 -0.1905332706
C  C31  1  0.44130000  0.95920000  0.47570000  1.0 -0.0170364991
C  C32  1  0.55870000  0.04080000  0.52430000  1.0 -0.0170364991
C  C33  1  0.50750000  0.48630000  0.28770000  1.0 0.5480281138
C  C34  1  0.49250000  0.51370000  0.71230000  1.0 0.5480281138
C  C35  1  0.50510000  0.49030000  0.17300000  1.0 -0.0632285303
C  C36  1  0.49490000  0.50970000  0.82700000  1.0 -0.0632285303
C  C37  1  0.40050000  0.46350000  0.08820000  1.0 -0.1093463266
C  C38  1  0.59950000  0.53650000  0.91180000  1.0 -0.1093463266
C  C39  1  0.43500000  0.48040000  0.99250000  1.0 -0.0791531405
C  C40  1  0.56500000  0.51960000  0.00750000  1.0 -0.0791531405
C  C41  1  0.05800000  0.28250000  0.46180000  1.0 -0.0170364991
C  C42  1  0.94200000  0.71750000  0.53820000  1.0 -0.0170364991
C  C43  1  0.03500000  0.22800000  0.60150000  1.0 0.0003837799
C  C44  1  0.96500000  0.77200000  0.39850000  1.0 0.0003837799
C  C45  1  0.87200000  0.10600000  0.42700000  1.0 -0.4720282531
C  C46  1  0.12800000  0.89400000  0.57300000  1.0 -0.4720282531
C  C47  1  0.27800000  0.69800000  0.66400000  1.0 0.1307678231
C  C48  1  0.72200000  0.30200000  0.33600000  1.0 0.1307678231
C  C49  1  0.37000000  0.81300000  0.72900000  1.0 -0.0699845576
C  C50  1  0.63000000  0.18700000  0.27100000  1.0 -0.0699845576
C  C51  1  0.33500000  0.83000000  0.82100000  1.0 -0.051373241
C  C52  1  0.66500000  0.17000000  0.17900000  1.0 -0.051373241
C  C53  1  0.22900000  0.74000000  0.82580000  1.0 -0.1190115302
C  C54  1  0.77100000  0.26000000  0.17420000  1.0 -0.1190115302
C  C55  1  0.19400000  0.65500000  0.72480000  1.0 -0.1093463266
C  C56  1  0.80600000  0.34500000  0.27520000  1.0 -0.1093463266
C  C57  1  0.97500000  0.59860000  0.91730000  1.0 -0.129746405
C  C58  1  0.02500000  0.40140000  0.08270000  1.0 -0.129746405
C  C59  1  0.40100000  0.47600000  0.88160000  1.0 -0.1093463266
C  C60  1  0.59900000  0.52400000  0.11840000  1.0 -0.1093463266
S  S1  1  0.99630000  0.63680000  0.92670000  1.0 0.0788837185
S  S2  1  0.00370000  0.36320000  0.07330000  1.0 0.0788837185
S  S3  1  0.33411000  0.02780000  0.42805000  1.0 0.0162271768
S  S4  1  0.66589000  0.97220000  0.57195000  1.0 0.0162271768
S  S5  1  0.35381000  0.46478000  0.86365000  1.0 0.0905645913
S  S6  1  0.64619000  0.53522000  0.13635000  1.0 0.0905645913
S  S7  1  0.10720000  0.62930000  0.13930000  1.0 0.0905645913
S  S8  1  0.89280000  0.37070000  0.86070000  1.0 0.0905645913
S  S9  1  0.35950000  0.44700000  0.08760000  1.0 0.0997632099
S  S10  1  0.64050000  0.55300000  0.91240000  1.0 0.0997632099
N  N1  1  0.24240000  0.74650000  0.71300000  1.0 0.1307678231
N  N2  1  0.75760000  0.25350000  0.28700000  1.0 0.1307678231
N  N3  1  0.98280000  0.20220000  0.48720000  1.0 -0.0402850932
N  N4  1  0.01720000  0.79780000  0.51280000  1.0 -0.0402850932
O  O1  1  0.12720000  0.37320000  0.51590000  1.0 -0.3474080539
O  O2  1  0.87280000  0.62680000  0.48410000  1.0 -0.3474080539
O  O3  1  0.25190000  0.62580000  0.56480000  1.0 -0.3745192266
O  O4  1  0.74810000  0.37420000  0.43520000  1.0 -0.3745192266
O  O5  1  0.23480000  0.58500000  0.33920000  1.0 -0.5590561605
O  O6  1  0.76520000  0.41500000  0.66080000  1.0 -0.5590561605
O  O7  1  0.13520000  0.39360000  0.29970000  1.0 -0.5794292665
O  O8  1  0.86480000  0.60640000  0.70030000  1.0 -0.5794292665
O  O9  1  0.49980000  0.62840000  0.50730000  1.0 -0.7250732756
O  O10  1  0.50020000  0.37160000  0.49270000  1.0 -0.7246117569
O  O11  1  0.69840000  0.73900000  0.57480000  1.0 -0.5689922548
O  O12  1  0.30160000  0.26100000  0.42520000  1.0 -0.5689922548
O  O13  1  0.40370000  0.44700000  0.30750000  1.0 -0.6065266705
O  O14  1  0.59630000  0.55300000  0.69250000  1.0 -0.6065266705
O  O15  1  0.61490000  0.52400000  0.35330000  1.0 -0.6286649681
O  O16  1  0.38510000  0.47600000  0.64670000  1.0 -0.6286649681
