# DDEC6 charges by PACMAN v1.1 (https://github.com/mtap-research/PACMAN-charge/)
data_MIMWUE_FSR_pacman
_symmetry_space_group_name_H-M   'P 1'
_cell_length_a   11.45440000
_cell_length_b   12.05140000
_cell_length_c   13.01010000
_cell_angle_alpha   99.94100000
_cell_angle_beta   100.88600000
_cell_angle_gamma   108.09100000
_symmetry_Int_Tables_number   1
_chemical_formula_structural   EuH31C30S5(NO4)2
_chemical_formula_sum   'Eu2 H62 C60 S10 N4 O16'
_cell_volume   1624.16020844
_cell_formula_units_Z   2
loop_
 _symmetry_equiv_pos_site_id
 _symmetry_equiv_pos_as_xyz
  1  'x, y, z'
loop_
 _atom_site_type_symbol
 _atom_site_label
 _atom_site_symmetry_multiplicity
 _atom_site_fract_x
 _atom_site_fract_y
 _atom_site_fract_z
 _atom_site_occupancy
 _atom_site_charge
Eu  Eu1  1  0.31075000  0.46342000  0.45891000  1.0 1.89069248
Eu  Eu2  1  0.68925000  0.53658000  0.54109000  1.0 1.89069248
H  H1  1  0.94493000  0.34869000  0.63843000  1.0 0.0990917335
H  H2  1  0.05507000  0.65131000  0.36157000  1.0 0.0990917335
H  H3  1  0.95028000  0.20253000  0.75826000  1.0 0.0718976341
H  H4  1  0.04972000  0.79747000  0.24174000  1.0 0.0718976341
H  H5  1  0.99917000  0.06006000  0.62779000  1.0 0.0918836525
H  H6  1  0.00083000  0.93994000  0.37221000  1.0 0.0918836525
H  H7  1  0.12129000  0.13957000  0.72623000  1.0 0.0918836525
H  H8  1  0.87871000  0.86043000  0.27377000  1.0 0.0990917335
H  H9  1  0.21084000  0.22174000  0.62281000  1.0 0.0990917335
H  H10  1  0.78916000  0.77826000  0.37719000  1.0 0.0990917335
H  H11  1  0.09301000  0.13688000  0.52398000  1.0 0.110881687
H  H12  1  0.90699000  0.86312000  0.47602000  1.0 0.110881687
H  H13  1  0.12328000  0.61548000  0.60619000  1.0 0.0918836525
H  H14  1  0.87672000  0.38452000  0.39381000  1.0 0.0918836525
H  H15  1  0.41496000  0.85295000  0.79015000  1.0 0.0815815835
H  H16  1  0.58504000  0.14705000  0.20985000  1.0 0.0815815835
H  H17  1  0.41826000  0.77635000  0.67797000  1.0 0.0918836525
H  H18  1  0.58174000  0.22365000  0.32203000  1.0 0.0918836525
H  H19  1  0.39352000  0.71271000  0.77405000  1.0 0.0990917335
H  H20  1  0.60648000  0.28729000  0.22595000  1.0 0.0990917335
H  H21  1  0.25233000  0.88440000  0.80759000  1.0 0.0918836525
H  H22  1  0.74767000  0.11560000  0.19241000  1.0 0.0918836525
H  H23  1  0.13174000  0.76593000  0.79250000  1.0 0.0815815835
H  H24  1  0.86826000  0.23407000  0.20750000  1.0 0.0815815835
H  H25  1  0.13418000  0.84302000  0.70382000  1.0 0.0483869976
H  H26  1  0.86582000  0.15698000  0.29618000  1.0 0.0483869976
H  H27  1  0.02158000  0.68619000  0.91314000  1.0 0.1271022356
H  H28  1  0.97842000  0.31381000  0.08686000  1.0 0.1271022356
H  H29  1  0.36157000  0.76739000  0.44446000  1.0 0.1475197598
H  H30  1  0.63843000  0.23261000  0.55554000  1.0 0.1475197598
H  H31  1  0.31163000  0.43483000  0.09133000  1.0 0.1192769061
H  H32  1  0.68837000  0.56517000  0.90867000  1.0 0.110881687
H  H33  1  0.06397000  0.24627000  0.40013000  1.0 0.1271022356
H  H34  1  0.93603000  0.75373000  0.59987000  1.0 0.1271022356
H  H35  1  0.95167000  0.19735000  0.64641000  1.0 0.0990917335
H  H36  1  0.04833000  0.80265000  0.35359000  1.0 0.0990917335
H  H37  1  0.07160000  0.30878000  0.64516000  1.0 0.1192769061
H  H38  1  0.92840000  0.69122000  0.35484000  1.0 0.1192769061
H  H39  1  0.07886000  0.17663000  0.62952000  1.0 0.0918836525
H  H40  1  0.92114000  0.82337000  0.37048000  1.0 0.0918836525
H  H41  1  0.79387000  0.11492000  0.48854000  1.0 0.110881687
H  H42  1  0.20613000  0.88508000  0.51146000  1.0 0.110881687
H  H43  1  0.86301000  0.02957000  0.43960000  1.0 0.110881687
H  H44  1  0.13699000  0.97043000  0.56040000  1.0 0.110881687
H  H45  1  0.82495000  0.11948000  0.37414000  1.0 0.0718976341
H  H46  1  0.17505000  0.88052000  0.62586000  1.0 0.0718976341
H  H47  1  0.46507000  0.84480000  0.70119000  1.0 0.0815815835
H  H48  1  0.53493000  0.15520000  0.29881000  1.0 0.0815815835
H  H49  1  0.40036000  0.90377000  0.87283000  1.0 0.0618669018
H  H50  1  0.59964000  0.09623000  0.12717000  1.0 0.0618669018
H  H51  1  0.25169000  0.71303000  0.87789000  1.0 0.0718976341
H  H52  1  0.74831000  0.28697000  0.12211000  1.0 0.0718976341
H  H53  1  0.17541000  0.78695000  0.82048000  1.0 0.0815815835
H  H54  1  0.82459000  0.21305000  0.17952000  1.0 0.0815815835
H  H55  1  0.11652000  0.65616000  0.67881000  1.0 0.0815815835
H  H56  1  0.88348000  0.34384000  0.32119000  1.0 0.0815815835
H  H57  1  0.19169000  0.58195000  0.73630000  1.0 0.0718976341
H  H58  1  0.80831000  0.41805000  0.26370000  1.0 0.0718976341
H  H59  1  0.14983000  0.66575000  0.17605000  1.0 0.1271022356
H  H60  1  0.85017000  0.33425000  0.82395000  1.0 0.1271022356
H  H61  1  0.31359000  0.42638000  0.83939000  1.0 0.110881687
H  H62  1  0.68641000  0.57362000  0.16061000  1.0 0.110881687
C  C1  1  0.08970000  0.29670000  0.57540000  1.0 0.0918836525
C  C2  1  0.91030000  0.70330000  0.42460000  1.0 0.0918836525
C  C3  1  0.99460000  0.29850000  0.63920000  1.0 -0.1303511709
C  C4  1  0.00540000  0.70150000  0.36080000  1.0 -0.1303511709
C  C5  1  0.99130000  0.21140000  0.70160000  1.0 -0.1303511709
C  C6  1  0.00870000  0.78860000  0.29840000  1.0 -0.1303511709
C  C7  1  0.05770000  0.14320000  0.66500000  1.0 -0.1581592485
C  C8  1  0.94230000  0.85680000  0.33500000  1.0 -0.1581592485
C  C9  1  0.11780000  0.19710000  0.59380000  1.0 -0.1666150317
C  C10  1  0.88220000  0.80290000  0.40620000  1.0 -0.1666150317
C  C11  1  0.21180000  0.65920000  0.62100000  1.0 0.0483869976
C  C12  1  0.78820000  0.34080000  0.37900000  1.0 0.0483869976
C  C13  1  0.37830000  0.77400000  0.73830000  1.0 -0.1220010892
C  C14  1  0.62170000  0.22600000  0.26170000  1.0 -0.1220010892
C  C15  1  0.18590000  0.81490000  0.75480000  1.0 -0.1902567223
C  C16  1  0.81410000  0.18510000  0.24520000  1.0 -0.1902567223
C  C17  1  0.15560000  0.48510000  0.27470000  1.0 0.4169169888
C  C18  1  0.84440000  0.51490000  0.72530000  1.0 0.4169169888
C  C19  1  0.09340000  0.49120000  0.16650000  1.0 -0.0500501133
C  C20  1  0.90660000  0.50880000  0.83350000  1.0 -0.0500501133
C  C21  1  0.99200000  0.60450000  0.91700000  1.0 -0.1303511709
C  C22  1  0.00800000  0.39550000  0.08300000  1.0 -0.1303511709
C  C23  1  0.03210000  0.56050000  0.01480000  1.0 -0.0642375183
C  C24  1  0.96790000  0.43950000  0.98520000  1.0 -0.0642375183
C  C25  1  0.58900000  0.73200000  0.53490000  1.0 0.5797571018
C  C26  1  0.41100000  0.26800000  0.46510000  1.0 0.5797571018
C  C27  1  0.55200000  0.83720000  0.52300000  1.0 -0.0791911185
C  C28  1  0.44800000  0.16280000  0.47700000  1.0 -0.0791911185
C  C29  1  0.43570000  0.83750000  0.47480000  1.0 -0.1954473481
C  C30  1  0.56430000  0.16250000  0.52520000  1.0 -0.1954473481
C  C31  1  0.44050000  0.95630000  0.47600000  1.0 -0.0108314553
C  C32  1  0.55950000  0.04370000  0.52400000  1.0 -0.0108314553
C  C33  1  0.50400000  0.48720000  0.28810000  1.0 0.5672010258
C  C34  1  0.49600000  0.51280000  0.71190000  1.0 0.5672010258
C  C35  1  0.50280000  0.49040000  0.17350000  1.0 -0.0642375183
C  C36  1  0.49720000  0.50960000  0.82650000  1.0 -0.0642375183
C  C37  1  0.39740000  0.46200000  0.08700000  1.0 -0.1004274934
C  C38  1  0.60260000  0.53800000  0.91300000  1.0 -0.1004274934
C  C39  1  0.43520000  0.47900000  0.99220000  1.0 -0.0672544036
C  C40  1  0.56480000  0.52100000  0.00780000  1.0 -0.0672544036
C  C41  1  0.05800000  0.27150000  0.47180000  1.0 0.0093456423
C  C42  1  0.94200000  0.72850000  0.52820000  1.0 0.0093456423
C  C43  1  0.02300000  0.22300000  0.61400000  1.0 -0.0108314553
C  C44  1  0.97700000  0.77700000  0.38600000  1.0 -0.0046204338
C  C45  1  0.85500000  0.10900000  0.44600000  1.0 -0.4594436958
C  C46  1  0.14500000  0.89100000  0.55400000  1.0 -0.4594436958
C  C47  1  0.28700000  0.68600000  0.65800000  1.0 0.1192769061
C  C48  1  0.71300000  0.31400000  0.34200000  1.0 0.1271022356
C  C49  1  0.39100000  0.80200000  0.72100000  1.0 -0.1102784425
C  C50  1  0.60900000  0.19800000  0.27900000  1.0 -0.1102784425
C  C51  1  0.35400000  0.83400000  0.81600000  1.0 -0.0791911185
C  C52  1  0.64600000  0.16600000  0.18400000  1.0 -0.0791911185
C  C53  1  0.24000000  0.74900000  0.81500000  1.0 -0.0929730783
C  C54  1  0.76000000  0.25100000  0.18500000  1.0 -0.0929730783
C  C55  1  0.20100000  0.66100000  0.72000000  1.0 -0.0929730783
C  C56  1  0.79900000  0.33900000  0.28000000  1.0 -0.0929730783
C  C57  1  0.10300000  0.58660000  0.13220000  1.0 -0.0929730783
C  C58  1  0.89700000  0.41340000  0.86780000  1.0 -0.0929730783
C  C59  1  0.40000000  0.46500000  0.87940000  1.0 -0.1102784425
C  C60  1  0.60000000  0.53500000  0.12060000  1.0 -0.1102784425
S  S1  1  0.12810000  0.62520000  0.13390000  1.0 0.0815815835
S  S2  1  0.87190000  0.37480000  0.86610000  1.0 0.0815815835
S  S3  1  0.33150000  0.02027000  0.43017000  1.0 0.0224642977
S  S4  1  0.66850000  0.97973000  0.56983000  1.0 0.0224642977
S  S5  1  0.35450000  0.46110000  0.86178000  1.0 0.0618669018
S  S6  1  0.64550000  0.53890000  0.13822000  1.0 0.0618669018
S  S7  1  0.01050000  0.64030000  0.92440000  1.0 0.0718976341
S  S8  1  0.98950000  0.35970000  0.07560000  1.0 0.0718976341
S  S9  1  0.35900000  0.43500000  0.08610000  1.0 0.0815815835
S  S10  1  0.64100000  0.56500000  0.91390000  1.0 0.0815815835
N  N1  1  0.24290000  0.74440000  0.69780000  1.0 0.1192769061
N  N2  1  0.75710000  0.25560000  0.30220000  1.0 0.1192769061
N  N3  1  0.97600000  0.20090000  0.50000000  1.0 -0.0279565928
N  N4  1  0.02400000  0.79910000  0.50000000  1.0 -0.0279565928
O  O1  1  0.12730000  0.36050000  0.51830000  1.0 -0.3315405026
O  O2  1  0.87270000  0.63950000  0.48170000  1.0 -0.3315405026
O  O3  1  0.25210000  0.61530000  0.56230000  1.0 -0.3685077503
O  O4  1  0.74790000  0.38470000  0.43770000  1.0 -0.3685077503
O  O5  1  0.23900000  0.58040000  0.33790000  1.0 -0.5711410567
O  O6  1  0.76100000  0.41960000  0.66210000  1.0 -0.5711410567
O  O7  1  0.12780000  0.38600000  0.30040000  1.0 -0.5828654393
O  O8  1  0.87220000  0.61400000  0.69960000  1.0 -0.5828654393
O  O9  1  0.50210000  0.62800000  0.50590000  1.0 -0.7271281406
O  O10  1  0.49790000  0.37200000  0.49410000  1.0 -0.7271281406
O  O11  1  0.70250000  0.74740000  0.57140000  1.0 -0.5711410567
O  O12  1  0.29750000  0.25260000  0.42860000  1.0 -0.5711410567
O  O13  1  0.39880000  0.44350000  0.30690000  1.0 -0.6111554429
O  O14  1  0.60120000  0.55650000  0.69310000  1.0 -0.6111554429
O  O15  1  0.61180000  0.52850000  0.35390000  1.0 -0.6327415928
O  O16  1  0.38820000  0.47150000  0.64610000  1.0 -0.6327415928
