# DDEC6 charges by PACMAN v1.1 (https://github.com/mtap-research/PACMAN-charge/)
data_MIMWEO_ASR_pacman
_symmetry_space_group_name_H-M   'P 1'
_cell_length_a   12.05100000
_cell_length_b   12.08710000
_cell_length_c   12.99780000
_cell_angle_alpha   99.40900000
_cell_angle_beta   101.61700000
_cell_angle_gamma   101.59400000
_symmetry_Int_Tables_number   1
_chemical_formula_structural   EuH5C14S5O6
_chemical_formula_sum   'Eu2 H10 C28 S10 O12'
_cell_volume   1775.14789616
_cell_formula_units_Z   2
loop_
 _symmetry_equiv_pos_site_id
 _symmetry_equiv_pos_as_xyz
  1  'x, y, z'
loop_
 _atom_site_type_symbol
 _atom_site_label
 _atom_site_symmetry_multiplicity
 _atom_site_fract_x
 _atom_site_fract_y
 _atom_site_fract_z
 _atom_site_occupancy
 _atom_site_charge
Eu  Eu1  1  0.17379000  0.51464000  0.53758000  1.0 2.0729943426
Eu  Eu2  1  0.82621000  0.48536000  0.46242000  1.0 2.0729943426
H  H1  1  0.48129000  0.66855000  0.89583000  1.0 0.1125677512
H  H2  1  0.51871000  0.33145000  0.10417000  1.0 0.1125677512
H  H3  1  0.12720000  0.21606000  0.55578000  1.0 0.1287468621
H  H4  1  0.87280000  0.78394000  0.44422000  1.0 0.1287468621
H  H5  1  0.80337000  0.46403000  0.09034000  1.0 0.070690027
H  H6  1  0.19663000  0.53597000  0.90966000  1.0 0.070690027
H  H7  1  0.64624000  0.66860000  0.14874000  1.0 0.1125677512
H  H8  1  0.35376000  0.33140000  0.85126000  1.0 0.1125677512
H  H9  1  0.83292000  0.51026000  0.82715000  1.0 0.1287468621
H  H10  1  0.16708000  0.48974000  0.17285000  1.0 0.1287468621
C  C1  1  0.32690000  0.49770000  0.72490000  1.0 0.5267914744
C  C2  1  0.67310000  0.50230000  0.27510000  1.0 0.5267914744
C  C3  1  0.39440000  0.49860000  0.83380000  1.0 -0.0215794393
C  C4  1  0.60560000  0.50140000  0.16620000  1.0 -0.0215794393
C  C5  1  0.52180000  0.55780000  0.00660000  1.0 -0.0215794393
C  C6  1  0.47820000  0.44220000  0.99340000  1.0 -0.0215794393
C  C7  1  0.46720000  0.59170000  0.90700000  1.0 -0.1098606563
C  C8  1  0.53280000  0.40830000  0.09300000  1.0 -0.1098606563
C  C9  1  0.91800000  0.28010000  0.47470000  1.0 0.6194315464
C  C10  1  0.08200000  0.71990000  0.52530000  1.0 0.6194315464
C  C11  1  0.95180000  0.16980000  0.48200000  1.0 -0.1098606563
C  C12  1  0.04820000  0.83020000  0.51800000  1.0 -0.1098606563
C  C13  1  0.05900000  0.15510000  0.52650000  1.0 -0.1852239459
C  C14  1  0.94100000  0.84490000  0.47350000  1.0 -0.1845804243
C  C15  1  0.05490000  0.03650000  0.52310000  1.0 -0.0303528812
C  C16  1  0.94510000  0.96350000  0.47690000  1.0 -0.0215794393
C  C17  1  0.00040000  0.47250000  0.28450000  1.0 0.6006714017
C  C18  1  0.99960000  0.52750000  0.71550000  1.0 0.6006714017
C  C19  1  0.99880000  0.47910000  0.17090000  1.0 -0.0097584487
C  C20  1  0.00120000  0.52090000  0.82910000  1.0 -0.0097584487
C  C21  1  0.94120000  0.49810000  0.99510000  1.0 0.0051548337
C  C22  1  0.05880000  0.50190000  0.00490000  1.0 0.0034087342
C  C23  1  0.88250000  0.47580000  0.08600000  1.0 -0.1098606563
C  C24  1  0.11750000  0.52420000  0.91400000  1.0 -0.1098606563
C  C25  1  0.60220000  0.59180000  0.11680000  1.0 -0.1098606563
C  C26  1  0.39780000  0.40820000  0.88320000  1.0 -0.1098606563
C  C27  1  0.90800000  0.51060000  0.86700000  1.0 -0.0832148246
C  C28  1  0.09200000  0.48940000  0.13300000  1.0 -0.0832148246
S  S1  1  0.61540000  0.62860000  0.12270000  1.0 0.0491428026
S  S2  1  0.38460000  0.37140000  0.87730000  1.0 0.0491428026
S  S3  1  0.15530000  0.95894000  0.56366000  1.0 0.1497363807
S  S4  1  0.84470000  0.04106000  0.43634000  1.0 0.1497363807
S  S5  1  0.87185000  0.50939000  0.87097000  1.0 0.0422472418
S  S6  1  0.12815000  0.49061000  0.12903000  1.0 0.0422472418
S  S7  1  0.48640000  0.62420000  0.90950000  1.0 0.0491428026
S  S8  1  0.51360000  0.37580000  0.09050000  1.0 0.0491428026
S  S9  1  0.91660000  0.49440000  0.09810000  1.0 0.0290619754
S  S10  1  0.08340000  0.50560000  0.90190000  1.0 0.0290619754
O  O1  1  0.34420000  0.58990000  0.68990000  1.0 -0.6076314538
O  O2  1  0.65580000  0.41010000  0.31010000  1.0 -0.6076314538
O  O3  1  0.25350000  0.40700000  0.67090000  1.0 -0.62843872
O  O4  1  0.74650000  0.59300000  0.32910000  1.0 -0.62843872
O  O5  1  0.99640000  0.37310000  0.50310000  1.0 -0.7543379157
O  O6  1  0.00360000  0.62690000  0.49690000  1.0 -0.7543379157
O  O7  1  0.81310000  0.27800000  0.44150000  1.0 -0.6076314538
O  O8  1  0.18690000  0.72200000  0.55850000  1.0 -0.6076314538
O  O9  1  0.09990000  0.49340000  0.34810000  1.0 -0.6801580279
O  O10  1  0.90010000  0.50660000  0.65190000  1.0 -0.6801580279
O  O11  1  0.90370000  0.44810000  0.30710000  1.0 -0.62843872
O  O12  1  0.09630000  0.55190000  0.69290000  1.0 -0.6359219043
