# DDEC6 charges by PACMAN v1.1 (https://github.com/mtap-research/PACMAN-charge/)
data_MIMXAL_ASR_pacman
_symmetry_space_group_name_H-M   'P 1'
_cell_length_a   11.99260000
_cell_length_b   12.12140000
_cell_length_c   13.02360000
_cell_angle_alpha   100.91200000
_cell_angle_beta   101.84900000
_cell_angle_gamma   105.29000000
_symmetry_Int_Tables_number   1
_chemical_formula_structural   EuH5C14S5O6
_chemical_formula_sum   'Eu2 H10 C28 S10 O12'
_cell_volume   1726.82836162
_cell_formula_units_Z   2
loop_
 _symmetry_equiv_pos_site_id
 _symmetry_equiv_pos_as_xyz
  1  'x, y, z'
loop_
 _atom_site_type_symbol
 _atom_site_label
 _atom_site_symmetry_multiplicity
 _atom_site_fract_x
 _atom_site_fract_y
 _atom_site_fract_z
 _atom_site_occupancy
 _atom_site_charge
Eu  Eu1  1  0.67636000  0.52941000  0.54390000  1.0 2.0905974883
Eu  Eu2  1  0.32364000  0.47059000  0.45610000  1.0 2.0905974883
H  H1  1  0.85409000  0.32765000  0.83529000  1.0 0.1084957201
H  H2  1  0.14591000  0.67235000  0.16471000  1.0 0.1084957201
H  H3  1  0.62470000  0.22709000  0.57619000  1.0 0.1322691518
H  H4  1  0.37530000  0.77291000  0.42381000  1.0 0.1322691518
H  H5  1  0.67621000  0.56802000  0.91286000  1.0 0.102547862
H  H6  1  0.32379000  0.43198000  0.08714000  1.0 0.102547862
H  H7  1  0.00245000  0.31974000  0.06975000  1.0 0.1084957201
H  H8  1  0.99755000  0.68026000  0.93025000  1.0 0.1084957201
H  H9  1  0.67083000  0.53086000  0.15519000  1.0 0.1183298755
H  H10  1  0.32917000  0.46914000  0.84481000  1.0 0.1183298755
C  C1  1  0.82500000  0.51000000  0.73060000  1.0 0.5264457244
C  C2  1  0.17500000  0.49000000  0.26940000  1.0 0.5264457244
C  C3  1  0.89330000  0.50600000  0.83710000  1.0 -0.0220477821
C  C4  1  0.10670000  0.49400000  0.16290000  1.0 -0.0220477821
C  C5  1  0.97340000  0.43990000  0.98170000  1.0 -0.0490822276
C  C6  1  0.02660000  0.56010000  0.01830000  1.0 -0.0490822276
C  C7  1  0.89720000  0.40700000  0.87540000  1.0 -0.1209266443
C  C8  1  0.10280000  0.59300000  0.12460000  1.0 -0.1209266443
C  C9  1  0.41690000  0.27030000  0.46440000  1.0 0.6207062978
C  C10  1  0.58310000  0.72970000  0.53560000  1.0 0.6207062978
C  C11  1  0.45170000  0.16430000  0.47440000  1.0 -0.1112671839
C  C12  1  0.54830000  0.83570000  0.52560000  1.0 -0.1112671839
C  C13  1  0.55790000  0.15970000  0.53610000  1.0 -0.1789600995
C  C14  1  0.44210000  0.84030000  0.46390000  1.0 -0.1789600995
C  C15  1  0.55390000  0.04140000  0.53170000  1.0 -0.0220477821
C  C16  1  0.44610000  0.95860000  0.46830000  1.0 -0.0220477821
C  C17  1  0.49500000  0.52890000  0.71600000  1.0 0.6093063134
C  C18  1  0.50500000  0.47110000  0.28400000  1.0 0.6093063134
C  C19  1  0.49600000  0.52290000  0.82960000  1.0 -0.0328798593
C  C20  1  0.50400000  0.47710000  0.17040000  1.0 -0.0328798593
C  C21  1  0.56180000  0.51840000  0.00890000  1.0 -0.0407864029
C  C22  1  0.43820000  0.48160000  0.99110000  1.0 -0.0407864029
C  C23  1  0.59540000  0.54210000  0.91620000  1.0 -0.1112671839
C  C24  1  0.40460000  0.45790000  0.08380000  1.0 -0.1112671839
C  C25  1  0.02300000  0.40100000  0.07020000  1.0 -0.1112671839
C  C26  1  0.97700000  0.59900000  0.92980000  1.0 -0.1112671839
C  C27  1  0.58900000  0.51100000  0.11700000  1.0 -0.074866533
C  C28  1  0.41100000  0.48900000  0.88300000  1.0 -0.0760384907
S  S1  1  0.01681000  0.36339000  0.07048000  1.0 0.0672325644
S  S2  1  0.98319000  0.63661000  0.92952000  1.0 0.0672325644
S  S3  1  0.65225000  0.97463000  0.58853000  1.0 0.148241483
S  S4  1  0.34775000  0.02537000  0.41147000  1.0 0.148241483
S  S5  1  0.63785000  0.52274000  0.13619000  1.0 0.102547862
S  S6  1  0.36215000  0.47726000  0.86381000  1.0 0.102547862
S  S7  1  0.86840000  0.37260000  0.86420000  1.0 0.059675135
S  S8  1  0.13160000  0.62740000  0.13580000  1.0 0.059675135
S  S9  1  0.63310000  0.56090000  0.91750000  1.0 0.0475505668
S  S10  1  0.36690000  0.43910000  0.08250000  1.0 0.0475505668
O  O1  1  0.74340000  0.41810000  0.67170000  1.0 -0.6323528212
O  O2  1  0.25660000  0.58190000  0.32830000  1.0 -0.6323528212
O  O3  1  0.85070000  0.60520000  0.70200000  1.0 -0.6204432172
O  O4  1  0.14930000  0.39480000  0.29800000  1.0 -0.6204432172
O  O5  1  0.49560000  0.37210000  0.50130000  1.0 -0.7657917362
O  O6  1  0.50440000  0.62790000  0.49870000  1.0 -0.7657917362
O  O7  1  0.30910000  0.25880000  0.42200000  1.0 -0.6204432172
O  O8  1  0.69090000  0.74120000  0.57800000  1.0 -0.6204432172
O  O9  1  0.59400000  0.56470000  0.69660000  1.0 -0.6323528212
O  O10  1  0.40600000  0.43530000  0.30340000  1.0 -0.6323528212
O  O11  1  0.39250000  0.49410000  0.64840000  1.0 -0.6948786598
O  O12  1  0.60750000  0.50590000  0.35160000  1.0 -0.6952675205
