# DDEC6 charges by PACMAN v1.1 (https://github.com/mtap-research/PACMAN-charge/)
data_MIPHEA_ASR_pacman
_symmetry_space_group_name_H-M   'P 1'
_cell_length_a   30.14520000
_cell_length_b   30.14520000
_cell_length_c   48.82200000
_cell_angle_alpha   90.00000000
_cell_angle_beta   90.00000000
_cell_angle_gamma   144.23100000
_symmetry_Int_Tables_number   1
_chemical_formula_structural   Mn6H181C137(SO2)12
_chemical_formula_sum   'Mn24 H724 C548 S48 O96'
_cell_volume   25932.85674783
_cell_formula_units_Z   4
loop_
 _symmetry_equiv_pos_site_id
 _symmetry_equiv_pos_as_xyz
  1  'x, y, z'
loop_
 _atom_site_type_symbol
 _atom_site_label
 _atom_site_symmetry_multiplicity
 _atom_site_fract_x
 _atom_site_fract_y
 _atom_site_fract_z
 _atom_site_occupancy
 _atom_site_charge
Mn  Mn1  1  0.61220000  0.44564000  0.90670000  1.0 1.0309612721
Mn  Mn2  1  0.38780000  0.55436000  0.40670000  1.0 1.0309612721
Mn  Mn3  1  0.55436000  0.38780000  0.59330000  1.0 1.0309612721
Mn  Mn4  1  0.44564000  0.61220000  0.09330000  1.0 1.0309612721
Mn  Mn5  1  0.53932000  0.28000000  0.87962000  1.0 1.075181064
Mn  Mn6  1  0.46068000  0.72000000  0.37962000  1.0 1.0709545185
Mn  Mn7  1  0.72000000  0.46068000  0.62038000  1.0 1.075181064
Mn  Mn8  1  0.28000000  0.53932000  0.12038000  1.0 1.0709545185
Mn  Mn9  1  0.47677000  0.11985000  0.85096000  1.0 1.0567309826
Mn  Mn10  1  0.52323000  0.88015000  0.35096000  1.0 1.0567309826
Mn  Mn11  1  0.88015000  0.52323000  0.64904000  1.0 1.0567309826
Mn  Mn12  1  0.11985000  0.47677000  0.14904000  1.0 1.0567309826
Mn  Mn13  1  0.11082000  0.96138000  0.09299000  1.0 1.04999834
Mn  Mn14  1  0.88918000  0.03862000  0.59299000  1.0 1.04999834
Mn  Mn15  1  0.03862000  0.88918000  0.40701000  1.0 1.04999834
Mn  Mn16  1  0.96138000  0.11082000  0.90701000  1.0 1.04999834
Mn  Mn17  1  0.26674000  0.02812000  0.12859000  1.0 1.0891346603
Mn  Mn18  1  0.73326000  0.97188000  0.62859000  1.0 1.0891346603
Mn  Mn19  1  0.97188000  0.73326000  0.37141000  1.0 1.0891346603
Mn  Mn20  1  0.02812000  0.26674000  0.87141000  1.0 1.0891346603
Mn  Mn21  1  0.42364000  0.09384000  0.16237000  1.0 1.0709545185
Mn  Mn22  1  0.57636000  0.90616000  0.66237000  1.0 1.0709545185
Mn  Mn23  1  0.90616000  0.57636000  0.33763000  1.0 1.0709545185
Mn  Mn24  1  0.09384000  0.42364000  0.83763000  1.0 1.0709545185
H  H1  1  0.81310000  0.38730000  0.06080000  1.0 0.0906628163
H  H2  1  0.18690000  0.61270000  0.56080000  1.0 0.0906628163
H  H3  1  0.61270000  0.18690000  0.43920000  1.0 0.0906628163
H  H4  1  0.38730000  0.81310000  0.93920000  1.0 0.0906628163
H  H5  1  0.73770000  0.31910000  0.04310000  1.0 0.0410101366
H  H6  1  0.26230000  0.68090000  0.54310000  1.0 0.0410101366
H  H7  1  0.68090000  0.26230000  0.45690000  1.0 0.0410101366
H  H8  1  0.31910000  0.73770000  0.95690000  1.0 0.0410101366
H  H9  1  0.81770000  0.39030000  0.02810000  1.0 0.0410101366
H  H10  1  0.18230000  0.60970000  0.52810000  1.0 0.0410101366
H  H11  1  0.60970000  0.18230000  0.47190000  1.0 0.0410101366
H  H12  1  0.39030000  0.81770000  0.97190000  1.0 0.0410101366
H  H13  1  0.75100000  0.45640000  0.01670000  1.0 0.0996917827
H  H14  1  0.24900000  0.54360000  0.51670000  1.0 0.0996917827
H  H15  1  0.54360000  0.24900000  0.48330000  1.0 0.0996917827
H  H16  1  0.45640000  0.75100000  0.98330000  1.0 0.0996917827
H  H17  1  0.83890000  0.53670000  0.02440000  1.0 0.1096864333
H  H18  1  0.16110000  0.46330000  0.52440000  1.0 0.1096864333
H  H19  1  0.46330000  0.16110000  0.47560000  1.0 0.1096864333
H  H20  1  0.53670000  0.83890000  0.97560000  1.0 0.1096864333
H  H21  1  0.80890000  0.43910000  0.98730000  1.0 0.0800413374
H  H22  1  0.19110000  0.56090000  0.48730000  1.0 0.0800413374
H  H23  1  0.56090000  0.19110000  0.51270000  1.0 0.0800413374
H  H24  1  0.43910000  0.80890000  0.01270000  1.0 0.0800413374
H  H25  1  0.88270000  0.53090000  0.98710000  1.0 0.0906628163
H  H26  1  0.11730000  0.46910000  0.48710000  1.0 0.0906628163
H  H27  1  0.46910000  0.11730000  0.51290000  1.0 0.0906628163
H  H28  1  0.53090000  0.88270000  0.01290000  1.0 0.0906628163
H  H29  1  0.82220000  0.53360000  0.96120000  1.0 0.13013162
H  H30  1  0.17780000  0.46640000  0.46120000  1.0 0.13013162
H  H31  1  0.46640000  0.17780000  0.53880000  1.0 0.13013162
H  H32  1  0.53360000  0.82220000  0.03880000  1.0 0.13013162
H  H33  1  0.74780000  0.47060000  0.97990000  1.0 0.1197506921
H  H34  1  0.25220000  0.52940000  0.47990000  1.0 0.1197506921
H  H35  1  0.52940000  0.25220000  0.52010000  1.0 0.1197506921
H  H36  1  0.47060000  0.74780000  0.02010000  1.0 0.13013162
H  H37  1  0.75920000  0.44540000  0.95530000  1.0 0.1197506921
H  H38  1  0.24080000  0.55460000  0.45530000  1.0 0.1197506921
H  H39  1  0.55460000  0.24080000  0.54470000  1.0 0.1197506921
H  H40  1  0.44540000  0.75920000  0.04470000  1.0 0.1197506921
H  H41  1  0.29120000  0.98520000  0.07040000  1.0 0.1490156307
H  H42  1  0.70880000  0.01480000  0.57040000  1.0 0.1490156307
H  H43  1  0.01480000  0.70880000  0.42960000  1.0 0.1490156307
H  H44  1  0.98520000  0.29120000  0.92960000  1.0 0.1490156307
H  H45  1  0.59840000  0.28160000  0.94330000  1.0 0.1490156307
H  H46  1  0.40160000  0.71840000  0.44330000  1.0 0.1490156307
H  H47  1  0.71840000  0.40160000  0.55670000  1.0 0.1490156307
H  H48  1  0.28160000  0.59840000  0.05670000  1.0 0.1490156307
H  H49  1  0.57720000  0.23820000  0.09510000  1.0 0.1611933119
H  H50  1  0.42280000  0.76180000  0.59510000  1.0 0.1611933119
H  H51  1  0.76180000  0.42280000  0.40490000  1.0 0.1611933119
H  H52  1  0.23820000  0.57720000  0.90490000  1.0 0.1611933119
H  H53  1  0.58550000  0.20330000  0.00760000  1.0 0.1197506921
H  H54  1  0.41450000  0.79670000  0.50760000  1.0 0.1197506921
H  H55  1  0.79670000  0.41450000  0.49240000  1.0 0.1197506921
H  H56  1  0.20330000  0.58550000  0.99240000  1.0 0.1197506921
H  H57  1  0.64630000  0.25710000  0.98340000  1.0 0.1197506921
H  H58  1  0.35370000  0.74290000  0.48340000  1.0 0.1197506921
H  H59  1  0.74290000  0.35370000  0.51660000  1.0 0.1197506921
H  H60  1  0.25710000  0.64630000  0.01660000  1.0 0.1197506921
H  H61  1  0.48740000  0.10980000  0.97520000  1.0 0.0800413374
H  H62  1  0.51260000  0.89020000  0.47520000  1.0 0.0800413374
H  H63  1  0.89020000  0.51260000  0.52480000  1.0 0.0800413374
H  H64  1  0.10980000  0.48740000  0.02480000  1.0 0.0800413374
H  H65  1  0.54680000  0.16440000  0.95040000  1.0 0.0800413374
H  H66  1  0.45320000  0.83560000  0.45040000  1.0 0.0800413374
H  H67  1  0.83560000  0.45320000  0.54960000  1.0 0.0800413374
H  H68  1  0.16440000  0.54680000  0.04960000  1.0 0.0800413374
H  H69  1  0.62050000  0.16330000  0.96650000  1.0 0.0906628163
H  H70  1  0.37950000  0.83670000  0.46650000  1.0 0.0906628163
H  H71  1  0.83670000  0.37950000  0.53350000  1.0 0.0906628163
H  H72  1  0.16330000  0.62050000  0.03350000  1.0 0.0906628163
H  H73  1  0.56650000  0.11450000  0.99290000  1.0 0.0996917827
H  H74  1  0.43350000  0.88550000  0.49290000  1.0 0.0996917827
H  H75  1  0.88550000  0.43350000  0.50710000  1.0 0.0996917827
H  H76  1  0.11450000  0.56650000  0.00710000  1.0 0.0996917827
H  H77  1  0.51800000  0.02440000  0.96150000  1.0 0.0906628163
H  H78  1  0.48200000  0.97560000  0.46150000  1.0 0.0906628163
H  H79  1  0.97560000  0.48200000  0.53850000  1.0 0.0906628163
H  H80  1  0.02440000  0.51800000  0.03850000  1.0 0.0906628163
H  H81  1  0.46000000  0.01860000  0.96020000  1.0 0.0996917827
H  H82  1  0.54000000  0.98140000  0.46020000  1.0 0.0996917827
H  H83  1  0.98140000  0.54000000  0.53980000  1.0 0.0996917827
H  H84  1  0.01860000  0.46000000  0.03980000  1.0 0.0996917827
H  H85  1  0.58460000  0.10500000  0.92340000  1.0 0.0800413374
H  H86  1  0.41540000  0.89500000  0.42340000  1.0 0.0800413374
H  H87  1  0.89500000  0.41540000  0.57660000  1.0 0.0800413374
H  H88  1  0.10500000  0.58460000  0.07660000  1.0 0.0800413374
H  H89  1  0.53560000  0.11040000  0.92330000  1.0 0.0906628163
H  H90  1  0.46440000  0.88960000  0.42330000  1.0 0.0906628163
H  H91  1  0.88960000  0.46440000  0.57670000  1.0 0.0906628163
H  H92  1  0.11040000  0.53560000  0.07670000  1.0 0.0906628163
H  H93  1  0.48380000  0.01840000  0.89100000  1.0 0.13013162
H  H94  1  0.51620000  0.98160000  0.39100000  1.0 0.13013162
H  H95  1  0.98160000  0.51620000  0.60900000  1.0 0.13013162
H  H96  1  0.01840000  0.48380000  0.10900000  1.0 0.13013162
H  H97  1  0.42390000  0.97750000  0.91510000  1.0 0.1197506921
H  H98  1  0.57610000  0.02250000  0.41510000  1.0 0.1197506921
H  H99  1  0.02250000  0.57610000  0.58490000  1.0 0.1197506921
H  H100  1  0.97750000  0.42390000  0.08490000  1.0 0.1197506921
H  H101  1  0.47360000  0.97340000  0.91450000  1.0 0.1197506921
H  H102  1  0.52640000  0.02660000  0.41450000  1.0 0.1197506921
H  H103  1  0.02660000  0.52640000  0.58550000  1.0 0.1197506921
H  H104  1  0.97340000  0.47360000  0.08550000  1.0 0.1197506921
H  H105  1  0.67620000  0.32480000  0.02780000  1.0 0.0503180098
H  H106  1  0.32380000  0.67520000  0.52780000  1.0 0.0503180098
H  H107  1  0.67520000  0.32380000  0.47220000  1.0 0.0503180098
H  H108  1  0.32480000  0.67620000  0.97220000  1.0 0.0503180098
H  H109  1  0.67900000  0.29800000  0.05490000  1.0 0.070812899
H  H110  1  0.32100000  0.70200000  0.55490000  1.0 0.070812899
H  H111  1  0.70200000  0.32100000  0.44510000  1.0 0.070812899
H  H112  1  0.29800000  0.67900000  0.94510000  1.0 0.070812899
H  H113  1  0.75850000  0.41110000  0.07670000  1.0 0.0503180098
H  H114  1  0.24150000  0.58890000  0.57670000  1.0 0.0503180098
H  H115  1  0.58890000  0.24150000  0.42330000  1.0 0.0503180098
H  H116  1  0.41110000  0.75850000  0.92330000  1.0 0.0503180098
H  H117  1  0.73270000  0.43170000  0.05780000  1.0 0.070812899
H  H118  1  0.26730000  0.56830000  0.55780000  1.0 0.070812899
H  H119  1  0.56830000  0.26730000  0.44220000  1.0 0.070812899
H  H120  1  0.43170000  0.73270000  0.94220000  1.0 0.070812899
H  H121  1  0.85320000  0.47780000  0.04420000  1.0 0.0593722979
H  H122  1  0.14680000  0.52220000  0.54420000  1.0 0.0593722979
H  H123  1  0.52220000  0.14680000  0.45580000  1.0 0.0593722979
H  H124  1  0.47780000  0.85320000  0.95580000  1.0 0.0593722979
H  H125  1  0.78630000  0.40250000  0.02560000  1.0 0.0045760132
H  H126  1  0.21370000  0.59750000  0.52560000  1.0 0.0045760132
H  H127  1  0.59750000  0.21370000  0.47440000  1.0 0.0045760132
H  H128  1  0.40250000  0.78630000  0.97440000  1.0 0.0045760132
H  H129  1  0.34920000  0.98120000  0.92330000  1.0 0.1490156307
H  H130  1  0.65080000  0.01880000  0.42330000  1.0 0.1490156307
H  H131  1  0.01880000  0.65080000  0.57670000  1.0 0.1490156307
H  H132  1  0.98120000  0.34920000  0.07670000  1.0 0.1490156307
H  H133  1  0.25600000  0.88940000  0.99090000  1.0 0.1197506921
H  H134  1  0.74400000  0.11060000  0.49090000  1.0 0.1197506921
H  H135  1  0.11060000  0.74400000  0.50910000  1.0 0.1197506921
H  H136  1  0.88940000  0.25600000  0.00910000  1.0 0.1197506921
H  H137  1  0.29800000  0.89380000  0.96830000  1.0 0.13013162
H  H138  1  0.70200000  0.10620000  0.46830000  1.0 0.13013162
H  H139  1  0.10620000  0.70200000  0.53170000  1.0 0.13013162
H  H140  1  0.89380000  0.29800000  0.03170000  1.0 0.13013162
H  H141  1  0.16820000  0.78420000  0.95880000  1.0 0.070812899
H  H142  1  0.83180000  0.21580000  0.45880000  1.0 0.070812899
H  H143  1  0.21580000  0.83180000  0.54120000  1.0 0.070812899
H  H144  1  0.78420000  0.16820000  0.04120000  1.0 0.070812899
H  H145  1  0.20460000  0.84400000  0.93500000  1.0 0.0503180098
H  H146  1  0.79540000  0.15600000  0.43500000  1.0 0.0503180098
H  H147  1  0.15600000  0.79540000  0.56500000  1.0 0.0503180098
H  H148  1  0.84400000  0.20460000  0.06500000  1.0 0.0503180098
H  H149  1  0.12800000  0.81420000  0.98330000  1.0 0.0996917827
H  H150  1  0.87200000  0.18580000  0.48330000  1.0 0.0996917827
H  H151  1  0.18580000  0.87200000  0.51670000  1.0 0.0996917827
H  H152  1  0.81420000  0.12800000  0.01670000  1.0 0.0996917827
H  H153  1  0.17870000  0.88790000  0.96460000  1.0 0.0906628163
H  H154  1  0.82130000  0.11210000  0.46460000  1.0 0.0906628163
H  H155  1  0.11210000  0.82130000  0.53540000  1.0 0.0906628163
H  H156  1  0.88790000  0.17870000  0.03540000  1.0 0.0906628163
H  H157  1  0.03870000  0.76570000  0.95220000  1.0 0.0906628163
H  H158  1  0.96130000  0.23430000  0.45220000  1.0 0.0906628163
H  H159  1  0.23430000  0.96130000  0.54780000  1.0 0.0906628163
H  H160  1  0.76570000  0.03870000  0.04780000  1.0 0.0906628163
H  H161  1  0.09930000  0.81590000  0.92740000  1.0 0.0906628163
H  H162  1  0.90070000  0.18410000  0.42740000  1.0 0.0906628163
H  H163  1  0.18410000  0.90070000  0.57260000  1.0 0.0906628163
H  H164  1  0.81590000  0.09930000  0.07260000  1.0 0.0906628163
H  H165  1  0.00970000  0.67570000  0.93230000  1.0 0.0906628163
H  H166  1  0.99030000  0.32430000  0.43230000  1.0 0.0906628163
H  H167  1  0.32430000  0.99030000  0.56770000  1.0 0.0906628163
H  H168  1  0.67570000  0.00970000  0.06770000  1.0 0.0906628163
H  H169  1  0.07570000  0.71250000  0.95270000  1.0 0.070812899
H  H170  1  0.92430000  0.28750000  0.45270000  1.0 0.070812899
H  H171  1  0.28750000  0.92430000  0.54730000  1.0 0.070812899
H  H172  1  0.71250000  0.07570000  0.04730000  1.0 0.070812899
H  H173  1  0.09490000  0.71110000  0.90320000  1.0 0.1096864333
H  H174  1  0.90510000  0.28890000  0.40320000  1.0 0.1096864333
H  H175  1  0.28890000  0.90510000  0.59680000  1.0 0.1096864333
H  H176  1  0.71110000  0.09490000  0.09680000  1.0 0.1197506921
H  H177  1  0.16630000  0.78970000  0.91890000  1.0 0.0593722979
H  H178  1  0.83370000  0.21030000  0.41890000  1.0 0.0593722979
H  H179  1  0.21030000  0.83370000  0.58110000  1.0 0.0593722979
H  H180  1  0.78970000  0.16630000  0.08110000  1.0 0.0593722979
H  H181  1  0.11440000  0.77840000  0.89990000  1.0 0.1197506921
H  H182  1  0.88560000  0.22160000  0.39990000  1.0 0.1197506921
H  H183  1  0.22160000  0.88560000  0.60010000  1.0 0.1197506921
H  H184  1  0.77840000  0.11440000  0.10010000  1.0 0.1096864333
H  H185  1  0.33200000  0.94040000  0.03910000  1.0 0.1096864333
H  H186  1  0.66800000  0.05960000  0.53910000  1.0 0.1096864333
H  H187  1  0.05960000  0.66800000  0.46090000  1.0 0.1096864333
H  H188  1  0.94040000  0.33200000  0.96090000  1.0 0.1096864333
H  H189  1  0.38550000  0.00030000  0.01470000  1.0 0.1096864333
H  H190  1  0.61450000  0.99970000  0.51470000  1.0 0.1096864333
H  H191  1  0.99970000  0.61450000  0.48530000  1.0 0.1096864333
H  H192  1  0.00030000  0.38550000  0.98530000  1.0 0.1096864333
H  H193  1  0.47080000  0.10140000  0.04600000  1.0 0.0906628163
H  H194  1  0.52920000  0.89860000  0.54600000  1.0 0.0906628163
H  H195  1  0.89860000  0.52920000  0.45400000  1.0 0.0906628163
H  H196  1  0.10140000  0.47080000  0.95400000  1.0 0.0906628163
H  H197  1  0.41470000  0.04510000  0.07110000  1.0 0.0906628163
H  H198  1  0.58530000  0.95490000  0.57110000  1.0 0.0906628163
H  H199  1  0.95490000  0.58530000  0.42890000  1.0 0.0906628163
H  H200  1  0.04510000  0.41470000  0.92890000  1.0 0.0906628163
H  H201  1  0.46180000  0.01200000  0.03660000  1.0 0.0996917827
H  H202  1  0.53820000  0.98800000  0.53660000  1.0 0.0996917827
H  H203  1  0.98800000  0.53820000  0.46340000  1.0 0.0996917827
H  H204  1  0.01200000  0.46180000  0.96340000  1.0 0.0996917827
H  H205  1  0.43600000  0.98800000  0.06820000  1.0 0.0800413374
H  H206  1  0.56400000  0.01200000  0.56820000  1.0 0.0800413374
H  H207  1  0.01200000  0.56400000  0.43180000  1.0 0.0800413374
H  H208  1  0.98800000  0.43600000  0.93180000  1.0 0.0800413374
H  H209  1  0.58040000  0.11280000  0.05170000  1.0 0.0996917827
H  H210  1  0.41960000  0.88720000  0.55170000  1.0 0.0996917827
H  H211  1  0.88720000  0.41960000  0.44830000  1.0 0.0996917827
H  H212  1  0.11280000  0.58040000  0.94830000  1.0 0.0996917827
H  H213  1  0.55950000  0.14470000  0.06250000  1.0 0.0906628163
H  H214  1  0.44050000  0.85530000  0.56250000  1.0 0.0906628163
H  H215  1  0.85530000  0.44050000  0.43750000  1.0 0.0906628163
H  H216  1  0.14470000  0.55950000  0.93750000  1.0 0.0906628163
H  H217  1  0.49850000  0.04930000  0.10160000  1.0 0.0906628163
H  H218  1  0.50150000  0.95070000  0.60160000  1.0 0.0906628163
H  H219  1  0.95070000  0.50150000  0.39840000  1.0 0.0906628163
H  H220  1  0.04930000  0.49850000  0.89840000  1.0 0.0906628163
H  H221  1  0.58620000  0.13520000  0.10350000  1.0 0.0906628163
H  H222  1  0.41380000  0.86480000  0.60350000  1.0 0.0906628163
H  H223  1  0.86480000  0.41380000  0.39650000  1.0 0.0906628163
H  H224  1  0.13520000  0.58620000  0.89650000  1.0 0.0906628163
H  H225  1  0.57200000  0.04400000  0.10780000  1.0 0.1197506921
H  H226  1  0.42800000  0.95600000  0.60780000  1.0 0.1197506921
H  H227  1  0.95600000  0.42800000  0.39220000  1.0 0.1197506921
H  H228  1  0.04400000  0.57200000  0.89220000  1.0 0.1197506921
H  H229  1  0.62420000  0.09920000  0.08220000  1.0 0.1096864333
H  H230  1  0.37580000  0.90080000  0.58220000  1.0 0.1096864333
H  H231  1  0.90080000  0.37580000  0.41780000  1.0 0.1096864333
H  H232  1  0.09920000  0.62420000  0.91780000  1.0 0.1096864333
H  H233  1  0.53750000  0.01490000  0.07750000  1.0 0.1096864333
H  H234  1  0.46250000  0.98510000  0.57750000  1.0 0.1096864333
H  H235  1  0.98510000  0.46250000  0.42250000  1.0 0.1096864333
H  H236  1  0.01490000  0.53750000  0.92250000  1.0 0.1096864333
H  H237  1  0.71750000  0.56650000  0.83090000  1.0 0.1490156307
H  H238  1  0.28250000  0.43350000  0.33090000  1.0 0.1490156307
H  H239  1  0.43350000  0.28250000  0.66910000  1.0 0.1490156307
H  H240  1  0.56650000  0.71750000  0.16910000  1.0 0.1490156307
H  H241  1  0.72530000  0.53130000  0.67980000  1.0 0.1408670019
H  H242  1  0.27470000  0.46870000  0.17980000  1.0 0.1408670019
H  H243  1  0.46870000  0.27470000  0.82020000  1.0 0.1408670019
H  H244  1  0.53130000  0.72530000  0.32020000  1.0 0.1408670019
H  H245  1  0.76400000  0.65100000  0.77960000  1.0 0.1197506921
H  H246  1  0.23600000  0.34900000  0.27960000  1.0 0.1197506921
H  H247  1  0.34900000  0.23600000  0.72040000  1.0 0.1197506921
H  H248  1  0.65100000  0.76400000  0.22040000  1.0 0.1197506921
H  H249  1  0.80700000  0.65060000  0.76090000  1.0 0.1096864333
H  H250  1  0.19300000  0.34940000  0.26090000  1.0 0.1096864333
H  H251  1  0.34940000  0.19300000  0.73910000  1.0 0.1096864333
H  H252  1  0.65060000  0.80700000  0.23910000  1.0 0.1096864333
H  H253  1  0.86050000  0.70510000  0.81600000  1.0 0.0800413374
H  H254  1  0.13950000  0.29490000  0.31600000  1.0 0.0800413374
H  H255  1  0.29490000  0.13950000  0.68400000  1.0 0.0800413374
H  H256  1  0.70510000  0.86050000  0.18400000  1.0 0.0800413374
H  H257  1  0.88690000  0.76170000  0.79290000  1.0 0.0906628163
H  H258  1  0.11310000  0.23830000  0.29290000  1.0 0.0906628163
H  H259  1  0.23830000  0.11310000  0.70710000  1.0 0.0906628163
H  H260  1  0.76170000  0.88690000  0.20710000  1.0 0.0906628163
H  H261  1  0.95510000  0.76390000  0.76930000  1.0 0.0906628163
H  H262  1  0.04490000  0.23610000  0.26930000  1.0 0.0906628163
H  H263  1  0.23610000  0.04490000  0.73070000  1.0 0.0906628163
H  H264  1  0.76390000  0.95510000  0.23070000  1.0 0.0906628163
H  H265  1  0.89360000  0.67560000  0.77600000  1.0 0.070812899
H  H266  1  0.10640000  0.32440000  0.27600000  1.0 0.070812899
H  H267  1  0.32440000  0.10640000  0.72400000  1.0 0.070812899
H  H268  1  0.67560000  0.89360000  0.22400000  1.0 0.070812899
H  H269  1  0.95440000  0.75580000  0.82580000  1.0 0.0800413374
H  H270  1  0.04560000  0.24420000  0.32580000  1.0 0.0800413374
H  H271  1  0.24420000  0.04560000  0.67420000  1.0 0.0800413374
H  H272  1  0.75580000  0.95440000  0.17420000  1.0 0.0800413374
H  H273  1  0.02350000  0.79490000  0.80670000  1.0 0.0800413374
H  H274  1  0.97650000  0.20510000  0.30670000  1.0 0.0800413374
H  H275  1  0.20510000  0.97650000  0.69330000  1.0 0.0800413374
H  H276  1  0.79490000  0.02350000  0.19330000  1.0 0.0800413374
H  H277  1  0.88880000  0.63040000  0.80590000  1.0 0.070812899
H  H278  1  0.11120000  0.36960000  0.30590000  1.0 0.070812899
H  H279  1  0.36960000  0.11120000  0.69410000  1.0 0.070812899
H  H280  1  0.63040000  0.88880000  0.19410000  1.0 0.070812899
H  H281  1  0.97580000  0.68400000  0.80490000  1.0 0.0800413374
H  H282  1  0.02420000  0.31600000  0.30490000  1.0 0.070812899
H  H283  1  0.31600000  0.02420000  0.69510000  1.0 0.0800413374
H  H284  1  0.68400000  0.97580000  0.19510000  1.0 0.0800413374
H  H285  1  0.92030000  0.62750000  0.85090000  1.0 0.0996917827
H  H286  1  0.07970000  0.37250000  0.35090000  1.0 0.0996917827
H  H287  1  0.37250000  0.07970000  0.64910000  1.0 0.0996917827
H  H288  1  0.62750000  0.92030000  0.14910000  1.0 0.0996917827
H  H289  1  0.90970000  0.67150000  0.85340000  1.0 0.0906628163
H  H290  1  0.09030000  0.32850000  0.35340000  1.0 0.0996917827
H  H291  1  0.32850000  0.09030000  0.64660000  1.0 0.0906628163
H  H292  1  0.67150000  0.90970000  0.14660000  1.0 0.0906628163
H  H293  1  0.99320000  0.71820000  0.85220000  1.0 0.0800413374
H  H294  1  0.00680000  0.28180000  0.35220000  1.0 0.0800413374
H  H295  1  0.28180000  0.00680000  0.64780000  1.0 0.0800413374
H  H296  1  0.71820000  0.99320000  0.14780000  1.0 0.0800413374
H  H297  1  0.66640000  0.54480000  0.74250000  1.0 0.1096864333
H  H298  1  0.33360000  0.45520000  0.24250000  1.0 0.1096864333
H  H299  1  0.45520000  0.33360000  0.75750000  1.0 0.1096864333
H  H300  1  0.54480000  0.66640000  0.25750000  1.0 0.1096864333
H  H301  1  0.70910000  0.59210000  0.71460000  1.0 0.1197506921
H  H302  1  0.29090000  0.40790000  0.21460000  1.0 0.1197506921
H  H303  1  0.40790000  0.29090000  0.78540000  1.0 0.1197506921
H  H304  1  0.59210000  0.70910000  0.28540000  1.0 0.1197506921
H  H305  1  0.60640000  0.47560000  0.68900000  1.0 0.0906628163
H  H306  1  0.39360000  0.52440000  0.18900000  1.0 0.0906628163
H  H307  1  0.52440000  0.39360000  0.81100000  1.0 0.0906628163
H  H308  1  0.47560000  0.60640000  0.31100000  1.0 0.0906628163
H  H309  1  0.56290000  0.43050000  0.71740000  1.0 0.0800413374
H  H310  1  0.43710000  0.56950000  0.21740000  1.0 0.0800413374
H  H311  1  0.56950000  0.43710000  0.78260000  1.0 0.0800413374
H  H312  1  0.43050000  0.56290000  0.28260000  1.0 0.0800413374
H  H313  1  0.57710000  0.52210000  0.72730000  1.0 0.0996917827
H  H314  1  0.42290000  0.47790000  0.22730000  1.0 0.0996917827
H  H315  1  0.47790000  0.42290000  0.77270000  1.0 0.0996917827
H  H316  1  0.52210000  0.57710000  0.27270000  1.0 0.0996917827
H  H317  1  0.60070000  0.54710000  0.69570000  1.0 0.0906628163
H  H318  1  0.39930000  0.45290000  0.19570000  1.0 0.0906628163
H  H319  1  0.45290000  0.39930000  0.80430000  1.0 0.0906628163
H  H320  1  0.54710000  0.60070000  0.30430000  1.0 0.0906628163
H  H321  1  0.46470000  0.44570000  0.70440000  1.0 0.0996917827
H  H322  1  0.53530000  0.55430000  0.20440000  1.0 0.0996917827
H  H323  1  0.55430000  0.53530000  0.79560000  1.0 0.0996917827
H  H324  1  0.44570000  0.46470000  0.29560000  1.0 0.0996917827
H  H325  1  0.46230000  0.39150000  0.71110000  1.0 0.0906628163
H  H326  1  0.53770000  0.60850000  0.21110000  1.0 0.0906628163
H  H327  1  0.60850000  0.53770000  0.78890000  1.0 0.0906628163
H  H328  1  0.39150000  0.46230000  0.28890000  1.0 0.0906628163
H  H329  1  0.49770000  0.40150000  0.66700000  1.0 0.0906628163
H  H330  1  0.50230000  0.59850000  0.16700000  1.0 0.0906628163
H  H331  1  0.59850000  0.50230000  0.83300000  1.0 0.0906628163
H  H332  1  0.40150000  0.49770000  0.33300000  1.0 0.0906628163
H  H333  1  0.52440000  0.47320000  0.66020000  1.0 0.0906628163
H  H334  1  0.47560000  0.52680000  0.16020000  1.0 0.0906628163
H  H335  1  0.52680000  0.47560000  0.83980000  1.0 0.0906628163
H  H336  1  0.47320000  0.52440000  0.33980000  1.0 0.0906628163
H  H337  1  0.39860000  0.35720000  0.64260000  1.0 0.13013162
H  H338  1  0.60140000  0.64280000  0.14260000  1.0 0.13013162
H  H339  1  0.64280000  0.60140000  0.85740000  1.0 0.13013162
H  H340  1  0.35720000  0.39860000  0.35740000  1.0 0.13013162
H  H341  1  0.39790000  0.39590000  0.66460000  1.0 0.1096864333
H  H342  1  0.60210000  0.60410000  0.16460000  1.0 0.1096864333
H  H343  1  0.60410000  0.60210000  0.83540000  1.0 0.1096864333
H  H344  1  0.39590000  0.39790000  0.33540000  1.0 0.1096864333
H  H345  1  0.37010000  0.32490000  0.67320000  1.0 0.1096864333
H  H346  1  0.62990000  0.67510000  0.17320000  1.0 0.1096864333
H  H347  1  0.67510000  0.62990000  0.82680000  1.0 0.1096864333
H  H348  1  0.32490000  0.37010000  0.32680000  1.0 0.1096864333
H  H349  1  0.72070000  0.34410000  0.92070000  1.0 0.1490156307
H  H350  1  0.27930000  0.65590000  0.42070000  1.0 0.1490156307
H  H351  1  0.65590000  0.27930000  0.57930000  1.0 0.1490156307
H  H352  1  0.34410000  0.72070000  0.07930000  1.0 0.1490156307
H  H353  1  0.83460000  0.19020000  0.91430000  1.0 0.1490156307
H  H354  1  0.16540000  0.80980000  0.41430000  1.0 0.1490156307
H  H355  1  0.80980000  0.16540000  0.58570000  1.0 0.1490156307
H  H356  1  0.19020000  0.83460000  0.08570000  1.0 0.1490156307
H  H357  1  0.82010000  0.39790000  0.95860000  1.0 0.1197506921
H  H358  1  0.17990000  0.60210000  0.45860000  1.0 0.1197506921
H  H359  1  0.60210000  0.17990000  0.54140000  1.0 0.1197506921
H  H360  1  0.39790000  0.82010000  0.04140000  1.0 0.1197506921
H  H361  1  0.88660000  0.41840000  0.94860000  1.0 0.1197506921
H  H362  1  0.11340000  0.58160000  0.44860000  1.0 0.1197506921
H  H363  1  0.58160000  0.11340000  0.55140000  1.0 0.1197506921
H  H364  1  0.41840000  0.88660000  0.05140000  1.0 0.1197506921
H  H365  1  0.81040000  0.29300000  0.96140000  1.0 0.0906628163
H  H366  1  0.18960000  0.70700000  0.46140000  1.0 0.0906628163
H  H367  1  0.70700000  0.18960000  0.53860000  1.0 0.0906628163
H  H368  1  0.29300000  0.81040000  0.03860000  1.0 0.0906628163
H  H369  1  0.74000000  0.26780000  0.96920000  1.0 0.0906628163
H  H370  1  0.26000000  0.73220000  0.46920000  1.0 0.0906628163
H  H371  1  0.73220000  0.26000000  0.53080000  1.0 0.0906628163
H  H372  1  0.26780000  0.74000000  0.03080000  1.0 0.0906628163
H  H373  1  0.83560000  0.38440000  0.00120000  1.0 0.0906628163
H  H374  1  0.16440000  0.61560000  0.50120000  1.0 0.0906628163
H  H375  1  0.61560000  0.16440000  0.49880000  1.0 0.0906628163
H  H376  1  0.38440000  0.83560000  0.99880000  1.0 0.0906628163
H  H377  1  0.88400000  0.37820000  0.99870000  1.0 0.0996917827
H  H378  1  0.11600000  0.62180000  0.49870000  1.0 0.0996917827
H  H379  1  0.62180000  0.11600000  0.50130000  1.0 0.0996917827
H  H380  1  0.37820000  0.88400000  0.00130000  1.0 0.0996917827
H  H381  1  0.72150000  0.24690000  0.01310000  1.0 0.1096864333
H  H382  1  0.27850000  0.75310000  0.51310000  1.0 0.1096864333
H  H383  1  0.75310000  0.27850000  0.48690000  1.0 0.1096864333
H  H384  1  0.24690000  0.72150000  0.98690000  1.0 0.1096864333
H  H385  1  0.77420000  0.24560000  0.01300000  1.0 0.0906628163
H  H386  1  0.22580000  0.75440000  0.51300000  1.0 0.0906628163
H  H387  1  0.75440000  0.22580000  0.48700000  1.0 0.0906628163
H  H388  1  0.24560000  0.77420000  0.98700000  1.0 0.0906628163
H  H389  1  0.85960000  0.35280000  0.04660000  1.0 0.0996917827
H  H390  1  0.14040000  0.64720000  0.54660000  1.0 0.0996917827
H  H391  1  0.64720000  0.14040000  0.45340000  1.0 0.0996917827
H  H392  1  0.35280000  0.85960000  0.95340000  1.0 0.0996917827
H  H393  1  0.77610000  0.27830000  0.05970000  1.0 0.0906628163
H  H394  1  0.22390000  0.72170000  0.55970000  1.0 0.0906628163
H  H395  1  0.72170000  0.22390000  0.44030000  1.0 0.0906628163
H  H396  1  0.27830000  0.77610000  0.94030000  1.0 0.0906628163
H  H397  1  0.69920000  0.11080000  0.92380000  1.0 0.1096864333
H  H398  1  0.30080000  0.88920000  0.42380000  1.0 0.1096864333
H  H399  1  0.88920000  0.30080000  0.57620000  1.0 0.1096864333
H  H400  1  0.11080000  0.69920000  0.07620000  1.0 0.1096864333
H  H401  1  0.69170000  0.15530000  0.93190000  1.0 0.0996917827
H  H402  1  0.30830000  0.84470000  0.43190000  1.0 0.0996917827
H  H403  1  0.84470000  0.30830000  0.56810000  1.0 0.0996917827
H  H404  1  0.15530000  0.69170000  0.06810000  1.0 0.0996917827
H  H405  1  0.74290000  0.18150000  0.97600000  1.0 0.0906628163
H  H406  1  0.25710000  0.81850000  0.47600000  1.0 0.0906628163
H  H407  1  0.81850000  0.25710000  0.52400000  1.0 0.0906628163
H  H408  1  0.18150000  0.74290000  0.02400000  1.0 0.0906628163
H  H409  1  0.75110000  0.13650000  0.96770000  1.0 0.0906628163
H  H410  1  0.24890000  0.86350000  0.46770000  1.0 0.0906628163
H  H411  1  0.86350000  0.24890000  0.53230000  1.0 0.0906628163
H  H412  1  0.13650000  0.75110000  0.03230000  1.0 0.0906628163
H  H413  1  0.61000000  0.07200000  0.97150000  1.0 0.0800413374
H  H414  1  0.39000000  0.92800000  0.47150000  1.0 0.0800413374
H  H415  1  0.92800000  0.39000000  0.52850000  1.0 0.0800413374
H  H416  1  0.07200000  0.61000000  0.02850000  1.0 0.0800413374
H  H417  1  0.61240000  0.03020000  0.95240000  1.0 0.0906628163
H  H418  1  0.38760000  0.96980000  0.45240000  1.0 0.0906628163
H  H419  1  0.96980000  0.38760000  0.54760000  1.0 0.0906628163
H  H420  1  0.03020000  0.61240000  0.04760000  1.0 0.0906628163
H  H421  1  0.67970000  0.05090000  0.99530000  1.0 0.0906628163
H  H422  1  0.32030000  0.94910000  0.49530000  1.0 0.0906628163
H  H423  1  0.94910000  0.32030000  0.50470000  1.0 0.0906628163
H  H424  1  0.05090000  0.67970000  0.00470000  1.0 0.0906628163
H  H425  1  0.58800000  0.97720000  0.99480000  1.0 0.0906628163
H  H426  1  0.41200000  0.02280000  0.49480000  1.0 0.0906628163
H  H427  1  0.02280000  0.41200000  0.50520000  1.0 0.0906628163
H  H428  1  0.97720000  0.58800000  0.00520000  1.0 0.0906628163
H  H429  1  0.63320000  0.09860000  0.00960000  1.0 0.0906628163
H  H430  1  0.36680000  0.90140000  0.50960000  1.0 0.0906628163
H  H431  1  0.90140000  0.36680000  0.49040000  1.0 0.0906628163
H  H432  1  0.09860000  0.63320000  0.99040000  1.0 0.0906628163
H  H433  1  0.67840000  0.10140000  0.02960000  1.0 0.0800413374
H  H434  1  0.32160000  0.89860000  0.52960000  1.0 0.0800413374
H  H435  1  0.89860000  0.32160000  0.47040000  1.0 0.0800413374
H  H436  1  0.10140000  0.67840000  0.97040000  1.0 0.0800413374
H  H437  1  0.53590000  0.00450000  0.03960000  1.0 0.1096864333
H  H438  1  0.46410000  0.99550000  0.53960000  1.0 0.1096864333
H  H439  1  0.99550000  0.46410000  0.46040000  1.0 0.1096864333
H  H440  1  0.00450000  0.53590000  0.96040000  1.0 0.1096864333
H  H441  1  0.56850000  0.98270000  0.04680000  1.0 0.1197506921
H  H442  1  0.43150000  0.01730000  0.54680000  1.0 0.1197506921
H  H443  1  0.01730000  0.43150000  0.45320000  1.0 0.1197506921
H  H444  1  0.98270000  0.56850000  0.95320000  1.0 0.1197506921
H  H445  1  0.52310000  0.95370000  0.01880000  1.0 0.1197506921
H  H446  1  0.47690000  0.04630000  0.51880000  1.0 0.1197506921
H  H447  1  0.04630000  0.47690000  0.48120000  1.0 0.1197506921
H  H448  1  0.95370000  0.52310000  0.98120000  1.0 0.1197506921
H  H449  1  0.33520000  0.21680000  0.17080000  1.0 0.1490156307
H  H450  1  0.66480000  0.78320000  0.67080000  1.0 0.1490156307
H  H451  1  0.78320000  0.66480000  0.32920000  1.0 0.1490156307
H  H452  1  0.21680000  0.33520000  0.82920000  1.0 0.1490156307
H  H453  1  0.18190000  0.33070000  0.15660000  1.0 0.1408670019
H  H454  1  0.81810000  0.66930000  0.65660000  1.0 0.1408670019
H  H455  1  0.66930000  0.81810000  0.34340000  1.0 0.1408670019
H  H456  1  0.33070000  0.18190000  0.84340000  1.0 0.1408670019
H  H457  1  0.36690000  0.36150000  0.18600000  1.0 0.0996917827
H  H458  1  0.63310000  0.63850000  0.68600000  1.0 0.0996917827
H  H459  1  0.63850000  0.63310000  0.31400000  1.0 0.0996917827
H  H460  1  0.36150000  0.36690000  0.81400000  1.0 0.0996917827
H  H461  1  0.41790000  0.35970000  0.18500000  1.0 0.1197506921
H  H462  1  0.58210000  0.64030000  0.68500000  1.0 0.1197506921
H  H463  1  0.64030000  0.58210000  0.31500000  1.0 0.1197506921
H  H464  1  0.35970000  0.41790000  0.81500000  1.0 0.1197506921
H  H465  1  0.39420000  0.35900000  0.23020000  1.0 0.0800413374
H  H466  1  0.60580000  0.64100000  0.73020000  1.0 0.0800413374
H  H467  1  0.64100000  0.60580000  0.26980000  1.0 0.0800413374
H  H468  1  0.35900000  0.39420000  0.76980000  1.0 0.0800413374
H  H469  1  0.35330000  0.27910000  0.22410000  1.0 0.0996917827
H  H470  1  0.64670000  0.72090000  0.72410000  1.0 0.0996917827
H  H471  1  0.72090000  0.64670000  0.27590000  1.0 0.0996917827
H  H472  1  0.27910000  0.35330000  0.77590000  1.0 0.0996917827
H  H473  1  0.27460000  0.29920000  0.21860000  1.0 0.0996917827
H  H474  1  0.72540000  0.70080000  0.71860000  1.0 0.0996917827
H  H475  1  0.70080000  0.72540000  0.28140000  1.0 0.0996917827
H  H476  1  0.29920000  0.27460000  0.78140000  1.0 0.0996917827
H  H477  1  0.23500000  0.21900000  0.21650000  1.0 0.0996917827
H  H478  1  0.76500000  0.78100000  0.71650000  1.0 0.0996917827
H  H479  1  0.78100000  0.76500000  0.28350000  1.0 0.0996917827
H  H480  1  0.21900000  0.23500000  0.78350000  1.0 0.0996917827
H  H481  1  0.27280000  0.23440000  0.26330000  1.0 0.0906628163
H  H482  1  0.72720000  0.76560000  0.76330000  1.0 0.0906628163
H  H483  1  0.76560000  0.72720000  0.23670000  1.0 0.0906628163
H  H484  1  0.23440000  0.27280000  0.73670000  1.0 0.0906628163
H  H485  1  0.30950000  0.31290000  0.26530000  1.0 0.0996917827
H  H486  1  0.69050000  0.68710000  0.76530000  1.0 0.0996917827
H  H487  1  0.68710000  0.69050000  0.23470000  1.0 0.0996917827
H  H488  1  0.31290000  0.30950000  0.73470000  1.0 0.0996917827
H  H489  1  0.18860000  0.24780000  0.25680000  1.0 0.0800413374
H  H490  1  0.81140000  0.75220000  0.75680000  1.0 0.0800413374
H  H491  1  0.75220000  0.81140000  0.24320000  1.0 0.0800413374
H  H492  1  0.24780000  0.18860000  0.74320000  1.0 0.0800413374
H  H493  1  0.15110000  0.16910000  0.25290000  1.0 0.0800413374
H  H494  1  0.84890000  0.83090000  0.75290000  1.0 0.0800413374
H  H495  1  0.83090000  0.84890000  0.24710000  1.0 0.0800413374
H  H496  1  0.16910000  0.15110000  0.74710000  1.0 0.0800413374
H  H497  1  0.13280000  0.17960000  0.29880000  1.0 0.13013162
H  H498  1  0.86720000  0.82040000  0.79880000  1.0 0.13013162
H  H499  1  0.82040000  0.86720000  0.20120000  1.0 0.13013162
H  H500  1  0.17960000  0.13280000  0.70120000  1.0 0.13013162
H  H501  1  0.22290000  0.25630000  0.30260000  1.0 0.1197506921
H  H502  1  0.77710000  0.74370000  0.80260000  1.0 0.1197506921
H  H503  1  0.74370000  0.77710000  0.19740000  1.0 0.1197506921
H  H504  1  0.25630000  0.22290000  0.69740000  1.0 0.1197506921
H  H505  1  0.18390000  0.17710000  0.29870000  1.0 0.1197506921
H  H506  1  0.81610000  0.82290000  0.79870000  1.0 0.1197506921
H  H507  1  0.82290000  0.81610000  0.20130000  1.0 0.1197506921
H  H508  1  0.17710000  0.18390000  0.70130000  1.0 0.1197506921
H  H509  1  0.14630000  0.18650000  0.17250000  1.0 0.1096864333
H  H510  1  0.85370000  0.81350000  0.67250000  1.0 0.1096864333
H  H511  1  0.81350000  0.85370000  0.32750000  1.0 0.1096864333
H  H512  1  0.18650000  0.14630000  0.82750000  1.0 0.1096864333
H  H513  1  0.09810000  0.18350000  0.15560000  1.0 0.1197506921
H  H514  1  0.90190000  0.81650000  0.65560000  1.0 0.1197506921
H  H515  1  0.81650000  0.90190000  0.34440000  1.0 0.1197506921
H  H516  1  0.18350000  0.09810000  0.84440000  1.0 0.1197506921
H  H517  1  0.11830000  0.25330000  0.19200000  1.0 0.0996917827
H  H518  1  0.88170000  0.74670000  0.69200000  1.0 0.0996917827
H  H519  1  0.74670000  0.88170000  0.30800000  1.0 0.0996917827
H  H520  1  0.25330000  0.11830000  0.80800000  1.0 0.0996917827
H  H521  1  0.16410000  0.25330000  0.20920000  1.0 0.0996917827
H  H522  1  0.83590000  0.74670000  0.70920000  1.0 0.0996917827
H  H523  1  0.74670000  0.83590000  0.29080000  1.0 0.0996917827
H  H524  1  0.25330000  0.16410000  0.79080000  1.0 0.0996917827
H  H525  1  0.00520000  0.12960000  0.20240000  1.0 0.0503180098
H  H526  1  0.99480000  0.87040000  0.70240000  1.0 0.0503180098
H  H527  1  0.87040000  0.99480000  0.29760000  1.0 0.0503180098
H  H528  1  0.12960000  0.00520000  0.79760000  1.0 0.0503180098
H  H529  1  0.03660000  0.10660000  0.19410000  1.0 0.0996917827
H  H530  1  0.96340000  0.89340000  0.69410000  1.0 0.0996917827
H  H531  1  0.89340000  0.96340000  0.30590000  1.0 0.0996917827
H  H532  1  0.10660000  0.03660000  0.80590000  1.0 0.0996917827
H  H533  1  0.07890000  0.12670000  0.23760000  1.0 0.0800413374
H  H534  1  0.92110000  0.87330000  0.73760000  1.0 0.0800413374
H  H535  1  0.87330000  0.92110000  0.26240000  1.0 0.0800413374
H  H536  1  0.12670000  0.07890000  0.76240000  1.0 0.0800413374
H  H537  1  0.10280000  0.19720000  0.24260000  1.0 0.0906628163
H  H538  1  0.89720000  0.80280000  0.74260000  1.0 0.0906628163
H  H539  1  0.80280000  0.89720000  0.25740000  1.0 0.0906628163
H  H540  1  0.19720000  0.10280000  0.75740000  1.0 0.0906628163
H  H541  1  0.26090000  0.08450000  0.18810000  1.0 0.1490156307
H  H542  1  0.73910000  0.91550000  0.68810000  1.0 0.1490156307
H  H543  1  0.91550000  0.73910000  0.31190000  1.0 0.1490156307
H  H544  1  0.08450000  0.26090000  0.81190000  1.0 0.1490156307
H  H545  1  0.15590000  0.05670000  0.24800000  1.0 0.1096864333
H  H546  1  0.84410000  0.94330000  0.74800000  1.0 0.1096864333
H  H547  1  0.94330000  0.84410000  0.25200000  1.0 0.1096864333
H  H548  1  0.05670000  0.15590000  0.75200000  1.0 0.1096864333
H  H549  1  0.21040000  0.11760000  0.22400000  1.0 0.1197506921
H  H550  1  0.78960000  0.88240000  0.72400000  1.0 0.1197506921
H  H551  1  0.88240000  0.78960000  0.27600000  1.0 0.1197506921
H  H552  1  0.11760000  0.21040000  0.77600000  1.0 0.1197506921
H  H553  1  0.12460000  0.01600000  0.19130000  1.0 0.0906628163
H  H554  1  0.87540000  0.98400000  0.69130000  1.0 0.0906628163
H  H555  1  0.98400000  0.87540000  0.30870000  1.0 0.0906628163
H  H556  1  0.01600000  0.12460000  0.80870000  1.0 0.0906628163
H  H557  1  0.06870000  0.95790000  0.21600000  1.0 0.0800413374
H  H558  1  0.93130000  0.04210000  0.71600000  1.0 0.0800413374
H  H559  1  0.04210000  0.93130000  0.28400000  1.0 0.0800413374
H  H560  1  0.95790000  0.06870000  0.78400000  1.0 0.0800413374
H  H561  1  0.97170000  0.91790000  0.20040000  1.0 0.0906628163
H  H562  1  0.02830000  0.08210000  0.70040000  1.0 0.0906628163
H  H563  1  0.08210000  0.02830000  0.29960000  1.0 0.0906628163
H  H564  1  0.91790000  0.97170000  0.79960000  1.0 0.0906628163
H  H565  1  0.97050000  0.97010000  0.19820000  1.0 0.0996917827
H  H566  1  0.02950000  0.02990000  0.69820000  1.0 0.0996917827
H  H567  1  0.02990000  0.02950000  0.30180000  1.0 0.0996917827
H  H568  1  0.97010000  0.97050000  0.80180000  1.0 0.0996917827
H  H569  1  0.95080000  0.92100000  0.13000000  1.0 0.13013162
H  H570  1  0.04920000  0.07900000  0.63000000  1.0 0.13013162
H  H571  1  0.07900000  0.04920000  0.37000000  1.0 0.13013162
H  H572  1  0.92100000  0.95080000  0.87000000  1.0 0.13013162
H  H573  1  0.91290000  0.91810000  0.15430000  1.0 0.1197506921
H  H574  1  0.08710000  0.08190000  0.65430000  1.0 0.1197506921
H  H575  1  0.08190000  0.08710000  0.34570000  1.0 0.1197506921
H  H576  1  0.91810000  0.91290000  0.84570000  1.0 0.1197506921
H  H577  1  0.91440000  0.86620000  0.15570000  1.0 0.1096864333
H  H578  1  0.08560000  0.13380000  0.65570000  1.0 0.1096864333
H  H579  1  0.13380000  0.08560000  0.34430000  1.0 0.1096864333
H  H580  1  0.86620000  0.91440000  0.84430000  1.0 0.1096864333
H  H581  1  0.32210000  0.18370000  0.33190000  1.0 0.0996917827
H  H582  1  0.67790000  0.81630000  0.83190000  1.0 0.0996917827
H  H583  1  0.81630000  0.67790000  0.16810000  1.0 0.0996917827
H  H584  1  0.18370000  0.32210000  0.66810000  1.0 0.0996917827
H  H585  1  0.36980000  0.19800000  0.30810000  1.0 0.0906628163
H  H586  1  0.63020000  0.80200000  0.80810000  1.0 0.0906628163
H  H587  1  0.80200000  0.63020000  0.19190000  1.0 0.0906628163
H  H588  1  0.19800000  0.36980000  0.69190000  1.0 0.0906628163
H  H589  1  0.39630000  0.30250000  0.32510000  1.0 0.0906628163
H  H590  1  0.60370000  0.69750000  0.82510000  1.0 0.0906628163
H  H591  1  0.69750000  0.60370000  0.17490000  1.0 0.0906628163
H  H592  1  0.30250000  0.39630000  0.67490000  1.0 0.0906628163
H  H593  1  0.35330000  0.27430000  0.29630000  1.0 0.0906628163
H  H594  1  0.64670000  0.72570000  0.79630000  1.0 0.0906628163
H  H595  1  0.72570000  0.64670000  0.20370000  1.0 0.0906628163
H  H596  1  0.27430000  0.35330000  0.70370000  1.0 0.0906628163
H  H597  1  0.17200000  0.03960000  0.33980000  1.0 0.1490156307
H  H598  1  0.82800000  0.96040000  0.83980000  1.0 0.1490156307
H  H599  1  0.96040000  0.82800000  0.16020000  1.0 0.1490156307
H  H600  1  0.03960000  0.17200000  0.66020000  1.0 0.1490156307
H  H601  1  0.11070000  0.07970000  0.19990000  1.0 0.0996917827
H  H602  1  0.88930000  0.92030000  0.69990000  1.0 0.0996917827
H  H603  1  0.92030000  0.88930000  0.30010000  1.0 0.0996917827
H  H604  1  0.07970000  0.11070000  0.80010000  1.0 0.0996917827
H  H605  1  0.06760000  0.03520000  0.22830000  1.0 0.1096864333
H  H606  1  0.93240000  0.96480000  0.72830000  1.0 0.1096864333
H  H607  1  0.96480000  0.93240000  0.27170000  1.0 0.1096864333
H  H608  1  0.03520000  0.06760000  0.77170000  1.0 0.1096864333
H  H609  1  0.04760000  0.97540000  0.16050000  1.0 0.0906628163
H  H610  1  0.95240000  0.02460000  0.66050000  1.0 0.0906628163
H  H611  1  0.02460000  0.95240000  0.33950000  1.0 0.0906628163
H  H612  1  0.97540000  0.04760000  0.83950000  1.0 0.0996917827
H  H613  1  0.04730000  0.02830000  0.15830000  1.0 0.0906628163
H  H614  1  0.95270000  0.97170000  0.65830000  1.0 0.0906628163
H  H615  1  0.97170000  0.95270000  0.34170000  1.0 0.0906628163
H  H616  1  0.02830000  0.04730000  0.84170000  1.0 0.0906628163
H  H617  1  0.28760000  0.16040000  0.27440000  1.0 0.1096864333
H  H618  1  0.71240000  0.83960000  0.77440000  1.0 0.1096864333
H  H619  1  0.83960000  0.71240000  0.22560000  1.0 0.1096864333
H  H620  1  0.16040000  0.28760000  0.72560000  1.0 0.1096864333
H  H621  1  0.24260000  0.15180000  0.29710000  1.0 0.1096864333
H  H622  1  0.75740000  0.84820000  0.79710000  1.0 0.1096864333
H  H623  1  0.84820000  0.75740000  0.20290000  1.0 0.1096864333
H  H624  1  0.15180000  0.24260000  0.70290000  1.0 0.1096864333
H  H625  1  0.44040000  0.29560000  0.27450000  1.0 0.0996917827
H  H626  1  0.55960000  0.70440000  0.77450000  1.0 0.0906628163
H  H627  1  0.70440000  0.55960000  0.22550000  1.0 0.0906628163
H  H628  1  0.29560000  0.44040000  0.72550000  1.0 0.0906628163
H  H629  1  0.48170000  0.31990000  0.30340000  1.0 0.0800413374
H  H630  1  0.51830000  0.68010000  0.80340000  1.0 0.0800413374
H  H631  1  0.68010000  0.51830000  0.19660000  1.0 0.0800413374
H  H632  1  0.31990000  0.48170000  0.69660000  1.0 0.0800413374
H  H633  1  0.49250000  0.41350000  0.30430000  1.0 0.0906628163
H  H634  1  0.50750000  0.58650000  0.80430000  1.0 0.0906628163
H  H635  1  0.58650000  0.50750000  0.19570000  1.0 0.0906628163
H  H636  1  0.41350000  0.49250000  0.69570000  1.0 0.0906628163
H  H637  1  0.55550000  0.43670000  0.28780000  1.0 0.0906628163
H  H638  1  0.44450000  0.56330000  0.78780000  1.0 0.0906628163
H  H639  1  0.56330000  0.44450000  0.21220000  1.0 0.0906628163
H  H640  1  0.43670000  0.55550000  0.71220000  1.0 0.0906628163
H  H641  1  0.50200000  0.44800000  0.25850000  1.0 0.070812899
H  H642  1  0.49800000  0.55200000  0.75850000  1.0 0.070812899
H  H643  1  0.55200000  0.49800000  0.24150000  1.0 0.070812899
H  H644  1  0.44800000  0.50200000  0.74150000  1.0 0.070812899
H  H645  1  0.41930000  0.36070000  0.26370000  1.0 0.1096864333
H  H646  1  0.58070000  0.63930000  0.76370000  1.0 0.1096864333
H  H647  1  0.63930000  0.58070000  0.23630000  1.0 0.1096864333
H  H648  1  0.36070000  0.41930000  0.73630000  1.0 0.1096864333
H  H649  1  0.48120000  0.38280000  0.24730000  1.0 0.1096864333
H  H650  1  0.51880000  0.61720000  0.74730000  1.0 0.1096864333
H  H651  1  0.61720000  0.51880000  0.25270000  1.0 0.1096864333
H  H652  1  0.38280000  0.48120000  0.75270000  1.0 0.1096864333
H  H653  1  0.69110000  0.35390000  0.03130000  1.0 0.070812899
H  H654  1  0.30890000  0.64610000  0.53130000  1.0 0.070812899
H  H655  1  0.64610000  0.30890000  0.46870000  1.0 0.070812899
H  H656  1  0.35390000  0.69110000  0.96870000  1.0 0.070812899
H  H657  1  0.67530000  0.29330000  0.04490000  1.0 0.0234922136
H  H658  1  0.32470000  0.70670000  0.54490000  1.0 0.0234922136
H  H659  1  0.70670000  0.32470000  0.45510000  1.0 0.0234922136
H  H660  1  0.29330000  0.67530000  0.95510000  1.0 0.0234922136
H  H661  1  0.70780000  0.34720000  0.08960000  1.0 0.070812899
H  H662  1  0.29220000  0.65280000  0.58960000  1.0 0.070812899
H  H663  1  0.65280000  0.29220000  0.41040000  1.0 0.070812899
H  H664  1  0.34720000  0.70780000  0.91040000  1.0 0.070812899
H  H665  1  0.71350000  0.40190000  0.07800000  1.0 0.0234922136
H  H666  1  0.28650000  0.59810000  0.57800000  1.0 0.0234922136
H  H667  1  0.59810000  0.28650000  0.42200000  1.0 0.0234922136
H  H668  1  0.40190000  0.71350000  0.92200000  1.0 0.0234922136
H  H669  1  0.81560000  0.41180000  0.06460000  1.0 0.0410101366
H  H670  1  0.18440000  0.58820000  0.56460000  1.0 0.0410101366
H  H671  1  0.58820000  0.18440000  0.43540000  1.0 0.0410101366
H  H672  1  0.41180000  0.81560000  0.93540000  1.0 0.0410101366
H  H673  1  0.80950000  0.44850000  0.04390000  1.0 0.0503180098
H  H674  1  0.19050000  0.55150000  0.54390000  1.0 0.0503180098
H  H675  1  0.55150000  0.19050000  0.45610000  1.0 0.0503180098
H  H676  1  0.44850000  0.80950000  0.95610000  1.0 0.0410101366
H  H677  1  0.82510000  0.48230000  0.10130000  1.0 0.0906628163
H  H678  1  0.17490000  0.51770000  0.60130000  1.0 0.0906628163
H  H679  1  0.51770000  0.17490000  0.39870000  1.0 0.0906628163
H  H680  1  0.48230000  0.82510000  0.89870000  1.0 0.0906628163
H  H681  1  0.85840000  0.53740000  0.07580000  1.0 0.1096864333
H  H682  1  0.14160000  0.46260000  0.57580000  1.0 0.1096864333
H  H683  1  0.46260000  0.14160000  0.42420000  1.0 0.1096864333
H  H684  1  0.53740000  0.85840000  0.92420000  1.0 0.1096864333
H  H685  1  0.96510000  0.58030000  0.07310000  1.0 0.0906628163
H  H686  1  0.03490000  0.41970000  0.57310000  1.0 0.0800413374
H  H687  1  0.41970000  0.03490000  0.42690000  1.0 0.0906628163
H  H688  1  0.58030000  0.96510000  0.92690000  1.0 0.0906628163
H  H689  1  0.91760000  0.49700000  0.07930000  1.0 0.0906628163
H  H690  1  0.08240000  0.50300000  0.57930000  1.0 0.0906628163
H  H691  1  0.50300000  0.08240000  0.42070000  1.0 0.0906628163
H  H692  1  0.49700000  0.91760000  0.92070000  1.0 0.0906628163
H  H693  1  0.99520000  0.58420000  0.11920000  1.0 0.1197506921
H  H694  1  0.00480000  0.41580000  0.61920000  1.0 0.1197506921
H  H695  1  0.41580000  0.00480000  0.38080000  1.0 0.1197506921
H  H696  1  0.58420000  0.99520000  0.88080000  1.0 0.1197506921
H  H697  1  0.90730000  0.50750000  0.12650000  1.0 0.1197506921
H  H698  1  0.09270000  0.49250000  0.62650000  1.0 0.1197506921
H  H699  1  0.49250000  0.09270000  0.37350000  1.0 0.1197506921
H  H700  1  0.50750000  0.90730000  0.87350000  1.0 0.1197506921
H  H701  1  0.94210000  0.58410000  0.12110000  1.0 0.1197506921
H  H702  1  0.05790000  0.41590000  0.62110000  1.0 0.1197506921
H  H703  1  0.41590000  0.05790000  0.37890000  1.0 0.1197506921
H  H704  1  0.58410000  0.94210000  0.87890000  1.0 0.1197506921
H  H705  1  0.99160000  0.10340000  0.26810000  1.0 0.0503180098
H  H706  1  0.00840000  0.89660000  0.76810000  1.0 0.0503180098
H  H707  1  0.89660000  0.00840000  0.23190000  1.0 0.0503180098
H  H708  1  0.10340000  0.99160000  0.73190000  1.0 0.0503180098
H  H709  1  0.95160000  0.03780000  0.24660000  1.0 0.0800413374
H  H710  1  0.04840000  0.96220000  0.74660000  1.0 0.0800413374
H  H711  1  0.96220000  0.04840000  0.25340000  1.0 0.0800413374
H  H712  1  0.03780000  0.95160000  0.75340000  1.0 0.0800413374
H  H713  1  0.90930000  0.08090000  0.24140000  1.0 0.0593722979
H  H714  1  0.09070000  0.91910000  0.74140000  1.0 0.0593722979
H  H715  1  0.91910000  0.09070000  0.25860000  1.0 0.0593722979
H  H716  1  0.08090000  0.90930000  0.75860000  1.0 0.0593722979
H  H717  1  0.94240000  0.08720000  0.21370000  1.0 0.0503180098
H  H718  1  0.05760000  0.91280000  0.71370000  1.0 0.0503180098
H  H719  1  0.91280000  0.05760000  0.28630000  1.0 0.0503180098
H  H720  1  0.08720000  0.94240000  0.78630000  1.0 0.0503180098
H  H721  1  0.99370000  0.16130000  0.23180000  1.0 0.1096864333
H  H722  1  0.00630000  0.83870000  0.73180000  1.0 0.1096864333
H  H723  1  0.83870000  0.00630000  0.26820000  1.0 0.1096864333
H  H724  1  0.16130000  0.99370000  0.76820000  1.0 0.1096864333
C  C1  1  0.79260000  0.35740000  0.04410000  1.0 -0.4041770652
C  C2  1  0.20740000  0.64260000  0.54410000  1.0 -0.4041770652
C  C3  1  0.64260000  0.20740000  0.45590000  1.0 -0.4041770652
C  C4  1  0.35740000  0.79260000  0.95590000  1.0 -0.4041770652
C  C5  1  0.80180000  0.48420000  0.01770000  1.0 -0.2471642916
C  C6  1  0.19820000  0.51580000  0.51770000  1.0 -0.2471642916
C  C7  1  0.51580000  0.19820000  0.48230000  1.0 -0.2471642916
C  C8  1  0.48420000  0.80180000  0.98230000  1.0 -0.2471642916
C  C9  1  0.82720000  0.48480000  0.98950000  1.0 -0.1102435422
C  C10  1  0.17280000  0.51520000  0.48950000  1.0 -0.1102435422
C  C11  1  0.51520000  0.17280000  0.51050000  1.0 -0.1189442908
C  C12  1  0.48480000  0.82720000  0.01050000  1.0 -0.1189442908
C  C13  1  0.78490000  0.48310000  0.96960000  1.0 -0.3737440735
C  C14  1  0.21510000  0.51690000  0.46960000  1.0 -0.3737440735
C  C15  1  0.51690000  0.21510000  0.53040000  1.0 -0.3737440735
C  C16  1  0.48310000  0.78490000  0.03040000  1.0 -0.3737440735
C  C17  1  0.30791000  0.01349000  0.00658000  1.0 -0.0884895681
C  C18  1  0.69209000  0.98651000  0.50658000  1.0 -0.0884895681
C  C19  1  0.98651000  0.69209000  0.49342000  1.0 -0.0884895681
C  C20  1  0.01349000  0.30791000  0.99342000  1.0 -0.0884895681
C  C21  1  0.31705000  0.99595000  0.03031000  1.0 0.0906628163
C  C22  1  0.68295000  0.00405000  0.53031000  1.0 0.0906628163
C  C23  1  0.00405000  0.68295000  0.46969000  1.0 0.0906628163
C  C24  1  0.99595000  0.31705000  0.96969000  1.0 0.0906628163
C  C25  1  0.28863000  0.99497000  0.05240000  1.0 -0.1786826897
C  C26  1  0.71137000  0.00503000  0.55240000  1.0 -0.1786826897
C  C27  1  0.00503000  0.71137000  0.44760000  1.0 -0.1786826897
C  C28  1  0.99497000  0.28863000  0.94760000  1.0 -0.1786826897
C  C29  1  0.25738000  0.00842000  0.04728000  1.0 -0.1189442908
C  C30  1  0.74262000  0.99158000  0.54728000  1.0 -0.1189442908
C  C31  1  0.99158000  0.74262000  0.45272000  1.0 -0.1189442908
C  C32  1  0.00842000  0.25738000  0.95272000  1.0 -0.1189442908
C  C33  1  0.57172000  0.35288000  0.94027000  1.0 0.5998541593
C  C34  1  0.42828000  0.64712000  0.44027000  1.0 0.5998541593
C  C35  1  0.64712000  0.42828000  0.55973000  1.0 0.5998541593
C  C36  1  0.35288000  0.57172000  0.05973000  1.0 0.5998541593
C  C37  1  0.56295000  0.30885000  0.96221000  1.0 -0.0797536738
C  C38  1  0.43705000  0.69115000  0.46221000  1.0 -0.0797536738
C  C39  1  0.69115000  0.43705000  0.53779000  1.0 -0.0797536738
C  C40  1  0.30885000  0.56295000  0.03779000  1.0 -0.0797536738
C  C41  1  0.58231000  0.28209000  0.95991000  1.0 -0.1898142055
C  C42  1  0.41769000  0.71791000  0.45991000  1.0 -0.1898142055
C  C43  1  0.71791000  0.41769000  0.54009000  1.0 -0.1898142055
C  C44  1  0.28209000  0.58231000  0.04009000  1.0 -0.1898142055
C  C45  1  0.57588000  0.25312000  0.98630000  1.0 0.0410101366
C  C46  1  0.42412000  0.74688000  0.48630000  1.0 0.0410101366
C  C47  1  0.74688000  0.42412000  0.51370000  1.0 0.0410101366
C  C48  1  0.25312000  0.57588000  0.01370000  1.0 0.0410101366
C  C49  1  0.55509000  0.26611000  0.00597000  1.0 -0.1102435422
C  C50  1  0.44491000  0.73389000  0.50597000  1.0 -0.1102435422
C  C51  1  0.73389000  0.44491000  0.49403000  1.0 -0.1102435422
C  C52  1  0.26611000  0.55509000  0.99403000  1.0 -0.1102435422
C  C53  1  0.54311000  0.24769000  0.03563000  1.0 -0.1189442908
C  C54  1  0.45689000  0.75231000  0.53563000  1.0 -0.1189442908
C  C55  1  0.75231000  0.45689000  0.46437000  1.0 -0.1189442908
C  C56  1  0.24769000  0.54311000  0.96437000  1.0 -0.1189442908
C  C57  1  0.59140000  0.27200000  0.05500000  1.0 -0.0399747204
C  C58  1  0.40860000  0.72800000  0.55500000  1.0 -0.0399747204
C  C59  1  0.72800000  0.40860000  0.44500000  1.0 -0.0399747204
C  C60  1  0.27200000  0.59140000  0.94500000  1.0 -0.0399747204
C  C61  1  0.55322000  0.23338000  0.08023000  1.0 -0.1597232452
C  C62  1  0.44678000  0.76662000  0.58023000  1.0 -0.1597232452
C  C63  1  0.76662000  0.44678000  0.41977000  1.0 -0.1597232452
C  C64  1  0.23338000  0.55322000  0.91977000  1.0 -0.1597232452
C  C65  1  0.48413000  0.19147000  0.08189000  1.0 -0.0797536738
C  C66  1  0.51587000  0.80853000  0.58189000  1.0 -0.0797536738
C  C67  1  0.80853000  0.51587000  0.41811000  1.0 -0.0712791664
C  C68  1  0.19147000  0.48413000  0.91811000  1.0 -0.0712791664
C  C69  1  0.43192000  0.14788000  0.10623000  1.0 0.5998541593
C  C70  1  0.56808000  0.85212000  0.60623000  1.0 0.5998541593
C  C71  1  0.85212000  0.56808000  0.39377000  1.0 0.5998541593
C  C72  1  0.14788000  0.43192000  0.89377000  1.0 0.5998541593
C  C73  1  0.59264000  0.21896000  0.98840000  1.0 -0.261324297
C  C74  1  0.40736000  0.78104000  0.48840000  1.0 -0.261324297
C  C75  1  0.78104000  0.40736000  0.51160000  1.0 -0.261324297
C  C76  1  0.21896000  0.59264000  0.01160000  1.0 -0.261324297
C  C77  1  0.54130000  0.15030000  0.96970000  1.0 -0.14907445
C  C78  1  0.45870000  0.84970000  0.46970000  1.0 -0.14907445
C  C79  1  0.84970000  0.45870000  0.53030000  1.0 -0.14907445
C  C80  1  0.15030000  0.54130000  0.03030000  1.0 -0.14907445
C  C81  1  0.56798000  0.12442000  0.97340000  1.0 -0.1898142055
C  C82  1  0.43202000  0.87558000  0.47340000  1.0 -0.1898142055
C  C83  1  0.87558000  0.43202000  0.52660000  1.0 -0.1898142055
C  C84  1  0.12442000  0.56798000  0.02660000  1.0 -0.1898142055
C  C85  1  0.51305000  0.05215000  0.95677000  1.0 -0.1786826897
C  C86  1  0.48695000  0.94785000  0.45677000  1.0 -0.1786826897
C  C87  1  0.94785000  0.48695000  0.54323000  1.0 -0.1786826897
C  C88  1  0.05215000  0.51305000  0.04323000  1.0 -0.1786826897
C  C89  1  0.53410000  0.07690000  0.92740000  1.0 -0.1102435422
C  C90  1  0.46590000  0.92310000  0.42740000  1.0 -0.1102435422
C  C91  1  0.92310000  0.46590000  0.57260000  1.0 -0.1102435422
C  C92  1  0.07690000  0.53410000  0.07260000  1.0 -0.1102435422
C  C93  1  0.47350000  0.00530000  0.91050000  1.0 -0.3912868344
C  C94  1  0.52650000  0.99470000  0.41050000  1.0 -0.3912868344
C  C95  1  0.99470000  0.52650000  0.58950000  1.0 -0.3912868344
C  C96  1  0.00530000  0.47350000  0.08950000  1.0 -0.3912868344
C  C97  1  0.67280000  0.32360000  0.04800000  1.0 -0.1898142055
C  C98  1  0.32720000  0.67640000  0.54800000  1.0 -0.1898142055
C  C99  1  0.67640000  0.32720000  0.45200000  1.0 -0.1898142055
C  C100  1  0.32360000  0.67280000  0.95200000  1.0 -0.1898142055
C  C101  1  0.74260000  0.40740000  0.05810000  1.0 -0.0399747204
C  C102  1  0.25740000  0.59260000  0.55810000  1.0 -0.0399747204
C  C103  1  0.59260000  0.25740000  0.44190000  1.0 -0.0399747204
C  C104  1  0.40740000  0.74260000  0.94190000  1.0 -0.0399747204
C  C105  1  0.80260000  0.44220000  0.03600000  1.0 -0.0797536738
C  C106  1  0.19740000  0.55780000  0.53600000  1.0 -0.0797536738
C  C107  1  0.55780000  0.19740000  0.46400000  1.0 -0.0797536738
C  C108  1  0.44220000  0.80260000  0.96400000  1.0 -0.0797536738
C  C109  1  0.43700000  0.12880000  0.90780000  1.0 0.5882997781
C  C110  1  0.56300000  0.87120000  0.40780000  1.0 0.5882997781
C  C111  1  0.87120000  0.56300000  0.59220000  1.0 0.5882997781
C  C112  1  0.12880000  0.43700000  0.09220000  1.0 0.5882997781
C  C113  1  0.38392000  0.06968000  0.93351000  1.0 -0.0797536738
C  C114  1  0.61608000  0.93032000  0.43351000  1.0 -0.0797536738
C  C115  1  0.93032000  0.61608000  0.56649000  1.0 -0.0797536738
C  C116  1  0.06968000  0.38392000  0.06649000  1.0 -0.0797536738
C  C117  1  0.35010000  0.00470000  0.93669000  1.0 -0.14907445
C  C118  1  0.64990000  0.99530000  0.43669000  1.0 -0.14907445
C  C119  1  0.99530000  0.64990000  0.56331000  1.0 -0.14907445
C  C120  1  0.00470000  0.35010000  0.06331000  1.0 -0.14907445
C  C121  1  0.31370000  0.97230000  0.96285000  1.0 0.0593722979
C  C122  1  0.68630000  0.02770000  0.46285000  1.0 0.0593722979
C  C123  1  0.02770000  0.68630000  0.53715000  1.0 0.0593722979
C  C124  1  0.97230000  0.31370000  0.03715000  1.0 0.0593722979
C  C125  1  0.33200000  0.02420000  0.97852000  1.0 -0.0797536738
C  C126  1  0.66800000  0.97580000  0.47852000  1.0 -0.0797536738
C  C127  1  0.97580000  0.66800000  0.52148000  1.0 -0.0797536738
C  C128  1  0.02420000  0.33200000  0.02148000  1.0 -0.0797536738
C  C129  1  0.21473000  0.00347000  0.06448000  1.0 0.5998541593
C  C130  1  0.78527000  0.99653000  0.56448000  1.0 0.5998541593
C  C131  1  0.99653000  0.78527000  0.43552000  1.0 0.5998541593
C  C132  1  0.00347000  0.21473000  0.93552000  1.0 0.5998541593
C  C133  1  0.26810000  0.89690000  0.97110000  1.0 -0.261324297
C  C134  1  0.73190000  0.10310000  0.47110000  1.0 -0.261324297
C  C135  1  0.10310000  0.73190000  0.52890000  1.0 -0.261324297
C  C136  1  0.89690000  0.26810000  0.02890000  1.0 -0.261324297
C  C137  1  0.19460000  0.83400000  0.95490000  1.0 -0.1265774679
C  C138  1  0.80540000  0.16600000  0.45490000  1.0 -0.1265774679
C  C139  1  0.16600000  0.80540000  0.54510000  1.0 -0.1265774679
C  C140  1  0.83400000  0.19460000  0.04510000  1.0 -0.1265774679
C  C141  1  0.14780000  0.83540000  0.96460000  1.0 -0.1691833588
C  C142  1  0.85220000  0.16460000  0.46460000  1.0 -0.1691833588
C  C143  1  0.16460000  0.85220000  0.53540000  1.0 -0.1691833588
C  C144  1  0.83540000  0.14780000  0.03540000  1.0 -0.1691833588
C  C145  1  0.08310000  0.78630000  0.94400000  1.0 -0.1597232452
C  C146  1  0.91690000  0.21370000  0.44400000  1.0 -0.1597232452
C  C147  1  0.21370000  0.91690000  0.55600000  1.0 -0.1597232452
C  C148  1  0.78630000  0.08310000  0.05600000  1.0 -0.1597232452
C  C149  1  0.06400000  0.72300000  0.93710000  1.0 -0.1102435422
C  C150  1  0.93600000  0.27700000  0.43710000  1.0 -0.1102435422
C  C151  1  0.27700000  0.93600000  0.56290000  1.0 -0.1102435422
C  C152  1  0.72300000  0.06400000  0.06290000  1.0 -0.1102435422
C  C153  1  0.11460000  0.75340000  0.91260000  1.0 -0.3614854545
C  C154  1  0.88540000  0.24660000  0.41260000  1.0 -0.3614854545
C  C155  1  0.24660000  0.88540000  0.58740000  1.0 -0.3614854545
C  C156  1  0.75340000  0.11460000  0.08740000  1.0 -0.3614854545
C  C157  1  0.36565000  0.99215000  0.03305000  1.0 -0.2300117858
C  C158  1  0.63435000  0.00785000  0.53305000  1.0 -0.2300117858
C  C159  1  0.00785000  0.63435000  0.46695000  1.0 -0.2300117858
C  C160  1  0.99215000  0.36565000  0.96695000  1.0 -0.2300117858
C  C161  1  0.43202000  0.04898000  0.05286000  1.0 -0.1691833588
C  C162  1  0.56798000  0.95102000  0.55286000  1.0 -0.1691833588
C  C163  1  0.95102000  0.56798000  0.44714000  1.0 -0.1691833588
C  C164  1  0.04898000  0.43202000  0.94714000  1.0 -0.1691833588
C  C165  1  0.46411000  0.02889000  0.05460000  1.0 -0.1691833588
C  C166  1  0.53589000  0.97111000  0.55460000  1.0 -0.1786826897
C  C167  1  0.97111000  0.53589000  0.44540000  1.0 -0.1691833588
C  C168  1  0.02889000  0.46411000  0.94540000  1.0 -0.1786826897
C  C169  1  0.54540000  0.10160000  0.06350000  1.0 -0.1786826897
C  C170  1  0.45460000  0.89840000  0.56350000  1.0 -0.1786826897
C  C171  1  0.89840000  0.45460000  0.43650000  1.0 -0.1786826897
C  C172  1  0.10160000  0.54540000  0.93650000  1.0 -0.1786826897
C  C173  1  0.54870000  0.08770000  0.09260000  1.0 -0.0884895681
C  C174  1  0.45130000  0.91230000  0.59260000  1.0 -0.0884895681
C  C175  1  0.91230000  0.45130000  0.40740000  1.0 -0.0884895681
C  C176  1  0.08770000  0.54870000  0.90740000  1.0 -0.0884895681
C  C177  1  0.57290000  0.05910000  0.08980000  1.0 -0.3912868344
C  C178  1  0.42710000  0.94090000  0.58980000  1.0 -0.3912868344
C  C179  1  0.94090000  0.42710000  0.41020000  1.0 -0.3912868344
C  C180  1  0.05910000  0.57290000  0.91020000  1.0 -0.3912868344
C  C181  1  0.65260000  0.43560000  0.85080000  1.0 0.5816568851
C  C182  1  0.34740000  0.56440000  0.35080000  1.0 0.5816568851
C  C183  1  0.56440000  0.34740000  0.64920000  1.0 0.5816568851
C  C184  1  0.43560000  0.65260000  0.14920000  1.0 0.5816568851
C  C185  1  0.74119000  0.56781000  0.79084000  1.0 0.0906628163
C  C186  1  0.25881000  0.43219000  0.29084000  1.0 0.0906628163
C  C187  1  0.43219000  0.25881000  0.70916000  1.0 0.0906628163
C  C188  1  0.56781000  0.74119000  0.20916000  1.0 0.0906628163
C  C189  1  0.68065000  0.47435000  0.82203000  1.0 -0.0797536738
C  C190  1  0.31935000  0.52565000  0.32203000  1.0 -0.0797536738
C  C191  1  0.52565000  0.31935000  0.67797000  1.0 -0.0797536738
C  C192  1  0.47435000  0.68065000  0.17797000  1.0 -0.0797536738
C  C193  1  0.71360000  0.54080000  0.81740000  1.0 -0.1691833588
C  C194  1  0.28640000  0.45920000  0.31740000  1.0 -0.1691833588
C  C195  1  0.45920000  0.28640000  0.68260000  1.0 -0.1691833588
C  C196  1  0.54080000  0.71360000  0.18260000  1.0 -0.1691833588
C  C197  1  0.72095000  0.51765000  0.77405000  1.0 -0.0989913073
C  C198  1  0.27905000  0.48235000  0.27405000  1.0 -0.0989913073
C  C199  1  0.48235000  0.27905000  0.72595000  1.0 -0.0989913073
C  C200  1  0.51765000  0.72095000  0.22595000  1.0 -0.0989913073
C  C201  1  0.72593000  0.51187000  0.74547000  1.0 -0.0797536738
C  C202  1  0.27407000  0.48813000  0.24547000  1.0 -0.0797536738
C  C203  1  0.48813000  0.27407000  0.75453000  1.0 -0.0797536738
C  C204  1  0.51187000  0.72593000  0.25453000  1.0 -0.0797536738
C  C205  1  0.71390000  0.52790000  0.72303000  1.0 0.070812899
C  C206  1  0.28610000  0.47210000  0.22303000  1.0 0.070812899
C  C207  1  0.47210000  0.28610000  0.77697000  1.0 0.070812899
C  C208  1  0.52790000  0.71390000  0.27697000  1.0 0.070812899
C  C209  1  0.73284000  0.52416000  0.69729000  1.0 -0.1786826897
C  C210  1  0.26716000  0.47584000  0.19729000  1.0 -0.1786826897
C  C211  1  0.47584000  0.26716000  0.80271000  1.0 -0.1786826897
C  C212  1  0.52416000  0.73284000  0.30271000  1.0 -0.1786826897
C  C213  1  0.76389000  0.50851000  0.70213000  1.0 -0.1102435422
C  C214  1  0.23611000  0.49149000  0.20213000  1.0 -0.1102435422
C  C215  1  0.49149000  0.23611000  0.79787000  1.0 -0.1102435422
C  C216  1  0.50851000  0.76389000  0.29787000  1.0 -0.1102435422
C  C217  1  0.79831000  0.50609000  0.68145000  1.0 0.6256180375
C  C218  1  0.20169000  0.49391000  0.18145000  1.0 0.624333617
C  C219  1  0.49391000  0.20169000  0.81855000  1.0 0.624333617
C  C220  1  0.50609000  0.79831000  0.31855000  1.0 0.624333617
C  C221  1  0.79340000  0.64680000  0.78000000  1.0 -0.2300117858
C  C222  1  0.20660000  0.35320000  0.28000000  1.0 -0.2300117858
C  C223  1  0.35320000  0.20660000  0.72000000  1.0 -0.2300117858
C  C224  1  0.64680000  0.79340000  0.22000000  1.0 -0.2300117858
C  C225  1  0.86760000  0.71560000  0.79610000  1.0 -0.1597232452
C  C226  1  0.13240000  0.28440000  0.29610000  1.0 -0.1597232452
C  C227  1  0.28440000  0.13240000  0.70390000  1.0 -0.1597232452
C  C228  1  0.71560000  0.86760000  0.20390000  1.0 -0.1597232452
C  C229  1  0.92200000  0.72420000  0.78360000  1.0 -0.1691833588
C  C230  1  0.07800000  0.27580000  0.28360000  1.0 -0.1691833588
C  C231  1  0.27580000  0.07800000  0.71640000  1.0 -0.1691833588
C  C232  1  0.72420000  0.92200000  0.21640000  1.0 -0.1691833588
C  C233  1  0.96810000  0.74830000  0.80990000  1.0 -0.1691833588
C  C234  1  0.03190000  0.25170000  0.30990000  1.0 -0.1691833588
C  C235  1  0.25170000  0.03190000  0.69010000  1.0 -0.1691833588
C  C236  1  0.74830000  0.96810000  0.19010000  1.0 -0.1691833588
C  C237  1  0.94090000  0.67710000  0.81350000  1.0 -0.1102435422
C  C238  1  0.05910000  0.32290000  0.31350000  1.0 -0.1102435422
C  C239  1  0.32290000  0.05910000  0.68650000  1.0 -0.1102435422
C  C240  1  0.67710000  0.94090000  0.18650000  1.0 -0.1102435422
C  C241  1  0.94090000  0.67310000  0.84550000  1.0 -0.3614854545
C  C242  1  0.05910000  0.32690000  0.34550000  1.0 -0.3614854545
C  C243  1  0.32690000  0.05910000  0.65450000  1.0 -0.3614854545
C  C244  1  0.67310000  0.94090000  0.15450000  1.0 -0.3614854545
C  C245  1  0.67510000  0.54250000  0.72330000  1.0 -0.2300117858
C  C246  1  0.32490000  0.45750000  0.22330000  1.0 -0.2300117858
C  C247  1  0.45750000  0.32490000  0.77670000  1.0 -0.2300117858
C  C248  1  0.54250000  0.67510000  0.27670000  1.0 -0.2300117858
C  C249  1  0.59932000  0.48008000  0.70810000  1.0 -0.1597232452
C  C250  1  0.40068000  0.51992000  0.20810000  1.0 -0.1597232452
C  C251  1  0.51992000  0.40068000  0.79190000  1.0 -0.1597232452
C  C252  1  0.48008000  0.59932000  0.29190000  1.0 -0.1597232452
C  C253  1  0.57149000  0.50491000  0.70870000  1.0 -0.1898142055
C  C254  1  0.42851000  0.49509000  0.20870000  1.0 -0.1898142055
C  C255  1  0.49509000  0.42851000  0.79130000  1.0 -0.1898142055
C  C256  1  0.50491000  0.57149000  0.29130000  1.0 -0.1898142055
C  C257  1  0.48930000  0.43670000  0.70060000  1.0 -0.1786826897
C  C258  1  0.51070000  0.56330000  0.20060000  1.0 -0.1786826897
C  C259  1  0.56330000  0.51070000  0.79940000  1.0 -0.1786826897
C  C260  1  0.43670000  0.48930000  0.29940000  1.0 -0.1786826897
C  C261  1  0.48700000  0.42460000  0.67040000  1.0 -0.1102435422
C  C262  1  0.51300000  0.57540000  0.17040000  1.0 -0.1102435422
C  C263  1  0.57540000  0.51300000  0.82960000  1.0 -0.1102435422
C  C264  1  0.42460000  0.48700000  0.32960000  1.0 -0.1102435422
C  C265  1  0.40620000  0.37080000  0.66190000  1.0 -0.3912868344
C  C266  1  0.59380000  0.62920000  0.16190000  1.0 -0.3912868344
C  C267  1  0.62920000  0.59380000  0.83810000  1.0 -0.3912868344
C  C268  1  0.37080000  0.40620000  0.33810000  1.0 -0.3912868344
C  C269  1  0.63157000  0.26383000  0.88080000  1.0 0.5338491171
C  C270  1  0.36843000  0.73617000  0.38080000  1.0 0.5338491171
C  C271  1  0.73617000  0.36843000  0.61920000  1.0 0.5338491171
C  C272  1  0.26383000  0.63157000  0.11920000  1.0 0.5338491171
C  C273  1  0.67509000  0.26771000  0.89260000  1.0 -0.1691833588
C  C274  1  0.32491000  0.73229000  0.39260000  1.0 -0.1691833588
C  C275  1  0.73229000  0.32491000  0.60740000  1.0 -0.1691833588
C  C276  1  0.26771000  0.67509000  0.10740000  1.0 -0.1691833588
C  C277  1  0.72340000  0.31760000  0.91270000  1.0 -0.1691833588
C  C278  1  0.27660000  0.68240000  0.41270000  1.0 -0.1691833588
C  C279  1  0.68240000  0.27660000  0.58730000  1.0 -0.1691833588
C  C280  1  0.31760000  0.72340000  0.08730000  1.0 -0.1691833588
C  C281  1  0.78870000  0.33470000  0.92430000  1.0 0.0593722979
C  C282  1  0.21130000  0.66530000  0.42430000  1.0 0.0593722979
C  C283  1  0.66530000  0.21130000  0.57570000  1.0 0.0593722979
C  C284  1  0.33470000  0.78870000  0.07570000  1.0 0.0593722979
C  C285  1  0.76822000  0.28278000  0.90420000  1.0 -0.1189442908
C  C286  1  0.23178000  0.71722000  0.40420000  1.0 -0.1189442908
C  C287  1  0.71722000  0.23178000  0.59580000  1.0 -0.1189442908
C  C288  1  0.28278000  0.76822000  0.09580000  1.0 -0.1189442908
C  C289  1  0.80678000  0.27122000  0.90420000  1.0 -0.0712791664
C  C290  1  0.19322000  0.72878000  0.40420000  1.0 -0.0712791664
C  C291  1  0.72878000  0.19322000  0.59580000  1.0 -0.0712791664
C  C292  1  0.27122000  0.80678000  0.09580000  1.0 -0.0712791664
C  C293  1  0.79350000  0.22290000  0.91540000  1.0 0.070812899
C  C294  1  0.20650000  0.77710000  0.41540000  1.0 0.070812899
C  C295  1  0.77710000  0.20650000  0.58460000  1.0 0.070812899
C  C296  1  0.22290000  0.79350000  0.08460000  1.0 0.070812899
C  C297  1  0.83919000  0.22321000  0.90730000  1.0 -0.1786826897
C  C298  1  0.16081000  0.77679000  0.40730000  1.0 -0.1786826897
C  C299  1  0.77679000  0.16081000  0.59270000  1.0 -0.1786826897
C  C300  1  0.22321000  0.83919000  0.09270000  1.0 -0.1786826897
C  C301  1  0.89008000  0.27772000  0.88828000  1.0 -0.0989913073
C  C302  1  0.10992000  0.72228000  0.38828000  1.0 -0.0989913073
C  C303  1  0.72228000  0.10992000  0.61172000  1.0 -0.0989913073
C  C304  1  0.27772000  0.89008000  0.11172000  1.0 -0.0989913073
C  C305  1  0.95188000  0.30072000  0.87490000  1.0 0.5998541593
C  C306  1  0.04812000  0.69928000  0.37490000  1.0 0.5998541593
C  C307  1  0.69928000  0.04812000  0.62510000  1.0 0.5998541593
C  C308  1  0.30072000  0.95188000  0.12510000  1.0 0.5998541593
C  C309  1  0.83110000  0.37710000  0.95090000  1.0 -0.2471642916
C  C310  1  0.16890000  0.62290000  0.45090000  1.0 -0.2471642916
C  C311  1  0.62290000  0.16890000  0.54910000  1.0 -0.2471642916
C  C312  1  0.37710000  0.83110000  0.04910000  1.0 -0.2471642916
C  C313  1  0.79600000  0.31100000  0.96840000  1.0 -0.1597232452
C  C314  1  0.20400000  0.68900000  0.46840000  1.0 -0.1597232452
C  C315  1  0.68900000  0.20400000  0.53160000  1.0 -0.1597232452
C  C316  1  0.31100000  0.79600000  0.03160000  1.0 -0.1597232452
C  C317  1  0.83280000  0.35000000  0.99710000  1.0 -0.1898142055
C  C318  1  0.16720000  0.65000000  0.49710000  1.0 -0.1898142055
C  C319  1  0.65000000  0.16720000  0.50290000  1.0 -0.1898142055
C  C320  1  0.35000000  0.83280000  0.00290000  1.0 -0.1898142055
C  C321  1  0.77370000  0.27770000  0.01590000  1.0 -0.1991980181
C  C322  1  0.22630000  0.72230000  0.51590000  1.0 -0.1991980181
C  C323  1  0.72230000  0.22630000  0.48410000  1.0 -0.1991980181
C  C324  1  0.27770000  0.77370000  0.98410000  1.0 -0.1991980181
C  C325  1  0.80520000  0.31620000  0.04480000  1.0 -0.1597232452
C  C326  1  0.19480000  0.68380000  0.54480000  1.0 -0.1597232452
C  C327  1  0.68380000  0.19480000  0.45520000  1.0 -0.1597232452
C  C328  1  0.31620000  0.80520000  0.95520000  1.0 -0.1597232452
C  C329  1  0.72560000  0.15660000  0.93350000  1.0 -0.2300117858
C  C330  1  0.27440000  0.84340000  0.43350000  1.0 -0.2300117858
C  C331  1  0.84340000  0.27440000  0.56650000  1.0 -0.2300117858
C  C332  1  0.15660000  0.72560000  0.06650000  1.0 -0.2300117858
C  C333  1  0.72270000  0.14130000  0.96420000  1.0 -0.14907445
C  C334  1  0.27730000  0.85870000  0.46420000  1.0 -0.14907445
C  C335  1  0.85870000  0.27730000  0.53580000  1.0 -0.14907445
C  C336  1  0.14130000  0.72270000  0.03580000  1.0 -0.14907445
C  C337  1  0.63600000  0.06440000  0.96830000  1.0 -0.1898142055
C  C338  1  0.36400000  0.93560000  0.46830000  1.0 -0.1898142055
C  C339  1  0.93560000  0.36400000  0.53170000  1.0 -0.1898142055
C  C340  1  0.06440000  0.63600000  0.03170000  1.0 -0.1898142055
C  C341  1  0.63450000  0.03350000  0.99420000  1.0 -0.1786826897
C  C342  1  0.36550000  0.96650000  0.49420000  1.0 -0.1786826897
C  C343  1  0.96650000  0.36550000  0.50580000  1.0 -0.1786826897
C  C344  1  0.03350000  0.63450000  0.00580000  1.0 -0.1786826897
C  C345  1  0.63460000  0.06940000  0.01720000  1.0 -0.1102435422
C  C346  1  0.36540000  0.93060000  0.51720000  1.0 -0.1102435422
C  C347  1  0.93060000  0.36540000  0.48280000  1.0 -0.1102435422
C  C348  1  0.06940000  0.63460000  0.98280000  1.0 -0.1102435422
C  C349  1  0.55830000  0.99570000  0.03200000  1.0 -0.4151897461
C  C350  1  0.44170000  0.00430000  0.53200000  1.0 -0.4151897461
C  C351  1  0.00430000  0.44170000  0.46800000  1.0 -0.4087993056
C  C352  1  0.99570000  0.55830000  0.96800000  1.0 -0.4087993056
C  C353  1  0.23545000  0.10735000  0.12990000  1.0 0.5998541593
C  C354  1  0.76455000  0.89265000  0.62990000  1.0 0.5998541593
C  C355  1  0.89265000  0.76455000  0.37010000  1.0 0.5998541593
C  C356  1  0.10735000  0.23545000  0.87010000  1.0 0.5998541593
C  C357  1  0.25871000  0.17209000  0.14300000  1.0 -0.0884895681
C  C358  1  0.74129000  0.82791000  0.64300000  1.0 -0.0884895681
C  C359  1  0.82791000  0.74129000  0.35700000  1.0 -0.0884895681
C  C360  1  0.17209000  0.25871000  0.85700000  1.0 -0.0884895681
C  C361  1  0.30872000  0.21848000  0.16170000  1.0 -0.14907445
C  C362  1  0.69128000  0.78152000  0.66170000  1.0 -0.14907445
C  C363  1  0.78152000  0.69128000  0.33830000  1.0 -0.14907445
C  C364  1  0.21848000  0.30872000  0.83830000  1.0 -0.14907445
C  C365  1  0.31874000  0.27226000  0.16670000  1.0 0.0593722979
C  C366  1  0.68126000  0.72774000  0.66666667  1.0 0.0593722979
C  C367  1  0.72774000  0.68126000  0.33333333  1.0 0.0593722979
C  C368  1  0.27226000  0.31874000  0.83330000  1.0 0.0593722979
C  C369  1  0.27061000  0.26099000  0.15161000  1.0 -0.0797536738
C  C370  1  0.72939000  0.73901000  0.65161000  1.0 -0.0797536738
C  C371  1  0.73901000  0.72939000  0.34839000  1.0 -0.0797536738
C  C372  1  0.26099000  0.27061000  0.84839000  1.0 -0.0797536738
C  C373  1  0.26667000  0.30533000  0.14960000  1.0 -0.0503502286
C  C374  1  0.73333000  0.69467000  0.64960000  1.0 -0.0503502286
C  C375  1  0.69467000  0.73333000  0.35040000  1.0 -0.0503502286
C  C376  1  0.30533000  0.26667000  0.85040000  1.0 -0.0503502286
C  C377  1  0.20620000  0.28460000  0.15840000  1.0 0.0503180098
C  C378  1  0.79380000  0.71540000  0.65840000  1.0 0.0503180098
C  C379  1  0.71540000  0.79380000  0.34160000  1.0 0.0503180098
C  C380  1  0.28460000  0.20620000  0.84160000  1.0 0.0503180098
C  C381  1  0.28301000  0.39719000  0.13755000  1.0 -0.1991980181
C  C382  1  0.71699000  0.60281000  0.63755000  1.0 -0.1991980181
C  C383  1  0.60281000  0.71699000  0.36245000  1.0 -0.1991980181
C  C384  1  0.39719000  0.28301000  0.86245000  1.0 -0.1991980181
C  C385  1  0.21656000  0.33604000  0.15190000  1.0 -0.1597232452
C  C386  1  0.78344000  0.66396000  0.65190000  1.0 -0.1597232452
C  C387  1  0.66396000  0.78344000  0.34810000  1.0 -0.1597232452
C  C388  1  0.33604000  0.21656000  0.84810000  1.0 -0.1597232452
C  C389  1  0.30821000  0.45639000  0.12530000  1.0 0.5630543202
C  C390  1  0.69179000  0.54361000  0.62530000  1.0 0.5630543202
C  C391  1  0.54361000  0.69179000  0.37470000  1.0 0.5630543202
C  C392  1  0.45639000  0.30821000  0.87470000  1.0 0.5630543202
C  C393  1  0.36590000  0.32810000  0.18880000  1.0 -0.2409454403
C  C394  1  0.63410000  0.67190000  0.68880000  1.0 -0.2409454403
C  C395  1  0.67190000  0.63410000  0.31120000  1.0 -0.2409454403
C  C396  1  0.32810000  0.36590000  0.81120000  1.0 -0.2409454403
C  C397  1  0.35370000  0.31130000  0.21947000  1.0 -0.1691833588
C  C398  1  0.64630000  0.68870000  0.71947000  1.0 -0.1691833588
C  C399  1  0.68870000  0.64630000  0.28053000  1.0 -0.1691833588
C  C400  1  0.31130000  0.35370000  0.78053000  1.0 -0.1691833588
C  C401  1  0.27620000  0.26960000  0.22529000  1.0 -0.1898142055
C  C402  1  0.72380000  0.73040000  0.72529000  1.0 -0.1898142055
C  C403  1  0.73040000  0.72380000  0.27471000  1.0 -0.1898142055
C  C404  1  0.26960000  0.27620000  0.77471000  1.0 -0.1898142055
C  C405  1  0.26910000  0.26230000  0.25652000  1.0 -0.1898142055
C  C406  1  0.73090000  0.73770000  0.75652000  1.0 -0.1898142055
C  C407  1  0.73770000  0.73090000  0.24348000  1.0 -0.1898142055
C  C408  1  0.26230000  0.26910000  0.74348000  1.0 -0.1898142055
C  C409  1  0.19130000  0.21850000  0.26260000  1.0 -0.140302383
C  C410  1  0.80870000  0.78150000  0.76260000  1.0 -0.140302383
C  C411  1  0.78150000  0.80870000  0.23740000  1.0 -0.140302383
C  C412  1  0.21850000  0.19130000  0.73740000  1.0 -0.140302383
C  C413  1  0.18180000  0.20680000  0.29340000  1.0 -0.4087993056
C  C414  1  0.81820000  0.79320000  0.79340000  1.0 -0.4087993056
C  C415  1  0.79320000  0.81820000  0.20660000  1.0 -0.4087993056
C  C416  1  0.20680000  0.18180000  0.70660000  1.0 -0.4087993056
C  C417  1  0.14020000  0.21380000  0.16880000  1.0 -0.2135095515
C  C418  1  0.85980000  0.78620000  0.66880000  1.0 -0.2135095515
C  C419  1  0.78620000  0.85980000  0.33120000  1.0 -0.2135095515
C  C420  1  0.21380000  0.14020000  0.83120000  1.0 -0.2135095515
C  C421  1  0.12370000  0.22550000  0.19540000  1.0 -0.1597232452
C  C422  1  0.87630000  0.77450000  0.69540000  1.0 -0.1597232452
C  C423  1  0.77450000  0.87630000  0.30460000  1.0 -0.1597232452
C  C424  1  0.22550000  0.12370000  0.80460000  1.0 -0.1597232452
C  C425  1  0.04790000  0.14310000  0.20460000  1.0 -0.140302383
C  C426  1  0.95210000  0.85690000  0.70460000  1.0 -0.140302383
C  C427  1  0.85690000  0.95210000  0.29540000  1.0 -0.140302383
C  C428  1  0.14310000  0.04790000  0.79540000  1.0 -0.140302383
C  C429  1  0.06300000  0.14500000  0.23500000  1.0 -0.2409454403
C  C430  1  0.93700000  0.85500000  0.73500000  1.0 -0.2409454403
C  C431  1  0.85500000  0.93700000  0.26500000  1.0 -0.2409454403
C  C432  1  0.14500000  0.06300000  0.76500000  1.0 -0.2409454403
C  C433  1  0.31514000  0.04506000  0.19161000  1.0 0.5816568851
C  C434  1  0.68486000  0.95494000  0.69161000  1.0 0.5816568851
C  C435  1  0.95494000  0.68486000  0.30839000  1.0 0.5816568851
C  C436  1  0.04506000  0.31514000  0.80839000  1.0 0.5816568851
C  C437  1  0.27584000  0.04076000  0.21125000  1.0 -0.0989913073
C  C438  1  0.72416000  0.95924000  0.71125000  1.0 -0.0989913073
C  C439  1  0.95924000  0.72416000  0.28875000  1.0 -0.0989913073
C  C440  1  0.04076000  0.27584000  0.78875000  1.0 -0.0989913073
C  C441  1  0.25436000  0.06484000  0.20525000  1.0 -0.1597232452
C  C442  1  0.74564000  0.93516000  0.70525000  1.0 -0.1597232452
C  C443  1  0.93516000  0.74564000  0.29475000  1.0 -0.1597232452
C  C444  1  0.06484000  0.25436000  0.79475000  1.0 -0.1597232452
C  C445  1  0.21770000  0.02550000  0.25198000  1.0 -0.0989913073
C  C446  1  0.78230000  0.97450000  0.75198000  1.0 -0.0989913073
C  C447  1  0.97450000  0.78230000  0.24802000  1.0 -0.0989913073
C  C448  1  0.02550000  0.21770000  0.74802000  1.0 -0.0989913073
C  C449  1  0.19738000  0.01642000  0.28077000  1.0 -0.0797536738
C  C450  1  0.80262000  0.98358000  0.78077000  1.0 -0.0797536738
C  C451  1  0.98358000  0.80262000  0.21923000  1.0 -0.0712791664
C  C452  1  0.01642000  0.19738000  0.71923000  1.0 -0.0797536738
C  C453  1  0.13449000  0.95031000  0.32506000  1.0 -0.0712791664
C  C454  1  0.86551000  0.04969000  0.82506000  1.0 -0.0712791664
C  C455  1  0.04969000  0.86551000  0.17494000  1.0 -0.0712791664
C  C456  1  0.95031000  0.13449000  0.67494000  1.0 -0.0712791664
C  C457  1  0.08600000  0.89620000  0.34950000  1.0 0.5882997781
C  C458  1  0.91400000  0.10380000  0.84950000  1.0 0.5882997781
C  C459  1  0.10380000  0.91400000  0.15050000  1.0 0.5882997781
C  C460  1  0.89620000  0.08600000  0.65050000  1.0 0.5882997781
C  C461  1  0.17445000  0.06475000  0.22938000  1.0 -0.2409454403
C  C462  1  0.82555000  0.93525000  0.72938000  1.0 -0.2409454403
C  C463  1  0.93525000  0.82555000  0.27062000  1.0 -0.2409454403
C  C464  1  0.06475000  0.17445000  0.77062000  1.0 -0.2409454403
C  C465  1  0.10775000  0.01105000  0.20986000  1.0 -0.14907445
C  C466  1  0.89225000  0.98895000  0.70986000  1.0 -0.1597232452
C  C467  1  0.98895000  0.89225000  0.29014000  1.0 -0.14907445
C  C468  1  0.01105000  0.10775000  0.79014000  1.0 -0.14907445
C  C469  1  0.00096000  0.96784000  0.19434000  1.0 -0.1786826897
C  C470  1  0.99904000  0.03216000  0.69434000  1.0 -0.1786826897
C  C471  1  0.03216000  0.99904000  0.30566000  1.0 -0.1786826897
C  C472  1  0.96784000  0.00096000  0.80566000  1.0 -0.1786826897
C  C473  1  0.94230000  0.91530000  0.14980000  1.0 -0.3834171251
C  C474  1  0.05770000  0.08470000  0.64980000  1.0 -0.3834171251
C  C475  1  0.08470000  0.05770000  0.35020000  1.0 -0.3834171251
C  C476  1  0.91530000  0.94230000  0.85020000  1.0 -0.3834171251
C  C477  1  0.33850000  0.19890000  0.31250000  1.0 -0.1597232452
C  C478  1  0.66150000  0.80110000  0.81250000  1.0 -0.1597232452
C  C479  1  0.80110000  0.66150000  0.18750000  1.0 -0.1597232452
C  C480  1  0.19890000  0.33850000  0.68750000  1.0 -0.1597232452
C  C481  1  0.38290000  0.27730000  0.30760000  1.0 -0.1691833588
C  C482  1  0.61710000  0.72270000  0.80760000  1.0 -0.1691833588
C  C483  1  0.72270000  0.61710000  0.19240000  1.0 -0.1691833588
C  C484  1  0.27730000  0.38290000  0.69240000  1.0 -0.1691833588
C  C485  1  0.21799000  0.05521000  0.23026000  1.0 0.0800413374
C  C486  1  0.78201000  0.94479000  0.73026000  1.0 0.0800413374
C  C487  1  0.94479000  0.78201000  0.26974000  1.0 0.0800413374
C  C488  1  0.05521000  0.21799000  0.76974000  1.0 0.0800413374
C  C489  1  0.21377000  0.06043000  0.29775000  1.0 0.0800413374
C  C490  1  0.78623000  0.93957000  0.79775000  1.0 0.0800413374
C  C491  1  0.93957000  0.78623000  0.20225000  1.0 0.0800413374
C  C492  1  0.06043000  0.21377000  0.70225000  1.0 0.0800413374
C  C493  1  0.17165000  0.01895000  0.32497000  1.0 -0.1691833588
C  C494  1  0.82835000  0.98105000  0.82497000  1.0 -0.1691833588
C  C495  1  0.98105000  0.82835000  0.17503000  1.0 -0.1691833588
C  C496  1  0.01895000  0.17165000  0.67503000  1.0 -0.1691833588
C  C497  1  0.07556000  0.03064000  0.20937000  1.0 -0.1991980181
C  C498  1  0.92444000  0.96936000  0.70937000  1.0 -0.1991980181
C  C499  1  0.96936000  0.92444000  0.29063000  1.0 -0.1991980181
C  C500  1  0.03064000  0.07556000  0.79063000  1.0 -0.1991980181
C  C501  1  0.01770000  0.97830000  0.16440000  1.0 -0.1189442908
C  C502  1  0.98230000  0.02170000  0.66440000  1.0 -0.1189442908
C  C503  1  0.02170000  0.98230000  0.33560000  1.0 -0.1189442908
C  C504  1  0.97830000  0.01770000  0.83560000  1.0 -0.1189442908
C  C505  1  0.27000000  0.14580000  0.29370000  1.0 -0.2300117858
C  C506  1  0.73000000  0.85420000  0.79370000  1.0 -0.2300117858
C  C507  1  0.85420000  0.73000000  0.20630000  1.0 -0.2300117858
C  C508  1  0.14580000  0.27000000  0.70630000  1.0 -0.2300117858
C  C509  1  0.45370000  0.31950000  0.29250000  1.0 -0.1597232452
C  C510  1  0.54630000  0.68050000  0.79250000  1.0 -0.1597232452
C  C511  1  0.68050000  0.54630000  0.20750000  1.0 -0.1597232452
C  C512  1  0.31950000  0.45370000  0.70750000  1.0 -0.1597232452
C  C513  1  0.50080000  0.39960000  0.28890000  1.0 -0.0989913073
C  C514  1  0.49920000  0.60040000  0.78890000  1.0 -0.0989913073
C  C515  1  0.60040000  0.49920000  0.21110000  1.0 -0.0989913073
C  C516  1  0.39960000  0.50080000  0.71110000  1.0 -0.0989913073
C  C517  1  0.47290000  0.39710000  0.26220000  1.0 -0.4087993056
C  C518  1  0.52710000  0.60290000  0.76220000  1.0 -0.4087993056
C  C519  1  0.60290000  0.52710000  0.23780000  1.0 -0.4087993056
C  C520  1  0.39710000  0.47290000  0.73780000  1.0 -0.4087993056
C  C521  1  0.72050000  0.37590000  0.07340000  1.0 -0.0884895681
C  C522  1  0.27950000  0.62410000  0.57340000  1.0 -0.0884895681
C  C523  1  0.62410000  0.27950000  0.42660000  1.0 -0.0884895681
C  C524  1  0.37590000  0.72050000  0.92660000  1.0 -0.0884895681
C  C525  1  0.80250000  0.43310000  0.06310000  1.0 -0.0989913073
C  C526  1  0.19750000  0.56690000  0.56310000  1.0 -0.0989913073
C  C527  1  0.56690000  0.19750000  0.43690000  1.0 -0.0989913073
C  C528  1  0.43310000  0.80250000  0.93690000  1.0 -0.0989913073
C  C529  1  0.84990000  0.50030000  0.08320000  1.0 -0.215411085
C  C530  1  0.15010000  0.49970000  0.58320000  1.0 -0.215411085
C  C531  1  0.49970000  0.15010000  0.41680000  1.0 -0.215411085
C  C532  1  0.50030000  0.84990000  0.91680000  1.0 -0.215411085
C  C533  1  0.92510000  0.53450000  0.08470000  1.0 -0.140302383
C  C534  1  0.07490000  0.46550000  0.58470000  1.0 -0.140302383
C  C535  1  0.46550000  0.07490000  0.41530000  1.0 -0.140302383
C  C536  1  0.53450000  0.92510000  0.91530000  1.0 -0.140302383
C  C537  1  0.94390000  0.55410000  0.11580000  1.0 -0.3614854545
C  C538  1  0.05610000  0.44590000  0.61580000  1.0 -0.3614854545
C  C539  1  0.44590000  0.05610000  0.38420000  1.0 -0.3614854545
C  C540  1  0.55410000  0.94390000  0.88420000  1.0 -0.3614854545
C  C541  1  0.98620000  0.09180000  0.24850000  1.0 -0.1102435422
C  C542  1  0.01380000  0.90820000  0.74850000  1.0 -0.1102435422
C  C543  1  0.90820000  0.01380000  0.25150000  1.0 -0.1102435422
C  C544  1  0.09180000  0.98620000  0.75150000  1.0 -0.1102435422
C  C545  1  0.95520000  0.10680000  0.23240000  1.0 -0.3293566957
C  C546  1  0.04480000  0.89320000  0.73240000  1.0 -0.3293566957
C  C547  1  0.89320000  0.04480000  0.26760000  1.0 -0.3293566957
C  C548  1  0.10680000  0.95520000  0.76760000  1.0 -0.3293566957
S  S1  1  0.53995000  0.30683000  0.99415000  1.0 0.13013162
S  S2  1  0.46005000  0.69317000  0.49415000  1.0 0.13013162
S  S3  1  0.69317000  0.46005000  0.50585000  1.0 0.13013162
S  S4  1  0.30683000  0.53995000  0.00585000  1.0 0.13013162
S  S5  1  0.45595000  0.18903000  0.05074000  1.0 0.1408670019
S  S6  1  0.54405000  0.81097000  0.55074000  1.0 0.1408670019
S  S7  1  0.81097000  0.54405000  0.44926000  1.0 0.1408670019
S  S8  1  0.18903000  0.45595000  0.94926000  1.0 0.1408670019
S  S9  1  0.38707000  0.10653000  0.96111000  1.0 0.1490156307
S  S10  1  0.61293000  0.89347000  0.46111000  1.0 0.1490156307
S  S11  1  0.89347000  0.61293000  0.53889000  1.0 0.1490156307
S  S12  1  0.10653000  0.38707000  0.03889000  1.0 0.1490156307
S  S13  1  0.26550000  0.02834000  0.01308000  1.0 0.1408670019
S  S14  1  0.73450000  0.97166000  0.51308000  1.0 0.1408670019
S  S15  1  0.97166000  0.73450000  0.48692000  1.0 0.1408670019
S  S16  1  0.02834000  0.26550000  0.98692000  1.0 0.1408670019
S  S17  1  0.67098000  0.43726000  0.79364000  1.0 0.1408670019
S  S18  1  0.32902000  0.56274000  0.29364000  1.0 0.1408670019
S  S19  1  0.56274000  0.32902000  0.70636000  1.0 0.1408670019
S  S20  1  0.43726000  0.67098000  0.20636000  1.0 0.1408670019
S  S21  1  0.76965000  0.49885000  0.73552000  1.0 0.1408670019
S  S22  1  0.23035000  0.50115000  0.23552000  1.0 0.1408670019
S  S23  1  0.50115000  0.23035000  0.76448000  1.0 0.1408670019
S  S24  1  0.49885000  0.76965000  0.26448000  1.0 0.13013162
S  S25  1  0.70019000  0.23801000  0.88137000  1.0 0.2018079926
S  S26  1  0.29981000  0.76199000  0.38137000  1.0 0.2018079926
S  S27  1  0.76199000  0.29981000  0.61863000  1.0 0.2058242231
S  S28  1  0.23801000  0.70019000  0.11863000  1.0 0.2018079926
S  S29  1  0.88192000  0.32658000  0.88048000  1.0 0.1197506921
S  S30  1  0.11808000  0.67342000  0.38048000  1.0 0.1197506921
S  S31  1  0.67342000  0.11808000  0.61952000  1.0 0.1197506921
S  S32  1  0.32658000  0.88192000  0.11952000  1.0 0.1197506921
S  S33  1  0.21401000  0.18143000  0.13075000  1.0 0.1197506921
S  S34  1  0.78599000  0.81857000  0.63075000  1.0 0.1197506921
S  S35  1  0.81857000  0.78599000  0.36925000  1.0 0.1197506921
S  S36  1  0.18143000  0.21401000  0.86925000  1.0 0.1197506921
S  S37  1  0.33314000  0.38740000  0.13284000  1.0 0.13013162
S  S38  1  0.66686000  0.61260000  0.63284000  1.0 0.13013162
S  S39  1  0.61260000  0.66686000  0.36716000  1.0 0.13013162
S  S40  1  0.38740000  0.33314000  0.86716000  1.0 0.13013162
S  S41  1  0.26178000  0.01082000  0.24318000  1.0 0.1408670019
S  S42  1  0.73822000  0.98918000  0.74318000  1.0 0.13013162
S  S43  1  0.98918000  0.73822000  0.25682000  1.0 0.13013162
S  S44  1  0.01082000  0.26178000  0.75682000  1.0 0.1408670019
S  S45  1  0.13914000  0.92688000  0.29530000  1.0 0.1096864333
S  S46  1  0.86086000  0.07312000  0.79530000  1.0 0.1096864333
S  S47  1  0.07312000  0.86086000  0.20470000  1.0 0.1096864333
S  S48  1  0.92688000  0.13914000  0.70470000  1.0 0.1096864333
O  O1  1  0.55635000  0.37785000  0.94558000  1.0 -0.4699402482
O  O2  1  0.44365000  0.62215000  0.44558000  1.0 -0.4699402482
O  O3  1  0.62215000  0.44365000  0.55442000  1.0 -0.4699402482
O  O4  1  0.37785000  0.55635000  0.05442000  1.0 -0.4699402482
O  O5  1  0.59013000  0.35487000  0.91570000  1.0 -0.6058377654
O  O6  1  0.40987000  0.64513000  0.41570000  1.0 -0.5995583723
O  O7  1  0.64513000  0.40987000  0.58430000  1.0 -0.5995583723
O  O8  1  0.35487000  0.59013000  0.08430000  1.0 -0.5995583723
O  O9  1  0.36901000  0.11419000  0.10469000  1.0 -0.4939778358
O  O10  1  0.63099000  0.88581000  0.60469000  1.0 -0.4939778358
O  O11  1  0.88581000  0.63099000  0.39531000  1.0 -0.4939778358
O  O12  1  0.11419000  0.36901000  0.89531000  1.0 -0.4939778358
O  O13  1  0.46320000  0.15480000  0.12772000  1.0 -0.5883567289
O  O14  1  0.53680000  0.84520000  0.62772000  1.0 -0.5883567289
O  O15  1  0.84520000  0.53680000  0.37228000  1.0 -0.5883567289
O  O16  1  0.15480000  0.46320000  0.87228000  1.0 -0.5883567289
O  O17  1  0.45586000  0.18134000  0.90577000  1.0 -0.3912868344
O  O18  1  0.54414000  0.81866000  0.40577000  1.0 -0.3912868344
O  O19  1  0.81866000  0.54414000  0.59423000  1.0 -0.3912868344
O  O20  1  0.18134000  0.45586000  0.09423000  1.0 -0.3912868344
O  O21  1  0.44049000  0.09671000  0.88946000  1.0 -0.6488034309
O  O22  1  0.55951000  0.90329000  0.38946000  1.0 -0.6488034309
O  O23  1  0.90329000  0.55951000  0.61054000  1.0 -0.6488034309
O  O24  1  0.09671000  0.44049000  0.11054000  1.0 -0.6488034309
O  O25  1  0.18545000  0.01475000  0.05536000  1.0 -0.5251313478
O  O26  1  0.81455000  0.98525000  0.55536000  1.0 -0.5202708036
O  O27  1  0.98525000  0.81455000  0.44464000  1.0 -0.5202708036
O  O28  1  0.01475000  0.18545000  0.94464000  1.0 -0.5202708036
O  O29  1  0.20415000  0.98445000  0.09032000  1.0 -0.5995583723
O  O30  1  0.79585000  0.01555000  0.59032000  1.0 -0.5995583723
O  O31  1  0.01555000  0.79585000  0.40968000  1.0 -0.5995583723
O  O32  1  0.98445000  0.20415000  0.90968000  1.0 -0.5995583723
O  O33  1  0.66359000  0.47341000  0.86974000  1.0 -0.5883567289
O  O34  1  0.33641000  0.52659000  0.36974000  1.0 -0.5883567289
O  O35  1  0.52659000  0.33641000  0.63026000  1.0 -0.5883567289
O  O36  1  0.47341000  0.66359000  0.13026000  1.0 -0.5883567289
O  O37  1  0.61932000  0.37388000  0.85193000  1.0 -0.4939778358
O  O38  1  0.38068000  0.62612000  0.35193000  1.0 -0.4976280234
O  O39  1  0.62612000  0.38068000  0.64807000  1.0 -0.4976280234
O  O40  1  0.37388000  0.61932000  0.14807000  1.0 -0.4976280234
O  O41  1  0.79813000  0.51567000  0.65551000  1.0 -0.5995583723
O  O42  1  0.20187000  0.48433000  0.15551000  1.0 -0.5995583723
O  O43  1  0.48433000  0.20187000  0.84449000  1.0 -0.5995583723
O  O44  1  0.51567000  0.79813000  0.34449000  1.0 -0.5995583723
O  O45  1  0.83583000  0.50257000  0.68989000  1.0 -0.5740198151
O  O46  1  0.16417000  0.49743000  0.18989000  1.0 -0.5740198151
O  O47  1  0.49743000  0.16417000  0.81011000  1.0 -0.5740198151
O  O48  1  0.50257000  0.83583000  0.31011000  1.0 -0.5740198151
O  O49  1  0.61787000  0.29093000  0.88874000  1.0 -0.5202708036
O  O50  1  0.38213000  0.70907000  0.38874000  1.0 -0.5202708036
O  O51  1  0.70907000  0.38213000  0.61126000  1.0 -0.5202708036
O  O52  1  0.29093000  0.61787000  0.11126000  1.0 -0.5202708036
O  O53  1  0.59044000  0.20856000  0.86303000  1.0 -0.5427290827
O  O54  1  0.40956000  0.79144000  0.36303000  1.0 -0.5427290827
O  O55  1  0.79144000  0.40956000  0.63697000  1.0 -0.5427290827
O  O56  1  0.20856000  0.59044000  0.13697000  1.0 -0.5427290827
O  O57  1  0.99702000  0.35958000  0.85795000  1.0 -0.6212350578
O  O58  1  0.00298000  0.64042000  0.35795000  1.0 -0.6212350578
O  O59  1  0.64042000  0.00298000  0.64205000  1.0 -0.6212350578
O  O60  1  0.35958000  0.99702000  0.14205000  1.0 -0.6212350578
O  O61  1  0.95157000  0.25943000  0.87901000  1.0 -0.5202708036
O  O62  1  0.04843000  0.74057000  0.37901000  1.0 -0.5202708036
O  O63  1  0.74057000  0.04843000  0.62099000  1.0 -0.5202708036
O  O64  1  0.25943000  0.95157000  0.12099000  1.0 -0.5251313478
O  O65  1  0.26891000  0.10089000  0.13644000  1.0 -0.4976280234
O  O66  1  0.73109000  0.89911000  0.63644000  1.0 -0.4976280234
O  O67  1  0.89911000  0.73109000  0.36356000  1.0 -0.4976280234
O  O68  1  0.10089000  0.26891000  0.86356000  1.0 -0.4976280234
O  O69  1  0.18037000  0.06483000  0.11152000  1.0 -0.6212350578
O  O70  1  0.81963000  0.93517000  0.61152000  1.0 -0.6212350578
O  O71  1  0.93517000  0.81963000  0.38848000  1.0 -0.6212350578
O  O72  1  0.06483000  0.18037000  0.88848000  1.0 -0.6212350578
O  O73  1  0.37421000  0.50879000  0.11430000  1.0 -0.5740198151
O  O74  1  0.62579000  0.49121000  0.61430000  1.0 -0.5740198151
O  O75  1  0.49121000  0.62579000  0.38570000  1.0 -0.5740198151
O  O76  1  0.50879000  0.37421000  0.88570000  1.0 -0.5740198151
O  O77  1  0.27325000  0.46275000  0.12783000  1.0 -0.5137533724
O  O78  1  0.72675000  0.53725000  0.62783000  1.0 -0.5137533724
O  O79  1  0.53725000  0.72675000  0.37217000  1.0 -0.5137533724
O  O80  1  0.46275000  0.27325000  0.87217000  1.0 -0.5137533724
O  O81  1  0.34925000  0.03595000  0.19900000  1.0 -0.5492205948
O  O82  1  0.65075000  0.96405000  0.69900000  1.0 -0.5492205948
O  O83  1  0.96405000  0.65075000  0.30100000  1.0 -0.5492205948
O  O84  1  0.03595000  0.34925000  0.80100000  1.0 -0.5492205948
O  O85  1  0.33080000  0.07160000  0.16620000  1.0 -0.6251452
O  O86  1  0.66920000  0.92840000  0.66620000  1.0 -0.6212350578
O  O87  1  0.92840000  0.66920000  0.33380000  1.0 -0.6212350578
O  O88  1  0.07160000  0.33080000  0.83380000  1.0 -0.6251452
O  O89  1  0.05984000  0.83796000  0.34832000  1.0 -0.4699402482
O  O90  1  0.94016000  0.16204000  0.84832000  1.0 -0.4699402482
O  O91  1  0.16204000  0.94016000  0.15168000  1.0 -0.4699402482
O  O92  1  0.83796000  0.05984000  0.65168000  1.0 -0.4699402482
O  O93  1  0.09609000  0.93131000  0.37035000  1.0 -0.5995583723
O  O94  1  0.90391000  0.06869000  0.87035000  1.0 -0.5995583723
O  O95  1  0.06869000  0.90391000  0.12965000  1.0 -0.5995583723
O  O96  1  0.93131000  0.09609000  0.62965000  1.0 -0.5995583723
