# DDEC6 charges by PACMAN v1.1 (https://github.com/mtap-research/PACMAN-charge/)
data_MIRDAV_FSR_pacman
_symmetry_space_group_name_H-M   'P 1'
_cell_length_a   33.56780000
_cell_length_b   30.66340000
_cell_length_c   26.63780000
_cell_angle_alpha   71.32720000
_cell_angle_beta   59.92770000
_cell_angle_gamma   48.74510000
_symmetry_Int_Tables_number   1
_chemical_formula_structural   Cu3H19C37(NO6)3
_chemical_formula_sum   'Cu24 H152 C296 N24 O144'
_cell_volume   17835.85844089
_cell_formula_units_Z   8
loop_
 _symmetry_equiv_pos_site_id
 _symmetry_equiv_pos_as_xyz
  1  'x, y, z'
loop_
 _atom_site_type_symbol
 _atom_site_label
 _atom_site_symmetry_multiplicity
 _atom_site_fract_x
 _atom_site_fract_y
 _atom_site_fract_z
 _atom_site_occupancy
 _atom_site_charge
Cu  Cu1  1  0.31951000  0.97795000  0.02205000  1.0 0.9381869446
Cu  Cu2  1  0.23987000  0.98237000  0.01763000  1.0 0.9381869446
Cu  Cu3  1  0.68049000  0.02205000  0.97795000  1.0 0.9381869446
Cu  Cu4  1  0.76013000  0.01763000  0.98237000  1.0 0.9381869446
Cu  Cu5  1  0.97795000  0.31951000  0.68049000  1.0 0.9381869446
Cu  Cu6  1  0.98237000  0.23987000  0.76013000  1.0 0.9381869446
Cu  Cu7  1  0.02205000  0.68049000  0.31951000  1.0 0.9381869446
Cu  Cu8  1  0.01763000  0.76013000  0.23987000  1.0 0.9381869446
Cu  Cu9  1  0.89907000  0.37713000  0.10093000  1.0 0.8685726994
Cu  Cu10  1  0.92344000  0.28256000  0.07656000  1.0 0.9478975469
Cu  Cu11  1  0.62287000  0.10093000  0.37713000  1.0 0.8685726994
Cu  Cu12  1  0.71744000  0.07656000  0.28256000  1.0 0.9478975469
Cu  Cu13  1  0.37713000  0.89907000  0.62287000  1.0 0.8685726994
Cu  Cu14  1  0.28256000  0.92344000  0.71744000  1.0 0.9478975469
Cu  Cu15  1  0.10093000  0.62287000  0.89907000  1.0 0.8685726994
Cu  Cu16  1  0.07656000  0.71744000  0.92344000  1.0 0.9478975469
Cu  Cu17  1  0.59442000  0.40558000  0.04058000  1.0 0.8685726994
Cu  Cu18  1  0.69611000  0.30389000  0.03001000  1.0 0.9478975469
Cu  Cu19  1  0.95942000  0.04058000  0.40558000  1.0 0.8685726994
Cu  Cu20  1  0.96999000  0.03001000  0.30389000  1.0 0.9381869446
Cu  Cu21  1  0.40558000  0.59442000  0.95942000  1.0 0.8685726994
Cu  Cu22  1  0.30389000  0.69611000  0.96999000  1.0 0.9381869446
Cu  Cu23  1  0.04058000  0.95942000  0.59442000  1.0 0.8685726994
Cu  Cu24  1  0.03001000  0.96999000  0.69611000  1.0 0.9381869446
H  H1  1  0.92110000  0.19790000  0.23590000  1.0 0.1513038618
H  H2  1  0.85910000  0.35150000  0.28410000  1.0 0.1513038618
H  H3  1  0.89110000  0.21950000  0.39750000  1.0 0.1409247076
H  H4  1  0.22840000  0.31040000  0.01920000  1.0 0.1286077693
H  H5  1  0.13160000  0.42480000  0.02120000  1.0 0.1409247076
H  H6  1  0.27240000  0.33620000  0.02240000  1.0 0.1176654741
H  H7  1  0.28510000  0.46470000  0.99310000  1.0 0.1130075069
H  H8  1  0.19630000  0.52890000  0.98710000  1.0 0.1176654741
H  H9  1  0.14420000  0.49800000  0.00000000  1.0 0.1286077693
H  H10  1  0.35520000  0.31080000  0.02280000  1.0 0.1286077693
H  H11  1  0.36890000  0.39630000  0.00350000  1.0 0.1286077693
H  H12  1  0.21300000  0.24680000  0.02980000  1.0 0.2865445079
H  H13  1  0.23420000  0.16240000  0.01740000  1.0 0.1513038618
H  H14  1  0.10420000  0.16400000  0.03920000  1.0 0.1513038618
H  H15  1  0.07130000  0.31430000  0.05270000  1.0 0.1513038618
H  H16  1  0.45380000  0.36020000  0.99640000  1.0 0.2865445079
H  H17  1  0.52500000  0.35300000  0.99820000  1.0 0.1409247076
H  H18  1  0.67660000  0.19620000  0.98800000  1.0 0.1513038618
H  H19  1  0.54900000  0.20800000  0.99040000  1.0 0.1513038618
H  H20  1  0.64510000  0.23590000  0.19790000  1.0 0.1513038618
H  H21  1  0.50530000  0.28410000  0.35150000  1.0 0.1513038618
H  H22  1  0.49190000  0.39750000  0.21950000  1.0 0.1409247076
H  H23  1  0.44200000  0.01920000  0.31040000  1.0 0.1286077693
H  H24  1  0.42240000  0.02120000  0.42480000  1.0 0.1409247076
H  H25  1  0.36900000  0.02240000  0.33620000  1.0 0.1176654741
H  H26  1  0.25710000  0.99310000  0.46470000  1.0 0.1130075069
H  H27  1  0.28770000  0.98710000  0.52890000  1.0 0.1176654741
H  H28  1  0.35780000  0.00000000  0.49800000  1.0 0.1286077693
H  H29  1  0.31120000  0.02280000  0.31080000  1.0 0.1286077693
H  H30  1  0.23130000  0.00350000  0.39630000  1.0 0.1286077693
H  H31  1  0.51040000  0.02980000  0.24680000  1.0 0.2865445079
H  H32  1  0.58600000  0.01740000  0.16240000  1.0 0.1513038618
H  H33  1  0.69260000  0.03920000  0.16400000  1.0 0.1513038618
H  H34  1  0.56170000  0.05270000  0.31430000  1.0 0.1513038618
H  H35  1  0.18960000  0.99640000  0.36020000  1.0 0.2865445079
H  H36  1  0.12380000  0.99820000  0.35300000  1.0 0.1409247076
H  H37  1  0.13920000  0.98800000  0.19620000  1.0 0.1513038618
H  H38  1  0.25260000  0.99040000  0.20800000  1.0 0.1513038618
H  H39  1  0.19790000  0.92110000  0.64510000  1.0 0.1513038618
H  H40  1  0.35150000  0.85910000  0.50530000  1.0 0.1513038618
H  H41  1  0.21950000  0.89110000  0.49190000  1.0 0.1409247076
H  H42  1  0.31040000  0.22840000  0.44200000  1.0 0.1286077693
H  H43  1  0.42480000  0.13160000  0.42240000  1.0 0.1409247076
H  H44  1  0.33620000  0.27240000  0.36900000  1.0 0.1176654741
H  H45  1  0.46470000  0.28510000  0.25710000  1.0 0.1130075069
H  H46  1  0.52890000  0.19630000  0.28770000  1.0 0.1176654741
H  H47  1  0.49800000  0.14420000  0.35780000  1.0 0.1286077693
H  H48  1  0.31080000  0.35520000  0.31120000  1.0 0.1286077693
H  H49  1  0.39630000  0.36890000  0.23130000  1.0 0.1286077693
H  H50  1  0.24680000  0.21300000  0.51040000  1.0 0.2865445079
H  H51  1  0.16240000  0.23420000  0.58600000  1.0 0.1513038618
H  H52  1  0.16400000  0.10420000  0.69260000  1.0 0.1513038618
H  H53  1  0.31430000  0.07130000  0.56170000  1.0 0.1513038618
H  H54  1  0.36020000  0.45380000  0.18960000  1.0 0.2865445079
H  H55  1  0.35300000  0.52500000  0.12380000  1.0 0.1409247076
H  H56  1  0.19620000  0.67660000  0.13920000  1.0 0.1513038618
H  H57  1  0.20800000  0.54900000  0.25260000  1.0 0.1513038618
H  H58  1  0.23590000  0.64510000  0.92110000  1.0 0.1513038618
H  H59  1  0.28410000  0.50530000  0.85910000  1.0 0.1513038618
H  H60  1  0.39750000  0.49190000  0.89110000  1.0 0.1409247076
H  H61  1  0.01920000  0.44200000  0.22840000  1.0 0.1286077693
H  H62  1  0.02120000  0.42240000  0.13160000  1.0 0.1409247076
H  H63  1  0.02240000  0.36900000  0.27240000  1.0 0.1176654741
H  H64  1  0.99310000  0.25710000  0.28510000  1.0 0.1130075069
H  H65  1  0.98710000  0.28770000  0.19630000  1.0 0.1176654741
H  H66  1  0.00000000  0.35780000  0.14420000  1.0 0.1286077693
H  H67  1  0.02280000  0.31120000  0.35520000  1.0 0.1286077693
H  H68  1  0.00350000  0.23130000  0.36890000  1.0 0.1286077693
H  H69  1  0.02980000  0.51040000  0.21300000  1.0 0.2865445079
H  H70  1  0.01740000  0.58600000  0.23420000  1.0 0.1513038618
H  H71  1  0.03920000  0.69260000  0.10420000  1.0 0.1513038618
H  H72  1  0.05270000  0.56170000  0.07130000  1.0 0.1513038618
H  H73  1  0.99640000  0.18960000  0.45380000  1.0 0.2865445079
H  H74  1  0.99820000  0.12380000  0.52500000  1.0 0.1409247076
H  H75  1  0.98800000  0.13920000  0.67660000  1.0 0.1513038618
H  H76  1  0.99040000  0.25260000  0.54900000  1.0 0.1513038618
H  H77  1  0.07890000  0.80210000  0.76410000  1.0 0.1513038618
H  H78  1  0.14090000  0.64850000  0.71590000  1.0 0.1513038618
H  H79  1  0.10890000  0.78050000  0.60250000  1.0 0.1409247076
H  H80  1  0.77160000  0.68960000  0.98080000  1.0 0.1286077693
H  H81  1  0.86840000  0.57520000  0.97880000  1.0 0.1409247076
H  H82  1  0.72760000  0.66380000  0.97760000  1.0 0.1176654741
H  H83  1  0.71490000  0.53530000  0.00690000  1.0 0.1130075069
H  H84  1  0.80370000  0.47110000  0.01290000  1.0 0.1176654741
H  H85  1  0.85580000  0.50200000  0.00000000  1.0 0.1286077693
H  H86  1  0.64480000  0.68920000  0.97720000  1.0 0.1286077693
H  H87  1  0.63110000  0.60370000  0.99650000  1.0 0.1286077693
H  H88  1  0.78700000  0.75320000  0.97020000  1.0 0.2865445079
H  H89  1  0.76580000  0.83760000  0.98260000  1.0 0.1513038618
H  H90  1  0.89580000  0.83600000  0.96080000  1.0 0.1513038618
H  H91  1  0.92870000  0.68570000  0.94730000  1.0 0.1513038618
H  H92  1  0.54620000  0.63980000  0.00360000  1.0 0.2865445079
H  H93  1  0.47500000  0.64700000  0.00180000  1.0 0.1409247076
H  H94  1  0.32340000  0.80380000  0.01200000  1.0 0.1513038618
H  H95  1  0.45100000  0.79200000  0.00960000  1.0 0.1513038618
H  H96  1  0.35490000  0.76410000  0.80210000  1.0 0.1513038618
H  H97  1  0.49470000  0.71590000  0.64850000  1.0 0.1513038618
H  H98  1  0.50810000  0.60250000  0.78050000  1.0 0.1409247076
H  H99  1  0.55800000  0.98080000  0.68960000  1.0 0.1286077693
H  H100  1  0.57760000  0.97880000  0.57520000  1.0 0.1409247076
H  H101  1  0.63100000  0.97760000  0.66380000  1.0 0.1176654741
H  H102  1  0.74290000  0.00690000  0.53530000  1.0 0.1130075069
H  H103  1  0.71230000  0.01290000  0.47110000  1.0 0.1176654741
H  H104  1  0.64220000  0.00000000  0.50200000  1.0 0.1286077693
H  H105  1  0.68880000  0.97720000  0.68920000  1.0 0.1286077693
H  H106  1  0.76870000  0.99650000  0.60370000  1.0 0.1286077693
H  H107  1  0.48960000  0.97020000  0.75320000  1.0 0.2865445079
H  H108  1  0.41400000  0.98260000  0.83760000  1.0 0.1513038618
H  H109  1  0.30740000  0.96080000  0.83600000  1.0 0.1513038618
H  H110  1  0.43830000  0.94730000  0.68570000  1.0 0.1513038618
H  H111  1  0.81040000  0.00360000  0.63980000  1.0 0.2865445079
H  H112  1  0.87620000  0.00180000  0.64700000  1.0 0.1409247076
H  H113  1  0.86080000  0.01200000  0.80380000  1.0 0.1513038618
H  H114  1  0.74740000  0.00960000  0.79200000  1.0 0.1513038618
H  H115  1  0.80210000  0.07890000  0.35490000  1.0 0.1513038618
H  H116  1  0.64850000  0.14090000  0.49470000  1.0 0.1513038618
H  H117  1  0.78050000  0.10890000  0.50810000  1.0 0.1409247076
H  H118  1  0.68960000  0.77160000  0.55800000  1.0 0.1286077693
H  H119  1  0.57520000  0.86840000  0.57760000  1.0 0.1409247076
H  H120  1  0.66380000  0.72760000  0.63100000  1.0 0.1176654741
H  H121  1  0.53530000  0.71490000  0.74290000  1.0 0.1130075069
H  H122  1  0.47110000  0.80370000  0.71230000  1.0 0.1176654741
H  H123  1  0.50200000  0.85580000  0.64220000  1.0 0.1286077693
H  H124  1  0.68920000  0.64480000  0.68880000  1.0 0.1286077693
H  H125  1  0.60370000  0.63110000  0.76870000  1.0 0.1286077693
H  H126  1  0.75320000  0.78700000  0.48960000  1.0 0.2865445079
H  H127  1  0.83760000  0.76580000  0.41400000  1.0 0.1513038618
H  H128  1  0.83600000  0.89580000  0.30740000  1.0 0.1513038618
H  H129  1  0.68570000  0.92870000  0.43830000  1.0 0.1513038618
H  H130  1  0.63980000  0.54620000  0.81040000  1.0 0.2865445079
H  H131  1  0.64700000  0.47500000  0.87620000  1.0 0.1409247076
H  H132  1  0.80380000  0.32340000  0.86080000  1.0 0.1513038618
H  H133  1  0.79200000  0.45100000  0.74740000  1.0 0.1513038618
H  H134  1  0.76410000  0.35490000  0.07890000  1.0 0.1513038618
H  H135  1  0.71590000  0.49470000  0.14090000  1.0 0.1513038618
H  H136  1  0.60250000  0.50810000  0.10890000  1.0 0.1409247076
H  H137  1  0.98080000  0.55800000  0.77160000  1.0 0.1286077693
H  H138  1  0.97880000  0.57760000  0.86840000  1.0 0.1409247076
H  H139  1  0.97760000  0.63100000  0.72760000  1.0 0.1176654741
H  H140  1  0.00690000  0.74290000  0.71490000  1.0 0.1130075069
H  H141  1  0.01290000  0.71230000  0.80370000  1.0 0.1176654741
H  H142  1  0.00000000  0.64220000  0.85580000  1.0 0.1286077693
H  H143  1  0.97720000  0.68880000  0.64480000  1.0 0.1286077693
H  H144  1  0.99650000  0.76870000  0.63110000  1.0 0.1286077693
H  H145  1  0.97020000  0.48960000  0.78700000  1.0 0.2865445079
H  H146  1  0.98260000  0.41400000  0.76580000  1.0 0.1513038618
H  H147  1  0.96080000  0.30740000  0.89580000  1.0 0.1513038618
H  H148  1  0.94730000  0.43830000  0.92870000  1.0 0.1513038618
H  H149  1  0.00360000  0.81040000  0.54620000  1.0 0.2865445079
H  H150  1  0.00180000  0.87620000  0.47500000  1.0 0.1409247076
H  H151  1  0.01200000  0.86080000  0.32340000  1.0 0.1513038618
H  H152  1  0.00960000  0.74740000  0.45100000  1.0 0.1513038618
C  C1  1  0.87130000  0.29930000  0.43910000  1.0 0.4871016764
C  C2  1  0.90780000  0.19978000  0.32022000  1.0 0.0065311995
C  C3  1  0.90800000  0.22178000  0.26442000  1.0 -0.0986445038
C  C4  1  0.88883000  0.27823000  0.25233000  1.0 -0.0302677979
C  C5  1  0.87119000  0.31285000  0.29341000  1.0 -0.1499779527
C  C6  1  0.87118000  0.29080000  0.34880000  1.0 0.2235120074
C  C7  1  0.89004000  0.23484000  0.36076000  1.0 -0.1909609432
C  C8  1  0.92951000  0.13813000  0.33387000  1.0 0.5705638403
C  C9  1  0.89350000  0.29954000  0.19330000  1.0 0.5705638403
C  C10  1  0.15356000  0.32658000  0.02542000  1.0 0.511697399
C  C11  1  0.19036000  0.34090000  0.02070000  1.0 -0.2568897233
C  C12  1  0.17012000  0.39570000  0.01870000  1.0 -0.0690987058
C  C13  1  0.20258000  0.41554000  0.01266000  1.0 0.1176654741
C  C14  1  0.25643000  0.37597000  0.01643000  1.0 -0.2008859454
C  C15  1  0.28690000  0.39364000  0.01156000  1.0 0.1176654741
C  C16  1  0.26417000  0.45163000  0.99897000  1.0 -0.1499779527
C  C17  1  0.21189000  0.48923000  0.99497000  1.0 -0.0690987058
C  C18  1  0.18083000  0.47101000  0.00239000  1.0 -0.1287978994
C  C19  1  0.34334000  0.34930000  0.01530000  1.0 -0.0690987058
C  C20  1  0.38007000  0.35793000  0.00887000  1.0 -0.2715947374
C  C21  1  0.43664000  0.30946000  0.01014000  1.0 0.511697399
C  C22  1  0.15520000  0.24404000  0.03396000  1.0 0.2311509201
C  C23  1  0.19488000  0.18288000  0.02512000  1.0 -0.1909609432
C  C24  1  0.17544000  0.15354000  0.02802000  1.0 0.0027634365
C  C25  1  0.11728000  0.18372000  0.03906000  1.0 -0.1145246318
C  C26  1  0.07902000  0.24340000  0.04998000  1.0 -0.0175364357
C  C27  1  0.09788000  0.27354000  0.04646000  1.0 -0.1751046902
C  C28  1  0.01677000  0.27567000  0.06513000  1.0 0.5705638403
C  C29  1  0.21522000  0.08896000  0.02318000  1.0 0.5705638403
C  C30  1  0.52830000  0.28566000  0.99622000  1.0 0.2040339604
C  C31  1  0.54888000  0.31184000  0.99660000  1.0 -0.1715182123
C  C32  1  0.60332000  0.27990000  0.99456000  1.0 -0.0302677979
C  C33  1  0.63870000  0.21944000  0.98938000  1.0 -0.0800544196
C  C34  1  0.61849000  0.19389000  0.98615000  1.0 -0.0175364357
C  C35  1  0.56321000  0.22623000  0.99087000  1.0 -0.1287978994
C  C36  1  0.62225000  0.30709000  0.00353000  1.0 0.5799427429
C  C37  1  0.65669000  0.12979000  0.98217000  1.0 0.5799427429
C  C38  1  0.39030000  0.43910000  0.29930000  1.0 0.511697399
C  C39  1  0.57220000  0.32022000  0.19978000  1.0 0.0065311995
C  C40  1  0.60580000  0.26442000  0.22178000  1.0 -0.0986445038
C  C41  1  0.58061000  0.25233000  0.27823000  1.0 -0.0302677979
C  C42  1  0.52255000  0.29341000  0.31285000  1.0 -0.1499779527
C  C43  1  0.48922000  0.34880000  0.29080000  1.0 0.2235120074
C  C44  1  0.51436000  0.36076000  0.23484000  1.0 -0.1909609432
C  C45  1  0.59849000  0.33387000  0.13813000  1.0 0.5705638403
C  C46  1  0.61366000  0.19330000  0.29954000  1.0 0.5705638403
C  C47  1  0.49444000  0.02542000  0.32658000  1.0 0.511697399
C  C48  1  0.44804000  0.02070000  0.34090000  1.0 -0.2568897233
C  C49  1  0.41548000  0.01870000  0.39570000  1.0 -0.0690987058
C  C50  1  0.36922000  0.01266000  0.41554000  1.0 0.1176654741
C  C51  1  0.35117000  0.01643000  0.37597000  1.0 -0.2008859454
C  C52  1  0.30790000  0.01156000  0.39364000  1.0 0.1176654741
C  C53  1  0.28523000  0.99897000  0.45163000  1.0 -0.1499779527
C  C54  1  0.30391000  0.99497000  0.48923000  1.0 -0.0690987058
C  C55  1  0.34577000  0.00239000  0.47101000  1.0 -0.1287978994
C  C56  1  0.29206000  0.01530000  0.34930000  1.0 -0.0690987058
C  C57  1  0.25313000  0.00887000  0.35793000  1.0 -0.2715947374
C  C58  1  0.24376000  0.01014000  0.30946000  1.0 0.511697399
C  C59  1  0.56680000  0.03396000  0.24404000  1.0 0.2311509201
C  C60  1  0.59712000  0.02512000  0.18288000  1.0 -0.1909609432
C  C61  1  0.64300000  0.02802000  0.15354000  1.0 0.0027634365
C  C62  1  0.65994000  0.03906000  0.18372000  1.0 -0.1145246318
C  C63  1  0.62760000  0.04998000  0.24340000  1.0 -0.0175364357
C  C64  1  0.58212000  0.04646000  0.27354000  1.0 -0.1715182123
C  C65  1  0.64243000  0.06513000  0.27567000  1.0 0.5705638403
C  C66  1  0.67264000  0.02318000  0.08896000  1.0 0.5705638403
C  C67  1  0.18982000  0.99622000  0.28566000  1.0 0.2040339604
C  C68  1  0.14268000  0.99660000  0.31184000  1.0 -0.1715182123
C  C69  1  0.12222000  0.99456000  0.27990000  1.0 -0.0302677979
C  C70  1  0.15248000  0.98938000  0.21944000  1.0 -0.0800544196
C  C71  1  0.20147000  0.98615000  0.19389000  1.0 -0.0175364357
C  C72  1  0.21969000  0.99087000  0.22623000  1.0 -0.1287978994
C  C73  1  0.06713000  0.00353000  0.30709000  1.0 0.5799427429
C  C74  1  0.23135000  0.98217000  0.12979000  1.0 0.5799427429
C  C75  1  0.29930000  0.87130000  0.39030000  1.0 0.4871016764
C  C76  1  0.19978000  0.90780000  0.57220000  1.0 0.0065311995
C  C77  1  0.22178000  0.90800000  0.60580000  1.0 -0.0986445038
C  C78  1  0.27823000  0.88883000  0.58061000  1.0 -0.0302677979
C  C79  1  0.31285000  0.87119000  0.52255000  1.0 -0.1499779527
C  C80  1  0.29080000  0.87118000  0.48922000  1.0 0.2235120074
C  C81  1  0.23484000  0.89004000  0.51436000  1.0 -0.1909609432
C  C82  1  0.13813000  0.92951000  0.59849000  1.0 0.5705638403
C  C83  1  0.29954000  0.89350000  0.61366000  1.0 0.5705638403
C  C84  1  0.32658000  0.15356000  0.49444000  1.0 0.511697399
C  C85  1  0.34090000  0.19036000  0.44804000  1.0 -0.2568897233
C  C86  1  0.39570000  0.17012000  0.41548000  1.0 -0.0690987058
C  C87  1  0.41554000  0.20258000  0.36922000  1.0 0.1176654741
C  C88  1  0.37597000  0.25643000  0.35117000  1.0 -0.2008859454
C  C89  1  0.39364000  0.28690000  0.30790000  1.0 0.1176654741
C  C90  1  0.45163000  0.26417000  0.28523000  1.0 -0.1499779527
C  C91  1  0.48923000  0.21189000  0.30391000  1.0 -0.0690987058
C  C92  1  0.47101000  0.18083000  0.34577000  1.0 -0.1287978994
C  C93  1  0.34930000  0.34334000  0.29206000  1.0 -0.0690987058
C  C94  1  0.35793000  0.38007000  0.25313000  1.0 -0.2715947374
C  C95  1  0.30946000  0.43664000  0.24376000  1.0 0.511697399
C  C96  1  0.24404000  0.15520000  0.56680000  1.0 0.2311509201
C  C97  1  0.18288000  0.19488000  0.59712000  1.0 -0.1909609432
C  C98  1  0.15354000  0.17544000  0.64300000  1.0 0.0027634365
C  C99  1  0.18372000  0.11728000  0.65994000  1.0 -0.1145246318
C  C100  1  0.24340000  0.07902000  0.62760000  1.0 -0.0175364357
C  C101  1  0.27354000  0.09788000  0.58212000  1.0 -0.1751046902
C  C102  1  0.27567000  0.01677000  0.64243000  1.0 0.5705638403
C  C103  1  0.08896000  0.21522000  0.67264000  1.0 0.5705638403
C  C104  1  0.28566000  0.52830000  0.18982000  1.0 0.2040339604
C  C105  1  0.31184000  0.54888000  0.14268000  1.0 -0.1715182123
C  C106  1  0.27990000  0.60332000  0.12222000  1.0 -0.0302677979
C  C107  1  0.21944000  0.63870000  0.15248000  1.0 -0.0800544196
C  C108  1  0.19389000  0.61849000  0.20147000  1.0 -0.0175364357
C  C109  1  0.22623000  0.56321000  0.21969000  1.0 -0.1287978994
C  C110  1  0.30709000  0.62225000  0.06713000  1.0 0.5799427429
C  C111  1  0.12979000  0.65669000  0.23135000  1.0 0.5799427429
C  C112  1  0.43910000  0.39030000  0.87130000  1.0 0.4964107746
C  C113  1  0.32022000  0.57220000  0.90780000  1.0 0.0065311995
C  C114  1  0.26442000  0.60580000  0.90800000  1.0 -0.0986445038
C  C115  1  0.25233000  0.58061000  0.88883000  1.0 -0.0302677979
C  C116  1  0.29341000  0.52255000  0.87119000  1.0 -0.1499779527
C  C117  1  0.34880000  0.48922000  0.87118000  1.0 0.2235120074
C  C118  1  0.36076000  0.51436000  0.89004000  1.0 -0.1909609432
C  C119  1  0.33387000  0.59849000  0.92951000  1.0 0.5705638403
C  C120  1  0.19330000  0.61366000  0.89350000  1.0 0.5705638403
C  C121  1  0.02542000  0.49444000  0.15356000  1.0 0.511697399
C  C122  1  0.02070000  0.44804000  0.19036000  1.0 -0.2568897233
C  C123  1  0.01870000  0.41548000  0.17012000  1.0 -0.0690987058
C  C124  1  0.01266000  0.36922000  0.20258000  1.0 0.1176654741
C  C125  1  0.01643000  0.35117000  0.25643000  1.0 -0.2008859454
C  C126  1  0.01156000  0.30790000  0.28690000  1.0 0.1176654741
C  C127  1  0.99897000  0.28523000  0.26417000  1.0 -0.1499779527
C  C128  1  0.99497000  0.30391000  0.21189000  1.0 -0.0690987058
C  C129  1  0.00239000  0.34577000  0.18083000  1.0 -0.1287978994
C  C130  1  0.01530000  0.29206000  0.34334000  1.0 -0.0690987058
C  C131  1  0.00887000  0.25313000  0.38007000  1.0 -0.2715947374
C  C132  1  0.01014000  0.24376000  0.43664000  1.0 0.511697399
C  C133  1  0.03396000  0.56680000  0.15520000  1.0 0.2311509201
C  C134  1  0.02512000  0.59712000  0.19488000  1.0 -0.1909609432
C  C135  1  0.02802000  0.64300000  0.17544000  1.0 0.0027634365
C  C136  1  0.03906000  0.65994000  0.11728000  1.0 -0.1145246318
C  C137  1  0.04998000  0.62760000  0.07902000  1.0 -0.0175364357
C  C138  1  0.04646000  0.58212000  0.09788000  1.0 -0.1715182123
C  C139  1  0.06513000  0.64243000  0.01677000  1.0 0.5705638403
C  C140  1  0.02318000  0.67264000  0.21522000  1.0 0.5705638403
C  C141  1  0.99622000  0.18982000  0.52830000  1.0 0.2040339604
C  C142  1  0.99660000  0.14268000  0.54888000  1.0 -0.1715182123
C  C143  1  0.99456000  0.12222000  0.60332000  1.0 -0.0302677979
C  C144  1  0.98938000  0.15248000  0.63870000  1.0 -0.0800544196
C  C145  1  0.98615000  0.20147000  0.61849000  1.0 -0.0175364357
C  C146  1  0.99087000  0.21969000  0.56321000  1.0 -0.1287978994
C  C147  1  0.00353000  0.06713000  0.62225000  1.0 0.5799427429
C  C148  1  0.98217000  0.23135000  0.65669000  1.0 0.5799427429
C  C149  1  0.12870000  0.70070000  0.56090000  1.0 0.4796694889
C  C150  1  0.09220000  0.80022000  0.67978000  1.0 0.0065311995
C  C151  1  0.09200000  0.77822000  0.73558000  1.0 -0.0986445038
C  C152  1  0.11117000  0.72177000  0.74767000  1.0 -0.0302677979
C  C153  1  0.12881000  0.68715000  0.70659000  1.0 -0.1499779527
C  C154  1  0.12882000  0.70920000  0.65120000  1.0 0.2235120074
C  C155  1  0.10996000  0.76516000  0.63924000  1.0 -0.1909609432
C  C156  1  0.07049000  0.86187000  0.66613000  1.0 0.5705638403
C  C157  1  0.10650000  0.70046000  0.80670000  1.0 0.5705638403
C  C158  1  0.84644000  0.67342000  0.97458000  1.0 0.511697399
C  C159  1  0.80964000  0.65910000  0.97930000  1.0 -0.2568897233
C  C160  1  0.82988000  0.60430000  0.98130000  1.0 -0.0690987058
C  C161  1  0.79742000  0.58446000  0.98734000  1.0 0.1176654741
C  C162  1  0.74357000  0.62403000  0.98357000  1.0 -0.2008859454
C  C163  1  0.71310000  0.60636000  0.98844000  1.0 0.1176654741
C  C164  1  0.73583000  0.54837000  0.00103000  1.0 -0.1499779527
C  C165  1  0.78811000  0.51077000  0.00503000  1.0 -0.0690987058
C  C166  1  0.81917000  0.52899000  0.99761000  1.0 -0.1287978994
C  C167  1  0.65666000  0.65070000  0.98470000  1.0 -0.0690987058
C  C168  1  0.61993000  0.64207000  0.99113000  1.0 -0.2715947374
C  C169  1  0.56336000  0.69054000  0.98986000  1.0 0.511697399
C  C170  1  0.84480000  0.75596000  0.96604000  1.0 0.2311509201
C  C171  1  0.80512000  0.81712000  0.97488000  1.0 -0.1909609432
C  C172  1  0.82456000  0.84646000  0.97198000  1.0 0.0027634365
C  C173  1  0.88272000  0.81628000  0.96094000  1.0 -0.115904761
C  C174  1  0.92098000  0.75660000  0.95002000  1.0 -0.0175364357
C  C175  1  0.90212000  0.72646000  0.95354000  1.0 -0.1751046902
C  C176  1  0.98323000  0.72433000  0.93487000  1.0 0.5705638403
C  C177  1  0.78478000  0.91104000  0.97682000  1.0 0.5705638403
C  C178  1  0.47170000  0.71434000  0.00378000  1.0 0.2055519843
C  C179  1  0.45112000  0.68816000  0.00340000  1.0 -0.1715182123
C  C180  1  0.39668000  0.72010000  0.00544000  1.0 -0.0302677979
C  C181  1  0.36130000  0.78056000  0.01062000  1.0 -0.0800544196
C  C182  1  0.38151000  0.80611000  0.01385000  1.0 -0.0175364357
C  C183  1  0.43679000  0.77377000  0.00913000  1.0 -0.1287978994
C  C184  1  0.37775000  0.69291000  0.99647000  1.0 0.5799427429
C  C185  1  0.34331000  0.87021000  0.01783000  1.0 0.5799427429
C  C186  1  0.60970000  0.56090000  0.70070000  1.0 0.511697399
C  C187  1  0.42780000  0.67978000  0.80022000  1.0 0.0065311995
C  C188  1  0.39420000  0.73558000  0.77822000  1.0 -0.0986445038
C  C189  1  0.41939000  0.74767000  0.72177000  1.0 -0.0302677979
C  C190  1  0.47745000  0.70659000  0.68715000  1.0 -0.1499779527
C  C191  1  0.51078000  0.65120000  0.70920000  1.0 0.2235120074
C  C192  1  0.48564000  0.63924000  0.76516000  1.0 -0.1909609432
C  C193  1  0.40151000  0.66613000  0.86187000  1.0 0.5705638403
C  C194  1  0.38634000  0.80670000  0.70046000  1.0 0.5705638403
C  C195  1  0.50556000  0.97458000  0.67342000  1.0 0.511697399
C  C196  1  0.55196000  0.97930000  0.65910000  1.0 -0.2568897233
C  C197  1  0.58452000  0.98130000  0.60430000  1.0 -0.0690987058
C  C198  1  0.63078000  0.98734000  0.58446000  1.0 0.1176654741
C  C199  1  0.64883000  0.98357000  0.62403000  1.0 -0.2008859454
C  C200  1  0.69210000  0.98844000  0.60636000  1.0 0.1176654741
C  C201  1  0.71477000  0.00103000  0.54837000  1.0 -0.1499779527
C  C202  1  0.69609000  0.00503000  0.51077000  1.0 -0.0690987058
C  C203  1  0.65423000  0.99761000  0.52899000  1.0 -0.1287978994
C  C204  1  0.70794000  0.98470000  0.65070000  1.0 -0.0690987058
C  C205  1  0.74687000  0.99113000  0.64207000  1.0 -0.2715947374
C  C206  1  0.75624000  0.98986000  0.69054000  1.0 0.511697399
C  C207  1  0.43320000  0.96604000  0.75596000  1.0 0.2311509201
C  C208  1  0.40288000  0.97488000  0.81712000  1.0 -0.1909609432
C  C209  1  0.35700000  0.97198000  0.84646000  1.0 0.0027634365
C  C210  1  0.34006000  0.96094000  0.81628000  1.0 -0.115904761
C  C211  1  0.37240000  0.95002000  0.75660000  1.0 -0.0175364357
C  C212  1  0.41788000  0.95354000  0.72646000  1.0 -0.1715182123
C  C213  1  0.35757000  0.93487000  0.72433000  1.0 0.5705638403
C  C214  1  0.32736000  0.97682000  0.91104000  1.0 0.5705638403
C  C215  1  0.81018000  0.00378000  0.71434000  1.0 0.2040339604
C  C216  1  0.85732000  0.00340000  0.68816000  1.0 -0.1715182123
C  C217  1  0.87778000  0.00544000  0.72010000  1.0 -0.0302677979
C  C218  1  0.84752000  0.01062000  0.78056000  1.0 -0.0800544196
C  C219  1  0.79853000  0.01385000  0.80611000  1.0 -0.0175364357
C  C220  1  0.78031000  0.00913000  0.77377000  1.0 -0.1287978994
C  C221  1  0.93287000  0.99647000  0.69291000  1.0 0.5799427429
C  C222  1  0.76865000  0.01783000  0.87021000  1.0 0.5799427429
C  C223  1  0.70070000  0.12870000  0.60970000  1.0 0.4796694889
C  C224  1  0.80022000  0.09220000  0.42780000  1.0 0.0065311995
C  C225  1  0.77822000  0.09200000  0.39420000  1.0 -0.0986445038
C  C226  1  0.72177000  0.11117000  0.41939000  1.0 -0.0302677979
C  C227  1  0.68715000  0.12881000  0.47745000  1.0 -0.1499779527
C  C228  1  0.70920000  0.12882000  0.51078000  1.0 0.2235120074
C  C229  1  0.76516000  0.10996000  0.48564000  1.0 -0.1909609432
C  C230  1  0.86187000  0.07049000  0.40151000  1.0 0.5705638403
C  C231  1  0.70046000  0.10650000  0.38634000  1.0 0.5705638403
C  C232  1  0.67342000  0.84644000  0.50556000  1.0 0.511697399
C  C233  1  0.65910000  0.80964000  0.55196000  1.0 -0.2568897233
C  C234  1  0.60430000  0.82988000  0.58452000  1.0 -0.0690987058
C  C235  1  0.58446000  0.79742000  0.63078000  1.0 0.1176654741
C  C236  1  0.62403000  0.74357000  0.64883000  1.0 -0.2008859454
C  C237  1  0.60636000  0.71310000  0.69210000  1.0 0.1176654741
C  C238  1  0.54837000  0.73583000  0.71477000  1.0 -0.1499779527
C  C239  1  0.51077000  0.78811000  0.69609000  1.0 -0.0690987058
C  C240  1  0.52899000  0.81917000  0.65423000  1.0 -0.1287978994
C  C241  1  0.65070000  0.65666000  0.70794000  1.0 -0.0690987058
C  C242  1  0.64207000  0.61993000  0.74687000  1.0 -0.2715947374
C  C243  1  0.69054000  0.56336000  0.75624000  1.0 0.511697399
C  C244  1  0.75596000  0.84480000  0.43320000  1.0 0.2311509201
C  C245  1  0.81712000  0.80512000  0.40288000  1.0 -0.1909609432
C  C246  1  0.84646000  0.82456000  0.35700000  1.0 0.0027634365
C  C247  1  0.81628000  0.88272000  0.34006000  1.0 -0.1145246318
C  C248  1  0.75660000  0.92098000  0.37240000  1.0 -0.0175364357
C  C249  1  0.72646000  0.90212000  0.41788000  1.0 -0.1751046902
C  C250  1  0.72433000  0.98323000  0.35757000  1.0 0.5705638403
C  C251  1  0.91104000  0.78478000  0.32736000  1.0 0.5705638403
C  C252  1  0.71434000  0.47170000  0.81018000  1.0 0.2040339604
C  C253  1  0.68816000  0.45112000  0.85732000  1.0 -0.1715182123
C  C254  1  0.72010000  0.39668000  0.87778000  1.0 -0.0302677979
C  C255  1  0.78056000  0.36130000  0.84752000  1.0 -0.0800544196
C  C256  1  0.80611000  0.38151000  0.79853000  1.0 -0.0175364357
C  C257  1  0.77377000  0.43679000  0.78031000  1.0 -0.1287978994
C  C258  1  0.69291000  0.37775000  0.93287000  1.0 0.5799427429
C  C259  1  0.87021000  0.34331000  0.76865000  1.0 0.5799427429
C  C260  1  0.56090000  0.60970000  0.12870000  1.0 0.4796694889
C  C261  1  0.67978000  0.42780000  0.09220000  1.0 0.0065311995
C  C262  1  0.73558000  0.39420000  0.09200000  1.0 -0.0986445038
C  C263  1  0.74767000  0.41939000  0.11117000  1.0 -0.0302677979
C  C264  1  0.70659000  0.47745000  0.12881000  1.0 -0.1499779527
C  C265  1  0.65120000  0.51078000  0.12882000  1.0 0.2235120074
C  C266  1  0.63924000  0.48564000  0.10996000  1.0 -0.1909609432
C  C267  1  0.66613000  0.40151000  0.07049000  1.0 0.5705638403
C  C268  1  0.80670000  0.38634000  0.10650000  1.0 0.5705638403
C  C269  1  0.97458000  0.50556000  0.84644000  1.0 0.511697399
C  C270  1  0.97930000  0.55196000  0.80964000  1.0 -0.2568897233
C  C271  1  0.98130000  0.58452000  0.82988000  1.0 -0.0690987058
C  C272  1  0.98734000  0.63078000  0.79742000  1.0 0.1176654741
C  C273  1  0.98357000  0.64883000  0.74357000  1.0 -0.2008859454
C  C274  1  0.98844000  0.69210000  0.71310000  1.0 0.1176654741
C  C275  1  0.00103000  0.71477000  0.73583000  1.0 -0.1499779527
C  C276  1  0.00503000  0.69609000  0.78811000  1.0 -0.0690987058
C  C277  1  0.99761000  0.65423000  0.81917000  1.0 -0.1287978994
C  C278  1  0.98470000  0.70794000  0.65666000  1.0 -0.0690987058
C  C279  1  0.99113000  0.74687000  0.61993000  1.0 -0.2715947374
C  C280  1  0.98986000  0.75624000  0.56336000  1.0 0.511697399
C  C281  1  0.96604000  0.43320000  0.84480000  1.0 0.2311509201
C  C282  1  0.97488000  0.40288000  0.80512000  1.0 -0.1909609432
C  C283  1  0.97198000  0.35700000  0.82456000  1.0 0.0027634365
C  C284  1  0.96094000  0.34006000  0.88272000  1.0 -0.115904761
C  C285  1  0.95002000  0.37240000  0.92098000  1.0 -0.0175364357
C  C286  1  0.95354000  0.41788000  0.90212000  1.0 -0.1751046902
C  C287  1  0.93487000  0.35757000  0.98323000  1.0 0.5705638403
C  C288  1  0.97682000  0.32736000  0.78478000  1.0 0.5705638403
C  C289  1  0.00378000  0.81018000  0.47170000  1.0 0.2040339604
C  C290  1  0.00340000  0.85732000  0.45112000  1.0 -0.1715182123
C  C291  1  0.00544000  0.87778000  0.39668000  1.0 -0.0302677979
C  C292  1  0.01062000  0.84752000  0.36130000  1.0 -0.0800544196
C  C293  1  0.01385000  0.79853000  0.38151000  1.0 -0.0175364357
C  C294  1  0.00913000  0.78031000  0.43679000  1.0 -0.1287978994
C  C295  1  0.99647000  0.93287000  0.37775000  1.0 0.5799427429
C  C296  1  0.01783000  0.76865000  0.34331000  1.0 0.5799427429
N  N1  1  0.85231000  0.32567000  0.39095000  1.0 -0.29980425
N  N2  1  0.17831000  0.27009000  0.02969000  1.0 -0.327284222
N  N3  1  0.46973000  0.32305000  0.00061000  1.0 -0.3400139536
N  N4  1  0.43107000  0.39095000  0.32567000  1.0 -0.29980425
N  N5  1  0.52191000  0.02969000  0.27009000  1.0 -0.327284222
N  N6  1  0.20661000  0.00061000  0.32305000  1.0 -0.3400139536
N  N7  1  0.32567000  0.85231000  0.43107000  1.0 -0.29980425
N  N8  1  0.27009000  0.17831000  0.52191000  1.0 -0.327284222
N  N9  1  0.32305000  0.46973000  0.20661000  1.0 -0.3400139536
N  N10  1  0.39095000  0.43107000  0.85231000  1.0 -0.29980425
N  N11  1  0.02969000  0.52191000  0.17831000  1.0 -0.327284222
N  N12  1  0.00061000  0.20661000  0.46973000  1.0 -0.3400139536
N  N13  1  0.14769000  0.67433000  0.60905000  1.0 -0.29980425
N  N14  1  0.82169000  0.72991000  0.97031000  1.0 -0.327284222
N  N15  1  0.53027000  0.67695000  0.99939000  1.0 -0.3400139536
N  N16  1  0.56893000  0.60905000  0.67433000  1.0 -0.29980425
N  N17  1  0.47809000  0.97031000  0.72991000  1.0 -0.327284222
N  N18  1  0.79339000  0.99939000  0.67695000  1.0 -0.3400139536
N  N19  1  0.67433000  0.14769000  0.56893000  1.0 -0.29980425
N  N20  1  0.72991000  0.82169000  0.47809000  1.0 -0.327284222
N  N21  1  0.67695000  0.53027000  0.79339000  1.0 -0.3400139536
N  N22  1  0.60905000  0.56893000  0.14769000  1.0 -0.29980425
N  N23  1  0.97031000  0.47809000  0.82169000  1.0 -0.327284222
N  N24  1  0.99939000  0.79339000  0.53027000  1.0 -0.3400139536
O  O1  1  0.88670000  0.25550000  0.46530000  1.0 -0.3091604927
O  O2  1  0.94274000  0.10998000  0.29500000  1.0 -0.5075073895
O  O3  1  0.93145000  0.12075000  0.38199000  1.0 -0.4994516668
O  O4  1  0.90646000  0.26788000  0.15834000  1.0 -0.4994516668
O  O5  1  0.88528000  0.34662000  0.18032000  1.0 -0.4913353357
O  O6  1  0.10543000  0.36467000  0.02441000  1.0 -0.4297008775
O  O7  1  0.45225000  0.25973000  0.02087000  1.0 -0.4224895483
O  O8  1  0.98225000  0.32703000  0.08147000  1.0 -0.4848892863
O  O9  1  0.00262000  0.24702000  0.06222000  1.0 -0.4994516668
O  O10  1  0.19696000  0.06588000  0.01938000  1.0 -0.4994516668
O  O11  1  0.26480000  0.06256000  0.02240000  1.0 -0.523324368
O  O12  1  0.58508000  0.36194000  0.01354000  1.0 -0.5283137015
O  O13  1  0.67137000  0.27581000  0.00435000  1.0 -0.4913353357
O  O14  1  0.70513000  0.10227000  0.98335000  1.0 -0.4994516668
O  O15  1  0.63748000  0.10648000  0.97986000  1.0 -0.5075073895
O  O16  1  0.39250000  0.46530000  0.25550000  1.0 -0.3091604927
O  O17  1  0.65228000  0.29500000  0.10998000  1.0 -0.5075073895
O  O18  1  0.56581000  0.38199000  0.12075000  1.0 -0.4994516668
O  O19  1  0.66732000  0.15834000  0.26788000  1.0 -0.4994516668
O  O20  1  0.58778000  0.18032000  0.34662000  1.0 -0.4848892863
O  O21  1  0.50549000  0.02441000  0.36467000  1.0 -0.4297008775
O  O22  1  0.26715000  0.02087000  0.25973000  1.0 -0.4224895483
O  O23  1  0.60925000  0.08147000  0.32703000  1.0 -0.4848892863
O  O24  1  0.68814000  0.06222000  0.24702000  1.0 -0.4913353357
O  O25  1  0.71778000  0.01938000  0.06588000  1.0 -0.4994516668
O  O26  1  0.65024000  0.02240000  0.06256000  1.0 -0.523324368
O  O27  1  0.03944000  0.01354000  0.36194000  1.0 -0.5283137015
O  O28  1  0.04847000  0.00435000  0.27581000  1.0 -0.4913353357
O  O29  1  0.20925000  0.98335000  0.10227000  1.0 -0.4994516668
O  O30  1  0.27618000  0.97986000  0.10648000  1.0 -0.5075073895
O  O31  1  0.25550000  0.88670000  0.39250000  1.0 -0.3091604927
O  O32  1  0.10998000  0.94274000  0.65228000  1.0 -0.5075073895
O  O33  1  0.12075000  0.93145000  0.56581000  1.0 -0.4994516668
O  O34  1  0.26788000  0.90646000  0.66732000  1.0 -0.4994516668
O  O35  1  0.34662000  0.88528000  0.58778000  1.0 -0.4913353357
O  O36  1  0.36467000  0.10543000  0.50549000  1.0 -0.4297008775
O  O37  1  0.25973000  0.45225000  0.26715000  1.0 -0.4297008775
O  O38  1  0.32703000  0.98225000  0.60925000  1.0 -0.4848892863
O  O39  1  0.24702000  0.00262000  0.68814000  1.0 -0.4994516668
O  O40  1  0.06588000  0.19696000  0.71778000  1.0 -0.4994516668
O  O41  1  0.06256000  0.26480000  0.65024000  1.0 -0.523324368
O  O42  1  0.36194000  0.58508000  0.03944000  1.0 -0.5283137015
O  O43  1  0.27581000  0.67137000  0.04847000  1.0 -0.4913353357
O  O44  1  0.10227000  0.70513000  0.20925000  1.0 -0.4994516668
O  O45  1  0.10648000  0.63748000  0.27618000  1.0 -0.4994516668
O  O46  1  0.46530000  0.39250000  0.88670000  1.0 -0.3091604927
O  O47  1  0.29500000  0.65228000  0.94274000  1.0 -0.5075073895
O  O48  1  0.38199000  0.56581000  0.93145000  1.0 -0.4994516668
O  O49  1  0.15834000  0.66732000  0.90646000  1.0 -0.4994516668
O  O50  1  0.18032000  0.58778000  0.88528000  1.0 -0.4848892863
O  O51  1  0.02441000  0.50549000  0.10543000  1.0 -0.4297008775
O  O52  1  0.02087000  0.26715000  0.45225000  1.0 -0.4297008775
O  O53  1  0.08147000  0.60925000  0.98225000  1.0 -0.4848892863
O  O54  1  0.06222000  0.68814000  0.00262000  1.0 -0.4994516668
O  O55  1  0.01938000  0.71778000  0.19696000  1.0 -0.4994516668
O  O56  1  0.02240000  0.65024000  0.26480000  1.0 -0.523324368
O  O57  1  0.01354000  0.03944000  0.58508000  1.0 -0.5283137015
O  O58  1  0.00435000  0.04847000  0.67137000  1.0 -0.4913353357
O  O59  1  0.98335000  0.20925000  0.70513000  1.0 -0.4994516668
O  O60  1  0.97986000  0.27618000  0.63748000  1.0 -0.4994516668
O  O61  1  0.11330000  0.74450000  0.53470000  1.0 -0.3091604927
O  O62  1  0.05726000  0.89002000  0.70500000  1.0 -0.5075073895
O  O63  1  0.06855000  0.87925000  0.61801000  1.0 -0.4994516668
O  O64  1  0.09354000  0.73212000  0.84166000  1.0 -0.4994516668
O  O65  1  0.11472000  0.65338000  0.81968000  1.0 -0.4913353357
O  O66  1  0.89457000  0.63533000  0.97559000  1.0 -0.4297008775
O  O67  1  0.54775000  0.74027000  0.97913000  1.0 -0.4224895483
O  O68  1  0.01775000  0.67297000  0.91853000  1.0 -0.4848892863
O  O69  1  0.99738000  0.75298000  0.93778000  1.0 -0.4994516668
O  O70  1  0.80304000  0.93412000  0.98062000  1.0 -0.4994516668
O  O71  1  0.73520000  0.93744000  0.97760000  1.0 -0.523324368
O  O72  1  0.41492000  0.63806000  0.98646000  1.0 -0.5283137015
O  O73  1  0.32863000  0.72419000  0.99565000  1.0 -0.4913353357
O  O74  1  0.29487000  0.89773000  0.01665000  1.0 -0.4994516668
O  O75  1  0.36252000  0.89352000  0.02014000  1.0 -0.5075073895
O  O76  1  0.60750000  0.53470000  0.74450000  1.0 -0.3091604927
O  O77  1  0.34772000  0.70500000  0.89002000  1.0 -0.5075073895
O  O78  1  0.43419000  0.61801000  0.87925000  1.0 -0.4994516668
O  O79  1  0.33268000  0.84166000  0.73212000  1.0 -0.4994516668
O  O80  1  0.41222000  0.81968000  0.65338000  1.0 -0.4848892863
O  O81  1  0.49451000  0.97559000  0.63533000  1.0 -0.4297008775
O  O82  1  0.73285000  0.97913000  0.74027000  1.0 -0.4297008775
O  O83  1  0.39075000  0.91853000  0.67297000  1.0 -0.4848892863
O  O84  1  0.31186000  0.93778000  0.75298000  1.0 -0.4994516668
O  O85  1  0.28222000  0.98062000  0.93412000  1.0 -0.4994516668
O  O86  1  0.34976000  0.97760000  0.93744000  1.0 -0.523324368
O  O87  1  0.96056000  0.98646000  0.63806000  1.0 -0.5283137015
O  O88  1  0.95153000  0.99565000  0.72419000  1.0 -0.4913353357
O  O89  1  0.79075000  0.01665000  0.89773000  1.0 -0.4994516668
O  O90  1  0.72382000  0.02014000  0.89352000  1.0 -0.5075073895
O  O91  1  0.74450000  0.11330000  0.60750000  1.0 -0.3091604927
O  O92  1  0.89002000  0.05726000  0.34772000  1.0 -0.5075073895
O  O93  1  0.87925000  0.06855000  0.43419000  1.0 -0.4994516668
O  O94  1  0.73212000  0.09354000  0.33268000  1.0 -0.4994516668
O  O95  1  0.65338000  0.11472000  0.41222000  1.0 -0.4848892863
O  O96  1  0.63533000  0.89457000  0.49451000  1.0 -0.4297008775
O  O97  1  0.74027000  0.54775000  0.73285000  1.0 -0.4224895483
O  O98  1  0.67297000  0.01775000  0.39075000  1.0 -0.4848892863
O  O99  1  0.75298000  0.99738000  0.31186000  1.0 -0.4994516668
O  O100  1  0.93412000  0.80304000  0.28222000  1.0 -0.4994516668
O  O101  1  0.93744000  0.73520000  0.34976000  1.0 -0.523324368
O  O102  1  0.63806000  0.41492000  0.96056000  1.0 -0.5283137015
O  O103  1  0.72419000  0.32863000  0.95153000  1.0 -0.4913353357
O  O104  1  0.89773000  0.29487000  0.79075000  1.0 -0.4994516668
O  O105  1  0.89352000  0.36252000  0.72382000  1.0 -0.5075073895
O  O106  1  0.53470000  0.60750000  0.11330000  1.0 -0.3091604927
O  O107  1  0.70500000  0.34772000  0.05726000  1.0 -0.5075073895
O  O108  1  0.61801000  0.43419000  0.06855000  1.0 -0.4994516668
O  O109  1  0.84166000  0.33268000  0.09354000  1.0 -0.4994516668
O  O110  1  0.81968000  0.41222000  0.11472000  1.0 -0.4848892863
O  O111  1  0.97559000  0.49451000  0.89457000  1.0 -0.4297008775
O  O112  1  0.97913000  0.73285000  0.54775000  1.0 -0.4224895483
O  O113  1  0.91853000  0.39075000  0.01775000  1.0 -0.4913353357
O  O114  1  0.93778000  0.31186000  0.99738000  1.0 -0.4994516668
O  O115  1  0.98062000  0.28222000  0.80304000  1.0 -0.4994516668
O  O116  1  0.97760000  0.34976000  0.73520000  1.0 -0.523324368
O  O117  1  0.98646000  0.96056000  0.41492000  1.0 -0.5283137015
O  O118  1  0.99565000  0.95153000  0.32863000  1.0 -0.4913353357
O  O119  1  0.01665000  0.79075000  0.29487000  1.0 -0.4994516668
O  O120  1  0.02014000  0.72382000  0.36252000  1.0 -0.4994516668
O  O121  1  0.38360000  0.97566000  0.02434000  1.0 -0.2820332473
O  O122  1  0.17628000  0.98550000  0.01450000  1.0 -0.3091604927
O  O123  1  0.61640000  0.02434000  0.97566000  1.0 -0.2820332473
O  O124  1  0.82372000  0.01450000  0.98550000  1.0 -0.29980425
O  O125  1  0.97566000  0.38360000  0.61640000  1.0 -0.2894945419
O  O126  1  0.98550000  0.17628000  0.82372000  1.0 -0.3091604927
O  O127  1  0.02434000  0.61640000  0.38360000  1.0 -0.2894945419
O  O128  1  0.01450000  0.82372000  0.17628000  1.0 -0.29980425
O  O129  1  0.94445000  0.20605000  0.05555000  1.0 -0.3478699452
O  O130  1  0.87872000  0.45352000  0.12128000  1.0 -0.3091604927
O  O131  1  0.79395000  0.05555000  0.20605000  1.0 -0.361010564
O  O132  1  0.54648000  0.12128000  0.45352000  1.0 -0.3203843957
O  O133  1  0.20605000  0.94445000  0.79395000  1.0 -0.3400139536
O  O134  1  0.45352000  0.87872000  0.54648000  1.0 -0.3091604927
O  O135  1  0.05555000  0.79395000  0.94445000  1.0 -0.361010564
O  O136  1  0.12128000  0.54648000  0.87872000  1.0 -0.3091604927
O  O137  1  0.51164000  0.48836000  0.04824000  1.0 0.0027634365
O  O138  1  0.77800000  0.22200000  0.02360000  1.0 -0.2715947374
O  O139  1  0.95176000  0.04824000  0.48836000  1.0 -0.0111959404
O  O140  1  0.97640000  0.02360000  0.22200000  1.0 -0.2568897233
O  O141  1  0.48836000  0.51164000  0.95176000  1.0 -0.003818935
O  O142  1  0.22200000  0.77800000  0.97640000  1.0 -0.2715947374
O  O143  1  0.04824000  0.95176000  0.51164000  1.0 -0.003818935
O  O144  1  0.02360000  0.97640000  0.77800000  1.0 -0.2715947374
