# DDEC6 charges by PACMAN v1.1 (https://github.com/mtap-research/PACMAN-charge/)
data_MIRDOJ_ASR_pacman
_symmetry_space_group_name_H-M   'P 1'
_cell_length_a   27.47780000
_cell_length_b   27.47780000
_cell_length_c   27.47780000
_cell_angle_alpha   60.00000000
_cell_angle_beta   60.00000000
_cell_angle_gamma   60.00000000
_symmetry_Int_Tables_number   1
_chemical_formula_structural   Zn7H18C54(NO5)6
_chemical_formula_sum   'Zn28 H72 C216 N24 O120'
_cell_volume   14670.02576580
_cell_formula_units_Z   4
loop_
 _symmetry_equiv_pos_site_id
 _symmetry_equiv_pos_as_xyz
  1  'x, y, z'
loop_
 _atom_site_type_symbol
 _atom_site_label
 _atom_site_symmetry_multiplicity
 _atom_site_fract_x
 _atom_site_fract_y
 _atom_site_fract_z
 _atom_site_occupancy
 _atom_site_charge
Zn  Zn1  1  0.28043000  0.71957000  0.28043000  1.0 0.958779097
Zn  Zn2  1  0.20301000  0.79699000  0.20301000  1.0 0.9543514535
Zn  Zn3  1  0.71957000  0.28043000  0.71957000  1.0 0.958779097
Zn  Zn4  1  0.79699000  0.20301000  0.79699000  1.0 0.9543514535
Zn  Zn5  1  0.71957000  0.28043000  0.28043000  1.0 0.958779097
Zn  Zn6  1  0.79699000  0.20301000  0.20301000  1.0 0.958779097
Zn  Zn7  1  0.28043000  0.71957000  0.71957000  1.0 0.958779097
Zn  Zn8  1  0.20301000  0.79699000  0.79699000  1.0 0.9543514535
Zn  Zn9  1  0.28043000  0.28043000  0.71957000  1.0 0.958779097
Zn  Zn10  1  0.20301000  0.20301000  0.79699000  1.0 0.9543514535
Zn  Zn11  1  0.71957000  0.71957000  0.28043000  1.0 0.958779097
Zn  Zn12  1  0.79699000  0.79699000  0.20301000  1.0 0.9543514535
Zn  Zn13  1  0.37422000  0.37422000  0.37422000  1.0 0.958779097
Zn  Zn14  1  0.32175000  0.32175000  0.32175000  1.0 0.9923000005
Zn  Zn15  1  0.37422000  0.87734000  0.37422000  1.0 0.958779097
Zn  Zn16  1  0.32175000  0.03475000  0.32175000  1.0 0.9923000005
Zn  Zn17  1  0.37422000  0.37422000  0.87734000  1.0 0.958779097
Zn  Zn18  1  0.32175000  0.32175000  0.03475000  1.0 0.9923000005
Zn  Zn19  1  0.87734000  0.37422000  0.37422000  1.0 0.958779097
Zn  Zn20  1  0.03475000  0.32175000  0.32175000  1.0 1.0006657168
Zn  Zn21  1  0.62578000  0.12266000  0.62578000  1.0 0.958779097
Zn  Zn22  1  0.67825000  0.96525000  0.67825000  1.0 0.9923000005
Zn  Zn23  1  0.62578000  0.62578000  0.62578000  1.0 0.958779097
Zn  Zn24  1  0.67825000  0.67825000  0.67825000  1.0 0.9923000005
Zn  Zn25  1  0.62578000  0.62578000  0.12266000  1.0 0.958779097
Zn  Zn26  1  0.67825000  0.67825000  0.96525000  1.0 0.9923000005
Zn  Zn27  1  0.12266000  0.62578000  0.62578000  1.0 0.958779097
Zn  Zn28  1  0.96525000  0.67825000  0.67825000  1.0 0.9923000005
H  H1  1  0.23598000  0.66258000  0.14626000  1.0 0.1453233489
H  H2  1  0.28898000  0.48204000  0.19196000  1.0 0.1453233489
H  H3  1  0.29859000  0.55363000  0.28135000  1.0 0.1266996649
H  H4  1  0.14626000  0.95518000  0.23598000  1.0 0.1453233489
H  H5  1  0.19196000  0.03702000  0.28898000  1.0 0.1433718629
H  H6  1  0.28135000  0.86643000  0.29859000  1.0 0.1266996649
H  H7  1  0.66258000  0.23598000  0.95518000  1.0 0.1453233489
H  H8  1  0.48204000  0.28898000  0.03702000  1.0 0.1433718629
H  H9  1  0.55363000  0.29859000  0.86643000  1.0 0.1266996649
H  H10  1  0.95518000  0.14626000  0.66258000  1.0 0.1453233489
H  H11  1  0.03702000  0.19196000  0.48204000  1.0 0.1433718629
H  H12  1  0.86643000  0.28135000  0.55363000  1.0 0.1266996649
H  H13  1  0.66258000  0.14626000  0.23598000  1.0 0.1453233489
H  H14  1  0.48204000  0.19196000  0.28898000  1.0 0.1433718629
H  H15  1  0.55363000  0.28135000  0.29859000  1.0 0.1266996649
H  H16  1  0.95518000  0.23598000  0.14626000  1.0 0.1453233489
H  H17  1  0.03702000  0.28898000  0.19196000  1.0 0.1433718629
H  H18  1  0.86643000  0.29859000  0.28135000  1.0 0.1266996649
H  H19  1  0.23598000  0.95518000  0.66258000  1.0 0.1453233489
H  H20  1  0.28898000  0.03702000  0.48204000  1.0 0.1433718629
H  H21  1  0.29859000  0.86643000  0.55363000  1.0 0.1266996649
H  H22  1  0.14626000  0.66258000  0.95518000  1.0 0.1453233489
H  H23  1  0.19196000  0.48204000  0.03702000  1.0 0.1433718629
H  H24  1  0.28135000  0.55363000  0.86643000  1.0 0.1266996649
H  H25  1  0.14626000  0.23598000  0.66258000  1.0 0.1453233489
H  H26  1  0.19196000  0.28898000  0.48204000  1.0 0.1453233489
H  H27  1  0.28135000  0.29859000  0.55363000  1.0 0.1266996649
H  H28  1  0.23598000  0.14626000  0.95518000  1.0 0.1453233489
H  H29  1  0.28898000  0.19196000  0.03702000  1.0 0.1453233489
H  H30  1  0.29859000  0.28135000  0.86643000  1.0 0.1266996649
H  H31  1  0.95518000  0.66258000  0.23598000  1.0 0.1453233489
H  H32  1  0.03702000  0.48204000  0.28898000  1.0 0.1433718629
H  H33  1  0.86643000  0.55363000  0.29859000  1.0 0.1266996649
H  H34  1  0.66258000  0.95518000  0.14626000  1.0 0.1453233489
H  H35  1  0.48204000  0.03702000  0.19196000  1.0 0.1433718629
H  H36  1  0.55363000  0.86643000  0.28135000  1.0 0.1266996649
H  H37  1  0.76402000  0.04482000  0.85374000  1.0 0.1453233489
H  H38  1  0.71102000  0.96298000  0.80804000  1.0 0.1433718629
H  H39  1  0.70141000  0.13357000  0.71865000  1.0 0.1266996649
H  H40  1  0.85374000  0.33742000  0.76402000  1.0 0.1453233489
H  H41  1  0.80804000  0.51796000  0.71102000  1.0 0.1433718629
H  H42  1  0.71865000  0.44637000  0.70141000  1.0 0.1266996649
H  H43  1  0.33742000  0.85374000  0.04482000  1.0 0.1453233489
H  H44  1  0.51796000  0.80804000  0.96298000  1.0 0.1433718629
H  H45  1  0.44637000  0.71865000  0.13357000  1.0 0.1266996649
H  H46  1  0.04482000  0.76402000  0.33742000  1.0 0.1453233489
H  H47  1  0.96298000  0.71102000  0.51796000  1.0 0.1433718629
H  H48  1  0.13357000  0.70141000  0.44637000  1.0 0.1266996649
H  H49  1  0.33742000  0.04482000  0.76402000  1.0 0.1453233489
H  H50  1  0.51796000  0.96298000  0.71102000  1.0 0.1433718629
H  H51  1  0.44637000  0.13357000  0.70141000  1.0 0.1266996649
H  H52  1  0.04482000  0.33742000  0.85374000  1.0 0.1453233489
H  H53  1  0.96298000  0.51796000  0.80804000  1.0 0.1433718629
H  H54  1  0.13357000  0.44637000  0.71865000  1.0 0.1266996649
H  H55  1  0.76402000  0.85374000  0.33742000  1.0 0.1453233489
H  H56  1  0.71102000  0.80804000  0.51796000  1.0 0.1433718629
H  H57  1  0.70141000  0.71865000  0.44637000  1.0 0.1266996649
H  H58  1  0.85374000  0.76402000  0.04482000  1.0 0.1453233489
H  H59  1  0.80804000  0.71102000  0.96298000  1.0 0.1433718629
H  H60  1  0.71865000  0.70141000  0.13357000  1.0 0.1266996649
H  H61  1  0.85374000  0.04482000  0.33742000  1.0 0.1453233489
H  H62  1  0.80804000  0.96298000  0.51796000  1.0 0.1453233489
H  H63  1  0.71865000  0.13357000  0.44637000  1.0 0.1266996649
H  H64  1  0.76402000  0.33742000  0.04482000  1.0 0.1453233489
H  H65  1  0.71102000  0.51796000  0.96298000  1.0 0.1433718629
H  H66  1  0.70141000  0.44637000  0.13357000  1.0 0.1266996649
H  H67  1  0.04482000  0.85374000  0.76402000  1.0 0.1453233489
H  H68  1  0.96298000  0.80804000  0.71102000  1.0 0.1433718629
H  H69  1  0.13357000  0.71865000  0.70141000  1.0 0.1266996649
H  H70  1  0.33742000  0.76402000  0.85374000  1.0 0.1453233489
H  H71  1  0.51796000  0.71102000  0.80804000  1.0 0.1433718629
H  H72  1  0.44637000  0.70141000  0.71865000  1.0 0.1266996649
C  C1  1  0.26380000  0.61440000  0.21620000  1.0 -0.0427548193
C  C2  1  0.25340000  0.57400000  0.16440000  1.0 0.2606705452
C  C3  1  0.25700000  0.66500000  0.22740000  1.0 0.5881977702
C  C4  1  0.24920000  0.62340000  0.17220000  1.0 -0.1584501982
C  C5  1  0.18720000  0.58100000  0.13320000  1.0 0.4487034591
C  C6  1  0.29470000  0.51010000  0.24170000  1.0 -0.027401563
C  C7  1  0.28080000  0.51620000  0.19920000  1.0 -0.1584501982
C  C8  1  0.28740000  0.55900000  0.25100000  1.0 -0.1098664975
C  C9  1  0.31900000  0.44720000  0.28240000  1.0 0.6141053648
C  C10  1  0.21620000  0.90560000  0.26380000  1.0 -0.0427548193
C  C11  1  0.16440000  0.00820000  0.25340000  1.0 0.2606705452
C  C12  1  0.22740000  0.85060000  0.25700000  1.0 0.5881977702
C  C13  1  0.17220000  0.95520000  0.24920000  1.0 -0.1584501982
C  C14  1  0.13320000  0.09860000  0.18720000  1.0 0.4487034591
C  C15  1  0.24170000  0.95350000  0.29470000  1.0 -0.027401563
C  C16  1  0.19920000  0.00380000  0.28080000  1.0 -0.1584501982
C  C17  1  0.25100000  0.90260000  0.28740000  1.0 -0.1098664975
C  C18  1  0.28240000  0.95140000  0.31900000  1.0 0.6141053648
C  C19  1  0.61440000  0.26380000  0.90560000  1.0 -0.0427548193
C  C20  1  0.57400000  0.25340000  0.00820000  1.0 0.2606705452
C  C21  1  0.66500000  0.25700000  0.85060000  1.0 0.5881977702
C  C22  1  0.62340000  0.24920000  0.95520000  1.0 -0.1584501982
C  C23  1  0.58100000  0.18720000  0.09860000  1.0 0.4487034591
C  C24  1  0.51010000  0.29470000  0.95350000  1.0 -0.027401563
C  C25  1  0.51620000  0.28080000  0.00380000  1.0 -0.1584501982
C  C26  1  0.55900000  0.28740000  0.90260000  1.0 -0.1098664975
C  C27  1  0.44720000  0.31900000  0.95140000  1.0 0.6141053648
C  C28  1  0.90560000  0.21620000  0.61440000  1.0 -0.0427548193
C  C29  1  0.00820000  0.16440000  0.57400000  1.0 0.2606705452
C  C30  1  0.85060000  0.22740000  0.66500000  1.0 0.5881977702
C  C31  1  0.95520000  0.17220000  0.62340000  1.0 -0.1584501982
C  C32  1  0.09860000  0.13320000  0.58100000  1.0 0.4487034591
C  C33  1  0.95350000  0.24170000  0.51010000  1.0 -0.027401563
C  C34  1  0.00380000  0.19920000  0.51620000  1.0 -0.1584501982
C  C35  1  0.90260000  0.25100000  0.55900000  1.0 -0.1098664975
C  C36  1  0.95140000  0.28240000  0.44720000  1.0 0.6141053648
C  C37  1  0.61440000  0.21620000  0.26380000  1.0 -0.0427548193
C  C38  1  0.57400000  0.16440000  0.25340000  1.0 0.2606705452
C  C39  1  0.66500000  0.22740000  0.25700000  1.0 0.5881977702
C  C40  1  0.62340000  0.17220000  0.24920000  1.0 -0.1584501982
C  C41  1  0.58100000  0.13320000  0.18720000  1.0 0.4487034591
C  C42  1  0.51010000  0.24170000  0.29470000  1.0 -0.027401563
C  C43  1  0.51620000  0.19920000  0.28080000  1.0 -0.1584501982
C  C44  1  0.55900000  0.25100000  0.28740000  1.0 -0.1098664975
C  C45  1  0.44720000  0.28240000  0.31900000  1.0 0.6141053648
C  C46  1  0.90560000  0.26380000  0.21620000  1.0 -0.0427548193
C  C47  1  0.00820000  0.25340000  0.16440000  1.0 0.2606705452
C  C48  1  0.85060000  0.25700000  0.22740000  1.0 0.5881977702
C  C49  1  0.95520000  0.24920000  0.17220000  1.0 -0.1584501982
C  C50  1  0.09860000  0.18720000  0.13320000  1.0 0.4487034591
C  C51  1  0.95350000  0.29470000  0.24170000  1.0 -0.027401563
C  C52  1  0.00380000  0.28080000  0.19920000  1.0 -0.1584501982
C  C53  1  0.90260000  0.28740000  0.25100000  1.0 -0.1098664975
C  C54  1  0.95140000  0.31900000  0.28240000  1.0 0.6141053648
C  C55  1  0.26380000  0.90560000  0.61440000  1.0 -0.0427548193
C  C56  1  0.25340000  0.00820000  0.57400000  1.0 0.2606705452
C  C57  1  0.25700000  0.85060000  0.66500000  1.0 0.5881977702
C  C58  1  0.24920000  0.95520000  0.62340000  1.0 -0.1584501982
C  C59  1  0.18720000  0.09860000  0.58100000  1.0 0.4487034591
C  C60  1  0.29470000  0.95350000  0.51010000  1.0 -0.027401563
C  C61  1  0.28080000  0.00380000  0.51620000  1.0 -0.1584501982
C  C62  1  0.28740000  0.90260000  0.55900000  1.0 -0.1098664975
C  C63  1  0.31900000  0.95140000  0.44720000  1.0 0.6141053648
C  C64  1  0.21620000  0.61440000  0.90560000  1.0 -0.0427548193
C  C65  1  0.16440000  0.57400000  0.00820000  1.0 0.2606705452
C  C66  1  0.22740000  0.66500000  0.85060000  1.0 0.5881977702
C  C67  1  0.17220000  0.62340000  0.95520000  1.0 -0.1584501982
C  C68  1  0.13320000  0.58100000  0.09860000  1.0 0.4487034591
C  C69  1  0.24170000  0.51010000  0.95350000  1.0 -0.027401563
C  C70  1  0.19920000  0.51620000  0.00380000  1.0 -0.1584501982
C  C71  1  0.25100000  0.55900000  0.90260000  1.0 -0.1098664975
C  C72  1  0.28240000  0.44720000  0.95140000  1.0 0.6141053648
C  C73  1  0.21620000  0.26380000  0.61440000  1.0 -0.0427548193
C  C74  1  0.16440000  0.25340000  0.57400000  1.0 0.2606705452
C  C75  1  0.22740000  0.25700000  0.66500000  1.0 0.5881977702
C  C76  1  0.17220000  0.24920000  0.62340000  1.0 -0.1584501982
C  C77  1  0.13320000  0.18720000  0.58100000  1.0 0.4487034591
C  C78  1  0.24170000  0.29470000  0.51010000  1.0 -0.027401563
C  C79  1  0.19920000  0.28080000  0.51620000  1.0 -0.1584501982
C  C80  1  0.25100000  0.28740000  0.55900000  1.0 -0.1098664975
C  C81  1  0.28240000  0.31900000  0.44720000  1.0 0.6141053648
C  C82  1  0.26380000  0.21620000  0.90560000  1.0 -0.0427548193
C  C83  1  0.25340000  0.16440000  0.00820000  1.0 0.2606705452
C  C84  1  0.25700000  0.22740000  0.85060000  1.0 0.5881977702
C  C85  1  0.24920000  0.17220000  0.95520000  1.0 -0.1584501982
C  C86  1  0.18720000  0.13320000  0.09860000  1.0 0.4487034591
C  C87  1  0.29470000  0.24170000  0.95350000  1.0 -0.027401563
C  C88  1  0.28080000  0.19920000  0.00380000  1.0 -0.1584501982
C  C89  1  0.28740000  0.25100000  0.90260000  1.0 -0.1098664975
C  C90  1  0.31900000  0.28240000  0.95140000  1.0 0.6141053648
C  C91  1  0.90560000  0.61440000  0.26380000  1.0 -0.0427548193
C  C92  1  0.00820000  0.57400000  0.25340000  1.0 0.2606705452
C  C93  1  0.85060000  0.66500000  0.25700000  1.0 0.5881977702
C  C94  1  0.95520000  0.62340000  0.24920000  1.0 -0.1584501982
C  C95  1  0.09860000  0.58100000  0.18720000  1.0 0.4487034591
C  C96  1  0.95350000  0.51010000  0.29470000  1.0 -0.027401563
C  C97  1  0.00380000  0.51620000  0.28080000  1.0 -0.1584501982
C  C98  1  0.90260000  0.55900000  0.28740000  1.0 -0.1098664975
C  C99  1  0.95140000  0.44720000  0.31900000  1.0 0.6141053648
C  C100  1  0.61440000  0.90560000  0.21620000  1.0 -0.0427548193
C  C101  1  0.57400000  0.00820000  0.16440000  1.0 0.2606705452
C  C102  1  0.66500000  0.85060000  0.22740000  1.0 0.5881977702
C  C103  1  0.62340000  0.95520000  0.17220000  1.0 -0.1584501982
C  C104  1  0.58100000  0.09860000  0.13320000  1.0 0.4487034591
C  C105  1  0.51010000  0.95350000  0.24170000  1.0 -0.027401563
C  C106  1  0.51620000  0.00380000  0.19920000  1.0 -0.1584501982
C  C107  1  0.55900000  0.90260000  0.25100000  1.0 -0.1098664975
C  C108  1  0.44720000  0.95140000  0.28240000  1.0 0.6141053648
C  C109  1  0.73620000  0.09440000  0.78380000  1.0 -0.0427548193
C  C110  1  0.74660000  0.99180000  0.83560000  1.0 0.2606705452
C  C111  1  0.74300000  0.14940000  0.77260000  1.0 0.5881977702
C  C112  1  0.75080000  0.04480000  0.82780000  1.0 -0.1584501982
C  C113  1  0.81280000  0.90140000  0.86680000  1.0 0.4487034591
C  C114  1  0.70530000  0.04650000  0.75830000  1.0 -0.027401563
C  C115  1  0.71920000  0.99620000  0.80080000  1.0 -0.1584501982
C  C116  1  0.71260000  0.09740000  0.74900000  1.0 -0.1098664975
C  C117  1  0.68100000  0.04860000  0.71760000  1.0 0.6141053648
C  C118  1  0.78380000  0.38560000  0.73620000  1.0 -0.0427548193
C  C119  1  0.83560000  0.42600000  0.74660000  1.0 0.2606705452
C  C120  1  0.77260000  0.33500000  0.74300000  1.0 0.5881977702
C  C121  1  0.82780000  0.37660000  0.75080000  1.0 -0.1536533013
C  C122  1  0.86680000  0.41900000  0.81280000  1.0 0.4487034591
C  C123  1  0.75830000  0.48990000  0.70530000  1.0 -0.027401563
C  C124  1  0.80080000  0.48380000  0.71920000  1.0 -0.1584501982
C  C125  1  0.74900000  0.44100000  0.71260000  1.0 -0.1098664975
C  C126  1  0.71760000  0.55280000  0.68100000  1.0 0.6141053648
C  C127  1  0.38560000  0.78380000  0.09440000  1.0 -0.0427548193
C  C128  1  0.42600000  0.83560000  0.99180000  1.0 0.2606705452
C  C129  1  0.33500000  0.77260000  0.14940000  1.0 0.5881977702
C  C130  1  0.37660000  0.82780000  0.04480000  1.0 -0.1584501982
C  C131  1  0.41900000  0.86680000  0.90140000  1.0 0.4487034591
C  C132  1  0.48990000  0.75830000  0.04650000  1.0 -0.027401563
C  C133  1  0.48380000  0.80080000  0.99620000  1.0 -0.1584501982
C  C134  1  0.44100000  0.74900000  0.09740000  1.0 -0.1098664975
C  C135  1  0.55280000  0.71760000  0.04860000  1.0 0.6141053648
C  C136  1  0.09440000  0.73620000  0.38560000  1.0 -0.0427548193
C  C137  1  0.99180000  0.74660000  0.42600000  1.0 0.2606705452
C  C138  1  0.14940000  0.74300000  0.33500000  1.0 0.5881977702
C  C139  1  0.04480000  0.75080000  0.37660000  1.0 -0.1584501982
C  C140  1  0.90140000  0.81280000  0.41900000  1.0 0.4487034591
C  C141  1  0.04650000  0.70530000  0.48990000  1.0 -0.027401563
C  C142  1  0.99620000  0.71920000  0.48380000  1.0 -0.1584501982
C  C143  1  0.09740000  0.71260000  0.44100000  1.0 -0.1098664975
C  C144  1  0.04860000  0.68100000  0.55280000  1.0 0.6154673621
C  C145  1  0.38560000  0.09440000  0.73620000  1.0 -0.0427548193
C  C146  1  0.42600000  0.99180000  0.74660000  1.0 0.2606705452
C  C147  1  0.33500000  0.14940000  0.74300000  1.0 0.5881977702
C  C148  1  0.37660000  0.04480000  0.75080000  1.0 -0.1584501982
C  C149  1  0.41900000  0.90140000  0.81280000  1.0 0.4487034591
C  C150  1  0.48990000  0.04650000  0.70530000  1.0 -0.027401563
C  C151  1  0.48380000  0.99620000  0.71920000  1.0 -0.1584501982
C  C152  1  0.44100000  0.09740000  0.71260000  1.0 -0.1098664975
C  C153  1  0.55280000  0.04860000  0.68100000  1.0 0.6141053648
C  C154  1  0.09440000  0.38560000  0.78380000  1.0 -0.0427548193
C  C155  1  0.99180000  0.42600000  0.83560000  1.0 0.2606705452
C  C156  1  0.14940000  0.33500000  0.77260000  1.0 0.5881977702
C  C157  1  0.04480000  0.37660000  0.82780000  1.0 -0.1584501982
C  C158  1  0.90140000  0.41900000  0.86680000  1.0 0.4487034591
C  C159  1  0.04650000  0.48990000  0.75830000  1.0 -0.027401563
C  C160  1  0.99620000  0.48380000  0.80080000  1.0 -0.1584501982
C  C161  1  0.09740000  0.44100000  0.74900000  1.0 -0.1098664975
C  C162  1  0.04860000  0.55280000  0.71760000  1.0 0.6141053648
C  C163  1  0.73620000  0.78380000  0.38560000  1.0 -0.0427548193
C  C164  1  0.74660000  0.83560000  0.42600000  1.0 0.2606705452
C  C165  1  0.74300000  0.77260000  0.33500000  1.0 0.5881977702
C  C166  1  0.75080000  0.82780000  0.37660000  1.0 -0.1584501982
C  C167  1  0.81280000  0.86680000  0.41900000  1.0 0.4487034591
C  C168  1  0.70530000  0.75830000  0.48990000  1.0 -0.027401563
C  C169  1  0.71920000  0.80080000  0.48380000  1.0 -0.1584501982
C  C170  1  0.71260000  0.74900000  0.44100000  1.0 -0.1098664975
C  C171  1  0.68100000  0.71760000  0.55280000  1.0 0.6141053648
C  C172  1  0.78380000  0.73620000  0.09440000  1.0 -0.0427548193
C  C173  1  0.83560000  0.74660000  0.99180000  1.0 0.2606705452
C  C174  1  0.77260000  0.74300000  0.14940000  1.0 0.5881977702
C  C175  1  0.82780000  0.75080000  0.04480000  1.0 -0.1584501982
C  C176  1  0.86680000  0.81280000  0.90140000  1.0 0.4487034591
C  C177  1  0.75830000  0.70530000  0.04650000  1.0 -0.027401563
C  C178  1  0.80080000  0.71920000  0.99620000  1.0 -0.1584501982
C  C179  1  0.74900000  0.71260000  0.09740000  1.0 -0.1098664975
C  C180  1  0.71760000  0.68100000  0.04860000  1.0 0.6141053648
C  C181  1  0.78380000  0.09440000  0.38560000  1.0 -0.0427548193
C  C182  1  0.83560000  0.99180000  0.42600000  1.0 0.2606705452
C  C183  1  0.77260000  0.14940000  0.33500000  1.0 0.5881977702
C  C184  1  0.82780000  0.04480000  0.37660000  1.0 -0.1584501982
C  C185  1  0.86680000  0.90140000  0.41900000  1.0 0.4487034591
C  C186  1  0.75830000  0.04650000  0.48990000  1.0 -0.027401563
C  C187  1  0.80080000  0.99620000  0.48380000  1.0 -0.1584501982
C  C188  1  0.74900000  0.09740000  0.44100000  1.0 -0.1098664975
C  C189  1  0.71760000  0.04860000  0.55280000  1.0 0.6141053648
C  C190  1  0.73620000  0.38560000  0.09440000  1.0 -0.0427548193
C  C191  1  0.74660000  0.42600000  0.99180000  1.0 0.2606705452
C  C192  1  0.74300000  0.33500000  0.14940000  1.0 0.5881977702
C  C193  1  0.75080000  0.37660000  0.04480000  1.0 -0.1584501982
C  C194  1  0.81280000  0.41900000  0.90140000  1.0 0.4487034591
C  C195  1  0.70530000  0.48990000  0.04650000  1.0 -0.027401563
C  C196  1  0.71920000  0.48380000  0.99620000  1.0 -0.1584501982
C  C197  1  0.71260000  0.44100000  0.09740000  1.0 -0.1098664975
C  C198  1  0.68100000  0.55280000  0.04860000  1.0 0.6141053648
C  C199  1  0.09440000  0.78380000  0.73620000  1.0 -0.0427548193
C  C200  1  0.99180000  0.83560000  0.74660000  1.0 0.2606705452
C  C201  1  0.14940000  0.77260000  0.74300000  1.0 0.5881977702
C  C202  1  0.04480000  0.82780000  0.75080000  1.0 -0.1584501982
C  C203  1  0.90140000  0.86680000  0.81280000  1.0 0.4487034591
C  C204  1  0.04650000  0.75830000  0.70530000  1.0 -0.027401563
C  C205  1  0.99620000  0.80080000  0.71920000  1.0 -0.1584501982
C  C206  1  0.09740000  0.74900000  0.71260000  1.0 -0.1098664975
C  C207  1  0.04860000  0.71760000  0.68100000  1.0 0.6141053648
C  C208  1  0.38560000  0.73620000  0.78380000  1.0 -0.0427548193
C  C209  1  0.42600000  0.74660000  0.83560000  1.0 0.2606705452
C  C210  1  0.33500000  0.74300000  0.77260000  1.0 0.5881977702
C  C211  1  0.37660000  0.75080000  0.82780000  1.0 -0.1584501982
C  C212  1  0.41900000  0.81280000  0.86680000  1.0 0.4487034591
C  C213  1  0.48990000  0.70530000  0.75830000  1.0 -0.027401563
C  C214  1  0.48380000  0.71920000  0.80080000  1.0 -0.1584501982
C  C215  1  0.44100000  0.71260000  0.74900000  1.0 -0.1098664975
C  C216  1  0.55280000  0.68100000  0.71760000  1.0 0.6141053648
N  N1  1  0.15220000  0.57760000  0.18500000  1.0 -0.4214079803
N  N2  1  0.18500000  0.08520000  0.15220000  1.0 -0.4214079803
N  N3  1  0.57760000  0.15220000  0.08520000  1.0 -0.4214079803
N  N4  1  0.08520000  0.18500000  0.57760000  1.0 -0.4214079803
N  N5  1  0.57760000  0.18500000  0.15220000  1.0 -0.4214079803
N  N6  1  0.08520000  0.15220000  0.18500000  1.0 -0.4214079803
N  N7  1  0.15220000  0.08520000  0.57760000  1.0 -0.4214079803
N  N8  1  0.18500000  0.57760000  0.08520000  1.0 -0.4214079803
N  N9  1  0.18500000  0.15220000  0.57760000  1.0 -0.4214079803
N  N10  1  0.15220000  0.18500000  0.08520000  1.0 -0.4214079803
N  N11  1  0.08520000  0.57760000  0.15220000  1.0 -0.4214079803
N  N12  1  0.57760000  0.08520000  0.18500000  1.0 -0.4214079803
N  N13  1  0.84780000  0.91480000  0.81500000  1.0 -0.4214079803
N  N14  1  0.81500000  0.42240000  0.84780000  1.0 -0.4214079803
N  N15  1  0.42240000  0.81500000  0.91480000  1.0 -0.4214079803
N  N16  1  0.91480000  0.84780000  0.42240000  1.0 -0.4214079803
N  N17  1  0.42240000  0.91480000  0.84780000  1.0 -0.4214079803
N  N18  1  0.91480000  0.42240000  0.81500000  1.0 -0.4214079803
N  N19  1  0.84780000  0.81500000  0.42240000  1.0 -0.4214079803
N  N20  1  0.81500000  0.84780000  0.91480000  1.0 -0.4214079803
N  N21  1  0.81500000  0.91480000  0.42240000  1.0 -0.4214079803
N  N22  1  0.84780000  0.42240000  0.91480000  1.0 -0.4214079803
N  N23  1  0.91480000  0.81500000  0.84780000  1.0 -0.4214079803
N  N24  1  0.42240000  0.84780000  0.81500000  1.0 -0.4214079803
O  O1  1  0.27580000  0.65940000  0.26340000  1.0 -0.5199811832
O  O2  1  0.24500000  0.57820000  0.11780000  1.0 -0.2327760602
O  O3  1  0.33424000  0.44376000  0.32184000  1.0 -0.5926089436
O  O4  1  0.23350000  0.71810000  0.19290000  1.0 -0.5763651059
O  O5  1  0.32450000  0.40070000  0.27790000  1.0 -0.6167667285
O  O6  1  0.26340000  0.80140000  0.27580000  1.0 -0.5199811832
O  O7  1  0.11780000  0.05900000  0.24500000  1.0 -0.2327760602
O  O8  1  0.32184000  0.90016000  0.33424000  1.0 -0.5926089436
O  O9  1  0.19290000  0.85550000  0.23350000  1.0 -0.5763651059
O  O10  1  0.27790000  0.99690000  0.32450000  1.0 -0.6167667285
O  O11  1  0.65940000  0.27580000  0.80140000  1.0 -0.5199811832
O  O12  1  0.57820000  0.24500000  0.05900000  1.0 -0.2327760602
O  O13  1  0.44376000  0.33424000  0.90016000  1.0 -0.5926089436
O  O14  1  0.71810000  0.23350000  0.85550000  1.0 -0.5763651059
O  O15  1  0.40070000  0.32450000  0.99690000  1.0 -0.6167667285
O  O16  1  0.80140000  0.26340000  0.65940000  1.0 -0.5199811832
O  O17  1  0.05900000  0.11780000  0.57820000  1.0 -0.2327760602
O  O18  1  0.90016000  0.32184000  0.44376000  1.0 -0.5926089436
O  O19  1  0.85550000  0.19290000  0.71810000  1.0 -0.5763651059
O  O20  1  0.99690000  0.27790000  0.40070000  1.0 -0.6167667285
O  O21  1  0.65940000  0.26340000  0.27580000  1.0 -0.5199811832
O  O22  1  0.57820000  0.11780000  0.24500000  1.0 -0.2327760602
O  O23  1  0.44376000  0.32184000  0.33424000  1.0 -0.5926089436
O  O24  1  0.71810000  0.19290000  0.23350000  1.0 -0.5763651059
O  O25  1  0.40070000  0.27790000  0.32450000  1.0 -0.6167667285
O  O26  1  0.80140000  0.27580000  0.26340000  1.0 -0.5199811832
O  O27  1  0.05900000  0.24500000  0.11780000  1.0 -0.2327760602
O  O28  1  0.90016000  0.33424000  0.32184000  1.0 -0.5926089436
O  O29  1  0.85550000  0.23350000  0.19290000  1.0 -0.5763651059
O  O30  1  0.99690000  0.32450000  0.27790000  1.0 -0.6167667285
O  O31  1  0.27580000  0.80140000  0.65940000  1.0 -0.5199811832
O  O32  1  0.24500000  0.05900000  0.57820000  1.0 -0.2327760602
O  O33  1  0.33424000  0.90016000  0.44376000  1.0 -0.5926089436
O  O34  1  0.23350000  0.85550000  0.71810000  1.0 -0.5763651059
O  O35  1  0.32450000  0.99690000  0.40070000  1.0 -0.6167667285
O  O36  1  0.26340000  0.65940000  0.80140000  1.0 -0.5199811832
O  O37  1  0.11780000  0.57820000  0.05900000  1.0 -0.2327760602
O  O38  1  0.32184000  0.44376000  0.90016000  1.0 -0.5926089436
O  O39  1  0.19290000  0.71810000  0.85550000  1.0 -0.5763651059
O  O40  1  0.27790000  0.40070000  0.99690000  1.0 -0.6167667285
O  O41  1  0.26340000  0.27580000  0.65940000  1.0 -0.5199811832
O  O42  1  0.11780000  0.24500000  0.57820000  1.0 -0.2327760602
O  O43  1  0.32184000  0.33424000  0.44376000  1.0 -0.5926089436
O  O44  1  0.19290000  0.23350000  0.71810000  1.0 -0.5763651059
O  O45  1  0.27790000  0.32450000  0.40070000  1.0 -0.6167667285
O  O46  1  0.27580000  0.26340000  0.80140000  1.0 -0.5199811832
O  O47  1  0.24500000  0.11780000  0.05900000  1.0 -0.2327760602
O  O48  1  0.33424000  0.32184000  0.90016000  1.0 -0.5926089436
O  O49  1  0.23350000  0.19290000  0.85550000  1.0 -0.5763651059
O  O50  1  0.32450000  0.27790000  0.99690000  1.0 -0.6167667285
O  O51  1  0.80140000  0.65940000  0.27580000  1.0 -0.5199811832
O  O52  1  0.05900000  0.57820000  0.24500000  1.0 -0.2327760602
O  O53  1  0.90016000  0.44376000  0.33424000  1.0 -0.5926089436
O  O54  1  0.85550000  0.71810000  0.23350000  1.0 -0.5763651059
O  O55  1  0.99690000  0.40070000  0.32450000  1.0 -0.6167667285
O  O56  1  0.65940000  0.80140000  0.26340000  1.0 -0.5199811832
O  O57  1  0.57820000  0.05900000  0.11780000  1.0 -0.2327760602
O  O58  1  0.44376000  0.90016000  0.32184000  1.0 -0.5926089436
O  O59  1  0.71810000  0.85550000  0.19290000  1.0 -0.5763651059
O  O60  1  0.40070000  0.99690000  0.27790000  1.0 -0.6167667285
O  O61  1  0.72420000  0.19860000  0.73660000  1.0 -0.5199811832
O  O62  1  0.75500000  0.94100000  0.88220000  1.0 -0.2327760602
O  O63  1  0.66576000  0.09984000  0.67816000  1.0 -0.5926089436
O  O64  1  0.76650000  0.14450000  0.80710000  1.0 -0.5763651059
O  O65  1  0.67550000  0.00310000  0.72210000  1.0 -0.6167667285
O  O66  1  0.73660000  0.34060000  0.72420000  1.0 -0.5199811832
O  O67  1  0.88220000  0.42180000  0.75500000  1.0 -0.2327760602
O  O68  1  0.67816000  0.55624000  0.66576000  1.0 -0.5926089436
O  O69  1  0.80710000  0.28190000  0.76650000  1.0 -0.5763651059
O  O70  1  0.72210000  0.59930000  0.67550000  1.0 -0.6167667285
O  O71  1  0.34060000  0.73660000  0.19860000  1.0 -0.5199811832
O  O72  1  0.42180000  0.88220000  0.94100000  1.0 -0.2327760602
O  O73  1  0.55624000  0.67816000  0.09984000  1.0 -0.5926089436
O  O74  1  0.28190000  0.80710000  0.14450000  1.0 -0.5763651059
O  O75  1  0.59930000  0.72210000  0.00310000  1.0 -0.6167667285
O  O76  1  0.19860000  0.72420000  0.34060000  1.0 -0.5199811832
O  O77  1  0.94100000  0.75500000  0.42180000  1.0 -0.2327760602
O  O78  1  0.09984000  0.66576000  0.55624000  1.0 -0.5926089436
O  O79  1  0.14450000  0.76650000  0.28190000  1.0 -0.5763651059
O  O80  1  0.00310000  0.67550000  0.59930000  1.0 -0.6167667285
O  O81  1  0.34060000  0.19860000  0.72420000  1.0 -0.5199811832
O  O82  1  0.42180000  0.94100000  0.75500000  1.0 -0.2327760602
O  O83  1  0.55624000  0.09984000  0.66576000  1.0 -0.5926089436
O  O84  1  0.28190000  0.14450000  0.76650000  1.0 -0.5763651059
O  O85  1  0.59930000  0.00310000  0.67550000  1.0 -0.6167667285
O  O86  1  0.19860000  0.34060000  0.73660000  1.0 -0.5199811832
O  O87  1  0.94100000  0.42180000  0.88220000  1.0 -0.2327760602
O  O88  1  0.09984000  0.55624000  0.67816000  1.0 -0.5926089436
O  O89  1  0.14450000  0.28190000  0.80710000  1.0 -0.5763651059
O  O90  1  0.00310000  0.59930000  0.72210000  1.0 -0.6167667285
O  O91  1  0.72420000  0.73660000  0.34060000  1.0 -0.5199811832
O  O92  1  0.75500000  0.88220000  0.42180000  1.0 -0.2327760602
O  O93  1  0.66576000  0.67816000  0.55624000  1.0 -0.5926089436
O  O94  1  0.76650000  0.80710000  0.28190000  1.0 -0.5763651059
O  O95  1  0.67550000  0.72210000  0.59930000  1.0 -0.6167667285
O  O96  1  0.73660000  0.72420000  0.19860000  1.0 -0.5199811832
O  O97  1  0.88220000  0.75500000  0.94100000  1.0 -0.2327760602
O  O98  1  0.67816000  0.66576000  0.09984000  1.0 -0.5926089436
O  O99  1  0.80710000  0.76650000  0.14450000  1.0 -0.5763651059
O  O100  1  0.72210000  0.67550000  0.00310000  1.0 -0.6167667285
O  O101  1  0.73660000  0.19860000  0.34060000  1.0 -0.5199811832
O  O102  1  0.88220000  0.94100000  0.42180000  1.0 -0.2327760602
O  O103  1  0.67816000  0.09984000  0.55624000  1.0 -0.5926089436
O  O104  1  0.80710000  0.14450000  0.28190000  1.0 -0.5763651059
O  O105  1  0.72210000  0.00310000  0.59930000  1.0 -0.6167667285
O  O106  1  0.72420000  0.34060000  0.19860000  1.0 -0.5199811832
O  O107  1  0.75500000  0.42180000  0.94100000  1.0 -0.2327760602
O  O108  1  0.66576000  0.55624000  0.09984000  1.0 -0.5926089436
O  O109  1  0.76650000  0.28190000  0.14450000  1.0 -0.5763651059
O  O110  1  0.67550000  0.59930000  0.00310000  1.0 -0.6167667285
O  O111  1  0.19860000  0.73660000  0.72420000  1.0 -0.5199811832
O  O112  1  0.94100000  0.88220000  0.75500000  1.0 -0.2327760602
O  O113  1  0.09984000  0.67816000  0.66576000  1.0 -0.5926089436
O  O114  1  0.14450000  0.80710000  0.76650000  1.0 -0.5763651059
O  O115  1  0.00310000  0.72210000  0.67550000  1.0 -0.6167667285
O  O116  1  0.34060000  0.72420000  0.73660000  1.0 -0.5199811832
O  O117  1  0.42180000  0.75500000  0.88220000  1.0 -0.2327760602
O  O118  1  0.55624000  0.66576000  0.67816000  1.0 -0.5926089436
O  O119  1  0.28190000  0.76650000  0.80710000  1.0 -0.5763651059
O  O120  1  0.59930000  0.67550000  0.72210000  1.0 -0.6167667285
