# DDEC6 charges by PACMAN v1.1 (https://github.com/mtap-research/PACMAN-charge/)
data_MISQIQ06_FSR_pacman
_symmetry_space_group_name_H-M   'P 1'
_cell_length_a   9.33760000
_cell_length_b   9.33760000
_cell_length_c   6.99100000
_cell_angle_alpha   90.00000000
_cell_angle_beta   90.00000000
_cell_angle_gamma   120.00000000
_symmetry_Int_Tables_number   1
_chemical_formula_structural   Al2PH2(O3F)2
_chemical_formula_sum   'Al6 P3 H6 O18 F6'
_cell_volume   527.88639054
_cell_formula_units_Z   3
loop_
 _symmetry_equiv_pos_site_id
 _symmetry_equiv_pos_as_xyz
  1  'x, y, z'
loop_
 _atom_site_type_symbol
 _atom_site_label
 _atom_site_symmetry_multiplicity
 _atom_site_fract_x
 _atom_site_fract_y
 _atom_site_fract_z
 _atom_site_occupancy
 _atom_site_charge
Al  Al1  1  0.47881000  0.83784000  0.94382000  1.0 1.8000314144
Al  Al2  1  0.16216000  0.64097000  0.27715000  1.0 1.8000314144
Al  Al3  1  0.35903000  0.52119000  0.61049000  1.0 1.8000314144
Al  Al4  1  0.83784000  0.47881000  0.05618000  1.0 1.8000314144
Al  Al5  1  0.64097000  0.16216000  0.72285000  1.0 1.8000314144
Al  Al6  1  0.52119000  0.35903000  0.38951000  1.0 1.8000314144
P  P1  1  0.55071000  0.55071000  0.00000000  1.0 1.5922821868
P  P2  1  0.44929000  0.00000000  0.33333333  1.0 1.5922821868
P  P3  1  0.00000000  0.44929000  0.66666667  1.0 1.5954578626
H  H1  1  0.19360000  0.64110000  0.95830000  1.0 0.4330167281
H  H2  1  0.35890000  0.55250000  0.29163000  1.0 0.4330167281
H  H3  1  0.44750000  0.80640000  0.62497000  1.0 0.4330167281
H  H4  1  0.64110000  0.19360000  0.04170000  1.0 0.4330167281
H  H5  1  0.55250000  0.35890000  0.70837000  1.0 0.4330167281
H  H6  1  0.80640000  0.44750000  0.37503000  1.0 0.4330167281
O  O1  1  0.27030000  0.69870000  0.04040000  1.0 -0.922329733
O  O2  1  0.30130000  0.57160000  0.37373000  1.0 -0.922329733
O  O3  1  0.42840000  0.72970000  0.70707000  1.0 -0.922329733
O  O4  1  0.69870000  0.27030000  0.95960000  1.0 -0.922329733
O  O5  1  0.57160000  0.30130000  0.62627000  1.0 -0.922329733
O  O6  1  0.72970000  0.42840000  0.29293000  1.0 -0.922329733
O  O7  1  0.57260000  0.72150000  0.04070000  1.0 -0.7925025714
O  O8  1  0.27850000  0.85110000  0.37403000  1.0 -0.7925025714
O  O9  1  0.14890000  0.42740000  0.70737000  1.0 -0.7925025714
O  O10  1  0.72150000  0.57260000  0.95930000  1.0 -0.7925025714
O  O11  1  0.85110000  0.27850000  0.62597000  1.0 -0.7925025714
O  O12  1  0.42740000  0.14890000  0.29263000  1.0 -0.7925025714
O  O13  1  0.43440000  0.46720000  0.83070000  1.0 -0.7819520327
O  O14  1  0.53280000  0.96720000  0.16403000  1.0 -0.7819520327
O  O15  1  0.03280000  0.56560000  0.49737000  1.0 -0.7819520327
O  O16  1  0.46720000  0.43440000  0.16930000  1.0 -0.7819520327
O  O17  1  0.96720000  0.53280000  0.83597000  1.0 -0.7819520327
O  O18  1  0.56560000  0.03280000  0.50263000  1.0 -0.7819520327
F  F1  1  0.68210000  0.00000000  0.83333000  1.0 -0.5170504344
F  F2  1  0.00000000  0.68210000  0.16667000  1.0 -0.5170504344
F  F3  1  0.31790000  0.31790000  0.50000000  1.0 -0.5170504344
F  F4  1  0.43190000  0.00000000  0.83333000  1.0 -0.5488179219
F  F5  1  0.00000000  0.43190000  0.16667000  1.0 -0.5488179219
F  F6  1  0.56810000  0.56810000  0.50000000  1.0 -0.5488179219
