# DDEC6 charges by PACMAN v1.1 (https://github.com/mtap-research/PACMAN-charge/)
data_MISQIQ01_ASR_pacman
_symmetry_space_group_name_H-M   'P 1'
_cell_length_a   9.34110000
_cell_length_b   9.34110000
_cell_length_c   6.99320000
_cell_angle_alpha   90.00000000
_cell_angle_beta   90.00000000
_cell_angle_gamma   120.00000000
_symmetry_Int_Tables_number   1
_chemical_formula_structural   Al2PH2(O3F)2
_chemical_formula_sum   'Al6 P3 H6 O18 F6'
_cell_volume   528.44844388
_cell_formula_units_Z   3
loop_
 _symmetry_equiv_pos_site_id
 _symmetry_equiv_pos_as_xyz
  1  'x, y, z'
loop_
 _atom_site_type_symbol
 _atom_site_label
 _atom_site_symmetry_multiplicity
 _atom_site_fract_x
 _atom_site_fract_y
 _atom_site_fract_z
 _atom_site_occupancy
 _atom_site_charge
Al  Al1  1  0.64075000  0.16199000  0.22307000  1.0 1.7946143693
Al  Al2  1  0.83801000  0.47876000  0.55640000  1.0 1.7946143693
Al  Al3  1  0.52124000  0.35925000  0.88974000  1.0 1.7946143693
Al  Al4  1  0.16199000  0.64075000  0.77693000  1.0 1.7946143693
Al  Al5  1  0.47876000  0.83801000  0.44360000  1.0 1.7946143693
Al  Al6  1  0.35925000  0.52124000  0.11026000  1.0 1.7946143693
P  P1  1  0.00000000  0.44936000  0.16667000  1.0 1.599352414
P  P2  1  0.55064000  0.55064000  0.50000000  1.0 1.599352414
P  P3  1  0.44936000  0.00000000  0.83333000  1.0 1.599352414
H  H1  1  0.55350000  0.36790000  0.19820000  1.0 0.4336505727
H  H2  1  0.63210000  0.18560000  0.53153000  1.0 0.4336505727
H  H3  1  0.81440000  0.44650000  0.86487000  1.0 0.4336505727
H  H4  1  0.36790000  0.55350000  0.80180000  1.0 0.4336505727
H  H5  1  0.18560000  0.63210000  0.46847000  1.0 0.4336505727
H  H6  1  0.44650000  0.81440000  0.13513000  1.0 0.4336505727
O  O1  1  0.57110000  0.30140000  0.12710000  1.0 -0.926539486
O  O2  1  0.69860000  0.26970000  0.46043000  1.0 -0.926539486
O  O3  1  0.73030000  0.42890000  0.79377000  1.0 -0.926539486
O  O4  1  0.30140000  0.57110000  0.87290000  1.0 -0.926539486
O  O5  1  0.26970000  0.69860000  0.53957000  1.0 -0.926539486
O  O6  1  0.42890000  0.73030000  0.20623000  1.0 -0.926539486
O  O7  1  0.85150000  0.27850000  0.12600000  1.0 -0.7912638241
O  O8  1  0.72150000  0.57300000  0.45933000  1.0 -0.7912638241
O  O9  1  0.42700000  0.14850000  0.79267000  1.0 -0.7912638241
O  O10  1  0.27850000  0.85150000  0.87400000  1.0 -0.7912638241
O  O11  1  0.57300000  0.72150000  0.54067000  1.0 -0.7912638241
O  O12  1  0.14850000  0.42700000  0.20733000  1.0 -0.7912638241
O  O13  1  0.03290000  0.56560000  0.99700000  1.0 -0.7825116469
O  O14  1  0.43440000  0.46730000  0.33033000  1.0 -0.7825116469
O  O15  1  0.53270000  0.96710000  0.66367000  1.0 -0.7825116469
O  O16  1  0.56560000  0.03290000  0.00300000  1.0 -0.7825116469
O  O17  1  0.46730000  0.43440000  0.66967000  1.0 -0.7825116469
O  O18  1  0.96710000  0.53270000  0.33633000  1.0 -0.7825116469
F  F1  1  0.68220000  0.00000000  0.33333333  1.0 -0.5121185634
F  F2  1  0.00000000  0.68220000  0.66666667  1.0 -0.5121185634
F  F3  1  0.31780000  0.31780000  0.00000000  1.0 -0.5121185634
F  F4  1  0.43170000  0.00000000  0.33333333  1.0 -0.5431338204
F  F5  1  0.00000000  0.43170000  0.66666667  1.0 -0.5431338204
F  F6  1  0.56830000  0.56830000  0.00000000  1.0 -0.5431338204
