# DDEC6 charges by PACMAN v1.1 (https://github.com/mtap-research/PACMAN-charge/)
data_MISQIQ02_ASR_pacman
_symmetry_space_group_name_H-M   'P 1'
_cell_length_a   9.33920000
_cell_length_b   9.33920000
_cell_length_c   6.99420000
_cell_angle_alpha   90.00000000
_cell_angle_beta   90.00000000
_cell_angle_gamma   120.00000000
_symmetry_Int_Tables_number   1
_chemical_formula_structural   Al2PH2(O3F)2
_chemical_formula_sum   'Al6 P3 H6 O18 F6'
_cell_volume   528.30902593
_cell_formula_units_Z   3
loop_
 _symmetry_equiv_pos_site_id
 _symmetry_equiv_pos_as_xyz
  1  'x, y, z'
loop_
 _atom_site_type_symbol
 _atom_site_label
 _atom_site_symmetry_multiplicity
 _atom_site_fract_x
 _atom_site_fract_y
 _atom_site_fract_z
 _atom_site_occupancy
 _atom_site_charge
Al  Al1  1  0.64088000  0.16199000  0.22298000  1.0 1.8023466941
Al  Al2  1  0.83801000  0.47889000  0.55631000  1.0 1.8023466941
Al  Al3  1  0.52111000  0.35912000  0.88965000  1.0 1.8023466941
Al  Al4  1  0.16199000  0.64088000  0.77702000  1.0 1.8023466941
Al  Al5  1  0.47889000  0.83801000  0.44369000  1.0 1.8023466941
Al  Al6  1  0.35912000  0.52111000  0.11035000  1.0 1.8023466941
P  P1  1  0.00000000  0.44942000  0.16667000  1.0 1.612778711
P  P2  1  0.55058000  0.55058000  0.50000000  1.0 1.612778711
P  P3  1  0.44942000  0.00000000  0.83333000  1.0 1.612778711
H  H1  1  0.53670000  0.35100000  0.20930000  1.0 0.4324187117
H  H2  1  0.64900000  0.18570000  0.54263000  1.0 0.4324187117
H  H3  1  0.81430000  0.46330000  0.87597000  1.0 0.4324187117
H  H4  1  0.35100000  0.53670000  0.79070000  1.0 0.4324187117
H  H5  1  0.18570000  0.64900000  0.45737000  1.0 0.4324187117
H  H6  1  0.46330000  0.81430000  0.12403000  1.0 0.4324187117
O  O1  1  0.85150000  0.27840000  0.12600000  1.0 -0.791964573
O  O2  1  0.72160000  0.57310000  0.45933000  1.0 -0.791964573
O  O3  1  0.42690000  0.14850000  0.79267000  1.0 -0.791964573
O  O4  1  0.27840000  0.85150000  0.87400000  1.0 -0.791964573
O  O5  1  0.57310000  0.72160000  0.54067000  1.0 -0.791964573
O  O6  1  0.14850000  0.42690000  0.20733000  1.0 -0.791964573
O  O7  1  0.96730000  0.53317000  0.33640000  1.0 -0.7843172971
O  O8  1  0.46683000  0.43413000  0.66973000  1.0 -0.7843172971
O  O9  1  0.56587000  0.03270000  0.00307000  1.0 -0.7843172971
O  O10  1  0.53317000  0.96730000  0.66360000  1.0 -0.7843172971
O  O11  1  0.43413000  0.46683000  0.33027000  1.0 -0.7843172971
O  O12  1  0.03270000  0.56587000  0.99693000  1.0 -0.7843172971
O  O13  1  0.57110000  0.30130000  0.12680000  1.0 -0.9301750782
O  O14  1  0.69870000  0.26980000  0.46013000  1.0 -0.9301750782
O  O15  1  0.73020000  0.42890000  0.79347000  1.0 -0.9301750782
O  O16  1  0.30130000  0.57110000  0.87320000  1.0 -0.9301750782
O  O17  1  0.26980000  0.69870000  0.53987000  1.0 -0.9301750782
O  O18  1  0.42890000  0.73020000  0.20653000  1.0 -0.9301750782
F  F1  1  0.68220000  0.00000000  0.33333333  1.0 -0.5190772934
F  F2  1  0.00000000  0.68220000  0.66666667  1.0 -0.5190772934
F  F3  1  0.31780000  0.31780000  0.00000000  1.0 -0.5190772934
F  F4  1  0.43160000  0.00000000  0.33333333  1.0 -0.5503183328
F  F5  1  0.00000000  0.43160000  0.66666667  1.0 -0.5503183328
F  F6  1  0.56840000  0.56840000  0.00000000  1.0 -0.5503183328
