# DDEC6 charges by PACMAN v1.1 (https://github.com/mtap-research/PACMAN-charge/)
data_MISQIQ03_FSR_pacman
_symmetry_space_group_name_H-M   'P 1'
_cell_length_a   9.36200000
_cell_length_b   9.36200000
_cell_length_c   7.00400000
_cell_angle_alpha   90.00000000
_cell_angle_beta   90.00000000
_cell_angle_gamma   120.00000000
_symmetry_Int_Tables_number   1
_chemical_formula_structural   Al2PH2(O3F)2
_chemical_formula_sum   'Al6 P3 H6 O18 F6'
_cell_volume   531.63558496
_cell_formula_units_Z   3
loop_
 _symmetry_equiv_pos_site_id
 _symmetry_equiv_pos_as_xyz
  1  'x, y, z'
loop_
 _atom_site_type_symbol
 _atom_site_label
 _atom_site_symmetry_multiplicity
 _atom_site_fract_x
 _atom_site_fract_y
 _atom_site_fract_z
 _atom_site_occupancy
 _atom_site_charge
Al  Al1  1  0.16200000  0.52099000  0.05633000  1.0 1.8063181272
Al  Al2  1  0.47901000  0.64101000  0.38966000  1.0 1.8063181272
Al  Al3  1  0.35899000  0.83800000  0.72300000  1.0 1.8063181272
Al  Al4  1  0.52099000  0.16200000  0.94367000  1.0 1.8063181272
Al  Al5  1  0.64101000  0.47901000  0.61034000  1.0 1.8063181272
Al  Al6  1  0.83800000  0.35899000  0.27700000  1.0 1.8063181272
P  P1  1  0.44934000  0.44934000  0.00000000  1.0 1.609583818
P  P2  1  0.55066000  0.00000000  0.33333333  1.0 1.609583818
P  P3  1  0.00000000  0.55066000  0.66666667  1.0 1.609583818
H  H1  1  0.34570000  0.81220000  0.06210000  1.0 0.432725065
H  H2  1  0.18780000  0.53350000  0.39543000  1.0 0.432725065
H  H3  1  0.46650000  0.65430000  0.72877000  1.0 0.432725065
H  H4  1  0.81220000  0.34570000  0.93790000  1.0 0.432725065
H  H5  1  0.53350000  0.18780000  0.60457000  1.0 0.432725065
H  H6  1  0.65430000  0.46650000  0.27123000  1.0 0.432725065
O  O1  1  0.30150000  0.73000000  0.96020000  1.0 -0.9328640172
O  O2  1  0.27000000  0.57150000  0.29353000  1.0 -0.9328640172
O  O3  1  0.42850000  0.69850000  0.62687000  1.0 -0.9328640172
O  O4  1  0.73000000  0.30150000  0.03980000  1.0 -0.9328640172
O  O5  1  0.57150000  0.27000000  0.70647000  1.0 -0.9328640172
O  O6  1  0.69850000  0.42850000  0.37313000  1.0 -0.9328640172
O  O7  1  0.27850000  0.42720000  0.95920000  1.0 -0.7917123208
O  O8  1  0.57280000  0.85130000  0.29253000  1.0 -0.7917123208
O  O9  1  0.14870000  0.72150000  0.62587000  1.0 -0.7917123208
O  O10  1  0.42720000  0.27850000  0.04080000  1.0 -0.7917123208
O  O11  1  0.85130000  0.57280000  0.70747000  1.0 -0.7917123208
O  O12  1  0.72150000  0.14870000  0.37413000  1.0 -0.7917123208
O  O13  1  0.53280000  0.56530000  0.16940000  1.0 -0.7811256418
O  O14  1  0.43470000  0.96750000  0.50273000  1.0 -0.7811256418
O  O15  1  0.03250000  0.46720000  0.83607000  1.0 -0.7811256418
O  O16  1  0.56530000  0.53280000  0.83060000  1.0 -0.7811256418
O  O17  1  0.96750000  0.43470000  0.49727000  1.0 -0.7811256418
O  O18  1  0.46720000  0.03250000  0.16393000  1.0 -0.7811256418
F  F1  1  0.00000000  0.31780000  0.16667000  1.0 -0.5213464865
F  F2  1  0.68220000  0.68220000  0.50000000  1.0 -0.5213464865
F  F3  1  0.31780000  0.00000000  0.83333000  1.0 -0.5213464865
F  F4  1  0.00000000  0.56860000  0.16667000  1.0 -0.5550434956
F  F5  1  0.43140000  0.43140000  0.50000000  1.0 -0.5546722779
F  F6  1  0.56860000  0.00000000  0.83333000  1.0 -0.5550434956
