# DDEC6 charges by PACMAN v1.1 (https://github.com/mtap-research/PACMAN-charge/)
data_MISQIQ04_ASR_pacman
_symmetry_space_group_name_H-M   'P 1'
_cell_length_a   9.34250000
_cell_length_b   9.34250000
_cell_length_c   6.99400000
_cell_angle_alpha   90.00000000
_cell_angle_beta   90.00000000
_cell_angle_gamma   120.00000000
_symmetry_Int_Tables_number   1
_chemical_formula_structural   Al2PH2(O3F)2
_chemical_formula_sum   'Al6 P3 H6 O18 F6'
_cell_volume   528.66732943
_cell_formula_units_Z   3
loop_
 _symmetry_equiv_pos_site_id
 _symmetry_equiv_pos_as_xyz
  1  'x, y, z'
loop_
 _atom_site_type_symbol
 _atom_site_label
 _atom_site_symmetry_multiplicity
 _atom_site_fract_x
 _atom_site_fract_y
 _atom_site_fract_z
 _atom_site_occupancy
 _atom_site_charge
Al  Al1  1  0.16218000  0.52118000  0.05622000  1.0 1.8028117327
Al  Al2  1  0.47882000  0.64100000  0.38955000  1.0 1.8028117327
Al  Al3  1  0.35900000  0.83782000  0.72289000  1.0 1.8028117327
Al  Al4  1  0.52118000  0.16218000  0.94378000  1.0 1.8028117327
Al  Al5  1  0.64100000  0.47882000  0.61045000  1.0 1.8028117327
Al  Al6  1  0.83782000  0.35900000  0.27711000  1.0 1.8028117327
P  P1  1  0.44940000  0.44940000  0.00000000  1.0 1.6110619612
P  P2  1  0.55060000  0.00000000  0.33333333  1.0 1.6110619612
P  P3  1  0.00000000  0.55060000  0.66666667  1.0 1.6110619612
H  H1  1  0.35770000  0.82060000  0.05120000  1.0 0.4302086142
H  H2  1  0.17940000  0.53710000  0.38453000  1.0 0.4302086142
H  H3  1  0.46290000  0.64230000  0.71787000  1.0 0.4302086142
H  H4  1  0.82060000  0.35770000  0.94880000  1.0 0.4302086142
H  H5  1  0.53710000  0.17940000  0.61547000  1.0 0.4302086142
H  H6  1  0.64230000  0.46290000  0.28213000  1.0 0.4302086142
O  O1  1  0.30140000  0.73033000  0.96030000  1.0 -0.9306530647
O  O2  1  0.26967000  0.57107000  0.29363000  1.0 -0.9306530647
O  O3  1  0.42893000  0.69860000  0.62697000  1.0 -0.9306530647
O  O4  1  0.73033000  0.30140000  0.03970000  1.0 -0.9306530647
O  O5  1  0.57107000  0.26967000  0.70637000  1.0 -0.9306530647
O  O6  1  0.69860000  0.42893000  0.37303000  1.0 -0.9306530647
O  O7  1  0.27840000  0.42700000  0.95950000  1.0 -0.7889756255
O  O8  1  0.57300000  0.85140000  0.29283000  1.0 -0.7889756255
O  O9  1  0.14860000  0.72160000  0.62617000  1.0 -0.7889756255
O  O10  1  0.42700000  0.27840000  0.04050000  1.0 -0.7889756255
O  O11  1  0.85140000  0.57300000  0.70717000  1.0 -0.7889756255
O  O12  1  0.72160000  0.14860000  0.37383000  1.0 -0.7889756255
O  O13  1  0.53314000  0.56580000  0.16960000  1.0 -0.7827367974
O  O14  1  0.43420000  0.96734000  0.50293000  1.0 -0.7827367974
O  O15  1  0.03266000  0.46686000  0.83627000  1.0 -0.7827367974
O  O16  1  0.56580000  0.53314000  0.83040000  1.0 -0.7827367974
O  O17  1  0.96734000  0.43420000  0.49707000  1.0 -0.7827367974
O  O18  1  0.46686000  0.03266000  0.16373000  1.0 -0.7827367974
F  F1  1  0.00000000  0.31790000  0.16667000  1.0 -0.520861456
F  F2  1  0.68210000  0.68210000  0.50000000  1.0 -0.520861456
F  F3  1  0.31790000  0.00000000  0.83333000  1.0 -0.520861456
F  F4  1  0.00000000  0.56830000  0.16667000  1.0 -0.551510224
F  F5  1  0.43170000  0.43170000  0.50000000  1.0 -0.551510224
F  F6  1  0.56830000  0.00000000  0.83333000  1.0 -0.551510224
