# DDEC6 charges by PACMAN v1.1 (https://github.com/mtap-research/PACMAN-charge/)
data_MITPAJ_FSR_pacman
_symmetry_space_group_name_H-M   'P 1'
_cell_length_a   9.05400000
_cell_length_b   9.52100000
_cell_length_c   12.52200000
_cell_angle_alpha   97.55300000
_cell_angle_beta   92.72300000
_cell_angle_gamma   101.88100000
_symmetry_Int_Tables_number   1
_chemical_formula_structural   CuH17C13SN2O7
_chemical_formula_sum   'Cu2 H34 C26 S2 N4 O14'
_cell_volume   1044.04811581
_cell_formula_units_Z   2
loop_
 _symmetry_equiv_pos_site_id
 _symmetry_equiv_pos_as_xyz
  1  'x, y, z'
loop_
 _atom_site_type_symbol
 _atom_site_label
 _atom_site_symmetry_multiplicity
 _atom_site_fract_x
 _atom_site_fract_y
 _atom_site_fract_z
 _atom_site_occupancy
 _atom_site_charge
Cu  Cu1  1  0.00000000  0.00000000  0.00000000  1.0 0.9832945734
Cu  Cu2  1  0.50000000  0.00000000  0.00000000  1.0 0.8546933799
H  H1  1  0.69450000  0.28940000  0.07670000  1.0 0.1149770587
H  H2  1  0.66980000  0.42630000  0.81970000  1.0 0.1392273263
H  H3  1  0.60800000  0.55250000  0.88320000  1.0 0.1392273263
H  H4  1  0.51090000  0.39360000  0.86670000  1.0 0.1326825456
H  H5  1  0.80710000  0.53510000  0.10810000  1.0 0.1326825456
H  H6  1  0.75960000  0.63580000  0.02920000  1.0 0.1472782015
H  H7  1  0.88800000  0.55200000  0.00110000  1.0 0.1472782015
H  H8  1  0.77090000  0.02130000  0.84540000  1.0 0.1025129377
H  H9  1  0.61060000  0.04630000  0.71390000  1.0 0.1392273263
H  H10  1  0.69990000  0.08380000  0.61350000  1.0 0.1392273263
H  H11  1  0.62910000  0.20130000  0.68000000  1.0 0.1392273263
H  H12  1  0.89660000  0.38070000  0.75480000  1.0 0.1472782015
H  H13  1  0.93410000  0.28440000  0.65250000  1.0 0.1326825456
H  H14  1  0.02470000  0.29340000  0.76390000  1.0 0.1326825456
H  H15  1  0.66210000  0.86760000  0.28490000  1.0 0.1326825456
H  H16  1  0.77830000  0.84630000  0.44770000  1.0 0.1227210134
H  H17  1  0.11540000  0.17560000  0.41220000  1.0 0.1227210134
H  H18  1  0.30550000  0.71060000  0.92330000  1.0 0.1149770587
H  H19  1  0.33020000  0.57370000  0.18030000  1.0 0.1392273263
H  H20  1  0.39200000  0.44750000  0.11680000  1.0 0.1392273263
H  H21  1  0.48910000  0.60640000  0.13330000  1.0 0.1326825456
H  H22  1  0.19290000  0.46490000  0.89190000  1.0 0.1326825456
H  H23  1  0.24040000  0.36420000  0.97080000  1.0 0.1472782015
H  H24  1  0.11200000  0.44800000  0.99890000  1.0 0.1472782015
H  H25  1  0.22910000  0.97870000  0.15460000  1.0 0.1025129377
H  H26  1  0.38940000  0.95370000  0.28610000  1.0 0.1392273263
H  H27  1  0.30010000  0.91620000  0.38650000  1.0 0.1392273263
H  H28  1  0.37090000  0.79870000  0.32000000  1.0 0.1392273263
H  H29  1  0.10340000  0.61930000  0.24520000  1.0 0.1472782015
H  H30  1  0.06590000  0.71560000  0.34750000  1.0 0.1392273263
H  H31  1  0.97530000  0.70660000  0.23610000  1.0 0.1326825456
H  H32  1  0.33790000  0.13240000  0.71510000  1.0 0.1326825456
H  H33  1  0.22170000  0.15370000  0.55230000  1.0 0.1227210134
H  H34  1  0.88460000  0.82440000  0.58780000  1.0 0.1227210134
C  C1  1  0.64590000  0.30080000  0.01220000  1.0 0.3016755253
C  C2  1  0.61190000  0.45190000  0.87860000  1.0 -0.3214225874
C  C3  1  0.79350000  0.54750000  0.03360000  1.0 -0.3214225874
C  C4  1  0.84510000  0.10010000  0.83370000  1.0 0.3016755253
C  C5  1  0.67720000  0.12110000  0.68440000  1.0 -0.3296442435
C  C6  1  0.92750000  0.29240000  0.72920000  1.0 -0.3296442435
C  C7  1  0.73820000  0.03170000  0.13970000  1.0 0.5799009471
C  C8  1  0.82030000  0.03120000  0.24660000  1.0 -0.0206184678
C  C9  1  0.75470000  0.92900000  0.30930000  1.0 -0.1024519086
C  C10  1  0.82420000  0.91650000  0.40770000  1.0 -0.1486412317
C  C11  1  0.96110000  0.00730000  0.44700000  1.0 0.0724024891
C  C12  1  0.02500000  0.11180000  0.38600000  1.0 -0.1553507552
C  C13  1  0.95710000  0.12400000  0.28610000  1.0 -0.1024519086
C  C14  1  0.35410000  0.69920000  0.98780000  1.0 0.3016755253
C  C15  1  0.38810000  0.54810000  0.12140000  1.0 -0.3214225874
C  C16  1  0.20650000  0.45250000  0.96640000  1.0 -0.3214225874
C  C17  1  0.15490000  0.89990000  0.16630000  1.0 0.3016755253
C  C18  1  0.32280000  0.87890000  0.31560000  1.0 -0.3296442435
C  C19  1  0.07250000  0.70760000  0.27080000  1.0 -0.3296442435
C  C20  1  0.26180000  0.96830000  0.86030000  1.0 0.5799009471
C  C21  1  0.17970000  0.96880000  0.75340000  1.0 -0.0206184678
C  C22  1  0.24530000  0.07100000  0.69070000  1.0 -0.1024519086
C  C23  1  0.17580000  0.08350000  0.59230000  1.0 -0.1486412317
C  C24  1  0.03890000  0.99270000  0.55300000  1.0 0.0724024891
C  C25  1  0.97500000  0.88820000  0.61400000  1.0 -0.1553507552
C  C26  1  0.04290000  0.87600000  0.71390000  1.0 -0.1024519086
S  S1  1  0.04584000  0.26317000  0.21399000  1.0 1.1614183455
S  S2  1  0.95416000  0.73683000  0.78601000  1.0 1.1614183455
N  N1  1  0.68220000  0.42670000  0.97810000  1.0 0.0355630338
N  N2  1  0.81750000  0.16980000  0.75410000  1.0 0.026598199
N  N3  1  0.31780000  0.57330000  0.02190000  1.0 0.0355630338
N  N4  1  0.18250000  0.83020000  0.24590000  1.0 0.026598199
O  O1  1  0.79290000  0.00700000  0.05170000  1.0 -0.5621409446
O  O2  1  0.60430000  0.05060000  0.14370000  1.0 -0.5104344816
O  O3  1  0.55170000  0.19670000  0.96470000  1.0 -0.4492096931
O  O4  1  0.96230000  0.13110000  0.89460000  1.0 -0.4492096931
O  O5  1  0.11330000  0.18960000  0.12540000  1.0 -0.6635446877
O  O6  1  0.15840000  0.36070000  0.28990000  1.0 -0.5998144925
O  O7  1  0.92580000  0.32790000  0.17730000  1.0 -0.5998144925
O  O8  1  0.20710000  0.99300000  0.94830000  1.0 -0.5621409446
O  O9  1  0.39570000  0.94940000  0.85630000  1.0 -0.5104344816
O  O10  1  0.44830000  0.80330000  0.03530000  1.0 -0.4492096931
O  O11  1  0.03770000  0.86890000  0.10540000  1.0 -0.4492096931
O  O12  1  0.88670000  0.81040000  0.87460000  1.0 -0.6635446877
O  O13  1  0.84160000  0.63930000  0.71010000  1.0 -0.5998144925
O  O14  1  0.07420000  0.67210000  0.82270000  1.0 -0.5998144925
