# DDEC6 charges by PACMAN v1.1 (https://github.com/mtap-research/PACMAN-charge/)
data_MIVKIO_ASR_pacman
_symmetry_space_group_name_H-M   'P 1'
_cell_length_a   15.24570000
_cell_length_b   15.24570000
_cell_length_c   30.50990000
_cell_angle_alpha   90.00000000
_cell_angle_beta   90.00000000
_cell_angle_gamma   127.35700000
_symmetry_Int_Tables_number   1
_chemical_formula_structural   CoH30C33N3O4
_chemical_formula_sum   'Co8 H240 C264 N24 O32'
_cell_volume   5636.78868038
_cell_formula_units_Z   8
loop_
 _symmetry_equiv_pos_site_id
 _symmetry_equiv_pos_as_xyz
  1  'x, y, z'
loop_
 _atom_site_type_symbol
 _atom_site_label
 _atom_site_symmetry_multiplicity
 _atom_site_fract_x
 _atom_site_fract_y
 _atom_site_fract_z
 _atom_site_occupancy
 _atom_site_charge
Co  Co1  1  0.93317000  0.38953000  0.33186000  1.0 0.8301513468
Co  Co2  1  0.06683000  0.61047000  0.33186000  1.0 0.8301513468
Co  Co3  1  0.61047000  0.06683000  0.66814000  1.0 0.8301513468
Co  Co4  1  0.38953000  0.93317000  0.66814000  1.0 0.8301513468
Co  Co5  1  0.56683000  0.11047000  0.16814000  1.0 0.8301513468
Co  Co6  1  0.43317000  0.88953000  0.16814000  1.0 0.8301513468
Co  Co7  1  0.88953000  0.43317000  0.83186000  1.0 0.8301513468
Co  Co8  1  0.11047000  0.56683000  0.83186000  1.0 0.8301513468
H  H1  1  0.86100000  0.20000000  0.39210000  1.0 0.1002615822
H  H2  1  0.76020000  0.00960000  0.39080000  1.0 0.1202583884
H  H3  1  0.71710000  0.01630000  0.26030000  1.0 0.1110306876
H  H4  1  0.81670000  0.20510000  0.26510000  1.0 0.1110306876
H  H5  1  0.89040000  0.33260000  0.19060000  1.0 0.1110306876
H  H6  1  0.88750000  0.33290000  0.11400000  1.0 0.1110306876
H  H7  1  0.83580000  0.37600000  0.05000000  1.0 0.1110306876
H  H8  1  0.83470000  0.37890000  0.97310000  1.0 0.1110306876
H  H9  1  0.81680000  0.65200000  0.36520000  1.0 0.1002615822
H  H10  1  0.66620000  0.65820000  0.37080000  1.0 0.0808159579
H  H11  1  0.46520000  0.34700000  0.32450000  1.0 0.0808159579
H  H12  1  0.61000000  0.33760000  0.32230000  1.0 0.0902790473
H  H13  1  0.84370000  0.91750000  0.27660000  1.0 0.0808159579
H  H14  1  0.58020000  0.81960000  0.25560000  1.0 0.1442749475
H  H15  1  0.67600000  0.83620000  0.33310000  1.0 0.0902790473
H  H16  1  0.57560000  0.84100000  0.32710000  1.0 0.0902790473
H  H17  1  0.48190000  0.62650000  0.22910000  1.0 0.0902790473
H  H18  1  0.51480000  0.60140000  0.18360000  1.0 0.0902790473
H  H19  1  0.53160000  0.71480000  0.19010000  1.0 0.1110306876
H  H20  1  0.78280000  0.60660000  0.29740000  1.0 0.1002615822
H  H21  1  0.63530000  0.61310000  0.30010000  1.0 0.1002615822
H  H22  1  0.47910000  0.35770000  0.38570000  1.0 0.0902790473
H  H23  1  0.62590000  0.34530000  0.37860000  1.0 0.1002615822
H  H24  1  0.52210000  0.69630000  0.21390000  1.0 0.0902790473
H  H25  1  0.46970000  0.60330000  0.25110000  1.0 0.0902790473
H  H26  1  0.50620000  0.58400000  0.20520000  1.0 0.0902790473
H  H27  1  0.56290000  0.79050000  0.27940000  1.0 0.1510722883
H  H28  1  0.81670000  0.85270000  0.32190000  1.0 0.1002615822
H  H29  1  0.68810000  0.84410000  0.35490000  1.0 0.0694891444
H  H30  1  0.58020000  0.83980000  0.35190000  1.0 0.0808159579
H  H31  1  0.13900000  0.80000000  0.39210000  1.0 0.1002615822
H  H32  1  0.23980000  0.99040000  0.39080000  1.0 0.1202583884
H  H33  1  0.28290000  0.98370000  0.26030000  1.0 0.1110306876
H  H34  1  0.18330000  0.79490000  0.26510000  1.0 0.1110306876
H  H35  1  0.10960000  0.66740000  0.19060000  1.0 0.1110306876
H  H36  1  0.11250000  0.66710000  0.11400000  1.0 0.1110306876
H  H37  1  0.16420000  0.62400000  0.05000000  1.0 0.1110306876
H  H38  1  0.16530000  0.62110000  0.97310000  1.0 0.1110306876
H  H39  1  0.18320000  0.34800000  0.36520000  1.0 0.1002615822
H  H40  1  0.33380000  0.34180000  0.37080000  1.0 0.0808159579
H  H41  1  0.53480000  0.65300000  0.32450000  1.0 0.0808159579
H  H42  1  0.39000000  0.66240000  0.32230000  1.0 0.0902790473
H  H43  1  0.15630000  0.08250000  0.27660000  1.0 0.0808159579
H  H44  1  0.41980000  0.18040000  0.25560000  1.0 0.1442749475
H  H45  1  0.32400000  0.16380000  0.33310000  1.0 0.0902790473
H  H46  1  0.42440000  0.15900000  0.32710000  1.0 0.0902790473
H  H47  1  0.51810000  0.37350000  0.22910000  1.0 0.0902790473
H  H48  1  0.48520000  0.39860000  0.18360000  1.0 0.0902790473
H  H49  1  0.46840000  0.28520000  0.19010000  1.0 0.1110306876
H  H50  1  0.21720000  0.39340000  0.29740000  1.0 0.1002615822
H  H51  1  0.36470000  0.38690000  0.30010000  1.0 0.1002615822
H  H52  1  0.52090000  0.64230000  0.38570000  1.0 0.0902790473
H  H53  1  0.37410000  0.65470000  0.37860000  1.0 0.1002615822
H  H54  1  0.47790000  0.30370000  0.21390000  1.0 0.0902790473
H  H55  1  0.53030000  0.39670000  0.25110000  1.0 0.0902790473
H  H56  1  0.49380000  0.41600000  0.20520000  1.0 0.0902790473
H  H57  1  0.43710000  0.20950000  0.27940000  1.0 0.1510722883
H  H58  1  0.18330000  0.14730000  0.32190000  1.0 0.1002615822
H  H59  1  0.31190000  0.15590000  0.35490000  1.0 0.0694891444
H  H60  1  0.41980000  0.16020000  0.35190000  1.0 0.0808159579
H  H61  1  0.80000000  0.13900000  0.60790000  1.0 0.1002615822
H  H62  1  0.99040000  0.23980000  0.60920000  1.0 0.1202583884
H  H63  1  0.98370000  0.28290000  0.73970000  1.0 0.1110306876
H  H64  1  0.79490000  0.18330000  0.73490000  1.0 0.1110306876
H  H65  1  0.66740000  0.10960000  0.80940000  1.0 0.1110306876
H  H66  1  0.66710000  0.11250000  0.88600000  1.0 0.1110306876
H  H67  1  0.62400000  0.16420000  0.95000000  1.0 0.1110306876
H  H68  1  0.62110000  0.16530000  0.02690000  1.0 0.1110306876
H  H69  1  0.34800000  0.18320000  0.63480000  1.0 0.1002615822
H  H70  1  0.34180000  0.33380000  0.62920000  1.0 0.0808159579
H  H71  1  0.65300000  0.53480000  0.67550000  1.0 0.0808159579
H  H72  1  0.66240000  0.39000000  0.67770000  1.0 0.0902790473
H  H73  1  0.08250000  0.15630000  0.72340000  1.0 0.0808159579
H  H74  1  0.18040000  0.41980000  0.74440000  1.0 0.1442749475
H  H75  1  0.16380000  0.32400000  0.66690000  1.0 0.0902790473
H  H76  1  0.15900000  0.42440000  0.67290000  1.0 0.0902790473
H  H77  1  0.37350000  0.51810000  0.77090000  1.0 0.0902790473
H  H78  1  0.39860000  0.48520000  0.81640000  1.0 0.0902790473
H  H79  1  0.28520000  0.46840000  0.80990000  1.0 0.1110306876
H  H80  1  0.39340000  0.21720000  0.70260000  1.0 0.1002615822
H  H81  1  0.38690000  0.36470000  0.69990000  1.0 0.1002615822
H  H82  1  0.64230000  0.52090000  0.61430000  1.0 0.0902790473
H  H83  1  0.65470000  0.37410000  0.62140000  1.0 0.1002615822
H  H84  1  0.30370000  0.47790000  0.78610000  1.0 0.0902790473
H  H85  1  0.39670000  0.53030000  0.74890000  1.0 0.0902790473
H  H86  1  0.41600000  0.49380000  0.79480000  1.0 0.0902790473
H  H87  1  0.20950000  0.43710000  0.72060000  1.0 0.1510722883
H  H88  1  0.14730000  0.18330000  0.67810000  1.0 0.1002615822
H  H89  1  0.15590000  0.31190000  0.64510000  1.0 0.0694891444
H  H90  1  0.16020000  0.41980000  0.64810000  1.0 0.0808159579
H  H91  1  0.20000000  0.86100000  0.60790000  1.0 0.1002615822
H  H92  1  0.00960000  0.76020000  0.60920000  1.0 0.1202583884
H  H93  1  0.01630000  0.71710000  0.73970000  1.0 0.1110306876
H  H94  1  0.20510000  0.81670000  0.73490000  1.0 0.1110306876
H  H95  1  0.33260000  0.89040000  0.80940000  1.0 0.1110306876
H  H96  1  0.33290000  0.88750000  0.88600000  1.0 0.1110306876
H  H97  1  0.37600000  0.83580000  0.95000000  1.0 0.1110306876
H  H98  1  0.37890000  0.83470000  0.02690000  1.0 0.1110306876
H  H99  1  0.65200000  0.81680000  0.63480000  1.0 0.1002615822
H  H100  1  0.65820000  0.66620000  0.62920000  1.0 0.0808159579
H  H101  1  0.34700000  0.46520000  0.67550000  1.0 0.0808159579
H  H102  1  0.33760000  0.61000000  0.67770000  1.0 0.0902790473
H  H103  1  0.91750000  0.84370000  0.72340000  1.0 0.0808159579
H  H104  1  0.81960000  0.58020000  0.74440000  1.0 0.1510722883
H  H105  1  0.83620000  0.67600000  0.66690000  1.0 0.0902790473
H  H106  1  0.84100000  0.57560000  0.67290000  1.0 0.0902790473
H  H107  1  0.62650000  0.48190000  0.77090000  1.0 0.0902790473
H  H108  1  0.60140000  0.51480000  0.81640000  1.0 0.0902790473
H  H109  1  0.71480000  0.53160000  0.80990000  1.0 0.1110306876
H  H110  1  0.60660000  0.78280000  0.70260000  1.0 0.1002615822
H  H111  1  0.61310000  0.63530000  0.69990000  1.0 0.1002615822
H  H112  1  0.35770000  0.47910000  0.61430000  1.0 0.0902790473
H  H113  1  0.34530000  0.62590000  0.62140000  1.0 0.1002615822
H  H114  1  0.69630000  0.52210000  0.78610000  1.0 0.0902790473
H  H115  1  0.60330000  0.46970000  0.74890000  1.0 0.0902790473
H  H116  1  0.58400000  0.50620000  0.79480000  1.0 0.0902790473
H  H117  1  0.79050000  0.56290000  0.72060000  1.0 0.1510722883
H  H118  1  0.85270000  0.81670000  0.67810000  1.0 0.1002615822
H  H119  1  0.84410000  0.68810000  0.64510000  1.0 0.0694891444
H  H120  1  0.83980000  0.58020000  0.64810000  1.0 0.0808159579
H  H121  1  0.63900000  0.30000000  0.10790000  1.0 0.1002615822
H  H122  1  0.73980000  0.49040000  0.10920000  1.0 0.1202583884
H  H123  1  0.78290000  0.48370000  0.23970000  1.0 0.1110306876
H  H124  1  0.68330000  0.29490000  0.23490000  1.0 0.1110306876
H  H125  1  0.60960000  0.16740000  0.30940000  1.0 0.1110306876
H  H126  1  0.61250000  0.16710000  0.38600000  1.0 0.1110306876
H  H127  1  0.66420000  0.12400000  0.45000000  1.0 0.1110306876
H  H128  1  0.66530000  0.12110000  0.52690000  1.0 0.1110306876
H  H129  1  0.68320000  0.84800000  0.13480000  1.0 0.1002615822
H  H130  1  0.83380000  0.84180000  0.12920000  1.0 0.0808159579
H  H131  1  0.03480000  0.15300000  0.17550000  1.0 0.0808159579
H  H132  1  0.89000000  0.16240000  0.17770000  1.0 0.0902790473
H  H133  1  0.65630000  0.58250000  0.22340000  1.0 0.0808159579
H  H134  1  0.91980000  0.68040000  0.24440000  1.0 0.1510722883
H  H135  1  0.82400000  0.66380000  0.16690000  1.0 0.0902790473
H  H136  1  0.92440000  0.65900000  0.17290000  1.0 0.0902790473
H  H137  1  0.01810000  0.87350000  0.27090000  1.0 0.0902790473
H  H138  1  0.98520000  0.89860000  0.31640000  1.0 0.0902790473
H  H139  1  0.96840000  0.78520000  0.30990000  1.0 0.1110306876
H  H140  1  0.71720000  0.89340000  0.20260000  1.0 0.1002615822
H  H141  1  0.86470000  0.88690000  0.19990000  1.0 0.1002615822
H  H142  1  0.02090000  0.14230000  0.11430000  1.0 0.0902790473
H  H143  1  0.87410000  0.15470000  0.12140000  1.0 0.1002615822
H  H144  1  0.97790000  0.80370000  0.28610000  1.0 0.0902790473
H  H145  1  0.03030000  0.89670000  0.24890000  1.0 0.0902790473
H  H146  1  0.99380000  0.91600000  0.29480000  1.0 0.0902790473
H  H147  1  0.93710000  0.70950000  0.22060000  1.0 0.1510722883
H  H148  1  0.68330000  0.64730000  0.17810000  1.0 0.1002615822
H  H149  1  0.81190000  0.65590000  0.14510000  1.0 0.0694891444
H  H150  1  0.91980000  0.66020000  0.14810000  1.0 0.0808159579
H  H151  1  0.36100000  0.70000000  0.10790000  1.0 0.1002615822
H  H152  1  0.26020000  0.50960000  0.10920000  1.0 0.1202583884
H  H153  1  0.21710000  0.51630000  0.23970000  1.0 0.1110306876
H  H154  1  0.31670000  0.70510000  0.23490000  1.0 0.1110306876
H  H155  1  0.39040000  0.83260000  0.30940000  1.0 0.1110306876
H  H156  1  0.38750000  0.83290000  0.38600000  1.0 0.1110306876
H  H157  1  0.33580000  0.87600000  0.45000000  1.0 0.1110306876
H  H158  1  0.33470000  0.87890000  0.52690000  1.0 0.1110306876
H  H159  1  0.31680000  0.15200000  0.13480000  1.0 0.1002615822
H  H160  1  0.16620000  0.15820000  0.12920000  1.0 0.0808159579
H  H161  1  0.96520000  0.84700000  0.17550000  1.0 0.0808159579
H  H162  1  0.11000000  0.83760000  0.17770000  1.0 0.0902790473
H  H163  1  0.34370000  0.41750000  0.22340000  1.0 0.0808159579
H  H164  1  0.08020000  0.31960000  0.24440000  1.0 0.1510722883
H  H165  1  0.17600000  0.33620000  0.16690000  1.0 0.0902790473
H  H166  1  0.07560000  0.34100000  0.17290000  1.0 0.0902790473
H  H167  1  0.98190000  0.12650000  0.27090000  1.0 0.0902790473
H  H168  1  0.01480000  0.10140000  0.31640000  1.0 0.0902790473
H  H169  1  0.03160000  0.21480000  0.30990000  1.0 0.1110306876
H  H170  1  0.28280000  0.10660000  0.20260000  1.0 0.1002615822
H  H171  1  0.13530000  0.11310000  0.19990000  1.0 0.1002615822
H  H172  1  0.97910000  0.85770000  0.11430000  1.0 0.0902790473
H  H173  1  0.12590000  0.84530000  0.12140000  1.0 0.1002615822
H  H174  1  0.02210000  0.19630000  0.28610000  1.0 0.0902790473
H  H175  1  0.96970000  0.10330000  0.24890000  1.0 0.0902790473
H  H176  1  0.00620000  0.08400000  0.29480000  1.0 0.0902790473
H  H177  1  0.06290000  0.29050000  0.22060000  1.0 0.1510722883
H  H178  1  0.31670000  0.35270000  0.17810000  1.0 0.1002615822
H  H179  1  0.18810000  0.34410000  0.14510000  1.0 0.0694891444
H  H180  1  0.08020000  0.33980000  0.14810000  1.0 0.0808159579
H  H181  1  0.70000000  0.36100000  0.89210000  1.0 0.1002615822
H  H182  1  0.50960000  0.26020000  0.89080000  1.0 0.1202583884
H  H183  1  0.51630000  0.21710000  0.76030000  1.0 0.1110306876
H  H184  1  0.70510000  0.31670000  0.76510000  1.0 0.1110306876
H  H185  1  0.83260000  0.39040000  0.69060000  1.0 0.1110306876
H  H186  1  0.83290000  0.38750000  0.61400000  1.0 0.1110306876
H  H187  1  0.87600000  0.33580000  0.55000000  1.0 0.1110306876
H  H188  1  0.87890000  0.33470000  0.47310000  1.0 0.1110306876
H  H189  1  0.15200000  0.31680000  0.86520000  1.0 0.1002615822
H  H190  1  0.15820000  0.16620000  0.87080000  1.0 0.0808159579
H  H191  1  0.84700000  0.96520000  0.82450000  1.0 0.0808159579
H  H192  1  0.83760000  0.11000000  0.82230000  1.0 0.0902790473
H  H193  1  0.41750000  0.34370000  0.77660000  1.0 0.0808159579
H  H194  1  0.31960000  0.08020000  0.75560000  1.0 0.1442749475
H  H195  1  0.33620000  0.17600000  0.83310000  1.0 0.0902790473
H  H196  1  0.34100000  0.07560000  0.82710000  1.0 0.0902790473
H  H197  1  0.12650000  0.98190000  0.72910000  1.0 0.0902790473
H  H198  1  0.10140000  0.01480000  0.68360000  1.0 0.0902790473
H  H199  1  0.21480000  0.03160000  0.69010000  1.0 0.1110306876
H  H200  1  0.10660000  0.28280000  0.79740000  1.0 0.1002615822
H  H201  1  0.11310000  0.13530000  0.80010000  1.0 0.1002615822
H  H202  1  0.85770000  0.97910000  0.88570000  1.0 0.1002615822
H  H203  1  0.84530000  0.12590000  0.87860000  1.0 0.1002615822
H  H204  1  0.19630000  0.02210000  0.71390000  1.0 0.0902790473
H  H205  1  0.10330000  0.96970000  0.75110000  1.0 0.0902790473
H  H206  1  0.08400000  0.00620000  0.70520000  1.0 0.0902790473
H  H207  1  0.29050000  0.06290000  0.77940000  1.0 0.1510722883
H  H208  1  0.35270000  0.31670000  0.82190000  1.0 0.1002615822
H  H209  1  0.34410000  0.18810000  0.85490000  1.0 0.0694891444
H  H210  1  0.33980000  0.08020000  0.85190000  1.0 0.0808159579
H  H211  1  0.30000000  0.63900000  0.89210000  1.0 0.1002615822
H  H212  1  0.49040000  0.73980000  0.89080000  1.0 0.1202583884
H  H213  1  0.48370000  0.78290000  0.76030000  1.0 0.1110306876
H  H214  1  0.29490000  0.68330000  0.76510000  1.0 0.1110306876
H  H215  1  0.16740000  0.60960000  0.69060000  1.0 0.1110306876
H  H216  1  0.16710000  0.61250000  0.61400000  1.0 0.1110306876
H  H217  1  0.12400000  0.66420000  0.55000000  1.0 0.1110306876
H  H218  1  0.12110000  0.66530000  0.47310000  1.0 0.1110306876
H  H219  1  0.84800000  0.68320000  0.86520000  1.0 0.1002615822
H  H220  1  0.84180000  0.83380000  0.87080000  1.0 0.0808159579
H  H221  1  0.15300000  0.03480000  0.82450000  1.0 0.0808159579
H  H222  1  0.16240000  0.89000000  0.82230000  1.0 0.0902790473
H  H223  1  0.58250000  0.65630000  0.77660000  1.0 0.0808159579
H  H224  1  0.68040000  0.91980000  0.75560000  1.0 0.1442749475
H  H225  1  0.66380000  0.82400000  0.83310000  1.0 0.0902790473
H  H226  1  0.65900000  0.92440000  0.82710000  1.0 0.0902790473
H  H227  1  0.87350000  0.01810000  0.72910000  1.0 0.0902790473
H  H228  1  0.89860000  0.98520000  0.68360000  1.0 0.0902790473
H  H229  1  0.78520000  0.96840000  0.69010000  1.0 0.1110306876
H  H230  1  0.89340000  0.71720000  0.79740000  1.0 0.1002615822
H  H231  1  0.88690000  0.86470000  0.80010000  1.0 0.1002615822
H  H232  1  0.14230000  0.02090000  0.88570000  1.0 0.0902790473
H  H233  1  0.15470000  0.87410000  0.87860000  1.0 0.1002615822
H  H234  1  0.80370000  0.97790000  0.71390000  1.0 0.0902790473
H  H235  1  0.89670000  0.03030000  0.75110000  1.0 0.0902790473
H  H236  1  0.91600000  0.99380000  0.70520000  1.0 0.0902790473
H  H237  1  0.70950000  0.93710000  0.77940000  1.0 0.1510722883
H  H238  1  0.64730000  0.68330000  0.82190000  1.0 0.1002615822
H  H239  1  0.65590000  0.81190000  0.85490000  1.0 0.0694891444
H  H240  1  0.66020000  0.91980000  0.85190000  1.0 0.0808159579
C  C1  1  0.83055000  0.16205000  0.36513000  1.0 0.0808159579
C  C2  1  0.77016000  0.04844000  0.36464000  1.0 -0.2373587945
C  C3  1  0.72417000  0.99143000  0.32546000  1.0 0.0541997206
C  C4  1  0.74447000  0.05213000  0.28785000  1.0 -0.3726807001
C  C5  1  0.80464000  0.16456000  0.29097000  1.0 -0.0410114432
C  C6  1  0.93441000  0.40047000  0.17510000  1.0 -0.1604009668
C  C7  1  0.93352000  0.40066000  0.12946000  1.0 -0.180279114
C  C8  1  0.90252000  0.42686000  0.03450000  1.0 -0.1503481257
C  C9  1  0.90192000  0.42762000  0.98858000  1.0 -0.1110401471
C  C10  1  0.82241000  0.48637000  0.33575000  1.0 0.5196096201
C  C11  1  0.72569000  0.48787000  0.34065000  1.0 0.0094876604
C  C12  1  0.54697000  0.49705000  0.34661000  1.0 0.0448740509
C  C13  1  0.74471000  0.58989000  0.35697000  1.0 -0.0597620911
C  C14  1  0.65600000  0.59400000  0.36011000  1.0 -0.1166485797
C  C15  1  0.53620000  0.41000000  0.33324000  1.0 -0.074840794
C  C16  1  0.62450000  0.40490000  0.33113000  1.0 -0.0468027462
C  C17  1  0.69299000  0.79441000  0.25439000  1.0 0.0316820885
C  C18  1  0.79925000  0.84075000  0.27025000  1.0 -0.1110401471
C  C19  1  0.64922000  0.86998000  0.31535000  1.0 0.0316820885
C  C20  1  0.64958000  0.71302000  0.22181000  1.0 0.0694891444
C  C21  1  0.53440000  0.65920000  0.20466000  1.0 -0.2373587945
C  C22  1  0.72308000  0.55812000  0.31661000  1.0 -0.1110401471
C  C23  1  0.63500000  0.56280000  0.31866000  1.0 -0.1503481257
C  C24  1  0.54205000  0.41055000  0.36867000  1.0 -0.0597620911
C  C25  1  0.62982000  0.40378000  0.36516000  1.0 -0.0468027462
C  C26  1  0.63803000  0.69097000  0.24561000  1.0 0.0167654081
C  C27  1  0.52390000  0.63910000  0.22736000  1.0 -0.2004384275
C  C28  1  0.78898000  0.81962000  0.29393000  1.0 -0.1290648922
C  C29  1  0.64770000  0.86190000  0.33626000  1.0 -0.1503481257
C  C30  1  0.68212000  0.77188000  0.27869000  1.0 0.0541997206
C  C31  1  0.16945000  0.83795000  0.36513000  1.0 0.0808159579
C  C32  1  0.22984000  0.95156000  0.36464000  1.0 -0.24943532
C  C33  1  0.27583000  0.00857000  0.32546000  1.0 0.0556619291
C  C34  1  0.25553000  0.94787000  0.28785000  1.0 -0.3726807001
C  C35  1  0.19536000  0.83544000  0.29097000  1.0 -0.0468027462
C  C36  1  0.06559000  0.59953000  0.17510000  1.0 -0.1604009668
C  C37  1  0.06648000  0.59934000  0.12946000  1.0 -0.180279114
C  C38  1  0.09748000  0.57314000  0.03450000  1.0 -0.1503481257
C  C39  1  0.09808000  0.57238000  0.98858000  1.0 -0.1110401471
C  C40  1  0.17759000  0.51363000  0.33575000  1.0 0.5196096201
C  C41  1  0.27431000  0.51213000  0.34065000  1.0 0.0094876604
C  C42  1  0.45303000  0.50295000  0.34661000  1.0 0.0448740509
C  C43  1  0.25529000  0.41011000  0.35697000  1.0 -0.0597620911
C  C44  1  0.34400000  0.40600000  0.36011000  1.0 -0.1166485797
C  C45  1  0.46380000  0.59000000  0.33324000  1.0 -0.074840794
C  C46  1  0.37550000  0.59510000  0.33113000  1.0 -0.0468027462
C  C47  1  0.30701000  0.20559000  0.25439000  1.0 0.0316820885
C  C48  1  0.20075000  0.15925000  0.27025000  1.0 -0.1110401471
C  C49  1  0.35078000  0.13002000  0.31535000  1.0 0.0316820885
C  C50  1  0.35042000  0.28698000  0.22181000  1.0 0.0694891444
C  C51  1  0.46560000  0.34080000  0.20466000  1.0 -0.2373587945
C  C52  1  0.27692000  0.44188000  0.31661000  1.0 -0.1110401471
C  C53  1  0.36500000  0.43720000  0.31866000  1.0 -0.1503481257
C  C54  1  0.45795000  0.58945000  0.36867000  1.0 -0.0597620911
C  C55  1  0.37018000  0.59622000  0.36516000  1.0 -0.0468027462
C  C56  1  0.36197000  0.30903000  0.24561000  1.0 0.0167654081
C  C57  1  0.47610000  0.36090000  0.22736000  1.0 -0.2004384275
C  C58  1  0.21102000  0.18038000  0.29393000  1.0 -0.1290648922
C  C59  1  0.35230000  0.13810000  0.33626000  1.0 -0.1503481257
C  C60  1  0.31788000  0.22812000  0.27869000  1.0 0.0541997206
C  C61  1  0.83795000  0.16945000  0.63487000  1.0 0.0808159579
C  C62  1  0.95156000  0.22984000  0.63536000  1.0 -0.24943532
C  C63  1  0.00857000  0.27583000  0.67454000  1.0 0.0541997206
C  C64  1  0.94787000  0.25553000  0.71215000  1.0 -0.3726807001
C  C65  1  0.83544000  0.19536000  0.70903000  1.0 -0.0410114432
C  C66  1  0.59953000  0.06559000  0.82490000  1.0 -0.1604009668
C  C67  1  0.59934000  0.06648000  0.87054000  1.0 -0.180279114
C  C68  1  0.57314000  0.09748000  0.96550000  1.0 -0.1503481257
C  C69  1  0.57238000  0.09808000  0.01142000  1.0 -0.1110401471
C  C70  1  0.51363000  0.17759000  0.66425000  1.0 0.5196096201
C  C71  1  0.51213000  0.27431000  0.65935000  1.0 0.0094876604
C  C72  1  0.50295000  0.45303000  0.65339000  1.0 0.0448740509
C  C73  1  0.41011000  0.25529000  0.64303000  1.0 -0.0597620911
C  C74  1  0.40600000  0.34400000  0.63989000  1.0 -0.1166485797
C  C75  1  0.59000000  0.46380000  0.66676000  1.0 -0.074840794
C  C76  1  0.59510000  0.37550000  0.66887000  1.0 -0.0468027462
C  C77  1  0.20559000  0.30701000  0.74561000  1.0 0.0316820885
C  C78  1  0.15925000  0.20075000  0.72975000  1.0 -0.1110401471
C  C79  1  0.13002000  0.35078000  0.68465000  1.0 0.0316820885
C  C80  1  0.28698000  0.35042000  0.77819000  1.0 0.0694891444
C  C81  1  0.34080000  0.46560000  0.79534000  1.0 -0.2373587945
C  C82  1  0.44188000  0.27692000  0.68339000  1.0 -0.1110401471
C  C83  1  0.43720000  0.36500000  0.68134000  1.0 -0.1503481257
C  C84  1  0.58945000  0.45795000  0.63133000  1.0 -0.0597620911
C  C85  1  0.59622000  0.37018000  0.63484000  1.0 -0.0468027462
C  C86  1  0.30903000  0.36197000  0.75439000  1.0 0.0167654081
C  C87  1  0.36090000  0.47610000  0.77264000  1.0 -0.2004384275
C  C88  1  0.18038000  0.21102000  0.70607000  1.0 -0.1290648922
C  C89  1  0.13810000  0.35230000  0.66374000  1.0 -0.1503481257
C  C90  1  0.22812000  0.31788000  0.72131000  1.0 0.0541997206
C  C91  1  0.16205000  0.83055000  0.63487000  1.0 0.0808159579
C  C92  1  0.04844000  0.77016000  0.63536000  1.0 -0.24943532
C  C93  1  0.99143000  0.72417000  0.67454000  1.0 0.0541997206
C  C94  1  0.05213000  0.74447000  0.71215000  1.0 -0.3726807001
C  C95  1  0.16456000  0.80464000  0.70903000  1.0 -0.0410114432
C  C96  1  0.40047000  0.93441000  0.82490000  1.0 -0.1604009668
C  C97  1  0.40066000  0.93352000  0.87054000  1.0 -0.180279114
C  C98  1  0.42686000  0.90252000  0.96550000  1.0 -0.1503481257
C  C99  1  0.42762000  0.90192000  0.01142000  1.0 -0.1110401471
C  C100  1  0.48637000  0.82241000  0.66425000  1.0 0.5196096201
C  C101  1  0.48787000  0.72569000  0.65935000  1.0 0.0094876604
C  C102  1  0.49705000  0.54697000  0.65339000  1.0 0.0448740509
C  C103  1  0.58989000  0.74471000  0.64303000  1.0 -0.0597620911
C  C104  1  0.59400000  0.65600000  0.63989000  1.0 -0.1166485797
C  C105  1  0.41000000  0.53620000  0.66676000  1.0 -0.074840794
C  C106  1  0.40490000  0.62450000  0.66887000  1.0 -0.0468027462
C  C107  1  0.79441000  0.69299000  0.74561000  1.0 0.0316820885
C  C108  1  0.84075000  0.79925000  0.72975000  1.0 -0.1110401471
C  C109  1  0.86998000  0.64922000  0.68465000  1.0 0.0316820885
C  C110  1  0.71302000  0.64958000  0.77819000  1.0 0.0694891444
C  C111  1  0.65920000  0.53440000  0.79534000  1.0 -0.2373587945
C  C112  1  0.55812000  0.72308000  0.68339000  1.0 -0.1110401471
C  C113  1  0.56280000  0.63500000  0.68134000  1.0 -0.1503481257
C  C114  1  0.41055000  0.54205000  0.63133000  1.0 -0.0597620911
C  C115  1  0.40378000  0.62982000  0.63484000  1.0 -0.0468027462
C  C116  1  0.69097000  0.63803000  0.75439000  1.0 0.0167654081
C  C117  1  0.63910000  0.52390000  0.77264000  1.0 -0.2004384275
C  C118  1  0.81962000  0.78898000  0.70607000  1.0 -0.1290648922
C  C119  1  0.86190000  0.64770000  0.66374000  1.0 -0.1503481257
C  C120  1  0.77188000  0.68212000  0.72131000  1.0 0.0541997206
C  C121  1  0.66945000  0.33795000  0.13487000  1.0 0.0808159579
C  C122  1  0.72984000  0.45156000  0.13536000  1.0 -0.24943532
C  C123  1  0.77583000  0.50857000  0.17454000  1.0 0.0541997206
C  C124  1  0.75553000  0.44787000  0.21215000  1.0 -0.3726807001
C  C125  1  0.69536000  0.33544000  0.20903000  1.0 -0.0410114432
C  C126  1  0.56559000  0.09953000  0.32490000  1.0 -0.1604009668
C  C127  1  0.56648000  0.09934000  0.37054000  1.0 -0.180279114
C  C128  1  0.59748000  0.07314000  0.46550000  1.0 -0.1503481257
C  C129  1  0.59808000  0.07238000  0.51142000  1.0 -0.1110401471
C  C130  1  0.67759000  0.01363000  0.16425000  1.0 0.5196096201
C  C131  1  0.77431000  0.01213000  0.15935000  1.0 0.0094876604
C  C132  1  0.95303000  0.00295000  0.15339000  1.0 0.0448740509
C  C133  1  0.75529000  0.91011000  0.14303000  1.0 -0.0597620911
C  C134  1  0.84400000  0.90600000  0.13989000  1.0 -0.1166485797
C  C135  1  0.96380000  0.09000000  0.16676000  1.0 -0.074840794
C  C136  1  0.87550000  0.09510000  0.16887000  1.0 -0.0468027462
C  C137  1  0.80701000  0.70559000  0.24561000  1.0 0.0316820885
C  C138  1  0.70075000  0.65925000  0.22975000  1.0 -0.1110401471
C  C139  1  0.85078000  0.63002000  0.18465000  1.0 0.0316820885
C  C140  1  0.85042000  0.78698000  0.27819000  1.0 0.0694891444
C  C141  1  0.96560000  0.84080000  0.29534000  1.0 -0.2373587945
C  C142  1  0.77692000  0.94188000  0.18339000  1.0 -0.1110401471
C  C143  1  0.86500000  0.93720000  0.18134000  1.0 -0.1503481257
C  C144  1  0.95795000  0.08945000  0.13133000  1.0 -0.0597620911
C  C145  1  0.87018000  0.09622000  0.13484000  1.0 -0.0468027462
C  C146  1  0.86197000  0.80903000  0.25439000  1.0 0.0167654081
C  C147  1  0.97610000  0.86090000  0.27264000  1.0 -0.2004384275
C  C148  1  0.71102000  0.68038000  0.20607000  1.0 -0.1290648922
C  C149  1  0.85230000  0.63810000  0.16374000  1.0 -0.1503481257
C  C150  1  0.81788000  0.72812000  0.22131000  1.0 0.0541997206
C  C151  1  0.33055000  0.66205000  0.13487000  1.0 0.0808159579
C  C152  1  0.27016000  0.54844000  0.13536000  1.0 -0.24943532
C  C153  1  0.22417000  0.49143000  0.17454000  1.0 0.0541997206
C  C154  1  0.24447000  0.55213000  0.21215000  1.0 -0.3726807001
C  C155  1  0.30464000  0.66456000  0.20903000  1.0 -0.0410114432
C  C156  1  0.43441000  0.90047000  0.32490000  1.0 -0.1604009668
C  C157  1  0.43352000  0.90066000  0.37054000  1.0 -0.180279114
C  C158  1  0.40252000  0.92686000  0.46550000  1.0 -0.1503481257
C  C159  1  0.40192000  0.92762000  0.51142000  1.0 -0.1110401471
C  C160  1  0.32241000  0.98637000  0.16425000  1.0 0.5196096201
C  C161  1  0.22569000  0.98787000  0.15935000  1.0 0.0094876604
C  C162  1  0.04697000  0.99705000  0.15339000  1.0 0.0448740509
C  C163  1  0.24471000  0.08989000  0.14303000  1.0 -0.0597620911
C  C164  1  0.15600000  0.09400000  0.13989000  1.0 -0.1166485797
C  C165  1  0.03620000  0.91000000  0.16676000  1.0 -0.074840794
C  C166  1  0.12450000  0.90490000  0.16887000  1.0 -0.0468027462
C  C167  1  0.19299000  0.29441000  0.24561000  1.0 0.0316820885
C  C168  1  0.29925000  0.34075000  0.22975000  1.0 -0.1110401471
C  C169  1  0.14922000  0.36998000  0.18465000  1.0 0.0316820885
C  C170  1  0.14958000  0.21302000  0.27819000  1.0 0.0694891444
C  C171  1  0.03440000  0.15920000  0.29534000  1.0 -0.2373587945
C  C172  1  0.22308000  0.05812000  0.18339000  1.0 -0.1110401471
C  C173  1  0.13500000  0.06280000  0.18134000  1.0 -0.1503481257
C  C174  1  0.04205000  0.91055000  0.13133000  1.0 -0.0597620911
C  C175  1  0.12982000  0.90378000  0.13484000  1.0 -0.0468027462
C  C176  1  0.13803000  0.19097000  0.25439000  1.0 0.0167654081
C  C177  1  0.02390000  0.13910000  0.27264000  1.0 -0.2004384275
C  C178  1  0.28898000  0.31962000  0.20607000  1.0 -0.1290648922
C  C179  1  0.14770000  0.36190000  0.16374000  1.0 -0.1503481257
C  C180  1  0.18212000  0.27188000  0.22131000  1.0 0.0541997206
C  C181  1  0.66205000  0.33055000  0.86513000  1.0 0.0808159579
C  C182  1  0.54844000  0.27016000  0.86464000  1.0 -0.24943532
C  C183  1  0.49143000  0.22417000  0.82546000  1.0 0.0541997206
C  C184  1  0.55213000  0.24447000  0.78785000  1.0 -0.3726807001
C  C185  1  0.66456000  0.30464000  0.79097000  1.0 -0.0410114432
C  C186  1  0.90047000  0.43441000  0.67510000  1.0 -0.1604009668
C  C187  1  0.90066000  0.43352000  0.62946000  1.0 -0.180279114
C  C188  1  0.92686000  0.40252000  0.53450000  1.0 -0.1503481257
C  C189  1  0.92762000  0.40192000  0.48858000  1.0 -0.1110401471
C  C190  1  0.98637000  0.32241000  0.83575000  1.0 0.5196096201
C  C191  1  0.98787000  0.22569000  0.84065000  1.0 0.0094876604
C  C192  1  0.99705000  0.04697000  0.84661000  1.0 0.0448740509
C  C193  1  0.08989000  0.24471000  0.85697000  1.0 -0.0597620911
C  C194  1  0.09400000  0.15600000  0.86011000  1.0 -0.1166485797
C  C195  1  0.91000000  0.03620000  0.83324000  1.0 -0.074840794
C  C196  1  0.90490000  0.12450000  0.83113000  1.0 -0.0468027462
C  C197  1  0.29441000  0.19299000  0.75439000  1.0 0.0316820885
C  C198  1  0.34075000  0.29925000  0.77025000  1.0 -0.1110401471
C  C199  1  0.36998000  0.14922000  0.81535000  1.0 0.0316820885
C  C200  1  0.21302000  0.14958000  0.72181000  1.0 0.0694891444
C  C201  1  0.15920000  0.03440000  0.70466000  1.0 -0.2373587945
C  C202  1  0.05812000  0.22308000  0.81661000  1.0 -0.1110401471
C  C203  1  0.06280000  0.13500000  0.81866000  1.0 -0.1503481257
C  C204  1  0.91055000  0.04205000  0.86867000  1.0 -0.0597620911
C  C205  1  0.90378000  0.12982000  0.86516000  1.0 -0.0468027462
C  C206  1  0.19097000  0.13803000  0.74561000  1.0 0.0167654081
C  C207  1  0.13910000  0.02390000  0.72736000  1.0 -0.2004384275
C  C208  1  0.31962000  0.28898000  0.79393000  1.0 -0.1290648922
C  C209  1  0.36190000  0.14770000  0.83626000  1.0 -0.1503481257
C  C210  1  0.27188000  0.18212000  0.77869000  1.0 0.0541997206
C  C211  1  0.33795000  0.66945000  0.86513000  1.0 0.0808159579
C  C212  1  0.45156000  0.72984000  0.86464000  1.0 -0.24943532
C  C213  1  0.50857000  0.77583000  0.82546000  1.0 0.0541997206
C  C214  1  0.44787000  0.75553000  0.78785000  1.0 -0.3726807001
C  C215  1  0.33544000  0.69536000  0.79097000  1.0 -0.0468027462
C  C216  1  0.09953000  0.56559000  0.67510000  1.0 -0.1604009668
C  C217  1  0.09934000  0.56648000  0.62946000  1.0 -0.180279114
C  C218  1  0.07314000  0.59748000  0.53450000  1.0 -0.1503481257
C  C219  1  0.07238000  0.59808000  0.48858000  1.0 -0.1110401471
C  C220  1  0.01363000  0.67759000  0.83575000  1.0 0.5196096201
C  C221  1  0.01213000  0.77431000  0.84065000  1.0 0.0094876604
C  C222  1  0.00295000  0.95303000  0.84661000  1.0 0.0448740509
C  C223  1  0.91011000  0.75529000  0.85697000  1.0 -0.0597620911
C  C224  1  0.90600000  0.84400000  0.86011000  1.0 -0.1166485797
C  C225  1  0.09000000  0.96380000  0.83324000  1.0 -0.074840794
C  C226  1  0.09510000  0.87550000  0.83113000  1.0 -0.0468027462
C  C227  1  0.70559000  0.80701000  0.75439000  1.0 0.0316820885
C  C228  1  0.65925000  0.70075000  0.77025000  1.0 -0.1110401471
C  C229  1  0.63002000  0.85078000  0.81535000  1.0 0.0316820885
C  C230  1  0.78698000  0.85042000  0.72181000  1.0 0.0694891444
C  C231  1  0.84080000  0.96560000  0.70466000  1.0 -0.2373587945
C  C232  1  0.94188000  0.77692000  0.81661000  1.0 -0.1110401471
C  C233  1  0.93720000  0.86500000  0.81866000  1.0 -0.1503481257
C  C234  1  0.08945000  0.95795000  0.86867000  1.0 -0.0597620911
C  C235  1  0.09622000  0.87018000  0.86516000  1.0 -0.0468027462
C  C236  1  0.80903000  0.86197000  0.74561000  1.0 0.0167654081
C  C237  1  0.86090000  0.97610000  0.72736000  1.0 -0.2004384275
C  C238  1  0.68038000  0.71102000  0.79393000  1.0 -0.1290648922
C  C239  1  0.63810000  0.85230000  0.83626000  1.0 -0.1503481257
C  C240  1  0.72812000  0.81788000  0.77869000  1.0 0.0541997206
C  C241  1  0.00000000  0.50000000  0.24720000  1.0 0.5405319606
C  C242  1  0.00000000  0.50000000  0.19807000  1.0 -0.0267468865
C  C243  1  0.00000000  0.50000000  0.10624000  1.0 0.0694891444
C  C244  1  0.00000000  0.50000000  0.05773000  1.0 0.0694891444
C  C245  1  0.00000000  0.50000000  0.96574000  1.0 -0.0267468865
C  C246  1  0.00000000  0.50000000  0.91659000  1.0 0.5739003693
C  C247  1  0.50000000  0.00000000  0.75280000  1.0 0.5405319606
C  C248  1  0.50000000  0.00000000  0.80193000  1.0 -0.0267468865
C  C249  1  0.50000000  0.00000000  0.89376000  1.0 0.0694891444
C  C250  1  0.50000000  0.00000000  0.94227000  1.0 0.0694891444
C  C251  1  0.50000000  0.00000000  0.03426000  1.0 -0.0267468865
C  C252  1  0.50000000  0.00000000  0.08341000  1.0 0.5739003693
C  C253  1  0.50000000  0.00000000  0.25280000  1.0 0.5405319606
C  C254  1  0.50000000  0.00000000  0.30193000  1.0 -0.0267468865
C  C255  1  0.50000000  0.00000000  0.39376000  1.0 0.0694891444
C  C256  1  0.50000000  0.00000000  0.44227000  1.0 0.0694891444
C  C257  1  0.50000000  0.00000000  0.53426000  1.0 -0.0267468865
C  C258  1  0.50000000  0.00000000  0.58341000  1.0 0.5739003693
C  C259  1  0.00000000  0.50000000  0.74720000  1.0 0.5405319606
C  C260  1  0.00000000  0.50000000  0.69807000  1.0 -0.0267468865
C  C261  1  0.00000000  0.50000000  0.60624000  1.0 0.0694891444
C  C262  1  0.00000000  0.50000000  0.55773000  1.0 0.0694891444
C  C263  1  0.00000000  0.50000000  0.46574000  1.0 -0.0267468865
C  C264  1  0.00000000  0.50000000  0.41659000  1.0 0.5739003693
N  N1  1  0.84783000  0.22085000  0.32884000  1.0 -0.24943532
N  N2  1  0.63168000  0.82652000  0.27190000  1.0 -0.180279114
N  N3  1  0.61919000  0.80461000  0.29461000  1.0 -0.0410114432
N  N4  1  0.15217000  0.77915000  0.32884000  1.0 -0.24943532
N  N5  1  0.36832000  0.17348000  0.27190000  1.0 -0.180279114
N  N6  1  0.38081000  0.19539000  0.29461000  1.0 -0.0410114432
N  N7  1  0.77915000  0.15217000  0.67116000  1.0 -0.24943532
N  N8  1  0.17348000  0.36832000  0.72810000  1.0 -0.180279114
N  N9  1  0.19539000  0.38081000  0.70539000  1.0 -0.0410114432
N  N10  1  0.22085000  0.84783000  0.67116000  1.0 -0.24943532
N  N11  1  0.82652000  0.63168000  0.72810000  1.0 -0.180279114
N  N12  1  0.80461000  0.61919000  0.70539000  1.0 -0.0410114432
N  N13  1  0.65217000  0.27915000  0.17116000  1.0 -0.24943532
N  N14  1  0.86832000  0.67348000  0.22810000  1.0 -0.180279114
N  N15  1  0.88081000  0.69539000  0.20539000  1.0 -0.0410114432
N  N16  1  0.34783000  0.72085000  0.17116000  1.0 -0.24943532
N  N17  1  0.13168000  0.32652000  0.22810000  1.0 -0.180279114
N  N18  1  0.11919000  0.30461000  0.20539000  1.0 -0.0410114432
N  N19  1  0.72085000  0.34783000  0.82884000  1.0 -0.24943532
N  N20  1  0.32652000  0.13168000  0.77190000  1.0 -0.180279114
N  N21  1  0.30461000  0.11919000  0.79461000  1.0 -0.0410114432
N  N22  1  0.27915000  0.65217000  0.82884000  1.0 -0.24943532
N  N23  1  0.67348000  0.86832000  0.77190000  1.0 -0.180279114
N  N24  1  0.69539000  0.88081000  0.79461000  1.0 -0.0410114432
O  O1  1  0.94569000  0.40787000  0.26621000  1.0 -0.5484669532
O  O2  1  0.90809000  0.44193000  0.89776000  1.0 -0.5552839811
O  O3  1  0.80328000  0.39440000  0.33279000  1.0 -0.4967237177
O  O4  1  0.91588000  0.57618000  0.33434000  1.0 -0.5159568439
O  O5  1  0.05431000  0.59213000  0.26621000  1.0 -0.5484669532
O  O6  1  0.09191000  0.55807000  0.89776000  1.0 -0.5552839811
O  O7  1  0.19672000  0.60560000  0.33279000  1.0 -0.4967237177
O  O8  1  0.08412000  0.42382000  0.33434000  1.0 -0.5159568439
O  O9  1  0.59213000  0.05431000  0.73379000  1.0 -0.5484669532
O  O10  1  0.55807000  0.09191000  0.10224000  1.0 -0.5552839811
O  O11  1  0.60560000  0.19672000  0.66721000  1.0 -0.4967237177
O  O12  1  0.42382000  0.08412000  0.66566000  1.0 -0.5159568439
O  O13  1  0.40787000  0.94569000  0.73379000  1.0 -0.5484669532
O  O14  1  0.44193000  0.90809000  0.10224000  1.0 -0.5552839811
O  O15  1  0.39440000  0.80328000  0.66721000  1.0 -0.4967237177
O  O16  1  0.57618000  0.91588000  0.66566000  1.0 -0.5159568439
O  O17  1  0.55431000  0.09213000  0.23379000  1.0 -0.5484669532
O  O18  1  0.59191000  0.05807000  0.60224000  1.0 -0.5552839811
O  O19  1  0.69672000  0.10560000  0.16721000  1.0 -0.4967237177
O  O20  1  0.58412000  0.92382000  0.16566000  1.0 -0.5159568439
O  O21  1  0.44569000  0.90787000  0.23379000  1.0 -0.5484669532
O  O22  1  0.40809000  0.94193000  0.60224000  1.0 -0.5552839811
O  O23  1  0.30328000  0.89440000  0.16721000  1.0 -0.4967237177
O  O24  1  0.41588000  0.07618000  0.16566000  1.0 -0.5159568439
O  O25  1  0.90787000  0.44569000  0.76621000  1.0 -0.5484669532
O  O26  1  0.94193000  0.40809000  0.39776000  1.0 -0.5552839811
O  O27  1  0.89440000  0.30328000  0.83279000  1.0 -0.4967237177
O  O28  1  0.07618000  0.41588000  0.83434000  1.0 -0.5159568439
O  O29  1  0.09213000  0.55431000  0.76621000  1.0 -0.5484669532
O  O30  1  0.05807000  0.59191000  0.39776000  1.0 -0.5552839811
O  O31  1  0.10560000  0.69672000  0.83279000  1.0 -0.4967237177
O  O32  1  0.92382000  0.58412000  0.83434000  1.0 -0.5159568439
