# DDEC6 charges by PACMAN v1.1 (https://github.com/mtap-research/PACMAN-charge/)
data_MIVKOU_FSR_pacman
_symmetry_space_group_name_H-M   'P 1'
_cell_length_a   15.26830000
_cell_length_b   15.26830000
_cell_length_c   30.56490000
_cell_angle_alpha   90.00000000
_cell_angle_beta   90.00000000
_cell_angle_gamma   126.00300000
_symmetry_Int_Tables_number   1
_chemical_formula_structural   CoH23C28(NO2)2
_chemical_formula_sum   'Co8 H184 C224 N16 O32'
_cell_volume   5764.28534019
_cell_formula_units_Z   8
loop_
 _symmetry_equiv_pos_site_id
 _symmetry_equiv_pos_as_xyz
  1  'x, y, z'
loop_
 _atom_site_type_symbol
 _atom_site_label
 _atom_site_symmetry_multiplicity
 _atom_site_fract_x
 _atom_site_fract_y
 _atom_site_fract_z
 _atom_site_occupancy
 _atom_site_charge
Co  Co1  1  0.60829000  0.06445000  0.17190000  1.0 0.8294105295
Co  Co2  1  0.39171000  0.93555000  0.17190000  1.0 0.8294105295
Co  Co3  1  0.93555000  0.39171000  0.82810000  1.0 0.8294105295
Co  Co4  1  0.06445000  0.60829000  0.82810000  1.0 0.8294105295
Co  Co5  1  0.89171000  0.43555000  0.32810000  1.0 0.8294105295
Co  Co6  1  0.10829000  0.56445000  0.32810000  1.0 0.8294105295
Co  Co7  1  0.56445000  0.10829000  0.67190000  1.0 0.8294105295
Co  Co8  1  0.43555000  0.89171000  0.67190000  1.0 0.8294105295
H  H1  1  0.17870000  0.41710000  0.23630000  1.0 0.248718566
H  H2  1  0.79320000  0.13520000  0.11120000  1.0 0.1113662818
H  H3  1  0.98020000  0.23460000  0.11170000  1.0 0.1307096656
H  H4  1  0.97630000  0.27950000  0.24210000  1.0 0.1307096656
H  H5  1  0.78930000  0.18030000  0.23820000  1.0 0.1113662818
H  H6  1  0.14760000  0.31000000  0.15870000  1.0 0.0918886844
H  H7  1  0.14640000  0.41340000  0.16330000  1.0 0.0918886844
H  H8  1  0.11080000  0.17260000  0.19890000  1.0 0.1307096656
H  H9  1  0.21050000  0.02550000  0.20650000  1.0 0.1307096656
H  H10  1  0.10360000  0.01580000  0.19350000  1.0 0.1307096656
H  H11  1  0.11440000  0.97980000  0.24120000  1.0 0.1206603053
H  H12  1  0.66360000  0.10560000  0.31330000  1.0 0.1113662818
H  H13  1  0.66410000  0.10790000  0.38980000  1.0 0.1113662818
H  H14  1  0.62890000  0.15730000  0.45400000  1.0 0.1113662818
H  H15  1  0.62690000  0.15870000  0.53050000  1.0 0.1206603053
H  H16  1  0.65700000  0.81440000  0.14630000  1.0 0.0918886844
H  H17  1  0.65800000  0.66280000  0.13670000  1.0 0.0732882975
H  H18  1  0.34110000  0.46770000  0.17320000  1.0 0.0788755551
H  H19  1  0.33800000  0.61700000  0.17970000  1.0 0.0965714369
H  H20  1  0.64780000  0.80800000  0.17810000  1.0 0.0918886844
H  H21  1  0.65760000  0.66020000  0.17170000  1.0 0.0732882975
H  H22  1  0.33890000  0.46650000  0.14110000  1.0 0.0732882975
H  H23  1  0.32990000  0.61290000  0.14950000  1.0 0.0918886844
H  H24  1  0.82130000  0.58290000  0.23630000  1.0 0.248718566
H  H25  1  0.20680000  0.86480000  0.11120000  1.0 0.1113662818
H  H26  1  0.01980000  0.76540000  0.11170000  1.0 0.1307096656
H  H27  1  0.02370000  0.72050000  0.24210000  1.0 0.1307096656
H  H28  1  0.21070000  0.81970000  0.23820000  1.0 0.1113662818
H  H29  1  0.85240000  0.69000000  0.15870000  1.0 0.0918886844
H  H30  1  0.85360000  0.58660000  0.16330000  1.0 0.0918886844
H  H31  1  0.88920000  0.82740000  0.19890000  1.0 0.1307096656
H  H32  1  0.78950000  0.97450000  0.20650000  1.0 0.1307096656
H  H33  1  0.89640000  0.98420000  0.19350000  1.0 0.1307096656
H  H34  1  0.88560000  0.02020000  0.24120000  1.0 0.1206603053
H  H35  1  0.33640000  0.89440000  0.31330000  1.0 0.1113662818
H  H36  1  0.33590000  0.89210000  0.38980000  1.0 0.1113662818
H  H37  1  0.37110000  0.84270000  0.45400000  1.0 0.1113662818
H  H38  1  0.37310000  0.84130000  0.53050000  1.0 0.1206603053
H  H39  1  0.34300000  0.18560000  0.14630000  1.0 0.0918886844
H  H40  1  0.34200000  0.33720000  0.13670000  1.0 0.0732882975
H  H41  1  0.65890000  0.53230000  0.17320000  1.0 0.0788755551
H  H42  1  0.66200000  0.38300000  0.17970000  1.0 0.0965714369
H  H43  1  0.35220000  0.19200000  0.17810000  1.0 0.0918886844
H  H44  1  0.34240000  0.33980000  0.17170000  1.0 0.0732882975
H  H45  1  0.66110000  0.53350000  0.14110000  1.0 0.0732882975
H  H46  1  0.67010000  0.38710000  0.14950000  1.0 0.0918886844
H  H47  1  0.58290000  0.82130000  0.76370000  1.0 0.248718566
H  H48  1  0.86480000  0.20680000  0.88880000  1.0 0.1113662818
H  H49  1  0.76540000  0.01980000  0.88830000  1.0 0.1307096656
H  H50  1  0.72050000  0.02370000  0.75790000  1.0 0.1307096656
H  H51  1  0.81970000  0.21070000  0.76180000  1.0 0.1113662818
H  H52  1  0.69000000  0.85240000  0.84130000  1.0 0.0918886844
H  H53  1  0.58660000  0.85360000  0.83670000  1.0 0.0918886844
H  H54  1  0.82740000  0.88920000  0.80110000  1.0 0.1307096656
H  H55  1  0.97450000  0.78950000  0.79350000  1.0 0.1307096656
H  H56  1  0.98420000  0.89640000  0.80650000  1.0 0.1307096656
H  H57  1  0.02020000  0.88560000  0.75880000  1.0 0.1206603053
H  H58  1  0.89440000  0.33640000  0.68670000  1.0 0.1113662818
H  H59  1  0.89210000  0.33590000  0.61020000  1.0 0.1113662818
H  H60  1  0.84270000  0.37110000  0.54600000  1.0 0.1113662818
H  H61  1  0.84130000  0.37310000  0.46950000  1.0 0.1206603053
H  H62  1  0.18560000  0.34300000  0.85370000  1.0 0.0918886844
H  H63  1  0.33720000  0.34200000  0.86330000  1.0 0.0732882975
H  H64  1  0.53230000  0.65890000  0.82680000  1.0 0.0788755551
H  H65  1  0.38300000  0.66200000  0.82030000  1.0 0.0965714369
H  H66  1  0.19200000  0.35220000  0.82190000  1.0 0.0918886844
H  H67  1  0.33980000  0.34240000  0.82830000  1.0 0.0732882975
H  H68  1  0.53350000  0.66110000  0.85890000  1.0 0.0732882975
H  H69  1  0.38710000  0.67010000  0.85050000  1.0 0.0918886844
H  H70  1  0.41710000  0.17870000  0.76370000  1.0 0.248718566
H  H71  1  0.13520000  0.79320000  0.88880000  1.0 0.1113662818
H  H72  1  0.23460000  0.98020000  0.88830000  1.0 0.1307096656
H  H73  1  0.27950000  0.97630000  0.75790000  1.0 0.1307096656
H  H74  1  0.18030000  0.78930000  0.76180000  1.0 0.1113662818
H  H75  1  0.31000000  0.14760000  0.84130000  1.0 0.0918886844
H  H76  1  0.41340000  0.14640000  0.83670000  1.0 0.0918886844
H  H77  1  0.17260000  0.11080000  0.80110000  1.0 0.1307096656
H  H78  1  0.02550000  0.21050000  0.79350000  1.0 0.1307096656
H  H79  1  0.01580000  0.10360000  0.80650000  1.0 0.1307096656
H  H80  1  0.97980000  0.11440000  0.75880000  1.0 0.1206603053
H  H81  1  0.10560000  0.66360000  0.68670000  1.0 0.1113662818
H  H82  1  0.10790000  0.66410000  0.61020000  1.0 0.1113662818
H  H83  1  0.15730000  0.62890000  0.54600000  1.0 0.1113662818
H  H84  1  0.15870000  0.62690000  0.46950000  1.0 0.1206603053
H  H85  1  0.81440000  0.65700000  0.85370000  1.0 0.0918886844
H  H86  1  0.66280000  0.65800000  0.86330000  1.0 0.0732882975
H  H87  1  0.46770000  0.34110000  0.82680000  1.0 0.0788755551
H  H88  1  0.61700000  0.33800000  0.82030000  1.0 0.0965714369
H  H89  1  0.80800000  0.64780000  0.82190000  1.0 0.0918886844
H  H90  1  0.66020000  0.65760000  0.82830000  1.0 0.0732882975
H  H91  1  0.46650000  0.33890000  0.85890000  1.0 0.0732882975
H  H92  1  0.61290000  0.32990000  0.85050000  1.0 0.0918886844
H  H93  1  0.32130000  0.08290000  0.26370000  1.0 0.248718566
H  H94  1  0.70680000  0.36480000  0.38880000  1.0 0.1113662818
H  H95  1  0.51980000  0.26540000  0.38830000  1.0 0.1307096656
H  H96  1  0.52370000  0.22050000  0.25790000  1.0 0.1307096656
H  H97  1  0.71070000  0.31970000  0.26180000  1.0 0.1113662818
H  H98  1  0.35240000  0.19000000  0.34130000  1.0 0.0918886844
H  H99  1  0.35360000  0.08660000  0.33670000  1.0 0.0918886844
H  H100  1  0.38920000  0.32740000  0.30110000  1.0 0.1307096656
H  H101  1  0.28950000  0.47450000  0.29350000  1.0 0.1307096656
H  H102  1  0.39640000  0.48420000  0.30650000  1.0 0.1307096656
H  H103  1  0.38560000  0.52020000  0.25880000  1.0 0.1206603053
H  H104  1  0.83640000  0.39440000  0.18670000  1.0 0.1113662818
H  H105  1  0.83590000  0.39210000  0.11020000  1.0 0.1113662818
H  H106  1  0.87110000  0.34270000  0.04600000  1.0 0.1113662818
H  H107  1  0.87310000  0.34130000  0.96950000  1.0 0.1206603053
H  H108  1  0.84300000  0.68560000  0.35370000  1.0 0.0918886844
H  H109  1  0.84200000  0.83720000  0.36330000  1.0 0.0732882975
H  H110  1  0.15890000  0.03230000  0.32680000  1.0 0.0788755551
H  H111  1  0.16200000  0.88300000  0.32030000  1.0 0.0965714369
H  H112  1  0.85220000  0.69200000  0.32190000  1.0 0.0918886844
H  H113  1  0.84240000  0.83980000  0.32830000  1.0 0.0732882975
H  H114  1  0.16110000  0.03350000  0.35890000  1.0 0.0732882975
H  H115  1  0.17010000  0.88710000  0.35050000  1.0 0.0918886844
H  H116  1  0.67870000  0.91710000  0.26370000  1.0 0.248718566
H  H117  1  0.29320000  0.63520000  0.38880000  1.0 0.1113662818
H  H118  1  0.48020000  0.73460000  0.38830000  1.0 0.1307096656
H  H119  1  0.47630000  0.77950000  0.25790000  1.0 0.1307096656
H  H120  1  0.28930000  0.68030000  0.26180000  1.0 0.1113662818
H  H121  1  0.64760000  0.81000000  0.34130000  1.0 0.0918886844
H  H122  1  0.64640000  0.91340000  0.33670000  1.0 0.0918886844
H  H123  1  0.61080000  0.67260000  0.30110000  1.0 0.1307096656
H  H124  1  0.71050000  0.52550000  0.29350000  1.0 0.1307096656
H  H125  1  0.60360000  0.51580000  0.30650000  1.0 0.1307096656
H  H126  1  0.61440000  0.47980000  0.25880000  1.0 0.1206603053
H  H127  1  0.16360000  0.60560000  0.18670000  1.0 0.1113662818
H  H128  1  0.16410000  0.60790000  0.11020000  1.0 0.1113662818
H  H129  1  0.12890000  0.65730000  0.04600000  1.0 0.1113662818
H  H130  1  0.12690000  0.65870000  0.96950000  1.0 0.1206603053
H  H131  1  0.15700000  0.31440000  0.35370000  1.0 0.0918886844
H  H132  1  0.15800000  0.16280000  0.36330000  1.0 0.0732882975
H  H133  1  0.84110000  0.96770000  0.32680000  1.0 0.0788755551
H  H134  1  0.83800000  0.11700000  0.32030000  1.0 0.0965714369
H  H135  1  0.14780000  0.30800000  0.32190000  1.0 0.0918886844
H  H136  1  0.15760000  0.16020000  0.32830000  1.0 0.0732882975
H  H137  1  0.83890000  0.96650000  0.35890000  1.0 0.0732882975
H  H138  1  0.82990000  0.11290000  0.35050000  1.0 0.0918886844
H  H139  1  0.91710000  0.67870000  0.73630000  1.0 0.248718566
H  H140  1  0.63520000  0.29320000  0.61120000  1.0 0.1113662818
H  H141  1  0.73460000  0.48020000  0.61170000  1.0 0.1307096656
H  H142  1  0.77950000  0.47630000  0.74210000  1.0 0.1307096656
H  H143  1  0.68030000  0.28930000  0.73820000  1.0 0.1113662818
H  H144  1  0.81000000  0.64760000  0.65870000  1.0 0.0918886844
H  H145  1  0.91340000  0.64640000  0.66330000  1.0 0.0918886844
H  H146  1  0.67260000  0.61080000  0.69890000  1.0 0.1307096656
H  H147  1  0.52550000  0.71050000  0.70650000  1.0 0.1307096656
H  H148  1  0.51580000  0.60360000  0.69350000  1.0 0.1307096656
H  H149  1  0.47980000  0.61440000  0.74120000  1.0 0.1206603053
H  H150  1  0.60560000  0.16360000  0.81330000  1.0 0.1113662818
H  H151  1  0.60790000  0.16410000  0.88980000  1.0 0.1113662818
H  H152  1  0.65730000  0.12890000  0.95400000  1.0 0.1113662818
H  H153  1  0.65870000  0.12690000  0.03050000  1.0 0.1206603053
H  H154  1  0.31440000  0.15700000  0.64630000  1.0 0.0918886844
H  H155  1  0.16280000  0.15800000  0.63670000  1.0 0.0732882975
H  H156  1  0.96770000  0.84110000  0.67320000  1.0 0.0788755551
H  H157  1  0.11700000  0.83800000  0.67970000  1.0 0.0965714369
H  H158  1  0.30800000  0.14780000  0.67810000  1.0 0.0918886844
H  H159  1  0.16020000  0.15760000  0.67170000  1.0 0.0732882975
H  H160  1  0.96650000  0.83890000  0.64110000  1.0 0.0732882975
H  H161  1  0.11290000  0.82990000  0.64950000  1.0 0.0918886844
H  H162  1  0.08290000  0.32130000  0.73630000  1.0 0.248718566
H  H163  1  0.36480000  0.70680000  0.61120000  1.0 0.1113662818
H  H164  1  0.26540000  0.51980000  0.61170000  1.0 0.1307096656
H  H165  1  0.22050000  0.52370000  0.74210000  1.0 0.1307096656
H  H166  1  0.31970000  0.71070000  0.73820000  1.0 0.1113662818
H  H167  1  0.19000000  0.35240000  0.65870000  1.0 0.0918886844
H  H168  1  0.08660000  0.35360000  0.66330000  1.0 0.0918886844
H  H169  1  0.32740000  0.38920000  0.69890000  1.0 0.1307096656
H  H170  1  0.47450000  0.28950000  0.70650000  1.0 0.1307096656
H  H171  1  0.48420000  0.39640000  0.69350000  1.0 0.1307096656
H  H172  1  0.52020000  0.38560000  0.74120000  1.0 0.1206603053
H  H173  1  0.39440000  0.83640000  0.81330000  1.0 0.1113662818
H  H174  1  0.39210000  0.83590000  0.88980000  1.0 0.1113662818
H  H175  1  0.34270000  0.87110000  0.95400000  1.0 0.1113662818
H  H176  1  0.34130000  0.87310000  0.03050000  1.0 0.1206603053
H  H177  1  0.68560000  0.84300000  0.64630000  1.0 0.0918886844
H  H178  1  0.83720000  0.84200000  0.63670000  1.0 0.0732882975
H  H179  1  0.03230000  0.15890000  0.67320000  1.0 0.0788755551
H  H180  1  0.88300000  0.16200000  0.67970000  1.0 0.0965714369
H  H181  1  0.69200000  0.85220000  0.67810000  1.0 0.0918886844
H  H182  1  0.83980000  0.84240000  0.67170000  1.0 0.0732882975
H  H183  1  0.03350000  0.16110000  0.64110000  1.0 0.0732882975
H  H184  1  0.88710000  0.17010000  0.64950000  1.0 0.0918886844
C  C1  1  0.83098000  0.16582000  0.13798000  1.0 0.0918886844
C  C2  1  0.94277000  0.22523000  0.13806000  1.0 -0.1906358546
C  C3  1  0.00111000  0.27189000  0.17719000  1.0 0.1522115905
C  C4  1  0.94081000  0.25199000  0.21472000  1.0 -0.1906358546
C  C5  1  0.82893000  0.19207000  0.21220000  1.0 0.0788755551
C  C6  1  0.12176000  0.34384000  0.17714000  1.0 -0.1505651113
C  C7  1  0.21119000  0.30841000  0.23530000  1.0 0.0918886844
C  C8  1  0.16763000  0.20377000  0.21980000  1.0 -0.2957518596
C  C9  1  0.20450000  0.14410000  0.23380000  1.0 0.0038949966
C  C10  1  0.15390000  0.03150000  0.21730000  1.0 -0.4572278943
C  C11  1  0.59707000  0.06293000  0.32871000  1.0 -0.1122641314
C  C12  1  0.59751000  0.06389000  0.37441000  1.0 -0.1733370789
C  C13  1  0.57610000  0.09330000  0.46952000  1.0 -0.1505651113
C  C14  1  0.57560000  0.09400000  0.51508000  1.0 -0.1011716698
C  C15  1  0.49054000  0.82546000  0.16823000  1.0 0.5251725081
C  C16  1  0.49278000  0.72842000  0.16292000  1.0 -0.0168204887
C  C17  1  0.49856000  0.54784000  0.15708000  1.0 -0.0422510574
C  C18  1  0.59290000  0.74350000  0.15100000  1.0 -0.0119597427
C  C19  1  0.59440000  0.65420000  0.14660000  1.0 -0.0422510574
C  C20  1  0.40560000  0.53780000  0.16790000  1.0 -0.0597661152
C  C21  1  0.40330000  0.62710000  0.17130000  1.0 -0.0510694823
C  C22  1  0.58460000  0.73900000  0.17040000  1.0 -0.0422510574
C  C23  1  0.59060000  0.64980000  0.16710000  1.0 -0.0597661152
C  C24  1  0.40180000  0.53540000  0.14920000  1.0 -0.0422510574
C  C25  1  0.39700000  0.62300000  0.15320000  1.0 -0.0422510574
C  C26  1  0.16902000  0.83418000  0.13798000  1.0 0.0918886844
C  C27  1  0.05723000  0.77477000  0.13806000  1.0 -0.1906358546
C  C28  1  0.99889000  0.72811000  0.17719000  1.0 0.1522115905
C  C29  1  0.05919000  0.74801000  0.21472000  1.0 -0.1906358546
C  C30  1  0.17107000  0.80793000  0.21220000  1.0 0.0788755551
C  C31  1  0.87824000  0.65616000  0.17714000  1.0 -0.1505651113
C  C32  1  0.78881000  0.69159000  0.23530000  1.0 0.0918886844
C  C33  1  0.83237000  0.79623000  0.21980000  1.0 -0.2957518596
C  C34  1  0.79550000  0.85590000  0.23380000  1.0 0.0038949966
C  C35  1  0.84610000  0.96850000  0.21730000  1.0 -0.4572278943
C  C36  1  0.40293000  0.93707000  0.32871000  1.0 -0.1122641314
C  C37  1  0.40249000  0.93611000  0.37441000  1.0 -0.1733370789
C  C38  1  0.42390000  0.90670000  0.46952000  1.0 -0.1505651113
C  C39  1  0.42440000  0.90600000  0.51508000  1.0 -0.1011716698
C  C40  1  0.50946000  0.17454000  0.16823000  1.0 0.5251725081
C  C41  1  0.50722000  0.27158000  0.16292000  1.0 -0.0168204887
C  C42  1  0.50144000  0.45216000  0.15708000  1.0 -0.0422510574
C  C43  1  0.40710000  0.25650000  0.15100000  1.0 -0.0119597427
C  C44  1  0.40560000  0.34580000  0.14660000  1.0 -0.0422510574
C  C45  1  0.59440000  0.46220000  0.16790000  1.0 -0.0597661152
C  C46  1  0.59670000  0.37290000  0.17130000  1.0 -0.0510694823
C  C47  1  0.41540000  0.26100000  0.17040000  1.0 -0.0422510574
C  C48  1  0.40940000  0.35020000  0.16710000  1.0 -0.0597661152
C  C49  1  0.59820000  0.46460000  0.14920000  1.0 -0.0422510574
C  C50  1  0.60300000  0.37700000  0.15320000  1.0 -0.0422510574
C  C51  1  0.83418000  0.16902000  0.86202000  1.0 0.0918886844
C  C52  1  0.77477000  0.05723000  0.86194000  1.0 -0.1906358546
C  C53  1  0.72811000  0.99889000  0.82281000  1.0 0.1522115905
C  C54  1  0.74801000  0.05919000  0.78528000  1.0 -0.1906358546
C  C55  1  0.80793000  0.17107000  0.78780000  1.0 0.0788755551
C  C56  1  0.65616000  0.87824000  0.82286000  1.0 -0.1505651113
C  C57  1  0.69159000  0.78881000  0.76470000  1.0 0.0918886844
C  C58  1  0.79623000  0.83237000  0.78020000  1.0 -0.2957518596
C  C59  1  0.85590000  0.79550000  0.76620000  1.0 0.0038949966
C  C60  1  0.96850000  0.84610000  0.78270000  1.0 -0.4572278943
C  C61  1  0.93707000  0.40293000  0.67129000  1.0 -0.1122641314
C  C62  1  0.93611000  0.40249000  0.62559000  1.0 -0.1733370789
C  C63  1  0.90670000  0.42390000  0.53048000  1.0 -0.1505651113
C  C64  1  0.90600000  0.42440000  0.48492000  1.0 -0.1011716698
C  C65  1  0.17454000  0.50946000  0.83177000  1.0 0.5251725081
C  C66  1  0.27158000  0.50722000  0.83708000  1.0 -0.0168204887
C  C67  1  0.45216000  0.50144000  0.84292000  1.0 -0.0510694823
C  C68  1  0.25650000  0.40710000  0.84900000  1.0 -0.0119597427
C  C69  1  0.34580000  0.40560000  0.85340000  1.0 -0.0422510574
C  C70  1  0.46220000  0.59440000  0.83210000  1.0 -0.0597661152
C  C71  1  0.37290000  0.59670000  0.82870000  1.0 -0.0510694823
C  C72  1  0.26100000  0.41540000  0.82960000  1.0 -0.0422510574
C  C73  1  0.35020000  0.40940000  0.83290000  1.0 -0.0597661152
C  C74  1  0.46460000  0.59820000  0.85080000  1.0 -0.0422510574
C  C75  1  0.37700000  0.60300000  0.84680000  1.0 -0.0422510574
C  C76  1  0.16582000  0.83098000  0.86202000  1.0 0.0918886844
C  C77  1  0.22523000  0.94277000  0.86194000  1.0 -0.1906358546
C  C78  1  0.27189000  0.00111000  0.82281000  1.0 0.1522115905
C  C79  1  0.25199000  0.94081000  0.78528000  1.0 -0.1906358546
C  C80  1  0.19207000  0.82893000  0.78780000  1.0 0.0788755551
C  C81  1  0.34384000  0.12176000  0.82286000  1.0 -0.1505651113
C  C82  1  0.30841000  0.21119000  0.76470000  1.0 0.0918886844
C  C83  1  0.20377000  0.16763000  0.78020000  1.0 -0.2957518596
C  C84  1  0.14410000  0.20450000  0.76620000  1.0 0.0038949966
C  C85  1  0.03150000  0.15390000  0.78270000  1.0 -0.4572278943
C  C86  1  0.06293000  0.59707000  0.67129000  1.0 -0.1122641314
C  C87  1  0.06389000  0.59751000  0.62559000  1.0 -0.1733370789
C  C88  1  0.09330000  0.57610000  0.53048000  1.0 -0.1505651113
C  C89  1  0.09400000  0.57560000  0.48492000  1.0 -0.1011716698
C  C90  1  0.82546000  0.49054000  0.83177000  1.0 0.5251725081
C  C91  1  0.72842000  0.49278000  0.83708000  1.0 -0.0168204887
C  C92  1  0.54784000  0.49856000  0.84292000  1.0 -0.0510694823
C  C93  1  0.74350000  0.59290000  0.84900000  1.0 -0.0119597427
C  C94  1  0.65420000  0.59440000  0.85340000  1.0 -0.0422510574
C  C95  1  0.53780000  0.40560000  0.83210000  1.0 -0.0597661152
C  C96  1  0.62710000  0.40330000  0.82870000  1.0 -0.0510694823
C  C97  1  0.73900000  0.58460000  0.82960000  1.0 -0.0422510574
C  C98  1  0.64980000  0.59060000  0.83290000  1.0 -0.0597661152
C  C99  1  0.53540000  0.40180000  0.85080000  1.0 -0.0422510574
C  C100  1  0.62300000  0.39700000  0.84680000  1.0 -0.0422510574
C  C101  1  0.66902000  0.33418000  0.36202000  1.0 0.0918886844
C  C102  1  0.55723000  0.27477000  0.36194000  1.0 -0.1906358546
C  C103  1  0.49889000  0.22811000  0.32281000  1.0 0.1522115905
C  C104  1  0.55919000  0.24801000  0.28528000  1.0 -0.1906358546
C  C105  1  0.67107000  0.30793000  0.28780000  1.0 0.0788755551
C  C106  1  0.37824000  0.15616000  0.32286000  1.0 -0.1505651113
C  C107  1  0.28881000  0.19159000  0.26470000  1.0 0.0918886844
C  C108  1  0.33237000  0.29623000  0.28020000  1.0 -0.2957518596
C  C109  1  0.29550000  0.35590000  0.26620000  1.0 0.0038949966
C  C110  1  0.34610000  0.46850000  0.28270000  1.0 -0.4572278943
C  C111  1  0.90293000  0.43707000  0.17129000  1.0 -0.1122641314
C  C112  1  0.90249000  0.43611000  0.12559000  1.0 -0.1733370789
C  C113  1  0.92390000  0.40670000  0.03048000  1.0 -0.1505651113
C  C114  1  0.92440000  0.40600000  0.98492000  1.0 -0.1011716698
C  C115  1  0.00946000  0.67454000  0.33177000  1.0 0.5251725081
C  C116  1  0.00722000  0.77158000  0.33708000  1.0 -0.0168204887
C  C117  1  0.00144000  0.95216000  0.34292000  1.0 -0.0422510574
C  C118  1  0.90710000  0.75650000  0.34900000  1.0 -0.0119597427
C  C119  1  0.90560000  0.84580000  0.35340000  1.0 -0.0422510574
C  C120  1  0.09440000  0.96220000  0.33210000  1.0 -0.0597661152
C  C121  1  0.09670000  0.87290000  0.32870000  1.0 -0.0510694823
C  C122  1  0.91540000  0.76100000  0.32960000  1.0 -0.0422510574
C  C123  1  0.90940000  0.85020000  0.33290000  1.0 -0.0597661152
C  C124  1  0.09820000  0.96460000  0.35080000  1.0 -0.0422510574
C  C125  1  0.10300000  0.87700000  0.34680000  1.0 -0.0422510574
C  C126  1  0.33098000  0.66582000  0.36202000  1.0 0.0918886844
C  C127  1  0.44277000  0.72523000  0.36194000  1.0 -0.1906358546
C  C128  1  0.50111000  0.77189000  0.32281000  1.0 0.1522115905
C  C129  1  0.44081000  0.75199000  0.28528000  1.0 -0.1906358546
C  C130  1  0.32893000  0.69207000  0.28780000  1.0 0.0788755551
C  C131  1  0.62176000  0.84384000  0.32286000  1.0 -0.1505651113
C  C132  1  0.71119000  0.80841000  0.26470000  1.0 0.0918886844
C  C133  1  0.66763000  0.70377000  0.28020000  1.0 -0.2957518596
C  C134  1  0.70450000  0.64410000  0.26620000  1.0 0.0038949966
C  C135  1  0.65390000  0.53150000  0.28270000  1.0 -0.4572278943
C  C136  1  0.09707000  0.56293000  0.17129000  1.0 -0.1122641314
C  C137  1  0.09751000  0.56389000  0.12559000  1.0 -0.1733370789
C  C138  1  0.07610000  0.59330000  0.03048000  1.0 -0.1505651113
C  C139  1  0.07560000  0.59400000  0.98492000  1.0 -0.1011716698
C  C140  1  0.99054000  0.32546000  0.33177000  1.0 0.5251725081
C  C141  1  0.99278000  0.22842000  0.33708000  1.0 -0.0168204887
C  C142  1  0.99856000  0.04784000  0.34292000  1.0 -0.0422510574
C  C143  1  0.09290000  0.24350000  0.34900000  1.0 -0.0119597427
C  C144  1  0.09440000  0.15420000  0.35340000  1.0 -0.0422510574
C  C145  1  0.90560000  0.03780000  0.33210000  1.0 -0.0597661152
C  C146  1  0.90330000  0.12710000  0.32870000  1.0 -0.0510694823
C  C147  1  0.08460000  0.23900000  0.32960000  1.0 -0.0422510574
C  C148  1  0.09060000  0.14980000  0.33290000  1.0 -0.0597661152
C  C149  1  0.90180000  0.03540000  0.35080000  1.0 -0.0422510574
C  C150  1  0.89700000  0.12300000  0.34680000  1.0 -0.0422510574
C  C151  1  0.66582000  0.33098000  0.63798000  1.0 0.0918886844
C  C152  1  0.72523000  0.44277000  0.63806000  1.0 -0.1906358546
C  C153  1  0.77189000  0.50111000  0.67719000  1.0 0.1522115905
C  C154  1  0.75199000  0.44081000  0.71472000  1.0 -0.1906358546
C  C155  1  0.69207000  0.32893000  0.71220000  1.0 0.0788755551
C  C156  1  0.84384000  0.62176000  0.67714000  1.0 -0.1505651113
C  C157  1  0.80841000  0.71119000  0.73530000  1.0 0.0918886844
C  C158  1  0.70377000  0.66763000  0.71980000  1.0 -0.2957518596
C  C159  1  0.64410000  0.70450000  0.73380000  1.0 0.0038949966
C  C160  1  0.53150000  0.65390000  0.71730000  1.0 -0.4572278943
C  C161  1  0.56293000  0.09707000  0.82871000  1.0 -0.1122641314
C  C162  1  0.56389000  0.09751000  0.87441000  1.0 -0.1733370789
C  C163  1  0.59330000  0.07610000  0.96952000  1.0 -0.1505651113
C  C164  1  0.59400000  0.07560000  0.01508000  1.0 -0.1011716698
C  C165  1  0.32546000  0.99054000  0.66823000  1.0 0.5251725081
C  C166  1  0.22842000  0.99278000  0.66292000  1.0 -0.0168204887
C  C167  1  0.04784000  0.99856000  0.65708000  1.0 -0.0510694823
C  C168  1  0.24350000  0.09290000  0.65100000  1.0 -0.0119597427
C  C169  1  0.15420000  0.09440000  0.64660000  1.0 -0.0422510574
C  C170  1  0.03780000  0.90560000  0.66790000  1.0 -0.0597661152
C  C171  1  0.12710000  0.90330000  0.67130000  1.0 -0.0510694823
C  C172  1  0.23900000  0.08460000  0.67040000  1.0 -0.0422510574
C  C173  1  0.14980000  0.09060000  0.66710000  1.0 -0.0597661152
C  C174  1  0.03540000  0.90180000  0.64920000  1.0 -0.0422510574
C  C175  1  0.12300000  0.89700000  0.65320000  1.0 -0.0422510574
C  C176  1  0.33418000  0.66902000  0.63798000  1.0 0.0918886844
C  C177  1  0.27477000  0.55723000  0.63806000  1.0 -0.1906358546
C  C178  1  0.22811000  0.49889000  0.67719000  1.0 0.1522115905
C  C179  1  0.24801000  0.55919000  0.71472000  1.0 -0.1906358546
C  C180  1  0.30793000  0.67107000  0.71220000  1.0 0.0788755551
C  C181  1  0.15616000  0.37824000  0.67714000  1.0 -0.1505651113
C  C182  1  0.19159000  0.28881000  0.73530000  1.0 0.0918886844
C  C183  1  0.29623000  0.33237000  0.71980000  1.0 -0.2957518596
C  C184  1  0.35590000  0.29550000  0.73380000  1.0 0.0038949966
C  C185  1  0.46850000  0.34610000  0.71730000  1.0 -0.4572278943
C  C186  1  0.43707000  0.90293000  0.82871000  1.0 -0.1122641314
C  C187  1  0.43611000  0.90249000  0.87441000  1.0 -0.1733370789
C  C188  1  0.40670000  0.92390000  0.96952000  1.0 -0.1505651113
C  C189  1  0.40600000  0.92440000  0.01508000  1.0 -0.1011716698
C  C190  1  0.67454000  0.00946000  0.66823000  1.0 0.5251725081
C  C191  1  0.77158000  0.00722000  0.66292000  1.0 -0.0168204887
C  C192  1  0.95216000  0.00144000  0.65708000  1.0 -0.0422510574
C  C193  1  0.75650000  0.90710000  0.65100000  1.0 -0.0119597427
C  C194  1  0.84580000  0.90560000  0.64660000  1.0 -0.0422510574
C  C195  1  0.96220000  0.09440000  0.66790000  1.0 -0.0597661152
C  C196  1  0.87290000  0.09670000  0.67130000  1.0 -0.0510694823
C  C197  1  0.76100000  0.91540000  0.67040000  1.0 -0.0422510574
C  C198  1  0.85020000  0.90940000  0.66710000  1.0 -0.0597661152
C  C199  1  0.96460000  0.09820000  0.64920000  1.0 -0.0422510574
C  C200  1  0.87700000  0.10300000  0.65320000  1.0 -0.0422510574
C  C201  1  0.50000000  0.00000000  0.25657000  1.0 0.5712215964
C  C202  1  0.50000000  0.00000000  0.30536000  1.0 -0.0287323941
C  C203  1  0.50000000  0.00000000  0.39758000  1.0 0.0788755551
C  C204  1  0.50000000  0.00000000  0.44652000  1.0 0.0732882975
C  C205  1  0.50000000  0.00000000  0.53804000  1.0 -0.0119597427
C  C206  1  0.50000000  0.00000000  0.58764000  1.0 0.5712215964
C  C207  1  0.00000000  0.50000000  0.74343000  1.0 0.5712215964
C  C208  1  0.00000000  0.50000000  0.69464000  1.0 -0.0287323941
C  C209  1  0.00000000  0.50000000  0.60242000  1.0 0.0788755551
C  C210  1  0.00000000  0.50000000  0.55348000  1.0 0.0732882975
C  C211  1  0.00000000  0.50000000  0.46196000  1.0 -0.0119597427
C  C212  1  0.00000000  0.50000000  0.41236000  1.0 0.5712215964
C  C213  1  0.00000000  0.50000000  0.24343000  1.0 0.5712215964
C  C214  1  0.00000000  0.50000000  0.19464000  1.0 -0.0287323941
C  C215  1  0.00000000  0.50000000  0.10242000  1.0 0.0788755551
C  C216  1  0.00000000  0.50000000  0.05348000  1.0 0.0732882975
C  C217  1  0.00000000  0.50000000  0.96196000  1.0 -0.0119597427
C  C218  1  0.00000000  0.50000000  0.91236000  1.0 0.5712215964
C  C219  1  0.50000000  0.00000000  0.75657000  1.0 0.5712215964
C  C220  1  0.50000000  0.00000000  0.80536000  1.0 -0.0287323941
C  C221  1  0.50000000  0.00000000  0.89758000  1.0 0.0788755551
C  C222  1  0.50000000  0.00000000  0.94652000  1.0 0.0732882975
C  C223  1  0.50000000  0.00000000  0.03804000  1.0 -0.0119597427
C  C224  1  0.50000000  0.00000000  0.08764000  1.0 0.5712215964
N  N1  1  0.77385000  0.14975000  0.17442000  1.0 -0.2385689851
N  N2  1  0.17225000  0.36635000  0.21987000  1.0 -0.3640445221
N  N3  1  0.22615000  0.85025000  0.17442000  1.0 -0.2385689851
N  N4  1  0.82775000  0.63365000  0.21987000  1.0 -0.3640445221
N  N5  1  0.85025000  0.22615000  0.82558000  1.0 -0.2385689851
N  N6  1  0.63365000  0.82775000  0.78013000  1.0 -0.3640445221
N  N7  1  0.14975000  0.77385000  0.82558000  1.0 -0.2385689851
N  N8  1  0.36635000  0.17225000  0.78013000  1.0 -0.3640445221
N  N9  1  0.72615000  0.35025000  0.32558000  1.0 -0.2385689851
N  N10  1  0.32775000  0.13365000  0.28013000  1.0 -0.3640445221
N  N11  1  0.27385000  0.64975000  0.32558000  1.0 -0.2385689851
N  N12  1  0.67225000  0.86635000  0.28013000  1.0 -0.3640445221
N  N13  1  0.64975000  0.27385000  0.67442000  1.0 -0.2385689851
N  N14  1  0.86635000  0.67225000  0.71987000  1.0 -0.3640445221
N  N15  1  0.35025000  0.72615000  0.67442000  1.0 -0.2385689851
N  N16  1  0.13365000  0.32775000  0.71987000  1.0 -0.3640445221
O  O1  1  0.59073000  0.04487000  0.23744000  1.0 -0.5429018673
O  O2  1  0.56385000  0.08955000  0.60597000  1.0 -0.5486047503
O  O3  1  0.58024000  0.91676000  0.16534000  1.0 -0.52075901
O  O4  1  0.40068000  0.80792000  0.17502000  1.0 -0.5043976968
O  O5  1  0.40927000  0.95513000  0.23744000  1.0 -0.5429018673
O  O6  1  0.43615000  0.91045000  0.60597000  1.0 -0.5486047503
O  O7  1  0.41976000  0.08324000  0.16534000  1.0 -0.52075901
O  O8  1  0.59932000  0.19208000  0.17502000  1.0 -0.5043976968
O  O9  1  0.95513000  0.40927000  0.76256000  1.0 -0.5429018673
O  O10  1  0.91045000  0.43615000  0.39403000  1.0 -0.5486047503
O  O11  1  0.08324000  0.41976000  0.83466000  1.0 -0.52075901
O  O12  1  0.19208000  0.59932000  0.82498000  1.0 -0.5043976968
O  O13  1  0.04487000  0.59073000  0.76256000  1.0 -0.5429018673
O  O14  1  0.08955000  0.56385000  0.39403000  1.0 -0.5486047503
O  O15  1  0.91676000  0.58024000  0.83466000  1.0 -0.52075901
O  O16  1  0.80792000  0.40068000  0.82498000  1.0 -0.5043976968
O  O17  1  0.90927000  0.45513000  0.26256000  1.0 -0.5429018673
O  O18  1  0.93615000  0.41045000  0.89403000  1.0 -0.5486047503
O  O19  1  0.91976000  0.58324000  0.33466000  1.0 -0.52075901
O  O20  1  0.09932000  0.69208000  0.32498000  1.0 -0.5043976968
O  O21  1  0.09073000  0.54487000  0.26256000  1.0 -0.5429018673
O  O22  1  0.06385000  0.58955000  0.89403000  1.0 -0.5486047503
O  O23  1  0.08024000  0.41676000  0.33466000  1.0 -0.52075901
O  O24  1  0.90068000  0.30792000  0.32498000  1.0 -0.5043976968
O  O25  1  0.54487000  0.09073000  0.73744000  1.0 -0.5429018673
O  O26  1  0.58955000  0.06385000  0.10597000  1.0 -0.5486047503
O  O27  1  0.41676000  0.08024000  0.66534000  1.0 -0.52075901
O  O28  1  0.30792000  0.90068000  0.67502000  1.0 -0.5051871773
O  O29  1  0.45513000  0.90927000  0.73744000  1.0 -0.5429018673
O  O30  1  0.41045000  0.93615000  0.10597000  1.0 -0.5486047503
O  O31  1  0.58324000  0.91976000  0.66534000  1.0 -0.52075901
O  O32  1  0.69208000  0.09932000  0.67502000  1.0 -0.5043976968
