# DDEC6 charges by PACMAN v1.1 (https://github.com/mtap-research/PACMAN-charge/)
data_MIXBAY_ASR_pacman
_symmetry_space_group_name_H-M   'P 1'
_cell_length_a   18.14020000
_cell_length_b   18.14020000
_cell_length_c   18.11400000
_cell_angle_alpha   90.00000000
_cell_angle_beta   90.00000000
_cell_angle_gamma   120.00000000
_symmetry_Int_Tables_number   1
_chemical_formula_structural   CuH6C13N3O4
_chemical_formula_sum   'Cu6 H36 C78 N18 O24'
_cell_volume   5162.13237302
_cell_formula_units_Z   6
loop_
 _symmetry_equiv_pos_site_id
 _symmetry_equiv_pos_as_xyz
  1  'x, y, z'
loop_
 _atom_site_type_symbol
 _atom_site_label
 _atom_site_symmetry_multiplicity
 _atom_site_fract_x
 _atom_site_fract_y
 _atom_site_fract_z
 _atom_site_occupancy
 _atom_site_charge
Cu  Cu1  1  0.47324000  0.52552000  0.05833000  1.0 0.8663141983
Cu  Cu2  1  0.47448000  0.94772000  0.05833000  1.0 0.8663141983
Cu  Cu3  1  0.05228000  0.52676000  0.05833000  1.0 0.8649855273
Cu  Cu4  1  0.52552000  0.47324000  0.94167000  1.0 0.8663141983
Cu  Cu5  1  0.52676000  0.05228000  0.94167000  1.0 0.8663141983
Cu  Cu6  1  0.94772000  0.47448000  0.94167000  1.0 0.8663141983
H  H1  1  0.36220000  0.28590000  0.19170000  1.0 0.1412842469
H  H2  1  0.71410000  0.07630000  0.19170000  1.0 0.1412842469
H  H3  1  0.92370000  0.63780000  0.19170000  1.0 0.1412842469
H  H4  1  0.28590000  0.36220000  0.80830000  1.0 0.1412842469
H  H5  1  0.63780000  0.92370000  0.80830000  1.0 0.1412842469
H  H6  1  0.07630000  0.71410000  0.80830000  1.0 0.1412842469
H  H7  1  0.35300000  0.06020000  0.18260000  1.0 0.1412842469
H  H8  1  0.93980000  0.29280000  0.18260000  1.0 0.1412842469
H  H9  1  0.70720000  0.64700000  0.18260000  1.0 0.1412842469
H  H10  1  0.06020000  0.35300000  0.81740000  1.0 0.1412842469
H  H11  1  0.64700000  0.70720000  0.81740000  1.0 0.1412842469
H  H12  1  0.29280000  0.93980000  0.81740000  1.0 0.1412842469
H  H13  1  0.47300000  0.23640000  0.02170000  1.0 0.1472826716
H  H14  1  0.76360000  0.23660000  0.02170000  1.0 0.1472826716
H  H15  1  0.76340000  0.52700000  0.02170000  1.0 0.1472826716
H  H16  1  0.23640000  0.47300000  0.97830000  1.0 0.1472826716
H  H17  1  0.52700000  0.76340000  0.97830000  1.0 0.1472826716
H  H18  1  0.23660000  0.76360000  0.97830000  1.0 0.1472826716
H  H19  1  0.11430000  0.05220000  0.45190000  1.0 0.113497742
H  H20  1  0.94780000  0.06210000  0.45190000  1.0 0.113497742
H  H21  1  0.93790000  0.88570000  0.45190000  1.0 0.113497742
H  H22  1  0.05220000  0.11430000  0.54810000  1.0 0.113497742
H  H23  1  0.88570000  0.93790000  0.54810000  1.0 0.113497742
H  H24  1  0.06210000  0.94780000  0.54810000  1.0 0.113497742
H  H25  1  0.33420000  0.04400000  0.44770000  1.0 0.129738682
H  H26  1  0.95600000  0.29020000  0.44770000  1.0 0.129738682
H  H27  1  0.70980000  0.66580000  0.44770000  1.0 0.129738682
H  H28  1  0.04400000  0.33420000  0.55230000  1.0 0.129738682
H  H29  1  0.66580000  0.70980000  0.55230000  1.0 0.129738682
H  H30  1  0.29020000  0.95600000  0.55230000  1.0 0.129738682
H  H31  1  0.26160000  0.01250000  0.27740000  1.0 0.1412842469
H  H32  1  0.98750000  0.24910000  0.27740000  1.0 0.1412842469
H  H33  1  0.75090000  0.73840000  0.27740000  1.0 0.1412842469
H  H34  1  0.01250000  0.26160000  0.72260000  1.0 0.1412842469
H  H35  1  0.73840000  0.75090000  0.72260000  1.0 0.1412842469
H  H36  1  0.24910000  0.98750000  0.72260000  1.0 0.1412842469
C  C1  1  0.44420000  0.35530000  0.06250000  1.0 0.5786633508
C  C2  1  0.64470000  0.08890000  0.06250000  1.0 0.5786633508
C  C3  1  0.91110000  0.55580000  0.06250000  1.0 0.5786633508
C  C4  1  0.35530000  0.44420000  0.93750000  1.0 0.5786633508
C  C5  1  0.55580000  0.91110000  0.93750000  1.0 0.5786633508
C  C6  1  0.08890000  0.64470000  0.93750000  1.0 0.5786633508
C  C7  1  0.41760000  0.27300000  0.09630000  1.0 -0.0309101923
C  C8  1  0.72700000  0.14460000  0.09630000  1.0 -0.0309101923
C  C9  1  0.85540000  0.58240000  0.09630000  1.0 -0.0309101923
C  C10  1  0.27300000  0.41760000  0.90370000  1.0 -0.0309101923
C  C11  1  0.58240000  0.85540000  0.90370000  1.0 -0.0309101923
C  C12  1  0.14460000  0.72700000  0.90370000  1.0 -0.0309101923
C  C13  1  0.37410000  0.24870000  0.16600000  1.0 -0.1601358908
C  C14  1  0.75130000  0.12540000  0.16600000  1.0 -0.1601358908
C  C15  1  0.87460000  0.62590000  0.16600000  1.0 -0.1601358908
C  C16  1  0.24870000  0.37410000  0.83400000  1.0 -0.1601358908
C  C17  1  0.62590000  0.87460000  0.83400000  1.0 -0.1601358908
C  C18  1  0.12540000  0.75130000  0.83400000  1.0 -0.1601358908
C  C19  1  0.35050000  0.16990000  0.19390000  1.0 0.1412842469
C  C20  1  0.83010000  0.18060000  0.19390000  1.0 0.1412842469
C  C21  1  0.81940000  0.64950000  0.19390000  1.0 0.1412842469
C  C22  1  0.16990000  0.35050000  0.80610000  1.0 0.1412842469
C  C23  1  0.64950000  0.81940000  0.80610000  1.0 0.1412842469
C  C24  1  0.18060000  0.83010000  0.80610000  1.0 0.1412842469
C  C25  1  0.37100000  0.11380000  0.16260000  1.0 -0.1828599034
C  C26  1  0.88620000  0.25720000  0.16260000  1.0 -0.1828599034
C  C27  1  0.74280000  0.62900000  0.16260000  1.0 -0.1828599034
C  C28  1  0.11380000  0.37100000  0.83740000  1.0 -0.1828599034
C  C29  1  0.62900000  0.74280000  0.83740000  1.0 -0.1828599034
C  C30  1  0.25720000  0.88620000  0.83740000  1.0 -0.1828599034
C  C31  1  0.41990000  0.14190000  0.09980000  1.0 0.0145401415
C  C32  1  0.85810000  0.27800000  0.09980000  1.0 0.0145401415
C  C33  1  0.72200000  0.58010000  0.09980000  1.0 0.0145401415
C  C34  1  0.14190000  0.41990000  0.90020000  1.0 0.0145401415
C  C35  1  0.58010000  0.72200000  0.90020000  1.0 0.0152269749
C  C36  1  0.27800000  0.85810000  0.90020000  1.0 0.0152269749
C  C37  1  0.44190000  0.22080000  0.06540000  1.0 -0.0993584204
C  C38  1  0.77920000  0.22110000  0.06540000  1.0 -0.0993584204
C  C39  1  0.77890000  0.55810000  0.06540000  1.0 -0.0993584204
C  C40  1  0.22080000  0.44190000  0.93460000  1.0 -0.0993584204
C  C41  1  0.55810000  0.77890000  0.93460000  1.0 -0.0993584204
C  C42  1  0.22110000  0.77920000  0.93460000  1.0 -0.0993584204
C  C43  1  0.45020000  0.08410000  0.06610000  1.0 0.5654642003
C  C44  1  0.91590000  0.36610000  0.06610000  1.0 0.5654642003
C  C45  1  0.63390000  0.54980000  0.06610000  1.0 0.5654642003
C  C46  1  0.08410000  0.45020000  0.93390000  1.0 0.5654642003
C  C47  1  0.54980000  0.63390000  0.93390000  1.0 0.5654642003
C  C48  1  0.36610000  0.91590000  0.93390000  1.0 0.5648286359
C  C49  1  0.21640000  0.04680000  0.43630000  1.0 0.0530743281
C  C50  1  0.95320000  0.16960000  0.43630000  1.0 0.0530743281
C  C51  1  0.83040000  0.78360000  0.43630000  1.0 0.0530743281
C  C52  1  0.04680000  0.21640000  0.56370000  1.0 0.0530743281
C  C53  1  0.78360000  0.83040000  0.56370000  1.0 0.0530743281
C  C54  1  0.16960000  0.95320000  0.56370000  1.0 0.0530743281
C  C55  1  0.14650000  0.02870000  0.46860000  1.0 -0.1153333096
C  C56  1  0.97130000  0.11780000  0.46860000  1.0 -0.1153333096
C  C57  1  0.88220000  0.85350000  0.46860000  1.0 -0.1147059483
C  C58  1  0.02870000  0.14650000  0.53140000  1.0 -0.1153333096
C  C59  1  0.85350000  0.88220000  0.53140000  1.0 -0.1147059483
C  C60  1  0.11780000  0.97130000  0.53140000  1.0 -0.1153333096
C  C61  1  0.28100000  0.02470000  0.46900000  1.0 -0.1278706102
C  C62  1  0.97530000  0.25630000  0.46900000  1.0 -0.1278706102
C  C63  1  0.74370000  0.71900000  0.46900000  1.0 -0.1278706102
C  C64  1  0.02470000  0.28100000  0.53100000  1.0 -0.1278706102
C  C65  1  0.71900000  0.74370000  0.53100000  1.0 -0.1278706102
C  C66  1  0.25630000  0.97530000  0.53100000  1.0 -0.1278706102
C  C67  1  0.21660000  0.06610000  0.35610000  1.0 0.1601620482
C  C68  1  0.93390000  0.15050000  0.35610000  1.0 0.1601620482
C  C69  1  0.84950000  0.78340000  0.35610000  1.0 0.1601620482
C  C70  1  0.06610000  0.21660000  0.64390000  1.0 0.1601620482
C  C71  1  0.78340000  0.84950000  0.64390000  1.0 0.1601620482
C  C72  1  0.15050000  0.93390000  0.64390000  1.0 0.1601620482
C  C73  1  0.26000000  0.06050000  0.29290000  1.0 -0.1828599034
C  C74  1  0.93950000  0.19950000  0.29290000  1.0 -0.1828599034
C  C75  1  0.80050000  0.74000000  0.29290000  1.0 -0.1828599034
C  C76  1  0.06050000  0.26000000  0.70710000  1.0 -0.1828599034
C  C77  1  0.74000000  0.80050000  0.70710000  1.0 -0.1828599034
C  C78  1  0.19950000  0.93950000  0.70710000  1.0 -0.1828599034
N  N1  1  0.30070000  0.14130000  0.25770000  1.0 0.129738682
N  N2  1  0.85870000  0.15940000  0.25770000  1.0 0.1412842469
N  N3  1  0.84060000  0.69930000  0.25770000  1.0 0.129738682
N  N4  1  0.14130000  0.30070000  0.74230000  1.0 0.129738682
N  N5  1  0.69930000  0.84060000  0.74230000  1.0 0.129738682
N  N6  1  0.15940000  0.85870000  0.74230000  1.0 0.129738682
N  N7  1  0.28240000  0.19670000  0.29910000  1.0 -0.1402463474
N  N8  1  0.80330000  0.08570000  0.29910000  1.0 -0.1402463474
N  N9  1  0.91430000  0.71760000  0.29910000  1.0 -0.1402463474
N  N10  1  0.19670000  0.28240000  0.70090000  1.0 -0.1402463474
N  N11  1  0.71760000  0.91430000  0.70090000  1.0 -0.1402463474
N  N12  1  0.08570000  0.80330000  0.70090000  1.0 -0.1402463474
N  N13  1  0.23040000  0.15020000  0.35980000  1.0 -0.2655231936
N  N14  1  0.84980000  0.08020000  0.35980000  1.0 -0.2655231936
N  N15  1  0.91980000  0.76960000  0.35980000  1.0 -0.2655231936
N  N16  1  0.15020000  0.23040000  0.64020000  1.0 -0.2655231936
N  N17  1  0.76960000  0.91980000  0.64020000  1.0 -0.2655231936
N  N18  1  0.08020000  0.84980000  0.64020000  1.0 -0.2655231936
O  O1  1  0.43610000  0.41370000  0.09620000  1.0 -0.539105962
O  O2  1  0.58630000  0.02240000  0.09620000  1.0 -0.539105962
O  O3  1  0.97760000  0.56390000  0.09620000  1.0 -0.539105962
O  O4  1  0.41370000  0.43610000  0.90380000  1.0 -0.539105962
O  O5  1  0.56390000  0.97760000  0.90380000  1.0 -0.539105962
O  O6  1  0.02240000  0.58630000  0.90380000  1.0 -0.539105962
O  O7  1  0.47710000  0.36970000  0.00160000  1.0 -0.4885517839
O  O8  1  0.63030000  0.10740000  0.00160000  1.0 -0.4885517839
O  O9  1  0.89260000  0.52290000  0.00160000  1.0 -0.4885517839
O  O10  1  0.36970000  0.47710000  0.99840000  1.0 -0.4885517839
O  O11  1  0.52290000  0.89260000  0.99840000  1.0 -0.4885517839
O  O12  1  0.10740000  0.63030000  0.99840000  1.0 -0.4885517839
O  O13  1  0.47930000  0.11030000  0.00000000  1.0 -0.539105962
O  O14  1  0.88970000  0.36900000  0.00000000  1.0 -0.539105962
O  O15  1  0.63100000  0.52070000  0.00000000  1.0 -0.539105962
O  O16  1  0.11030000  0.47930000  0.00000000  1.0 -0.539105962
O  O17  1  0.52070000  0.63100000  0.00000000  1.0 -0.5454567654
O  O18  1  0.36900000  0.88970000  0.00000000  1.0 -0.5454567654
O  O19  1  0.43480000  0.02190000  0.10100000  1.0 -0.4516695721
O  O20  1  0.97810000  0.41290000  0.10100000  1.0 -0.4516695721
O  O21  1  0.58710000  0.56520000  0.10100000  1.0 -0.4516695721
O  O22  1  0.02190000  0.43480000  0.89900000  1.0 -0.4516695721
O  O23  1  0.56520000  0.58710000  0.89900000  1.0 -0.4516695721
O  O24  1  0.41290000  0.97810000  0.89900000  1.0 -0.4516695721
