# DDEC6 charges by PACMAN v1.1 (https://github.com/mtap-research/PACMAN-charge/)
data_MIYWIB_ASR_pacman
_symmetry_space_group_name_H-M   'P 1'
_cell_length_a   10.80010000
_cell_length_b   11.62880000
_cell_length_c   25.31830000
_cell_angle_alpha   89.09400000
_cell_angle_beta   87.42500000
_cell_angle_gamma   78.44000000
_symmetry_Int_Tables_number   1
_chemical_formula_structural   Ag6H3C17N(O2F3)4
_chemical_formula_sum   'Ag24 H12 C68 N4 O32 F48'
_cell_volume   3112.05953997
_cell_formula_units_Z   4
loop_
 _symmetry_equiv_pos_site_id
 _symmetry_equiv_pos_as_xyz
  1  'x, y, z'
loop_
 _atom_site_type_symbol
 _atom_site_label
 _atom_site_symmetry_multiplicity
 _atom_site_fract_x
 _atom_site_fract_y
 _atom_site_fract_z
 _atom_site_occupancy
 _atom_site_charge
Ag  Ag1  1  0.72985000  0.06545000  0.01146000  1.0 0.4084918886
Ag  Ag2  1  0.27015000  0.93455000  0.98854000  1.0 0.4084918886
Ag  Ag3  1  0.49462000  0.04417000  0.11075000  1.0 0.5000026464
Ag  Ag4  1  0.50538000  0.95583000  0.88925000  1.0 0.5000026464
Ag  Ag5  1  0.50000000  0.00000000  0.00000000  1.0 0.0720018962
Ag  Ag6  1  0.53409000  0.18609000  0.93051000  1.0 0.3995868057
Ag  Ag7  1  0.46591000  0.81391000  0.06949000  1.0 0.3995868057
Ag  Ag8  1  0.57939000  0.28395000  0.03357000  1.0 0.4548170358
Ag  Ag9  1  0.42061000  0.71605000  0.96643000  1.0 0.4551725477
Ag  Ag10  1  0.62770000  0.42357000  0.94165000  1.0 0.5135912985
Ag  Ag11  1  0.37230000  0.57643000  0.05835000  1.0 0.5135912985
Ag  Ag12  1  0.40591000  0.58778000  0.42459000  1.0 0.5321044117
Ag  Ag13  1  0.59409000  0.41222000  0.57541000  1.0 0.5321044117
Ag  Ag14  1  0.49148000  0.81492000  0.43177000  1.0 0.4230797678
Ag  Ag15  1  0.50852000  0.18508000  0.56824000  1.0 0.428122887
Ag  Ag16  1  0.40948000  0.70196000  0.52686000  1.0 0.4384221253
Ag  Ag17  1  0.59051000  0.29804000  0.47314000  1.0 0.4384221253
Ag  Ag18  1  0.26957000  0.93194000  0.50653000  1.0 0.3864019006
Ag  Ag19  1  0.73043000  0.06806000  0.49347000  1.0 0.3864019006
Ag  Ag20  1  0.50000000  0.00000000  0.50000000  1.0 0.0566106223
Ag  Ag21  1  0.44901000  0.90847000  0.60234000  1.0 0.4702369958
Ag  Ag22  1  0.55099000  0.09153000  0.39766000  1.0 0.4702369958
Ag  Ag23  1  0.96893000  0.70428000  0.25009000  1.0 0.3291448891
Ag  Ag24  1  0.03107000  0.29572000  0.74991000  1.0 0.3291448891
H  H1  1  0.15856000  0.66841000  0.15957000  1.0 0.1078482293
H  H2  1  0.84144000  0.33159000  0.84043000  1.0 0.1078482293
H  H3  1  0.96957000  0.84172000  0.02341000  1.0 0.1466885708
H  H4  1  0.03043000  0.15828000  0.97659000  1.0 0.1466885708
H  H5  1  0.76294000  0.77769000  0.16905000  1.0 0.1078482293
H  H6  1  0.23706000  0.22231000  0.83095000  1.0 0.1078482293
H  H7  1  0.78399000  0.78174000  0.33705000  1.0 0.1078482293
H  H8  1  0.21601000  0.21826000  0.66295000  1.0 0.1046306804
H  H9  1  0.99059000  0.84925000  0.47320000  1.0 0.1466885708
H  H10  1  0.00941000  0.15075000  0.52680000  1.0 0.1466885708
H  H11  1  0.18019000  0.67485000  0.33243000  1.0 0.1078482293
H  H12  1  0.81981000  0.32515000  0.66757000  1.0 0.1078482293
C  C1  1  0.07209000  0.70868000  0.13967000  1.0 0.0566106223
C  C2  1  0.92791000  0.29132000  0.86033000  1.0 0.0566106223
C  C3  1  0.07941000  0.75048000  0.08728000  1.0 0.0891989485
C  C4  1  0.92059000  0.24952000  0.91272000  1.0 0.0891989485
C  C5  1  0.96710000  0.80661000  0.06389000  1.0 -0.0715937246
C  C6  1  0.03290000  0.19339000  0.93611000  1.0 -0.0715937246
C  C7  1  0.85162000  0.81779000  0.09333000  1.0 0.0891989485
C  C8  1  0.14838000  0.18221000  0.90667000  1.0 0.0891989485
C  C9  1  0.85169000  0.77217000  0.14543000  1.0 0.0720018962
C  C10  1  0.14831000  0.22783000  0.85457000  1.0 0.0720018962
C  C11  1  0.19995000  0.74183000  0.06044000  1.0 0.0720018962
C  C12  1  0.80005000  0.25817000  0.93956000  1.0 0.0720018962
C  C13  1  0.29494000  0.76662000  0.03505000  1.0 -0.5193472216
C  C14  1  0.70506000  0.23338000  0.96495000  1.0 -0.5193472216
C  C15  1  0.73595000  0.87708000  0.07233000  1.0 0.1046306804
C  C16  1  0.26405000  0.12292000  0.92767000  1.0 0.1046306804
C  C17  1  0.62790000  0.92558000  0.05834000  1.0 -0.4333000094
C  C18  1  0.37210000  0.07442000  0.94166000  1.0 -0.4333000094
C  C19  1  0.87293000  0.77750000  0.35706000  1.0 0.078129714
C  C20  1  0.12708000  0.22250000  0.64294000  1.0 0.078129714
C  C21  1  0.87233000  0.82592000  0.40792000  1.0 0.0891989485
C  C22  1  0.12767000  0.17408000  0.59208000  1.0 0.0891989485
C  C23  1  0.98714000  0.81521000  0.43321000  1.0 -0.0715937246
C  C24  1  0.01286000  0.18479000  0.56679000  1.0 -0.0715937246
C  C25  1  0.09997000  0.75958000  0.40619000  1.0 0.0891989485
C  C26  1  0.90003000  0.24042000  0.59381000  1.0 0.0891989485
C  C27  1  0.09380000  0.71612000  0.35494000  1.0 0.0566106223
C  C28  1  0.90620000  0.28388000  0.64506000  1.0 0.0566106223
C  C29  1  0.21775000  0.75264000  0.43043000  1.0 0.0720018962
C  C30  1  0.78225000  0.24736000  0.56956000  1.0 0.0720018962
C  C31  1  0.30637000  0.77090000  0.45781000  1.0 -0.5193472216
C  C32  1  0.69363000  0.22910000  0.54219000  1.0 -0.5250671417
C  C33  1  0.75499000  0.88594000  0.43035000  1.0 0.1078482293
C  C34  1  0.24501000  0.11406000  0.56965000  1.0 0.1078482293
C  C35  1  0.64177000  0.93121000  0.44279000  1.0 -0.4095906824
C  C36  1  0.35823000  0.06879000  0.55721000  1.0 -0.4095906824
C  C37  1  0.69322000  0.55163000  0.43642000  1.0 0.4384221253
C  C38  1  0.30678000  0.44837000  0.56358000  1.0 0.4384221253
C  C39  1  0.83274000  0.48181000  0.43153000  1.0 0.5727198213
C  C40  1  0.16726000  0.51819000  0.56847000  1.0 0.5727198213
C  C41  1  0.17708000  0.84543000  0.60886000  1.0 0.4230797678
C  C42  1  0.82292000  0.15457000  0.39114000  1.0 0.4230797678
C  C43  1  0.10044000  0.85206000  0.66262000  1.0 0.5775192097
C  C44  1  0.89956000  0.14794000  0.33738000  1.0 0.5775192097
C  C45  1  0.34193000  0.44804000  0.92232000  1.0 0.4384221253
C  C46  1  0.65807000  0.55196000  0.07768000  1.0 0.4384221253
C  C47  1  0.20281000  0.51609000  0.91565000  1.0 0.5727198213
C  C48  1  0.79719000  0.48391000  0.08435000  1.0 0.5727198213
C  C49  1  0.66509000  0.69771000  0.58318000  1.0 0.4384221253
C  C50  1  0.33491000  0.30229000  0.41682000  1.0 0.4384221253
C  C51  1  0.79998000  0.63168000  0.59747000  1.0 0.5775192097
C  C52  1  0.20002000  0.36832000  0.40253000  1.0 0.5775192097
C  C53  1  0.79125000  0.14760000  0.11243000  1.0 0.4230797678
C  C54  1  0.20875000  0.85240000  0.88757000  1.0 0.4230797678
C  C55  1  0.85460000  0.14495000  0.16684000  1.0 0.5861275583
C  C56  1  0.14540000  0.85505000  0.83316000  1.0 0.5861275583
C  C57  1  0.69190000  0.70049000  0.92547000  1.0 0.4384221253
C  C58  1  0.30810000  0.29951000  0.07453000  1.0 0.4384221253
C  C59  1  0.83192000  0.63815000  0.91365000  1.0 0.5775192097
C  C60  1  0.16808000  0.36185000  0.08635000  1.0 0.5775192097
C  C61  1  0.65884000  0.08620000  0.81728000  1.0 0.428122887
C  C62  1  0.34116000  0.91380000  0.18272000  1.0 0.4384221253
C  C63  1  0.75344000  0.09965000  0.77002000  1.0 0.5727198213
C  C64  1  0.24656000  0.90035000  0.22998000  1.0 0.5727198213
C  C65  1  0.53086000  0.69789000  0.32149000  1.0 0.428122887
C  C66  1  0.46914000  0.30210000  0.67851000  1.0 0.428122887
C  C67  1  0.60219000  0.67641000  0.26687000  1.0 0.5775192097
C  C68  1  0.39781000  0.32359000  0.73313000  1.0 0.5775192097
N  N1  1  0.96080000  0.72037000  0.16788000  1.0 -0.1828568991
N  N2  1  0.03920000  0.27963000  0.83212000  1.0 -0.1828568991
N  N3  1  0.98180000  0.72492000  0.33148000  1.0 -0.1828568991
N  N4  1  0.01820000  0.27508000  0.66852000  1.0 -0.1828568991
O  O1  1  0.68049000  0.65981000  0.42827000  1.0 -0.4593199909
O  O2  1  0.31951000  0.34019000  0.57173000  1.0 -0.4593199909
O  O3  1  0.60791000  0.49157000  0.44668000  1.0 -0.4719400615
O  O4  1  0.39209000  0.50843000  0.55332000  1.0 -0.4719400615
O  O5  1  0.29391000  0.79733000  0.61219000  1.0 -0.492896846
O  O6  1  0.70609000  0.20267000  0.38781000  1.0 -0.492896846
O  O7  1  0.11828000  0.89375000  0.56977000  1.0 -0.4544973582
O  O8  1  0.88172000  0.10625000  0.43023000  1.0 -0.4544973582
O  O9  1  0.41649000  0.50578000  0.94322000  1.0 -0.4979000301
O  O10  1  0.58351000  0.49422000  0.05678000  1.0 -0.4979000301
O  O11  1  0.36366000  0.34413000  0.90656000  1.0 -0.4544973582
O  O12  1  0.63634000  0.65587000  0.09344000  1.0 -0.4544973582
O  O13  1  0.64658000  0.80794000  0.58739000  1.0 -0.4719400615
O  O14  1  0.35342000  0.19206000  0.41261000  1.0 -0.4719400615
O  O15  1  0.58958000  0.63256000  0.57051000  1.0 -0.4593199909
O  O16  1  0.41042000  0.36744000  0.42949000  1.0 -0.4593199909
O  O17  1  0.67343000  0.19270000  0.11261000  1.0 -0.4979000301
O  O18  1  0.32657000  0.80730000  0.88739000  1.0 -0.4979000301
O  O19  1  0.86451000  0.09866000  0.07526000  1.0 -0.4593199909
O  O20  1  0.13549000  0.90134000  0.92474000  1.0 -0.4593199909
O  O21  1  0.61304000  0.63145000  0.93290000  1.0 -0.4593199909
O  O22  1  0.38696000  0.36855000  0.06710000  1.0 -0.4593199909
O  O23  1  0.67184000  0.80984000  0.92615000  1.0 -0.4719400615
O  O24  1  0.32816000  0.19016000  0.07385000  1.0 -0.4719400615
O  O25  1  0.63378000  0.98460000  0.82233000  1.0 -0.4593199909
O  O26  1  0.36622000  0.01540000  0.17767000  1.0 -0.4593199909
O  O27  1  0.62427000  0.17848000  0.84441000  1.0 -0.4769445569
O  O28  1  0.37573000  0.82152000  0.15559000  1.0 -0.4769445569
O  O29  1  0.53287000  0.79655000  0.34152000  1.0 -0.4719400615
O  O30  1  0.46713000  0.20345000  0.65848000  1.0 -0.4719400615
O  O31  1  0.48963000  0.61041000  0.33932000  1.0 -0.4769445569
O  O32  1  0.51037000  0.38958000  0.66068000  1.0 -0.4769445569
F  F1  1  0.86322000  0.44713000  0.38006000  1.0 -0.198044918
F  F2  1  0.13678000  0.55287000  0.61994000  1.0 -0.198044918
F  F3  1  0.91546000  0.55046000  0.44543000  1.0 -0.1905848126
F  F4  1  0.08454000  0.44954000  0.55457000  1.0 -0.1905848126
F  F5  1  0.85254000  0.38287000  0.46302000  1.0 -0.1905848126
F  F6  1  0.14746000  0.61713000  0.53698000  1.0 -0.1905848126
F  F7  1  0.97385000  0.86222000  0.65694000  1.0 -0.198044918
F  F8  1  0.02615000  0.13778000  0.34306000  1.0 -0.198044918
F  F9  1  0.11876000  0.95332000  0.68761000  1.0 -0.2108886928
F  F10  1  0.88124000  0.04668000  0.31239000  1.0 -0.2108886928
F  F11  1  0.14136000  0.75870000  0.69458000  1.0 -0.1828568991
F  F12  1  0.85864000  0.24130000  0.30542000  1.0 -0.1828568991
F  F13  1  0.11894000  0.44725000  0.93326000  1.0 -0.1905848126
F  F14  1  0.88106000  0.55275000  0.06674000  1.0 -0.1905848126
F  F15  1  0.17490000  0.61798000  0.94417000  1.0 -0.1905848126
F  F16  1  0.82510000  0.38202000  0.05583000  1.0 -0.1905848126
F  F17  1  0.18071000  0.54348000  0.86360000  1.0 -0.198044918
F  F18  1  0.81929000  0.45652000  0.13640000  1.0 -0.198044918
F  F19  1  0.81096000  0.63267000  0.65112000  1.0 -0.198044918
F  F20  1  0.18904000  0.36733000  0.34888000  1.0 -0.198044918
F  F21  1  0.89326000  0.68057000  0.57406000  1.0 -0.1905848126
F  F22  1  0.10674000  0.31943000  0.42594000  1.0 -0.1905848126
F  F23  1  0.82106000  0.51554000  0.58209000  1.0 -0.2108886928
F  F24  1  0.17894000  0.48446000  0.41791000  1.0 -0.2108886928
F  F25  1  0.85372000  0.03617000  0.19058000  1.0 -0.2108886928
F  F26  1  0.14628000  0.96383000  0.80942000  1.0 -0.2108886928
F  F27  1  0.79145000  0.22913000  0.20050000  1.0 -0.1828568991
F  F28  1  0.20855000  0.77087000  0.79950000  1.0 -0.1828568991
F  F29  1  0.97778000  0.15666000  0.16142000  1.0 -0.198044918
F  F30  1  0.02222000  0.84334000  0.83858000  1.0 -0.198044918
F  F31  1  0.91235000  0.68584000  0.94293000  1.0 -0.198044918
F  F32  1  0.08765000  0.31416000  0.05707000  1.0 -0.198044918
F  F33  1  0.85120000  0.51972000  0.92607000  1.0 -0.2108886928
F  F34  1  0.14880000  0.48028000  0.07393000  1.0 -0.2108886928
F  F35  1  0.86464000  0.64680000  0.86125000  1.0 -0.198044918
F  F36  1  0.13536000  0.35320000  0.13875000  1.0 -0.1905848126
F  F37  1  0.87591000  0.08110000  0.78714000  1.0 -0.2108886928
F  F38  1  0.12409000  0.91890000  0.21286000  1.0 -0.2108886928
F  F39  1  0.75121000  0.02341000  0.73003000  1.0 -0.1905848126
F  F40  1  0.24879000  0.97659000  0.26997000  1.0 -0.1905848126
F  F41  1  0.72810000  0.21254000  0.74914000  1.0 -0.2170588732
F  F42  1  0.27190000  0.78746000  0.25086000  1.0 -0.2170588732
F  F43  1  0.55542000  0.60640000  0.23363000  1.0 -0.1905848126
F  F44  1  0.44458000  0.39360000  0.76637000  1.0 -0.1905848126
F  F45  1  0.72641000  0.62214000  0.27641000  1.0 -0.2170588732
F  F46  1  0.27359000  0.37786000  0.72359000  1.0 -0.2170588732
F  F47  1  0.60823000  0.77913000  0.23970000  1.0 -0.198044918
F  F48  1  0.39177000  0.22087000  0.76030000  1.0 -0.198044918
