# DDEC6 charges by PACMAN v1.1 (https://github.com/mtap-research/PACMAN-charge/)
data_MIZKAI_ion_pacman
_symmetry_space_group_name_H-M   'P 1'
_cell_length_a   18.07980000
_cell_length_b   18.07980000
_cell_length_c   18.03200000
_cell_angle_alpha   79.52100000
_cell_angle_beta   100.47900000
_cell_angle_gamma   146.46400000
_symmetry_Int_Tables_number   1
_chemical_formula_structural   Cd3H56C40(N3O5)4
_chemical_formula_sum   'Cd6 H112 C80 N24 O40'
_cell_volume   3197.07444956
_cell_formula_units_Z   2
loop_
 _symmetry_equiv_pos_site_id
 _symmetry_equiv_pos_as_xyz
  1  'x, y, z'
loop_
 _atom_site_type_symbol
 _atom_site_label
 _atom_site_symmetry_multiplicity
 _atom_site_fract_x
 _atom_site_fract_y
 _atom_site_fract_z
 _atom_site_occupancy
 _atom_site_charge
Cd  Cd1  1  0.52369000  0.82077000  0.53751000  1.0 0.8778065019
Cd  Cd2  1  0.82077000  0.52369000  0.96249000  1.0 0.8778065019
Cd  Cd3  1  0.47631000  0.17923000  0.46249000  1.0 0.8778065019
Cd  Cd4  1  0.17923000  0.47631000  0.03751000  1.0 0.8778065019
Cd  Cd5  1  0.50000000  0.00000000  0.50000000  1.0 1.0795553499
Cd  Cd6  1  0.00000000  0.50000000  0.00000000  1.0 1.0795553499
H  H1  1  0.88130000  0.14390000  0.21900000  1.0 0.1197637848
H  H2  1  0.14390000  0.88130000  0.28100000  1.0 0.1197637848
H  H3  1  0.11870000  0.85610000  0.78100000  1.0 0.1197637848
H  H4  1  0.85610000  0.11870000  0.71900000  1.0 0.1197637848
H  H5  1  0.79490000  0.26790000  0.34390000  1.0 0.1197637848
H  H6  1  0.26790000  0.79490000  0.15610000  1.0 0.1197637848
H  H7  1  0.20510000  0.73210000  0.65610000  1.0 0.1197637848
H  H8  1  0.73210000  0.20510000  0.84390000  1.0 0.1197637848
H  H9  1  0.16340000  0.68560000  0.41720000  1.0 0.1197637848
H  H10  1  0.68560000  0.16340000  0.08280000  1.0 0.1197637848
H  H11  1  0.83660000  0.31440000  0.58280000  1.0 0.1197637848
H  H12  1  0.31440000  0.83660000  0.91720000  1.0 0.1197637848
H  H13  1  0.67470000  0.90370000  0.37640000  1.0 0.2697853097
H  H14  1  0.90370000  0.67470000  0.12360000  1.0 0.2697853097
H  H15  1  0.32530000  0.09630000  0.62360000  1.0 0.2697853097
H  H16  1  0.09630000  0.32530000  0.87640000  1.0 0.2697853097
H  H17  1  0.73650000  0.92910000  0.30780000  1.0 0.2697853097
H  H18  1  0.92910000  0.73650000  0.19220000  1.0 0.2697853097
H  H19  1  0.26350000  0.07090000  0.69220000  1.0 0.2697853097
H  H20  1  0.07090000  0.26350000  0.80780000  1.0 0.2697853097
H  H21  1  0.92160000  0.39540000  0.23600000  1.0 0.0724133509
H  H22  1  0.39540000  0.92160000  0.26400000  1.0 0.0724133509
H  H23  1  0.07840000  0.60460000  0.76400000  1.0 0.0724133509
H  H24  1  0.60460000  0.07840000  0.73600000  1.0 0.0724133509
H  H25  1  0.32110000  0.43350000  0.45070000  1.0 0.0596076478
H  H26  1  0.43350000  0.32110000  0.04930000  1.0 0.0596076478
H  H27  1  0.67890000  0.56650000  0.54930000  1.0 0.0596076478
H  H28  1  0.56650000  0.67890000  0.95070000  1.0 0.0596076478
H  H29  1  0.76840000  0.72420000  0.61620000  1.0 0.0923284003
H  H30  1  0.72420000  0.76840000  0.88380000  1.0 0.0923284003
H  H31  1  0.23160000  0.27580000  0.38380000  1.0 0.0923284003
H  H32  1  0.27580000  0.23160000  0.11620000  1.0 0.0923284003
H  H33  1  0.72640000  0.76940000  0.60800000  1.0 0.0923284003
H  H34  1  0.76940000  0.72640000  0.89200000  1.0 0.0923284003
H  H35  1  0.27360000  0.23060000  0.39200000  1.0 0.0923284003
H  H36  1  0.23060000  0.27360000  0.10800000  1.0 0.0923284003
H  H37  1  0.15180000  0.51240000  0.65020000  1.0 0.2088980511
H  H38  1  0.51240000  0.15180000  0.84980000  1.0 0.2088980511
H  H39  1  0.84820000  0.48760000  0.34980000  1.0 0.2088980511
H  H40  1  0.48760000  0.84820000  0.15020000  1.0 0.2088980511
H  H41  1  0.00050000  0.38210000  0.66740000  1.0 0.1633346142
H  H42  1  0.38210000  0.00050000  0.83260000  1.0 0.1633346142
H  H43  1  0.99950000  0.61790000  0.33260000  1.0 0.1633346142
H  H44  1  0.61790000  0.99950000  0.16740000  1.0 0.1633346142
H  H45  1  0.05730000  0.46070000  0.61140000  1.0 0.0800188207
H  H46  1  0.46070000  0.05730000  0.88860000  1.0 0.0800188207
H  H47  1  0.94270000  0.53930000  0.38860000  1.0 0.0800188207
H  H48  1  0.53930000  0.94270000  0.11140000  1.0 0.0800188207
H  H49  1  0.99640000  0.49140000  0.19850000  1.0 0.1889452175
H  H50  1  0.49140000  0.99640000  0.30150000  1.0 0.1889452175
H  H51  1  0.00360000  0.50860000  0.80150000  1.0 0.1889452175
H  H52  1  0.50860000  0.00360000  0.69850000  1.0 0.1889452175
H  H53  1  0.91950000  0.45250000  0.26270000  1.0 0.153510096
H  H54  1  0.45250000  0.91950000  0.23730000  1.0 0.153510096
H  H55  1  0.08050000  0.54750000  0.73730000  1.0 0.153510096
H  H56  1  0.54750000  0.08050000  0.76270000  1.0 0.153510096
H  H57  1  0.75400000  0.01540000  0.32390000  1.0 0.1197637848
H  H58  1  0.01540000  0.75400000  0.17610000  1.0 0.1197637848
H  H59  1  0.24600000  0.98460000  0.67610000  1.0 0.1197637848
H  H60  1  0.98460000  0.24600000  0.82390000  1.0 0.1197637848
H  H61  1  0.68220000  0.69480000  0.56750000  1.0 0.0800188207
H  H62  1  0.69480000  0.68220000  0.93250000  1.0 0.0800188207
H  H63  1  0.31780000  0.30520000  0.43250000  1.0 0.0800188207
H  H64  1  0.30520000  0.31780000  0.06750000  1.0 0.0800188207
H  H65  1  0.59900000  0.61460000  0.61420000  1.0 0.0800188207
H  H66  1  0.61460000  0.59900000  0.88580000  1.0 0.0800188207
H  H67  1  0.40100000  0.38540000  0.38580000  1.0 0.0800188207
H  H68  1  0.38540000  0.40100000  0.11420000  1.0 0.0800188207
H  H69  1  0.39800000  0.50620000  0.40890000  1.0 0.0596076478
H  H70  1  0.50620000  0.39800000  0.09110000  1.0 0.0596076478
H  H71  1  0.60200000  0.49380000  0.59110000  1.0 0.0596076478
H  H72  1  0.49380000  0.60200000  0.90890000  1.0 0.0596076478
H  H73  1  0.69640000  0.65380000  0.65730000  1.0 0.100206475
H  H74  1  0.65380000  0.69640000  0.84270000  1.0 0.100206475
H  H75  1  0.30360000  0.34620000  0.34270000  1.0 0.100206475
H  H76  1  0.34620000  0.30360000  0.15730000  1.0 0.100206475
H  H77  1  0.65690000  0.70150000  0.64750000  1.0 0.0923284003
H  H78  1  0.70150000  0.65690000  0.85250000  1.0 0.0923284003
H  H79  1  0.34310000  0.29850000  0.35250000  1.0 0.0923284003
H  H80  1  0.29850000  0.34310000  0.14750000  1.0 0.0923284003
H  H81  1  0.39780000  0.65500000  0.86360000  1.0 0.2436993071
H  H82  1  0.48230000  0.73490000  0.80010000  1.0 0.219369682
H  H83  1  0.46390000  0.82150000  0.84630000  1.0 0.100206475
H  H84  1  0.39950000  0.78710000  0.76370000  1.0 0.1197637848
H  H85  1  0.30790000  0.70050000  0.83270000  1.0 0.1197637848
H  H86  1  0.31420000  0.51860000  0.78090000  1.0 0.0923284003
H  H87  1  0.21920000  0.50520000  0.79170000  1.0 0.100206475
H  H88  1  0.31080000  0.59180000  0.72280000  1.0 0.1197637848
H  H89  1  0.65500000  0.39780000  0.63640000  1.0 0.2436993071
H  H90  1  0.73490000  0.48230000  0.69990000  1.0 0.219369682
H  H91  1  0.82150000  0.46390000  0.65370000  1.0 0.100206475
H  H92  1  0.78710000  0.39950000  0.73630000  1.0 0.1197637848
H  H93  1  0.70050000  0.30790000  0.66730000  1.0 0.1197637848
H  H94  1  0.51860000  0.31420000  0.71910000  1.0 0.0923284003
H  H95  1  0.50520000  0.21920000  0.70830000  1.0 0.100206475
H  H96  1  0.59180000  0.31080000  0.77720000  1.0 0.1197637848
H  H97  1  0.60220000  0.34500000  0.13640000  1.0 0.2436993071
H  H98  1  0.51770000  0.26510000  0.19990000  1.0 0.219369682
H  H99  1  0.53610000  0.17850000  0.15370000  1.0 0.100206475
H  H100  1  0.60050000  0.21290000  0.23630000  1.0 0.1197637848
H  H101  1  0.69210000  0.29950000  0.16730000  1.0 0.1197637848
H  H102  1  0.68580000  0.48140000  0.21910000  1.0 0.0923284003
H  H103  1  0.78080000  0.49480000  0.20830000  1.0 0.100206475
H  H104  1  0.68920000  0.40820000  0.27720000  1.0 0.1197637848
H  H105  1  0.34500000  0.60220000  0.36360000  1.0 0.2436993071
H  H106  1  0.26510000  0.51770000  0.30010000  1.0 0.219369682
H  H107  1  0.17850000  0.53610000  0.34630000  1.0 0.100206475
H  H108  1  0.21290000  0.60050000  0.26370000  1.0 0.1197637848
H  H109  1  0.29950000  0.69210000  0.33270000  1.0 0.1197637848
H  H110  1  0.48140000  0.68580000  0.28090000  1.0 0.0923284003
H  H111  1  0.49480000  0.78080000  0.29170000  1.0 0.100206475
H  H112  1  0.40820000  0.68920000  0.22280000  1.0 0.1197637848
C  C1  1  0.76197000  0.12983000  0.34480000  1.0 -0.0837329733
C  C2  1  0.12983000  0.76197000  0.15520000  1.0 -0.0837329733
C  C3  1  0.23803000  0.87017000  0.65520000  1.0 -0.0837329733
C  C4  1  0.87017000  0.23803000  0.84480000  1.0 -0.0837329733
C  C5  1  0.78840000  0.09320000  0.30780000  1.0 0.0724133509
C  C6  1  0.09320000  0.78840000  0.19220000  1.0 0.0724133509
C  C7  1  0.21160000  0.90680000  0.69220000  1.0 0.0724133509
C  C8  1  0.90680000  0.21160000  0.80780000  1.0 0.0724133509
C  C9  1  0.86270000  0.16910000  0.24440000  1.0 -0.1806773781
C  C10  1  0.16910000  0.86270000  0.25560000  1.0 -0.1806773781
C  C11  1  0.13730000  0.83090000  0.75560000  1.0 -0.1806773781
C  C12  1  0.83090000  0.13730000  0.74440000  1.0 -0.1806773781
C  C13  1  0.91334000  0.27986000  0.21740000  1.0 -0.0646956838
C  C14  1  0.27986000  0.91334000  0.28260000  1.0 -0.0646956838
C  C15  1  0.08666000  0.72014000  0.78260000  1.0 -0.0646956838
C  C16  1  0.72014000  0.08666000  0.71740000  1.0 -0.0646956838
C  C17  1  0.88360000  0.31460000  0.25440000  1.0 0.100206475
C  C18  1  0.31460000  0.88360000  0.24560000  1.0 0.100206475
C  C19  1  0.11640000  0.68540000  0.74560000  1.0 0.100206475
C  C20  1  0.68540000  0.11640000  0.75440000  1.0 0.100206475
C  C21  1  0.81102000  0.24078000  0.31760000  1.0 -0.1854660264
C  C22  1  0.24078000  0.81102000  0.18240000  1.0 -0.1854660264
C  C23  1  0.18898000  0.75922000  0.68240000  1.0 -0.1854660264
C  C24  1  0.75922000  0.18898000  0.81760000  1.0 -0.1854660264
C  C25  1  0.68240000  0.05040000  0.41410000  1.0 0.5750081711
C  C26  1  0.05040000  0.68240000  0.08590000  1.0 0.5750081711
C  C27  1  0.31760000  0.94960000  0.58590000  1.0 0.5750081711
C  C28  1  0.94960000  0.31760000  0.91410000  1.0 0.5750081711
C  C29  1  0.99410000  0.35890000  0.14900000  1.0 0.5624057524
C  C30  1  0.35890000  0.99410000  0.35100000  1.0 0.5624057524
C  C31  1  0.00590000  0.64110000  0.85100000  1.0 0.5624057524
C  C32  1  0.64110000  0.00590000  0.64900000  1.0 0.5624057524
C  C33  1  0.13339000  0.58741000  0.51700000  1.0 -0.0491141468
C  C34  1  0.58741000  0.13339000  0.98300000  1.0 -0.0491141468
C  C35  1  0.86661000  0.41259000  0.48300000  1.0 -0.0491141468
C  C36  1  0.41259000  0.86661000  0.01700000  1.0 -0.0491141468
C  C37  1  0.03403000  0.47637000  0.56580000  1.0 0.100206475
C  C38  1  0.47637000  0.03403000  0.93420000  1.0 0.100206475
C  C39  1  0.96597000  0.52363000  0.43420000  1.0 0.100206475
C  C40  1  0.52363000  0.96597000  0.06580000  1.0 0.100206475
C  C41  1  0.09569000  0.60931000  0.45090000  1.0 -0.1707027106
C  C42  1  0.60931000  0.09569000  0.04910000  1.0 -0.1707027106
C  C43  1  0.90431000  0.39069000  0.54910000  1.0 -0.1707027106
C  C44  1  0.39069000  0.90431000  0.95090000  1.0 -0.1707027106
C  C45  1  0.27688000  0.68072000  0.52910000  1.0 0.5527984076
C  C46  1  0.68072000  0.27688000  0.97090000  1.0 0.5527984076
C  C47  1  0.72312000  0.31928000  0.47090000  1.0 0.5527984076
C  C48  1  0.31928000  0.72312000  0.02910000  1.0 0.5527984076
C  C49  1  0.50130000  0.57490000  0.51020000  1.0 -0.1513910475
C  C50  1  0.57490000  0.50130000  0.98980000  1.0 -0.1513910475
C  C51  1  0.49870000  0.42510000  0.48980000  1.0 -0.1513910475
C  C52  1  0.42510000  0.49870000  0.01020000  1.0 -0.1513910475
C  C53  1  0.50370000  0.66030000  0.51720000  1.0 0.3866536641
C  C54  1  0.66030000  0.50370000  0.98280000  1.0 0.3866536641
C  C55  1  0.49630000  0.33970000  0.48280000  1.0 0.3866536641
C  C56  1  0.33970000  0.49630000  0.01720000  1.0 0.3866536641
C  C57  1  0.60700000  0.61420000  0.54060000  1.0 0.0448392168
C  C58  1  0.61420000  0.60700000  0.95940000  1.0 0.0448392168
C  C59  1  0.39300000  0.38580000  0.45940000  1.0 0.0448392168
C  C60  1  0.38580000  0.39300000  0.04060000  1.0 0.0448392168
C  C61  1  0.39380000  0.46040000  0.47130000  1.0 -0.0741763837
C  C62  1  0.46040000  0.39380000  0.02870000  1.0 -0.0741763837
C  C63  1  0.60620000  0.53960000  0.52870000  1.0 -0.0741763837
C  C64  1  0.53960000  0.60620000  0.97130000  1.0 -0.0741763837
C  C65  1  0.55830000  0.56790000  0.56880000  1.0 0.0462391288
C  C66  1  0.56790000  0.55830000  0.93120000  1.0 0.0462391288
C  C67  1  0.44170000  0.43210000  0.43120000  1.0 0.0462391288
C  C68  1  0.43210000  0.44170000  0.06880000  1.0 0.0462391288
C  C69  1  0.44110000  0.50370000  0.44620000  1.0 -0.0942903175
C  C70  1  0.50370000  0.44110000  0.05380000  1.0 -0.0942903175
C  C71  1  0.55890000  0.49630000  0.55380000  1.0 -0.0942903175
C  C72  1  0.49630000  0.55890000  0.94620000  1.0 -0.0942903175
C  C73  1  0.38790000  0.75010000  0.81380000  1.0 -0.3120223112
C  C74  1  0.30520000  0.56480000  0.77500000  1.0 -0.3784698821
C  C75  1  0.75010000  0.38790000  0.68620000  1.0 -0.3120223112
C  C76  1  0.56480000  0.30520000  0.72500000  1.0 -0.3784698821
C  C77  1  0.61210000  0.24990000  0.18620000  1.0 -0.3120223112
C  C78  1  0.69480000  0.43520000  0.22500000  1.0 -0.3784698821
C  C79  1  0.24990000  0.61210000  0.31380000  1.0 -0.3120223112
C  C80  1  0.43520000  0.69480000  0.27500000  1.0 -0.3784698821
N  N1  1  0.73030000  0.97170000  0.33030000  1.0 -0.5124362535
N  N2  1  0.97170000  0.73030000  0.16970000  1.0 -0.5124362535
N  N3  1  0.26970000  0.02830000  0.66970000  1.0 -0.5124362535
N  N4  1  0.02830000  0.26970000  0.83030000  1.0 -0.5124362535
N  N5  1  0.71540000  0.71660000  0.59600000  1.0 -0.0995623651
N  N6  1  0.71660000  0.71540000  0.90400000  1.0 -0.0995623651
N  N7  1  0.28460000  0.28340000  0.40400000  1.0 -0.0995623651
N  N8  1  0.28340000  0.28460000  0.09600000  1.0 -0.0995623651
N  N9  1  0.06590000  0.45410000  0.63660000  1.0 -0.5013549454
N  N10  1  0.45410000  0.06590000  0.86340000  1.0 -0.5013549454
N  N11  1  0.93410000  0.54590000  0.36340000  1.0 -0.5013549454
N  N12  1  0.54590000  0.93410000  0.13660000  1.0 -0.5013549454
N  N13  1  0.94140000  0.43480000  0.23680000  1.0 -0.4899777151
N  N14  1  0.43480000  0.94140000  0.26320000  1.0 -0.4899777151
N  N15  1  0.05860000  0.56520000  0.76320000  1.0 -0.4899777151
N  N16  1  0.56520000  0.05860000  0.73680000  1.0 -0.4899777151
N  N17  1  0.64950000  0.65250000  0.63350000  1.0 -0.1806773781
N  N18  1  0.65250000  0.64950000  0.86650000  1.0 -0.1806773781
N  N19  1  0.35050000  0.34750000  0.36650000  1.0 -0.1806773781
N  N20  1  0.34750000  0.35050000  0.13350000  1.0 -0.1806773781
N  N21  1  0.40390000  0.68410000  0.81560000  1.0 -0.1378978616
N  N22  1  0.68410000  0.40390000  0.68440000  1.0 -0.1378978616
N  N23  1  0.59610000  0.31590000  0.18440000  1.0 -0.1378978616
N  N24  1  0.31590000  0.59610000  0.31560000  1.0 -0.1378978616
O  O1  1  0.63855000  0.94965000  0.43620000  1.0 -0.5305357105
O  O2  1  0.94965000  0.63855000  0.06380000  1.0 -0.5305357105
O  O3  1  0.36145000  0.05035000  0.56380000  1.0 -0.5305357105
O  O4  1  0.05035000  0.36145000  0.93620000  1.0 -0.5305357105
O  O5  1  0.66343000  0.09037000  0.44610000  1.0 -0.5508581824
O  O6  1  0.09037000  0.66343000  0.05390000  1.0 -0.5508581824
O  O7  1  0.33657000  0.90963000  0.55390000  1.0 -0.5508581824
O  O8  1  0.90963000  0.33657000  0.94610000  1.0 -0.5508581824
O  O9  1  0.04234000  0.34166000  0.13080000  1.0 -0.5305357105
O  O10  1  0.34166000  0.04234000  0.36920000  1.0 -0.5305357105
O  O11  1  0.95766000  0.65834000  0.86920000  1.0 -0.5305357105
O  O12  1  0.65834000  0.95766000  0.63080000  1.0 -0.5305357105
O  O13  1  0.01520000  0.44160000  0.11620000  1.0 -0.5552024669
O  O14  1  0.44160000  0.01520000  0.38380000  1.0 -0.5552024669
O  O15  1  0.98480000  0.55840000  0.88380000  1.0 -0.5552024669
O  O16  1  0.55840000  0.98480000  0.61620000  1.0 -0.5552024669
O  O17  1  0.30676000  0.65164000  0.58180000  1.0 -0.5204570271
O  O18  1  0.65164000  0.30676000  0.91820000  1.0 -0.5204570271
O  O19  1  0.69324000  0.34836000  0.41820000  1.0 -0.5204570271
O  O20  1  0.34836000  0.69324000  0.08180000  1.0 -0.5204570271
O  O21  1  0.36295000  0.78245000  0.48390000  1.0 -0.5779926605
O  O22  1  0.78245000  0.36295000  0.01610000  1.0 -0.5779926605
O  O23  1  0.63705000  0.21755000  0.51610000  1.0 -0.5779926605
O  O24  1  0.21755000  0.63705000  0.98390000  1.0 -0.5779926605
O  O25  1  0.59400000  0.75520000  0.56010000  1.0 -0.1256881538
O  O26  1  0.75520000  0.59400000  0.93990000  1.0 -0.1256881538
O  O27  1  0.40600000  0.24480000  0.43990000  1.0 -0.1256881538
O  O28  1  0.24480000  0.40600000  0.06010000  1.0 -0.1256881538
O  O29  1  0.41450000  0.62930000  0.48410000  1.0 -0.1378978616
O  O30  1  0.62930000  0.41450000  0.01590000  1.0 -0.1378978616
O  O31  1  0.58550000  0.37070000  0.51590000  1.0 -0.1378978616
O  O32  1  0.37070000  0.58550000  0.98410000  1.0 -0.1378978616
O  O33  1  0.55070000  0.71510000  0.58060000  1.0 -0.1513910475
O  O34  1  0.71510000  0.55070000  0.91940000  1.0 -0.1513910475
O  O35  1  0.44930000  0.28490000  0.41940000  1.0 -0.1513910475
O  O36  1  0.28490000  0.44930000  0.08060000  1.0 -0.1513910475
O  O37  1  0.45450000  0.66730000  0.46290000  1.0 -0.1707027106
O  O38  1  0.66730000  0.45450000  0.03710000  1.0 -0.1616632021
O  O39  1  0.54550000  0.33270000  0.53710000  1.0 -0.1707027106
O  O40  1  0.33270000  0.54550000  0.96290000  1.0 -0.1707027106
