# DDEC6 charges by PACMAN v1.1 (https://github.com/mtap-research/PACMAN-charge/)
data_MOBJOF_ASR_pacman
_symmetry_space_group_name_H-M   'P 1'
_cell_length_a   28.84000000
_cell_length_b   28.84000000
_cell_length_c   34.32000000
_cell_angle_alpha   90.00000000
_cell_angle_beta   90.00000000
_cell_angle_gamma   90.00000000
_symmetry_Int_Tables_number   1
_chemical_formula_structural   Cs41V48H48C144(S4O117)2
_chemical_formula_sum   'Cs82 V96 H96 C288 S16 O468'
_cell_volume   28545.50899200
_cell_formula_units_Z   2
loop_
 _symmetry_equiv_pos_site_id
 _symmetry_equiv_pos_as_xyz
  1  'x, y, z'
loop_
 _atom_site_type_symbol
 _atom_site_label
 _atom_site_symmetry_multiplicity
 _atom_site_fract_x
 _atom_site_fract_y
 _atom_site_fract_z
 _atom_site_occupancy
 _atom_site_charge
Cs  Cs1  1  0.72028000  0.77930000  0.09573000  1.0 0.9712026682
Cs  Cs2  1  0.60520000  0.49960000  0.46465000  1.0 0.8682193797
Cs  Cs3  1  0.67720000  0.67700000  0.99998000  1.0 0.9499153671
Cs  Cs4  1  0.65770000  0.59640000  0.57350000  1.0 0.9116013389
Cs  Cs5  1  0.59680000  0.65730000  0.42660000  1.0 0.9116013389
Cs  Cs6  1  0.60090000  0.67160000  0.13730000  1.0 0.9381485995
Cs  Cs7  1  0.50050000  0.67040000  0.92570000  1.0 0.8994075867
Cs  Cs8  1  0.77650000  0.49990000  0.64130000  1.0 0.9299174707
Cs  Cs9  1  0.00010000  0.35070000  0.80240000  1.0 0.9499153671
Cs  Cs10  1  0.82840000  0.89920000  0.13750000  1.0 0.9499153671
Cs  Cs11  1  0.27972000  0.22070000  0.09573000  1.0 0.9712026682
Cs  Cs12  1  0.39480000  0.50040000  0.46465000  1.0 0.8682193797
Cs  Cs13  1  0.32280000  0.32300000  0.99998000  1.0 0.9499153671
Cs  Cs14  1  0.34230000  0.40360000  0.57350000  1.0 0.9116013389
Cs  Cs15  1  0.40320000  0.34270000  0.42660000  1.0 0.9116013389
Cs  Cs16  1  0.39910000  0.32840000  0.13730000  1.0 0.9381485995
Cs  Cs17  1  0.49950000  0.32960000  0.92570000  1.0 0.8994075867
Cs  Cs18  1  0.22350000  0.50010000  0.64130000  1.0 0.9299174707
Cs  Cs19  1  0.99990000  0.64930000  0.80240000  1.0 0.9499153671
Cs  Cs20  1  0.17160000  0.10080000  0.13750000  1.0 0.9499153671
Cs  Cs21  1  0.72070000  0.22028000  0.09573000  1.0 0.9712026682
Cs  Cs22  1  0.00040000  0.10520000  0.46465000  1.0 0.8682193797
Cs  Cs23  1  0.82300000  0.17720000  0.99998000  1.0 0.9499153671
Cs  Cs24  1  0.90360000  0.15770000  0.57350000  1.0 0.9116013389
Cs  Cs25  1  0.84270000  0.09680000  0.42660000  1.0 0.9116013389
Cs  Cs26  1  0.82840000  0.10090000  0.13730000  1.0 0.9381485995
Cs  Cs27  1  0.82960000  0.00050000  0.92570000  1.0 0.8994075867
Cs  Cs28  1  0.00010000  0.27650000  0.64130000  1.0 0.9299174707
Cs  Cs29  1  0.14930000  0.50010000  0.80240000  1.0 0.9499153671
Cs  Cs30  1  0.60080000  0.32840000  0.13750000  1.0 0.9499153671
Cs  Cs31  1  0.27930000  0.77972000  0.09573000  1.0 0.9712026682
Cs  Cs32  1  0.99960000  0.89480000  0.46465000  1.0 0.8682193797
Cs  Cs33  1  0.17700000  0.82280000  0.99998000  1.0 0.9381485995
Cs  Cs34  1  0.09640000  0.84230000  0.57350000  1.0 0.9116013389
Cs  Cs35  1  0.15730000  0.90320000  0.42660000  1.0 0.9116013389
Cs  Cs36  1  0.17160000  0.89910000  0.13730000  1.0 0.9381485995
Cs  Cs37  1  0.17040000  0.99950000  0.92570000  1.0 0.8994075867
Cs  Cs38  1  0.99990000  0.72350000  0.64130000  1.0 0.9299174707
Cs  Cs39  1  0.85070000  0.49990000  0.80240000  1.0 0.9499153671
Cs  Cs40  1  0.39920000  0.67160000  0.13750000  1.0 0.9499153671
Cs  Cs41  1  0.77972000  0.72070000  0.90427000  1.0 0.9712026682
Cs  Cs42  1  0.89480000  0.00040000  0.53535000  1.0 0.8682193797
Cs  Cs43  1  0.82280000  0.82300000  0.00002000  1.0 0.9499153671
Cs  Cs44  1  0.84230000  0.90360000  0.42650000  1.0 0.9116013389
Cs  Cs45  1  0.90320000  0.84270000  0.57340000  1.0 0.9116013389
Cs  Cs46  1  0.89910000  0.82840000  0.86270000  1.0 0.9381485995
Cs  Cs47  1  0.99950000  0.82960000  0.07430000  1.0 0.8994075867
Cs  Cs48  1  0.72350000  0.00010000  0.35870000  1.0 0.9299174707
Cs  Cs49  1  0.49990000  0.14930000  0.19760000  1.0 0.9499153671
Cs  Cs50  1  0.67160000  0.60080000  0.86250000  1.0 0.9499153671
Cs  Cs51  1  0.22028000  0.27930000  0.90427000  1.0 0.9712026682
Cs  Cs52  1  0.10520000  0.99960000  0.53535000  1.0 0.8682193797
Cs  Cs53  1  0.17720000  0.17700000  0.00002000  1.0 0.9381485995
Cs  Cs54  1  0.15770000  0.09640000  0.42650000  1.0 0.9116013389
Cs  Cs55  1  0.09680000  0.15730000  0.57340000  1.0 0.9116013389
Cs  Cs56  1  0.10090000  0.17160000  0.86270000  1.0 0.9299174707
Cs  Cs57  1  0.00050000  0.17040000  0.07430000  1.0 0.8994075867
Cs  Cs58  1  0.27650000  0.99990000  0.35870000  1.0 0.9299174707
Cs  Cs59  1  0.50010000  0.85070000  0.19760000  1.0 0.9499153671
Cs  Cs60  1  0.32840000  0.39920000  0.86250000  1.0 0.9499153671
Cs  Cs61  1  0.77930000  0.27972000  0.90427000  1.0 0.9712026682
Cs  Cs62  1  0.49960000  0.39480000  0.53535000  1.0 0.8682193797
Cs  Cs63  1  0.67700000  0.32280000  0.00002000  1.0 0.9499153671
Cs  Cs64  1  0.59640000  0.34230000  0.42650000  1.0 0.9186270278
Cs  Cs65  1  0.65730000  0.40320000  0.57340000  1.0 0.9116013389
Cs  Cs66  1  0.67160000  0.39910000  0.86270000  1.0 0.9381485995
Cs  Cs67  1  0.67040000  0.49950000  0.07430000  1.0 0.8994075867
Cs  Cs68  1  0.49990000  0.22350000  0.35870000  1.0 0.9299174707
Cs  Cs69  1  0.35070000  0.99990000  0.19760000  1.0 0.9499153671
Cs  Cs70  1  0.89920000  0.17160000  0.86250000  1.0 0.9499153671
Cs  Cs71  1  0.22070000  0.72028000  0.90427000  1.0 0.9712026682
Cs  Cs72  1  0.50040000  0.60520000  0.53535000  1.0 0.8682193797
Cs  Cs73  1  0.32300000  0.67720000  0.00002000  1.0 0.9499153671
Cs  Cs74  1  0.40360000  0.65770000  0.42650000  1.0 0.9116013389
Cs  Cs75  1  0.34270000  0.59680000  0.57340000  1.0 0.9116013389
Cs  Cs76  1  0.32840000  0.60090000  0.86270000  1.0 0.9299174707
Cs  Cs77  1  0.32960000  0.50050000  0.07430000  1.0 0.9116013389
Cs  Cs78  1  0.50010000  0.77650000  0.35870000  1.0 0.9299174707
Cs  Cs79  1  0.64930000  0.00010000  0.19760000  1.0 0.9499153671
Cs  Cs80  1  0.10080000  0.82840000  0.86250000  1.0 0.9499153671
Cs  Cs81  1  0.00000000  0.50000000  0.78100000  1.0 0.8682193797
Cs  Cs82  1  0.50000000  0.00000000  0.21900000  1.0 0.8682193797
V  V1  1  0.86320000  0.77020000  0.09840000  1.0 1.9508784802
V  V2  1  0.72950000  0.63660000  0.09840000  1.0 1.9508784802
V  V3  1  0.80700000  0.69270000  0.03920000  1.0 1.9396686197
V  V4  1  0.80730000  0.77430000  0.18820000  1.0 1.9508784802
V  V5  1  0.72550000  0.69240000  0.18830000  1.0 1.9268873077
V  V6  1  0.67040000  0.55700000  0.37080000  1.0 1.8974720985
V  V7  1  0.67060000  0.44200000  0.37100000  1.0 1.9061966818
V  V8  1  0.71410000  0.40670000  0.46000000  1.0 1.9584174048
V  V9  1  0.71360000  0.59300000  0.45990000  1.0 1.9396686197
V  V10  1  0.72870000  0.49970000  0.51960000  1.0 1.9185023945
V  V11  1  0.92130000  0.50010000  0.67510000  1.0 1.9396686197
V  V12  1  0.94390000  0.44390000  0.88460000  1.0 1.8222784739
V  V13  1  0.13680000  0.22980000  0.09840000  1.0 1.9508784802
V  V14  1  0.27050000  0.36340000  0.09840000  1.0 1.9508784802
V  V15  1  0.19300000  0.30730000  0.03920000  1.0 1.9396686197
V  V16  1  0.19270000  0.22570000  0.18820000  1.0 1.9508784802
V  V17  1  0.27450000  0.30760000  0.18830000  1.0 1.9268873077
V  V18  1  0.32960000  0.44300000  0.37080000  1.0 1.8974720985
V  V19  1  0.32940000  0.55800000  0.37100000  1.0 1.8974720985
V  V20  1  0.28590000  0.59330000  0.46000000  1.0 1.9584174048
V  V21  1  0.28640000  0.40700000  0.45990000  1.0 1.9396686197
V  V22  1  0.27130000  0.50030000  0.51960000  1.0 1.9185023945
V  V23  1  0.07870000  0.49990000  0.67510000  1.0 1.9396686197
V  V24  1  0.05610000  0.55610000  0.88460000  1.0 1.8222784739
V  V25  1  0.72980000  0.36320000  0.09840000  1.0 1.9508784802
V  V26  1  0.86340000  0.22950000  0.09840000  1.0 1.9508784802
V  V27  1  0.80730000  0.30700000  0.03920000  1.0 1.9396686197
V  V28  1  0.72570000  0.30730000  0.18820000  1.0 1.9508784802
V  V29  1  0.80760000  0.22550000  0.18830000  1.0 1.9268873077
V  V30  1  0.94300000  0.17040000  0.37080000  1.0 1.8974720985
V  V31  1  0.05800000  0.17060000  0.37100000  1.0 1.9061966818
V  V32  1  0.09330000  0.21410000  0.46000000  1.0 1.9584174048
V  V33  1  0.90700000  0.21360000  0.45990000  1.0 1.9396686197
V  V34  1  0.00030000  0.22870000  0.51960000  1.0 1.9185023945
V  V35  1  0.99990000  0.42130000  0.67510000  1.0 1.9396686197
V  V36  1  0.05610000  0.44390000  0.88460000  1.0 1.8222784739
V  V37  1  0.27020000  0.63680000  0.09840000  1.0 1.9508784802
V  V38  1  0.13660000  0.77050000  0.09840000  1.0 1.9508784802
V  V39  1  0.19270000  0.69300000  0.03920000  1.0 1.9396686197
V  V40  1  0.27430000  0.69270000  0.18820000  1.0 1.9508784802
V  V41  1  0.19240000  0.77450000  0.18830000  1.0 1.9268873077
V  V42  1  0.05700000  0.82960000  0.37080000  1.0 1.8974720985
V  V43  1  0.94200000  0.82940000  0.37100000  1.0 1.9061966818
V  V44  1  0.90670000  0.78590000  0.46000000  1.0 1.9584174048
V  V45  1  0.09300000  0.78640000  0.45990000  1.0 1.9396686197
V  V46  1  0.99970000  0.77130000  0.51960000  1.0 1.9185023945
V  V47  1  0.00010000  0.57870000  0.67510000  1.0 1.9396686197
V  V48  1  0.94390000  0.55610000  0.88460000  1.0 1.8222784739
V  V49  1  0.63680000  0.72980000  0.90160000  1.0 1.9508784802
V  V50  1  0.77050000  0.86340000  0.90160000  1.0 1.9508784802
V  V51  1  0.69300000  0.80730000  0.96080000  1.0 1.9396686197
V  V52  1  0.69270000  0.72570000  0.81180000  1.0 1.9508784802
V  V53  1  0.77450000  0.80760000  0.81170000  1.0 1.9268873077
V  V54  1  0.82960000  0.94300000  0.62920000  1.0 1.8974720985
V  V55  1  0.82940000  0.05800000  0.62900000  1.0 1.9061966818
V  V56  1  0.78590000  0.09330000  0.54000000  1.0 1.9584174048
V  V57  1  0.78640000  0.90700000  0.54010000  1.0 1.9396686197
V  V58  1  0.77130000  0.00030000  0.48040000  1.0 1.9185023945
V  V59  1  0.57870000  0.99990000  0.32490000  1.0 1.9396686197
V  V60  1  0.55610000  0.05610000  0.11540000  1.0 1.8222784739
V  V61  1  0.36320000  0.27020000  0.90160000  1.0 1.9508784802
V  V62  1  0.22950000  0.13660000  0.90160000  1.0 1.9508784802
V  V63  1  0.30700000  0.19270000  0.96080000  1.0 1.9396686197
V  V64  1  0.30730000  0.27430000  0.81180000  1.0 1.9508784802
V  V65  1  0.22550000  0.19240000  0.81170000  1.0 1.9268873077
V  V66  1  0.17040000  0.05700000  0.62920000  1.0 1.8974720985
V  V67  1  0.17060000  0.94200000  0.62900000  1.0 1.8974720985
V  V68  1  0.21410000  0.90670000  0.54000000  1.0 1.9584174048
V  V69  1  0.21360000  0.09300000  0.54010000  1.0 1.9396686197
V  V70  1  0.22870000  0.99970000  0.48040000  1.0 1.9185023945
V  V71  1  0.42130000  0.00010000  0.32490000  1.0 1.9396686197
V  V72  1  0.44390000  0.94390000  0.11540000  1.0 1.8222784739
V  V73  1  0.77020000  0.13680000  0.90160000  1.0 1.9508784802
V  V74  1  0.63660000  0.27050000  0.90160000  1.0 1.9508784802
V  V75  1  0.69270000  0.19300000  0.96080000  1.0 1.9396686197
V  V76  1  0.77430000  0.19270000  0.81180000  1.0 1.9508784802
V  V77  1  0.69240000  0.27450000  0.81170000  1.0 1.9268873077
V  V78  1  0.55700000  0.32960000  0.62920000  1.0 1.8974720985
V  V79  1  0.44200000  0.32940000  0.62900000  1.0 1.9061966818
V  V80  1  0.40670000  0.28590000  0.54000000  1.0 1.9584174048
V  V81  1  0.59300000  0.28640000  0.54010000  1.0 1.9396686197
V  V82  1  0.49970000  0.27130000  0.48040000  1.0 1.9185023945
V  V83  1  0.50010000  0.07870000  0.32490000  1.0 1.9396686197
V  V84  1  0.44390000  0.05610000  0.11540000  1.0 1.8222784739
V  V85  1  0.22980000  0.86320000  0.90160000  1.0 1.9508784802
V  V86  1  0.36340000  0.72950000  0.90160000  1.0 1.9508784802
V  V87  1  0.30730000  0.80700000  0.96080000  1.0 1.9396686197
V  V88  1  0.22570000  0.80730000  0.81180000  1.0 1.9508784802
V  V89  1  0.30760000  0.72550000  0.81170000  1.0 1.9268873077
V  V90  1  0.44300000  0.67040000  0.62920000  1.0 1.8974720985
V  V91  1  0.55800000  0.67060000  0.62900000  1.0 1.8974720985
V  V92  1  0.59330000  0.71410000  0.54000000  1.0 1.9584174048
V  V93  1  0.40700000  0.71360000  0.54010000  1.0 1.9396686197
V  V94  1  0.50030000  0.72870000  0.48040000  1.0 1.9185023945
V  V95  1  0.49990000  0.92130000  0.32490000  1.0 1.9396686197
V  V96  1  0.55610000  0.94390000  0.11540000  1.0 1.8222784739
H  H1  1  0.70972000  0.43023000  0.25142000  1.0 0.1380862287
H  H2  1  0.73585000  0.49911000  0.15203000  1.0 0.1119078731
H  H3  1  0.70881000  0.56956000  0.25046000  1.0 0.1380862287
H  H4  1  0.74808000  0.65278000  0.30910000  1.0 0.1317256864
H  H5  1  0.81381000  0.68780000  0.40806000  1.0 0.1317256864
H  H6  1  0.84315000  0.75464000  0.30832000  1.0 0.1317256864
H  H7  1  0.77250000  0.50012000  0.06060000  1.0 0.0979661238
H  H8  1  0.84736000  0.43000000  0.98135000  1.0 0.1317256864
H  H9  1  0.84858000  0.56933000  0.98161000  1.0 0.1317256864
H  H10  1  0.84650000  0.44346000  0.57794000  1.0 0.1119078731
H  H11  1  0.84338000  0.34185000  0.49786000  1.0 0.1380862287
H  H12  1  0.94558000  0.34549000  0.57740000  1.0 0.1119078731
H  H13  1  0.29028000  0.56977000  0.25142000  1.0 0.1380862287
H  H14  1  0.26415000  0.50089000  0.15203000  1.0 0.1119078731
H  H15  1  0.29119000  0.43044000  0.25046000  1.0 0.1380862287
H  H16  1  0.25192000  0.34722000  0.30910000  1.0 0.1317256864
H  H17  1  0.18619000  0.31220000  0.40806000  1.0 0.1317256864
H  H18  1  0.15685000  0.24536000  0.30832000  1.0 0.1317256864
H  H19  1  0.22750000  0.49988000  0.06060000  1.0 0.0979661238
H  H20  1  0.15264000  0.57000000  0.98135000  1.0 0.1317256864
H  H21  1  0.15142000  0.43067000  0.98161000  1.0 0.1317256864
H  H22  1  0.15350000  0.55654000  0.57794000  1.0 0.1119078731
H  H23  1  0.15662000  0.65815000  0.49786000  1.0 0.1380862287
H  H24  1  0.05442000  0.65451000  0.57740000  1.0 0.1119078731
H  H25  1  0.06977000  0.20972000  0.25142000  1.0 0.1380862287
H  H26  1  0.00089000  0.23585000  0.15203000  1.0 0.1119078731
H  H27  1  0.93044000  0.20881000  0.25046000  1.0 0.1380862287
H  H28  1  0.84722000  0.24808000  0.30910000  1.0 0.1317256864
H  H29  1  0.81220000  0.31381000  0.40806000  1.0 0.1317256864
H  H30  1  0.74536000  0.34315000  0.30832000  1.0 0.1317256864
H  H31  1  0.99988000  0.27250000  0.06060000  1.0 0.0979661238
H  H32  1  0.07000000  0.34736000  0.98135000  1.0 0.1317256864
H  H33  1  0.93067000  0.34858000  0.98161000  1.0 0.1317256864
H  H34  1  0.05654000  0.34650000  0.57794000  1.0 0.1119078731
H  H35  1  0.15815000  0.34338000  0.49786000  1.0 0.1380862287
H  H36  1  0.15451000  0.44558000  0.57740000  1.0 0.1119078731
H  H37  1  0.93023000  0.79028000  0.25142000  1.0 0.1380862287
H  H38  1  0.99911000  0.76415000  0.15203000  1.0 0.1119078731
H  H39  1  0.06956000  0.79119000  0.25046000  1.0 0.1380862287
H  H40  1  0.15278000  0.75192000  0.30910000  1.0 0.1317256864
H  H41  1  0.18780000  0.68619000  0.40806000  1.0 0.1317256864
H  H42  1  0.25464000  0.65685000  0.30832000  1.0 0.1317256864
H  H43  1  0.00012000  0.72750000  0.06060000  1.0 0.0979661238
H  H44  1  0.93000000  0.65264000  0.98135000  1.0 0.1317256864
H  H45  1  0.06933000  0.65142000  0.98161000  1.0 0.1317256864
H  H46  1  0.94346000  0.65350000  0.57794000  1.0 0.1119078731
H  H47  1  0.84185000  0.65662000  0.49786000  1.0 0.1380862287
H  H48  1  0.84549000  0.55442000  0.57740000  1.0 0.1119078731
H  H49  1  0.79028000  0.06977000  0.74858000  1.0 0.1380862287
H  H50  1  0.76415000  0.00089000  0.84797000  1.0 0.1119078731
H  H51  1  0.79119000  0.93044000  0.74954000  1.0 0.1380862287
H  H52  1  0.75192000  0.84722000  0.69090000  1.0 0.1317256864
H  H53  1  0.68619000  0.81220000  0.59194000  1.0 0.1317256864
H  H54  1  0.65685000  0.74536000  0.69168000  1.0 0.1317256864
H  H55  1  0.72750000  0.99988000  0.93940000  1.0 0.0979661238
H  H56  1  0.65264000  0.07000000  0.01865000  1.0 0.1317256864
H  H57  1  0.65142000  0.93067000  0.01839000  1.0 0.1317256864
H  H58  1  0.65350000  0.05654000  0.42206000  1.0 0.1119078731
H  H59  1  0.65662000  0.15815000  0.50214000  1.0 0.1380862287
H  H60  1  0.55442000  0.15451000  0.42260000  1.0 0.1119078731
H  H61  1  0.20972000  0.93023000  0.74858000  1.0 0.1380862287
H  H62  1  0.23585000  0.99911000  0.84797000  1.0 0.1119078731
H  H63  1  0.20881000  0.06956000  0.74954000  1.0 0.1380862287
H  H64  1  0.24808000  0.15278000  0.69090000  1.0 0.1317256864
H  H65  1  0.31381000  0.18780000  0.59194000  1.0 0.1317256864
H  H66  1  0.34315000  0.25464000  0.69168000  1.0 0.1317256864
H  H67  1  0.27250000  0.00012000  0.93940000  1.0 0.0979661238
H  H68  1  0.34736000  0.93000000  0.01865000  1.0 0.1317256864
H  H69  1  0.34858000  0.06933000  0.01839000  1.0 0.1317256864
H  H70  1  0.34650000  0.94346000  0.42206000  1.0 0.1119078731
H  H71  1  0.34338000  0.84185000  0.50214000  1.0 0.1380862287
H  H72  1  0.44558000  0.84549000  0.42260000  1.0 0.1119078731
H  H73  1  0.43023000  0.29028000  0.74858000  1.0 0.1380862287
H  H74  1  0.49911000  0.26415000  0.84797000  1.0 0.1119078731
H  H75  1  0.56956000  0.29119000  0.74954000  1.0 0.1380862287
H  H76  1  0.65278000  0.25192000  0.69090000  1.0 0.1317256864
H  H77  1  0.68780000  0.18619000  0.59194000  1.0 0.1317256864
H  H78  1  0.75464000  0.15685000  0.69168000  1.0 0.1317256864
H  H79  1  0.50012000  0.22750000  0.93940000  1.0 0.0979661238
H  H80  1  0.43000000  0.15264000  0.01865000  1.0 0.1317256864
H  H81  1  0.56933000  0.15142000  0.01839000  1.0 0.1317256864
H  H82  1  0.44346000  0.15350000  0.42206000  1.0 0.1119078731
H  H83  1  0.34185000  0.15662000  0.50214000  1.0 0.1380862287
H  H84  1  0.34549000  0.05442000  0.42260000  1.0 0.1119078731
H  H85  1  0.56977000  0.70972000  0.74858000  1.0 0.1380862287
H  H86  1  0.50089000  0.73585000  0.84797000  1.0 0.1119078731
H  H87  1  0.43044000  0.70881000  0.74954000  1.0 0.1380862287
H  H88  1  0.34722000  0.74808000  0.69090000  1.0 0.1317256864
H  H89  1  0.31220000  0.81381000  0.59194000  1.0 0.1317256864
H  H90  1  0.24536000  0.84315000  0.69168000  1.0 0.1317256864
H  H91  1  0.49988000  0.77250000  0.93940000  1.0 0.0979661238
H  H92  1  0.57000000  0.84736000  0.01865000  1.0 0.1317256864
H  H93  1  0.43067000  0.84858000  0.01839000  1.0 0.1317256864
H  H94  1  0.55654000  0.84650000  0.42206000  1.0 0.1119078731
H  H95  1  0.65815000  0.84338000  0.50214000  1.0 0.1380862287
H  H96  1  0.65451000  0.94558000  0.42260000  1.0 0.1119078731
C  C1  1  0.79550000  0.58740000  0.04180000  1.0 0.631538425
C  C2  1  0.70750000  0.49990000  0.25750000  1.0 -0.0391194907
C  C3  1  0.71310000  0.45810000  0.23800000  1.0 -0.0895902928
C  C4  1  0.72370000  0.45770000  0.19850000  1.0 -0.0391194907
C  C5  1  0.72870000  0.49930000  0.17850000  1.0 -0.1069237139
C  C6  1  0.72320000  0.54120000  0.19790000  1.0 -0.0472648371
C  C7  1  0.71250000  0.54150000  0.23740000  1.0 -0.0895902928
C  C8  1  0.72700000  0.58670000  0.17700000  1.0 0.6213983296
C  C9  1  0.79440000  0.70480000  0.30210000  1.0 -0.0472648371
C  C10  1  0.76960000  0.67110000  0.32220000  1.0 -0.0895902928
C  C11  1  0.77680000  0.66470000  0.36190000  1.0 -0.0584207087
C  C12  1  0.80890000  0.69210000  0.38150000  1.0 -0.0584207087
C  C13  1  0.83380000  0.72570000  0.36140000  1.0 -0.1069237139
C  C14  1  0.82650000  0.73210000  0.32180000  1.0 -0.0687037335
C  C15  1  0.72800000  0.41250000  0.17690000  1.0 0.6213983296
C  C16  1  0.80810000  0.54160000  0.02370000  1.0 -0.0391194907
C  C17  1  0.79270000  0.50000000  0.03950000  1.0 -0.1173648887
C  C18  1  0.80740000  0.45820000  0.02360000  1.0 -0.0584207087
C  C19  1  0.83750000  0.45800000  0.99200000  1.0 -0.0818186119
C  C20  1  0.85300000  0.49960000  0.97630000  1.0 -0.0472648371
C  C21  1  0.83830000  0.54150000  0.99210000  1.0 -0.0895902928
C  C22  1  0.74600000  0.63020000  0.38100000  1.0 0.6213983296
C  C23  1  0.78800000  0.71100000  0.25910000  1.0 0.6213983296
C  C24  1  0.79520000  0.41690000  0.51930000  1.0 0.6213983296
C  C25  1  0.91667000  0.29580000  0.51850000  1.0 0.6050733965
C  C26  1  0.88130000  0.50050000  0.93980000  1.0 0.631538425
C  C27  1  0.86800000  0.75200000  0.38090000  1.0 0.603669655
C  C28  1  0.69400000  0.49960000  0.29990000  1.0 0.6213983296
C  C29  1  0.79530000  0.41290000  0.04070000  1.0 0.631538425
C  C30  1  0.89950000  0.39800000  0.58290000  1.0 -0.0472648371
C  C31  1  0.85930000  0.41680000  0.56720000  1.0 -0.1001289637
C  C32  1  0.83830000  0.39580000  0.53530000  1.0 -0.0472648371
C  C33  1  0.85750000  0.35590000  0.51920000  1.0 -0.0687037335
C  C34  1  0.89760000  0.33710000  0.53500000  1.0 -0.1001289637
C  C35  1  0.91870000  0.35810000  0.56680000  1.0 -0.0895902928
C  C36  1  0.91900000  0.41400000  0.62100000  1.0 0.6213983296
C  C37  1  0.20450000  0.41260000  0.04180000  1.0 0.631538425
C  C38  1  0.29250000  0.50010000  0.25750000  1.0 -0.0391194907
C  C39  1  0.28690000  0.54190000  0.23800000  1.0 -0.0895902928
C  C40  1  0.27630000  0.54230000  0.19850000  1.0 -0.0391194907
C  C41  1  0.27130000  0.50070000  0.17850000  1.0 -0.1069237139
C  C42  1  0.27680000  0.45880000  0.19790000  1.0 -0.0472648371
C  C43  1  0.28750000  0.45850000  0.23740000  1.0 -0.0895902928
C  C44  1  0.27300000  0.41330000  0.17700000  1.0 0.6213983296
C  C45  1  0.20560000  0.29520000  0.30210000  1.0 -0.0472648371
C  C46  1  0.23040000  0.32890000  0.32220000  1.0 -0.0895902928
C  C47  1  0.22320000  0.33530000  0.36190000  1.0 -0.0584207087
C  C48  1  0.19110000  0.30790000  0.38150000  1.0 -0.0584207087
C  C49  1  0.16620000  0.27430000  0.36140000  1.0 -0.1069237139
C  C50  1  0.17350000  0.26790000  0.32180000  1.0 -0.0687037335
C  C51  1  0.27200000  0.58750000  0.17690000  1.0 0.6213983296
C  C52  1  0.19190000  0.45840000  0.02370000  1.0 -0.0391194907
C  C53  1  0.20730000  0.50000000  0.03950000  1.0 -0.1173648887
C  C54  1  0.19260000  0.54180000  0.02360000  1.0 -0.0584207087
C  C55  1  0.16250000  0.54200000  0.99200000  1.0 -0.0818186119
C  C56  1  0.14700000  0.50040000  0.97630000  1.0 -0.0472648371
C  C57  1  0.16170000  0.45850000  0.99210000  1.0 -0.0895902928
C  C58  1  0.25400000  0.36980000  0.38100000  1.0 0.6213983296
C  C59  1  0.21200000  0.28900000  0.25910000  1.0 0.6213983296
C  C60  1  0.20480000  0.58310000  0.51930000  1.0 0.6213983296
C  C61  1  0.08333000  0.70420000  0.51850000  1.0 0.6050733965
C  C62  1  0.11870000  0.49950000  0.93980000  1.0 0.631538425
C  C63  1  0.13200000  0.24800000  0.38090000  1.0 0.603669655
C  C64  1  0.30600000  0.50040000  0.29990000  1.0 0.6213983296
C  C65  1  0.20470000  0.58710000  0.04070000  1.0 0.631538425
C  C66  1  0.10050000  0.60200000  0.58290000  1.0 -0.0472648371
C  C67  1  0.14070000  0.58320000  0.56720000  1.0 -0.1001289637
C  C68  1  0.16170000  0.60420000  0.53530000  1.0 -0.0472648371
C  C69  1  0.14250000  0.64410000  0.51920000  1.0 -0.0687037335
C  C70  1  0.10240000  0.66290000  0.53500000  1.0 -0.1001289637
C  C71  1  0.08130000  0.64190000  0.56680000  1.0 -0.0895902928
C  C72  1  0.08100000  0.58600000  0.62100000  1.0 0.6213983296
C  C73  1  0.91260000  0.29550000  0.04180000  1.0 0.631538425
C  C74  1  0.00010000  0.20750000  0.25750000  1.0 -0.0391194907
C  C75  1  0.04190000  0.21310000  0.23800000  1.0 -0.0895902928
C  C76  1  0.04230000  0.22370000  0.19850000  1.0 -0.0391194907
C  C77  1  0.00070000  0.22870000  0.17850000  1.0 -0.1069237139
C  C78  1  0.95880000  0.22320000  0.19790000  1.0 -0.0472648371
C  C79  1  0.95850000  0.21250000  0.23740000  1.0 -0.0895902928
C  C80  1  0.91330000  0.22700000  0.17700000  1.0 0.6213983296
C  C81  1  0.79520000  0.29440000  0.30210000  1.0 -0.0472648371
C  C82  1  0.82890000  0.26960000  0.32220000  1.0 -0.0895902928
C  C83  1  0.83530000  0.27680000  0.36190000  1.0 -0.0584207087
C  C84  1  0.80790000  0.30890000  0.38150000  1.0 -0.0584207087
C  C85  1  0.77430000  0.33380000  0.36140000  1.0 -0.1069237139
C  C86  1  0.76790000  0.32650000  0.32180000  1.0 -0.0687037335
C  C87  1  0.08750000  0.22800000  0.17690000  1.0 0.6213983296
C  C88  1  0.95840000  0.30810000  0.02370000  1.0 -0.0391194907
C  C89  1  0.00000000  0.29270000  0.03950000  1.0 -0.1173648887
C  C90  1  0.04180000  0.30740000  0.02360000  1.0 -0.0584207087
C  C91  1  0.04200000  0.33750000  0.99200000  1.0 -0.0818186119
C  C92  1  0.00040000  0.35300000  0.97630000  1.0 -0.0472648371
C  C93  1  0.95850000  0.33830000  0.99210000  1.0 -0.0895902928
C  C94  1  0.86980000  0.24600000  0.38100000  1.0 0.6213983296
C  C95  1  0.78900000  0.28800000  0.25910000  1.0 0.6213983296
C  C96  1  0.08310000  0.29520000  0.51930000  1.0 0.6213983296
C  C97  1  0.20420000  0.41667000  0.51850000  1.0 0.6050733965
C  C98  1  0.99950000  0.38130000  0.93980000  1.0 0.631538425
C  C99  1  0.74800000  0.36800000  0.38090000  1.0 0.603669655
C  C100  1  0.00040000  0.19400000  0.29990000  1.0 0.6213983296
C  C101  1  0.08710000  0.29530000  0.04070000  1.0 0.631538425
C  C102  1  0.10200000  0.39950000  0.58290000  1.0 -0.0472648371
C  C103  1  0.08320000  0.35930000  0.56720000  1.0 -0.1001289637
C  C104  1  0.10420000  0.33830000  0.53530000  1.0 -0.0472648371
C  C105  1  0.14410000  0.35750000  0.51920000  1.0 -0.0687037335
C  C106  1  0.16290000  0.39760000  0.53500000  1.0 -0.1001289637
C  C107  1  0.14190000  0.41870000  0.56680000  1.0 -0.0895902928
C  C108  1  0.08600000  0.41900000  0.62100000  1.0 0.6213983296
C  C109  1  0.08740000  0.70450000  0.04180000  1.0 0.631538425
C  C110  1  0.99990000  0.79250000  0.25750000  1.0 -0.0391194907
C  C111  1  0.95810000  0.78690000  0.23800000  1.0 -0.0895902928
C  C112  1  0.95770000  0.77630000  0.19850000  1.0 -0.0391194907
C  C113  1  0.99930000  0.77130000  0.17850000  1.0 -0.1069237139
C  C114  1  0.04120000  0.77680000  0.19790000  1.0 -0.0472648371
C  C115  1  0.04150000  0.78750000  0.23740000  1.0 -0.0895902928
C  C116  1  0.08670000  0.77300000  0.17700000  1.0 0.6213983296
C  C117  1  0.20480000  0.70560000  0.30210000  1.0 -0.0472648371
C  C118  1  0.17110000  0.73040000  0.32220000  1.0 -0.0895902928
C  C119  1  0.16470000  0.72320000  0.36190000  1.0 -0.0584207087
C  C120  1  0.19210000  0.69110000  0.38150000  1.0 -0.0584207087
C  C121  1  0.22570000  0.66620000  0.36140000  1.0 -0.1069237139
C  C122  1  0.23210000  0.67350000  0.32180000  1.0 -0.0687037335
C  C123  1  0.91250000  0.77200000  0.17690000  1.0 0.6213983296
C  C124  1  0.04160000  0.69190000  0.02370000  1.0 -0.0391194907
C  C125  1  0.00000000  0.70730000  0.03950000  1.0 -0.1173648887
C  C126  1  0.95820000  0.69260000  0.02360000  1.0 -0.0584207087
C  C127  1  0.95800000  0.66250000  0.99200000  1.0 -0.0818186119
C  C128  1  0.99960000  0.64700000  0.97630000  1.0 -0.0472648371
C  C129  1  0.04150000  0.66170000  0.99210000  1.0 -0.0895902928
C  C130  1  0.13020000  0.75400000  0.38100000  1.0 0.6213983296
C  C131  1  0.21100000  0.71200000  0.25910000  1.0 0.6213983296
C  C132  1  0.91690000  0.70480000  0.51930000  1.0 0.6213983296
C  C133  1  0.79580000  0.58333000  0.51850000  1.0 0.6050733965
C  C134  1  0.00050000  0.61870000  0.93980000  1.0 0.631538425
C  C135  1  0.25200000  0.63200000  0.38090000  1.0 0.603669655
C  C136  1  0.99960000  0.80600000  0.29990000  1.0 0.6213983296
C  C137  1  0.91290000  0.70470000  0.04070000  1.0 0.631538425
C  C138  1  0.89800000  0.60050000  0.58290000  1.0 -0.0472648371
C  C139  1  0.91680000  0.64070000  0.56720000  1.0 -0.1001289637
C  C140  1  0.89580000  0.66170000  0.53530000  1.0 -0.0472648371
C  C141  1  0.85590000  0.64250000  0.51920000  1.0 -0.0687037335
C  C142  1  0.83710000  0.60240000  0.53500000  1.0 -0.1001289637
C  C143  1  0.85810000  0.58130000  0.56680000  1.0 -0.0895902928
C  C144  1  0.91400000  0.58100000  0.62100000  1.0 0.6213983296
C  C145  1  0.70450000  0.91260000  0.95820000  1.0 0.631538425
C  C146  1  0.79250000  0.00010000  0.74250000  1.0 -0.0391194907
C  C147  1  0.78690000  0.04190000  0.76200000  1.0 -0.0895902928
C  C148  1  0.77630000  0.04230000  0.80150000  1.0 -0.0391194907
C  C149  1  0.77130000  0.00070000  0.82150000  1.0 -0.1069237139
C  C150  1  0.77680000  0.95880000  0.80210000  1.0 -0.0472648371
C  C151  1  0.78750000  0.95850000  0.76260000  1.0 -0.0895902928
C  C152  1  0.77300000  0.91330000  0.82300000  1.0 0.6213983296
C  C153  1  0.70560000  0.79520000  0.69790000  1.0 -0.0472648371
C  C154  1  0.73040000  0.82890000  0.67780000  1.0 -0.0895902928
C  C155  1  0.72320000  0.83530000  0.63810000  1.0 -0.0584207087
C  C156  1  0.69110000  0.80790000  0.61850000  1.0 -0.0584207087
C  C157  1  0.66620000  0.77430000  0.63860000  1.0 -0.1069237139
C  C158  1  0.67350000  0.76790000  0.67820000  1.0 -0.0687037335
C  C159  1  0.77200000  0.08750000  0.82310000  1.0 0.6213983296
C  C160  1  0.69190000  0.95840000  0.97630000  1.0 -0.0391194907
C  C161  1  0.70730000  0.00000000  0.96050000  1.0 -0.1173648887
C  C162  1  0.69260000  0.04180000  0.97640000  1.0 -0.0584207087
C  C163  1  0.66250000  0.04200000  0.00800000  1.0 -0.0818186119
C  C164  1  0.64700000  0.00040000  0.02370000  1.0 -0.0472648371
C  C165  1  0.66170000  0.95850000  0.00790000  1.0 -0.0895902928
C  C166  1  0.75400000  0.86980000  0.61900000  1.0 0.6213983296
C  C167  1  0.71200000  0.78900000  0.74090000  1.0 0.6213983296
C  C168  1  0.70480000  0.08310000  0.48070000  1.0 0.6213983296
C  C169  1  0.58333000  0.20420000  0.48150000  1.0 0.6050733965
C  C170  1  0.61870000  0.99950000  0.06020000  1.0 0.631538425
C  C171  1  0.63200000  0.74800000  0.61910000  1.0 0.603669655
C  C172  1  0.80600000  0.00040000  0.70010000  1.0 0.6213983296
C  C173  1  0.70470000  0.08710000  0.95930000  1.0 0.631538425
C  C174  1  0.60050000  0.10200000  0.41710000  1.0 -0.0472648371
C  C175  1  0.64070000  0.08320000  0.43280000  1.0 -0.1001289637
C  C176  1  0.66170000  0.10420000  0.46470000  1.0 -0.0472648371
C  C177  1  0.64250000  0.14410000  0.48080000  1.0 -0.0687037335
C  C178  1  0.60240000  0.16290000  0.46500000  1.0 -0.1001289637
C  C179  1  0.58130000  0.14190000  0.43320000  1.0 -0.0895902928
C  C180  1  0.58100000  0.08600000  0.37900000  1.0 0.6213983296
C  C181  1  0.29550000  0.08740000  0.95820000  1.0 0.631538425
C  C182  1  0.20750000  0.99990000  0.74250000  1.0 -0.0391194907
C  C183  1  0.21310000  0.95810000  0.76200000  1.0 -0.0895902928
C  C184  1  0.22370000  0.95770000  0.80150000  1.0 -0.0391194907
C  C185  1  0.22870000  0.99930000  0.82150000  1.0 -0.1069237139
C  C186  1  0.22320000  0.04120000  0.80210000  1.0 -0.0472648371
C  C187  1  0.21250000  0.04150000  0.76260000  1.0 -0.0895902928
C  C188  1  0.22700000  0.08670000  0.82300000  1.0 0.6213983296
C  C189  1  0.29440000  0.20480000  0.69790000  1.0 -0.0472648371
C  C190  1  0.26960000  0.17110000  0.67780000  1.0 -0.0895902928
C  C191  1  0.27680000  0.16470000  0.63810000  1.0 -0.0584207087
C  C192  1  0.30890000  0.19210000  0.61850000  1.0 -0.0584207087
C  C193  1  0.33380000  0.22570000  0.63860000  1.0 -0.1069237139
C  C194  1  0.32650000  0.23210000  0.67820000  1.0 -0.0687037335
C  C195  1  0.22800000  0.91250000  0.82310000  1.0 0.6213983296
C  C196  1  0.30810000  0.04160000  0.97630000  1.0 -0.0391194907
C  C197  1  0.29270000  0.00000000  0.96050000  1.0 -0.1173648887
C  C198  1  0.30740000  0.95820000  0.97640000  1.0 -0.0584207087
C  C199  1  0.33750000  0.95800000  0.00800000  1.0 -0.0818186119
C  C200  1  0.35300000  0.99960000  0.02370000  1.0 -0.0472648371
C  C201  1  0.33830000  0.04150000  0.00790000  1.0 -0.0895902928
C  C202  1  0.24600000  0.13020000  0.61900000  1.0 0.6213983296
C  C203  1  0.28800000  0.21100000  0.74090000  1.0 0.6213983296
C  C204  1  0.29520000  0.91690000  0.48070000  1.0 0.6213983296
C  C205  1  0.41667000  0.79580000  0.48150000  1.0 0.6050733965
C  C206  1  0.38130000  0.00050000  0.06020000  1.0 0.631538425
C  C207  1  0.36800000  0.25200000  0.61910000  1.0 0.603669655
C  C208  1  0.19400000  0.99960000  0.70010000  1.0 0.6213983296
C  C209  1  0.29530000  0.91290000  0.95930000  1.0 0.631538425
C  C210  1  0.39950000  0.89800000  0.41710000  1.0 -0.0472648371
C  C211  1  0.35930000  0.91680000  0.43280000  1.0 -0.1001289637
C  C212  1  0.33830000  0.89580000  0.46470000  1.0 -0.0472648371
C  C213  1  0.35750000  0.85590000  0.48080000  1.0 -0.0687037335
C  C214  1  0.39760000  0.83710000  0.46500000  1.0 -0.1001289637
C  C215  1  0.41870000  0.85810000  0.43320000  1.0 -0.0895902928
C  C216  1  0.41900000  0.91400000  0.37900000  1.0 0.6213983296
C  C217  1  0.58740000  0.20450000  0.95820000  1.0 0.631538425
C  C218  1  0.49990000  0.29250000  0.74250000  1.0 -0.0391194907
C  C219  1  0.45810000  0.28690000  0.76200000  1.0 -0.0895902928
C  C220  1  0.45770000  0.27630000  0.80150000  1.0 -0.0391194907
C  C221  1  0.49930000  0.27130000  0.82150000  1.0 -0.1069237139
C  C222  1  0.54120000  0.27680000  0.80210000  1.0 -0.0472648371
C  C223  1  0.54150000  0.28750000  0.76260000  1.0 -0.0895902928
C  C224  1  0.58670000  0.27300000  0.82300000  1.0 0.6213983296
C  C225  1  0.70480000  0.20560000  0.69790000  1.0 -0.0472648371
C  C226  1  0.67110000  0.23040000  0.67780000  1.0 -0.0895902928
C  C227  1  0.66470000  0.22320000  0.63810000  1.0 -0.0584207087
C  C228  1  0.69210000  0.19110000  0.61850000  1.0 -0.0584207087
C  C229  1  0.72570000  0.16620000  0.63860000  1.0 -0.1069237139
C  C230  1  0.73210000  0.17350000  0.67820000  1.0 -0.0687037335
C  C231  1  0.41250000  0.27200000  0.82310000  1.0 0.6213983296
C  C232  1  0.54160000  0.19190000  0.97630000  1.0 -0.0391194907
C  C233  1  0.50000000  0.20730000  0.96050000  1.0 -0.1173648887
C  C234  1  0.45820000  0.19260000  0.97640000  1.0 -0.0584207087
C  C235  1  0.45800000  0.16250000  0.00800000  1.0 -0.0818186119
C  C236  1  0.49960000  0.14700000  0.02370000  1.0 -0.0472648371
C  C237  1  0.54150000  0.16170000  0.00790000  1.0 -0.0895902928
C  C238  1  0.63020000  0.25400000  0.61900000  1.0 0.6213983296
C  C239  1  0.71100000  0.21200000  0.74090000  1.0 0.6213983296
C  C240  1  0.41690000  0.20480000  0.48070000  1.0 0.6213983296
C  C241  1  0.29580000  0.08333000  0.48150000  1.0 0.6050733965
C  C242  1  0.50050000  0.11870000  0.06020000  1.0 0.631538425
C  C243  1  0.75200000  0.13200000  0.61910000  1.0 0.603669655
C  C244  1  0.49960000  0.30600000  0.70010000  1.0 0.6213983296
C  C245  1  0.41290000  0.20470000  0.95930000  1.0 0.631538425
C  C246  1  0.39800000  0.10050000  0.41710000  1.0 -0.0472648371
C  C247  1  0.41680000  0.14070000  0.43280000  1.0 -0.1001289637
C  C248  1  0.39580000  0.16170000  0.46470000  1.0 -0.0472648371
C  C249  1  0.35590000  0.14250000  0.48080000  1.0 -0.0687037335
C  C250  1  0.33710000  0.10240000  0.46500000  1.0 -0.1001289637
C  C251  1  0.35810000  0.08130000  0.43320000  1.0 -0.0895902928
C  C252  1  0.41400000  0.08100000  0.37900000  1.0 0.6213983296
C  C253  1  0.41260000  0.79550000  0.95820000  1.0 0.631538425
C  C254  1  0.50010000  0.70750000  0.74250000  1.0 -0.0391194907
C  C255  1  0.54190000  0.71310000  0.76200000  1.0 -0.0895902928
C  C256  1  0.54230000  0.72370000  0.80150000  1.0 -0.0391194907
C  C257  1  0.50070000  0.72870000  0.82150000  1.0 -0.1069237139
C  C258  1  0.45880000  0.72320000  0.80210000  1.0 -0.0472648371
C  C259  1  0.45850000  0.71250000  0.76260000  1.0 -0.0895902928
C  C260  1  0.41330000  0.72700000  0.82300000  1.0 0.6213983296
C  C261  1  0.29520000  0.79440000  0.69790000  1.0 -0.0472648371
C  C262  1  0.32890000  0.76960000  0.67780000  1.0 -0.0895902928
C  C263  1  0.33530000  0.77680000  0.63810000  1.0 -0.0584207087
C  C264  1  0.30790000  0.80890000  0.61850000  1.0 -0.0584207087
C  C265  1  0.27430000  0.83380000  0.63860000  1.0 -0.1069237139
C  C266  1  0.26790000  0.82650000  0.67820000  1.0 -0.0687037335
C  C267  1  0.58750000  0.72800000  0.82310000  1.0 0.6213983296
C  C268  1  0.45840000  0.80810000  0.97630000  1.0 -0.0391194907
C  C269  1  0.50000000  0.79270000  0.96050000  1.0 -0.1173648887
C  C270  1  0.54180000  0.80740000  0.97640000  1.0 -0.0584207087
C  C271  1  0.54200000  0.83750000  0.00800000  1.0 -0.0818186119
C  C272  1  0.50040000  0.85300000  0.02370000  1.0 -0.0472648371
C  C273  1  0.45850000  0.83830000  0.00790000  1.0 -0.0895902928
C  C274  1  0.36980000  0.74600000  0.61900000  1.0 0.6213983296
C  C275  1  0.28900000  0.78800000  0.74090000  1.0 0.6213983296
C  C276  1  0.58310000  0.79520000  0.48070000  1.0 0.6213983296
C  C277  1  0.70420000  0.91667000  0.48150000  1.0 0.6050733965
C  C278  1  0.49950000  0.88130000  0.06020000  1.0 0.631538425
C  C279  1  0.24800000  0.86800000  0.61910000  1.0 0.603669655
C  C280  1  0.50040000  0.69400000  0.70010000  1.0 0.6213983296
C  C281  1  0.58710000  0.79530000  0.95930000  1.0 0.631538425
C  C282  1  0.60200000  0.89950000  0.41710000  1.0 -0.0472648371
C  C283  1  0.58320000  0.85930000  0.43280000  1.0 -0.1001289637
C  C284  1  0.60420000  0.83830000  0.46470000  1.0 -0.0472648371
C  C285  1  0.64410000  0.85750000  0.48080000  1.0 -0.0687037335
C  C286  1  0.66290000  0.89760000  0.46500000  1.0 -0.1001289637
C  C287  1  0.64190000  0.91870000  0.43320000  1.0 -0.0895902928
C  C288  1  0.58600000  0.91900000  0.37900000  1.0 0.6213983296
S  S1  1  0.83340000  0.66666667  0.14300000  1.0 1.3881561499
S  S2  1  0.76580000  0.50030000  0.41550000  1.0 1.2241385223
S  S3  1  0.16660000  0.33340000  0.14300000  1.0 1.3881561499
S  S4  1  0.23420000  0.49970000  0.41550000  1.0 1.2264965694
S  S5  1  0.83340000  0.33340000  0.14300000  1.0 1.3881561499
S  S6  1  0.99970000  0.26580000  0.41550000  1.0 1.2241385223
S  S7  1  0.16660000  0.66666667  0.14300000  1.0 1.3881561499
S  S8  1  0.00030000  0.73420000  0.41550000  1.0 1.2264965694
S  S9  1  0.66666667  0.83340000  0.85700000  1.0 1.3881561499
S  S10  1  0.73420000  0.99970000  0.58450000  1.0 1.2264965694
S  S11  1  0.33340000  0.16660000  0.85700000  1.0 1.3881561499
S  S12  1  0.26580000  0.00030000  0.58450000  1.0 1.2264965694
S  S13  1  0.66666667  0.16660000  0.85700000  1.0 1.3881561499
S  S14  1  0.50030000  0.23420000  0.58450000  1.0 1.2241385223
S  S15  1  0.33340000  0.83340000  0.85700000  1.0 1.3881561499
S  S16  1  0.49970000  0.76580000  0.58450000  1.0 1.2264965694
O  O1  1  0.73080000  0.62280000  0.19680000  1.0 -0.5800285926
O  O2  1  0.73190000  0.37690000  0.19730000  1.0 -0.5800285926
O  O3  1  0.79280000  0.70820000  0.99820000  1.0 -0.6808975521
O  O4  1  0.89770000  0.53860000  0.92890000  1.0 -0.6193148421
O  O5  1  0.76260000  0.58580000  0.06570000  1.0 -0.6193148421
O  O6  1  0.89700000  0.46230000  0.92880000  1.0 -0.6103216739
O  O7  1  0.76310000  0.41520000  0.06550000  1.0 -0.6193148421
O  O8  1  0.81310000  0.37470000  0.03060000  1.0 -0.5880693417
O  O9  1  0.81260000  0.62480000  0.03010000  1.0 -0.5714422859
O  O10  1  0.81770000  0.74840000  0.05940000  1.0 -1.1006074855
O  O11  1  0.67270000  0.69820000  0.19950000  1.0 -0.7172237594
O  O12  1  0.69120000  0.46110000  0.31660000  1.0 -0.5714422859
O  O13  1  0.69100000  0.53760000  0.31740000  1.0 -0.5714422859
O  O14  1  0.67850000  0.62720000  0.08340000  1.0 -0.823240142
O  O15  1  0.75160000  0.68120000  0.05960000  1.0 -1.1006074855
O  O16  1  0.81000000  0.74300000  0.24280000  1.0 -0.5800285926
O  O17  1  0.81710000  0.78170000  0.13660000  1.0 -1.1061075587
O  O18  1  0.80240000  0.82960000  0.20020000  1.0 -0.7960188571
O  O19  1  0.62750000  0.58710000  0.35760000  1.0 -0.708659517
O  O20  1  0.75520000  0.68900000  0.24410000  1.0 -0.5714422859
O  O21  1  0.72790000  0.58540000  0.14060000  1.0 -0.6029632609
O  O22  1  0.72230000  0.60210000  0.36160000  1.0 -0.5880693417
O  O23  1  0.71770000  0.68190000  0.13730000  1.0 -1.1006074855
O  O24  1  0.67770000  0.42770000  0.42330000  1.0 -1.0320608575
O  O25  1  0.62880000  0.41160000  0.35790000  1.0 -0.6886540909
O  O26  1  0.73090000  0.41410000  0.14070000  1.0 -0.6029632609
O  O27  1  0.71510000  0.49750000  0.56280000  1.0 -0.8303573426
O  O28  1  0.89670000  0.77550000  0.36200000  1.0 -0.5800285926
O  O29  1  0.89290000  0.27480000  0.49350000  1.0 -0.5714422859
O  O30  1  0.77560000  0.39350000  0.49350000  1.0 -0.5800285926
O  O31  1  0.74570000  0.75410000  0.18450000  1.0 -1.080399986
O  O32  1  0.67840000  0.57240000  0.42390000  1.0 -0.9894476492
O  O33  1  0.80750000  0.69160000  0.17100000  1.0 -0.6702664528
O  O34  1  0.64060000  0.49990000  0.37480000  1.0 -1.0859347839
O  O35  1  0.74950000  0.63020000  0.41730000  1.0 -0.5800285926
O  O36  1  0.86930000  0.74720000  0.41710000  1.0 -0.5800285926
O  O37  1  0.78220000  0.45620000  0.53030000  1.0 -0.6103216739
O  O38  1  0.86310000  0.69570000  0.12350000  1.0 -0.6337463592
O  O39  1  0.86510000  0.63410000  0.16370000  1.0 -0.5111174691
O  O40  1  0.80470000  0.63470000  0.12340000  1.0 -0.6469484378
O  O41  1  0.95480000  0.28080000  0.53070000  1.0 -0.6103216739
O  O42  1  0.76310000  0.46640000  0.44050000  1.0 -0.4632972438
O  O43  1  0.72770000  0.49960000  0.38840000  1.0 -0.6640182692
O  O44  1  0.68460000  0.63420000  0.47530000  1.0 -0.6640182692
O  O45  1  0.76400000  0.53190000  0.44140000  1.0 -0.4481391344
O  O46  1  0.87270000  0.49980000  0.70080000  1.0 -0.7718046117
O  O47  1  0.94990000  0.54910000  0.69680000  1.0 -0.9636688564
O  O48  1  0.89950000  0.45450000  0.63010000  1.0 -0.6353685368
O  O49  1  0.95900000  0.39890000  0.63160000  1.0 -0.6103216739
O  O50  1  0.00010000  0.43350000  0.86070000  1.0 -1.1524604816
O  O51  1  0.81400000  0.50200000  0.39790000  1.0 -0.5458639074
O  O52  1  0.70000000  0.55100000  0.49810000  1.0 -1.1179907132
O  O53  1  0.70000000  0.45000000  0.49950000  1.0 -1.1279783208
O  O54  1  0.68720000  0.36210000  0.47570000  1.0 -0.6994352999
O  O55  1  0.87350000  0.82060000  0.08320000  1.0 -0.8303573426
O  O56  1  0.61000000  0.74200000  0.05580000  1.0 -0.6994352999
O  O57  1  0.75700000  0.88800000  0.05410000  1.0 -0.708659517
O  O58  1  0.90230000  0.39940000  0.76200000  1.0 -0.7302662913
O  O59  1  0.26920000  0.37720000  0.19680000  1.0 -0.5800285926
O  O60  1  0.26810000  0.62310000  0.19730000  1.0 -0.5800285926
O  O61  1  0.20720000  0.29180000  0.99820000  1.0 -0.6808975521
O  O62  1  0.10230000  0.46140000  0.92890000  1.0 -0.6193148421
O  O63  1  0.23740000  0.41420000  0.06570000  1.0 -0.6193148421
O  O64  1  0.10300000  0.53770000  0.92880000  1.0 -0.6103216739
O  O65  1  0.23690000  0.58480000  0.06550000  1.0 -0.6193148421
O  O66  1  0.18690000  0.62530000  0.03060000  1.0 -0.5880693417
O  O67  1  0.18740000  0.37520000  0.03010000  1.0 -0.5714422859
O  O68  1  0.18230000  0.25160000  0.05940000  1.0 -1.1006074855
O  O69  1  0.32730000  0.30180000  0.19950000  1.0 -0.7172237594
O  O70  1  0.30880000  0.53890000  0.31660000  1.0 -0.5714422859
O  O71  1  0.30900000  0.46240000  0.31740000  1.0 -0.5714422859
O  O72  1  0.32150000  0.37280000  0.08340000  1.0 -0.823240142
O  O73  1  0.24840000  0.31880000  0.05960000  1.0 -1.1006074855
O  O74  1  0.19000000  0.25700000  0.24280000  1.0 -0.5800285926
O  O75  1  0.18290000  0.21830000  0.13660000  1.0 -1.1061075587
O  O76  1  0.19760000  0.17040000  0.20020000  1.0 -0.7960188571
O  O77  1  0.37250000  0.41290000  0.35760000  1.0 -0.6994352999
O  O78  1  0.24480000  0.31100000  0.24410000  1.0 -0.5714422859
O  O79  1  0.27210000  0.41460000  0.14060000  1.0 -0.6029632609
O  O80  1  0.27770000  0.39790000  0.36160000  1.0 -0.5880693417
O  O81  1  0.28230000  0.31810000  0.13730000  1.0 -1.1006074855
O  O82  1  0.32230000  0.57230000  0.42330000  1.0 -1.0320608575
O  O83  1  0.37120000  0.58840000  0.35790000  1.0 -0.6886540909
O  O84  1  0.26910000  0.58590000  0.14070000  1.0 -0.6029632609
O  O85  1  0.28490000  0.50250000  0.56280000  1.0 -0.8303573426
O  O86  1  0.10330000  0.22450000  0.36200000  1.0 -0.5800285926
O  O87  1  0.10710000  0.72520000  0.49350000  1.0 -0.5714422859
O  O88  1  0.22440000  0.60650000  0.49350000  1.0 -0.5800285926
O  O89  1  0.25430000  0.24590000  0.18450000  1.0 -1.080399986
O  O90  1  0.32160000  0.42760000  0.42390000  1.0 -0.9894476492
O  O91  1  0.19250000  0.30840000  0.17100000  1.0 -0.6702664528
O  O92  1  0.35940000  0.50010000  0.37480000  1.0 -1.0859347839
O  O93  1  0.25050000  0.36980000  0.41730000  1.0 -0.5800285926
O  O94  1  0.13070000  0.25280000  0.41710000  1.0 -0.5800285926
O  O95  1  0.21780000  0.54380000  0.53030000  1.0 -0.6103216739
O  O96  1  0.13690000  0.30430000  0.12350000  1.0 -0.6337463592
O  O97  1  0.13490000  0.36590000  0.16370000  1.0 -0.5111174691
O  O98  1  0.19530000  0.36530000  0.12340000  1.0 -0.6469484378
O  O99  1  0.04520000  0.71920000  0.53070000  1.0 -0.6103216739
O  O100  1  0.23690000  0.53360000  0.44050000  1.0 -0.4632972438
O  O101  1  0.27230000  0.50040000  0.38840000  1.0 -0.6640182692
O  O102  1  0.31540000  0.36580000  0.47530000  1.0 -0.6640182692
O  O103  1  0.23600000  0.46810000  0.44140000  1.0 -0.4481391344
O  O104  1  0.12730000  0.50020000  0.70080000  1.0 -0.7718046117
O  O105  1  0.05010000  0.45090000  0.69680000  1.0 -0.9636688564
O  O106  1  0.10050000  0.54550000  0.63010000  1.0 -0.6353685368
O  O107  1  0.04100000  0.60110000  0.63160000  1.0 -0.6103216739
O  O108  1  0.99990000  0.56650000  0.86070000  1.0 -1.1524604816
O  O109  1  0.18600000  0.49800000  0.39790000  1.0 -0.5458639074
O  O110  1  0.30000000  0.44900000  0.49810000  1.0 -1.1179907132
O  O111  1  0.30000000  0.55000000  0.49950000  1.0 -1.1279783208
O  O112  1  0.31280000  0.63790000  0.47570000  1.0 -0.6994352999
O  O113  1  0.12650000  0.17940000  0.08320000  1.0 -0.8303573426
O  O114  1  0.39000000  0.25800000  0.05580000  1.0 -0.6994352999
O  O115  1  0.24300000  0.11200000  0.05410000  1.0 -0.708659517
O  O116  1  0.09770000  0.60060000  0.76200000  1.0 -0.7302662913
O  O117  1  0.87720000  0.23080000  0.19680000  1.0 -0.5800285926
O  O118  1  0.12310000  0.23190000  0.19730000  1.0 -0.5800285926
O  O119  1  0.79180000  0.29280000  0.99820000  1.0 -0.6808975521
O  O120  1  0.96140000  0.39770000  0.92890000  1.0 -0.6193148421
O  O121  1  0.91420000  0.26260000  0.06570000  1.0 -0.6193148421
O  O122  1  0.03770000  0.39700000  0.92880000  1.0 -0.6103216739
O  O123  1  0.08480000  0.26310000  0.06550000  1.0 -0.6193148421
O  O124  1  0.12530000  0.31310000  0.03060000  1.0 -0.5880693417
O  O125  1  0.87520000  0.31260000  0.03010000  1.0 -0.5714422859
O  O126  1  0.75160000  0.31770000  0.05940000  1.0 -1.1006074855
O  O127  1  0.80180000  0.17270000  0.19950000  1.0 -0.7172237594
O  O128  1  0.03890000  0.19120000  0.31660000  1.0 -0.5714422859
O  O129  1  0.96240000  0.19100000  0.31740000  1.0 -0.5714422859
O  O130  1  0.87280000  0.17850000  0.08340000  1.0 -0.823240142
O  O131  1  0.81880000  0.25160000  0.05960000  1.0 -1.1006074855
O  O132  1  0.75700000  0.31000000  0.24280000  1.0 -0.5800285926
O  O133  1  0.71830000  0.31710000  0.13660000  1.0 -1.1061075587
O  O134  1  0.67040000  0.30240000  0.20020000  1.0 -0.7960188571
O  O135  1  0.91290000  0.12750000  0.35760000  1.0 -0.6994352999
O  O136  1  0.81100000  0.25520000  0.24410000  1.0 -0.5714422859
O  O137  1  0.91460000  0.22790000  0.14060000  1.0 -0.6029632609
O  O138  1  0.89790000  0.22230000  0.36160000  1.0 -0.5880693417
O  O139  1  0.81810000  0.21770000  0.13730000  1.0 -1.1006074855
O  O140  1  0.07230000  0.17770000  0.42330000  1.0 -1.0320608575
O  O141  1  0.08840000  0.12880000  0.35790000  1.0 -0.6886540909
O  O142  1  0.08590000  0.23090000  0.14070000  1.0 -0.6029632609
O  O143  1  0.00250000  0.21510000  0.56280000  1.0 -0.8303573426
O  O144  1  0.72450000  0.39670000  0.36200000  1.0 -0.5800285926
O  O145  1  0.22520000  0.39290000  0.49350000  1.0 -0.5714422859
O  O146  1  0.10650000  0.27560000  0.49350000  1.0 -0.5800285926
O  O147  1  0.74590000  0.24570000  0.18450000  1.0 -1.080399986
O  O148  1  0.92760000  0.17840000  0.42390000  1.0 -0.9894476492
O  O149  1  0.80840000  0.30750000  0.17100000  1.0 -0.6702664528
O  O150  1  0.00010000  0.14060000  0.37480000  1.0 -1.0859347839
O  O151  1  0.86980000  0.24950000  0.41730000  1.0 -0.5800285926
O  O152  1  0.75280000  0.36930000  0.41710000  1.0 -0.5800285926
O  O153  1  0.04380000  0.28220000  0.53030000  1.0 -0.6103216739
O  O154  1  0.80430000  0.36310000  0.12350000  1.0 -0.6337463592
O  O155  1  0.86590000  0.36510000  0.16370000  1.0 -0.5111174691
O  O156  1  0.86530000  0.30470000  0.12340000  1.0 -0.6469484378
O  O157  1  0.21920000  0.45480000  0.53070000  1.0 -0.6103216739
O  O158  1  0.03360000  0.26310000  0.44050000  1.0 -0.4632972438
O  O159  1  0.00040000  0.22770000  0.38840000  1.0 -0.6640182692
O  O160  1  0.86580000  0.18460000  0.47530000  1.0 -0.6640182692
O  O161  1  0.96810000  0.26400000  0.44140000  1.0 -0.4481391344
O  O162  1  0.00020000  0.37270000  0.70080000  1.0 -0.7718046117
O  O163  1  0.95090000  0.44990000  0.69680000  1.0 -0.9636688564
O  O164  1  0.04550000  0.39950000  0.63010000  1.0 -0.6353685368
O  O165  1  0.10110000  0.45900000  0.63160000  1.0 -0.6103216739
O  O166  1  0.06650000  0.50010000  0.86070000  1.0 -1.1524604816
O  O167  1  0.99800000  0.31400000  0.39790000  1.0 -0.5458639074
O  O168  1  0.94900000  0.20000000  0.49810000  1.0 -1.1179907132
O  O169  1  0.05000000  0.20000000  0.49950000  1.0 -1.1279783208
O  O170  1  0.13790000  0.18720000  0.47570000  1.0 -0.6994352999
O  O171  1  0.67940000  0.37350000  0.08320000  1.0 -0.8303573426
O  O172  1  0.75800000  0.11000000  0.05580000  1.0 -0.6994352999
O  O173  1  0.61200000  0.25700000  0.05410000  1.0 -0.708659517
O  O174  1  0.10060000  0.40230000  0.76200000  1.0 -0.7302662913
O  O175  1  0.12280000  0.76920000  0.19680000  1.0 -0.5800285926
O  O176  1  0.87690000  0.76810000  0.19730000  1.0 -0.5800285926
O  O177  1  0.20820000  0.70720000  0.99820000  1.0 -0.6808975521
O  O178  1  0.03860000  0.60230000  0.92890000  1.0 -0.6103216739
O  O179  1  0.08580000  0.73740000  0.06570000  1.0 -0.6193148421
O  O180  1  0.96230000  0.60300000  0.92880000  1.0 -0.6103216739
O  O181  1  0.91520000  0.73690000  0.06550000  1.0 -0.6193148421
O  O182  1  0.87470000  0.68690000  0.03060000  1.0 -0.5880693417
O  O183  1  0.12480000  0.68740000  0.03010000  1.0 -0.5714422859
O  O184  1  0.24840000  0.68230000  0.05940000  1.0 -1.1006074855
O  O185  1  0.19820000  0.82730000  0.19950000  1.0 -0.7172237594
O  O186  1  0.96110000  0.80880000  0.31660000  1.0 -0.5714422859
O  O187  1  0.03760000  0.80900000  0.31740000  1.0 -0.5714422859
O  O188  1  0.12720000  0.82150000  0.08340000  1.0 -0.823240142
O  O189  1  0.18120000  0.74840000  0.05960000  1.0 -1.1006074855
O  O190  1  0.24300000  0.69000000  0.24280000  1.0 -0.5800285926
O  O191  1  0.28170000  0.68290000  0.13660000  1.0 -1.1061075587
O  O192  1  0.32960000  0.69760000  0.20020000  1.0 -0.7960188571
O  O193  1  0.08710000  0.87250000  0.35760000  1.0 -0.6994352999
O  O194  1  0.18900000  0.74480000  0.24410000  1.0 -0.5714422859
O  O195  1  0.08540000  0.77210000  0.14060000  1.0 -0.6029632609
O  O196  1  0.10210000  0.77770000  0.36160000  1.0 -0.5880693417
O  O197  1  0.18190000  0.78230000  0.13730000  1.0 -1.1006074855
O  O198  1  0.92770000  0.82230000  0.42330000  1.0 -1.0320608575
O  O199  1  0.91160000  0.87120000  0.35790000  1.0 -0.6886540909
O  O200  1  0.91410000  0.76910000  0.14070000  1.0 -0.6029632609
O  O201  1  0.99750000  0.78490000  0.56280000  1.0 -0.8303573426
O  O202  1  0.27550000  0.60330000  0.36200000  1.0 -0.5800285926
O  O203  1  0.77480000  0.60710000  0.49350000  1.0 -0.5714422859
O  O204  1  0.89350000  0.72440000  0.49350000  1.0 -0.5800285926
O  O205  1  0.25410000  0.75430000  0.18450000  1.0 -1.080399986
O  O206  1  0.07240000  0.82160000  0.42390000  1.0 -0.9894476492
O  O207  1  0.19160000  0.69250000  0.17100000  1.0 -0.6702664528
O  O208  1  0.99990000  0.85940000  0.37480000  1.0 -1.0859347839
O  O209  1  0.13020000  0.75050000  0.41730000  1.0 -0.5800285926
O  O210  1  0.24720000  0.63070000  0.41710000  1.0 -0.5800285926
O  O211  1  0.95620000  0.71780000  0.53030000  1.0 -0.6103216739
O  O212  1  0.19570000  0.63690000  0.12350000  1.0 -0.6337463592
O  O213  1  0.13410000  0.63490000  0.16370000  1.0 -0.5111174691
O  O214  1  0.13470000  0.69530000  0.12340000  1.0 -0.6469484378
O  O215  1  0.78080000  0.54520000  0.53070000  1.0 -0.6103216739
O  O216  1  0.96640000  0.73690000  0.44050000  1.0 -0.4632972438
O  O217  1  0.99960000  0.77230000  0.38840000  1.0 -0.6640182692
O  O218  1  0.13420000  0.81540000  0.47530000  1.0 -0.6640182692
O  O219  1  0.03190000  0.73600000  0.44140000  1.0 -0.4481391344
O  O220  1  0.99980000  0.62730000  0.70080000  1.0 -0.7718046117
O  O221  1  0.04910000  0.55010000  0.69680000  1.0 -0.9636688564
O  O222  1  0.95450000  0.60050000  0.63010000  1.0 -0.6353685368
O  O223  1  0.89890000  0.54100000  0.63160000  1.0 -0.6103216739
O  O224  1  0.93350000  0.49990000  0.86070000  1.0 -1.1524604816
O  O225  1  0.00200000  0.68600000  0.39790000  1.0 -0.5458639074
O  O226  1  0.05100000  0.80000000  0.49810000  1.0 -1.1179907132
O  O227  1  0.95000000  0.80000000  0.49950000  1.0 -1.1279783208
O  O228  1  0.86210000  0.81280000  0.47570000  1.0 -0.6994352999
O  O229  1  0.32060000  0.62650000  0.08320000  1.0 -0.8303573426
O  O230  1  0.24200000  0.89000000  0.05580000  1.0 -0.6994352999
O  O231  1  0.38800000  0.74300000  0.05410000  1.0 -0.708659517
O  O232  1  0.89940000  0.59770000  0.76200000  1.0 -0.7302662913
O  O233  1  0.76920000  0.87720000  0.80320000  1.0 -0.5800285926
O  O234  1  0.76810000  0.12310000  0.80270000  1.0 -0.5800285926
O  O235  1  0.70720000  0.79180000  0.00180000  1.0 -0.6808975521
O  O236  1  0.60230000  0.96140000  0.07110000  1.0 -0.6103216739
O  O237  1  0.73740000  0.91420000  0.93430000  1.0 -0.6193148421
O  O238  1  0.60300000  0.03770000  0.07120000  1.0 -0.6103216739
O  O239  1  0.73690000  0.08480000  0.93450000  1.0 -0.6193148421
O  O240  1  0.68690000  0.12530000  0.96940000  1.0 -0.5880693417
O  O241  1  0.68740000  0.87520000  0.96990000  1.0 -0.5714422859
O  O242  1  0.68230000  0.75160000  0.94060000  1.0 -1.1006074855
O  O243  1  0.82730000  0.80180000  0.80050000  1.0 -0.7172237594
O  O244  1  0.80880000  0.03890000  0.68340000  1.0 -0.5714422859
O  O245  1  0.80900000  0.96240000  0.68260000  1.0 -0.5714422859
O  O246  1  0.82150000  0.87280000  0.91660000  1.0 -0.823240142
O  O247  1  0.74840000  0.81880000  0.94040000  1.0 -1.1006074855
O  O248  1  0.69000000  0.75700000  0.75720000  1.0 -0.5800285926
O  O249  1  0.68290000  0.71830000  0.86340000  1.0 -1.1061075587
O  O250  1  0.69760000  0.67040000  0.79980000  1.0 -0.7960188571
O  O251  1  0.87250000  0.91290000  0.64240000  1.0 -0.6994352999
O  O252  1  0.74480000  0.81100000  0.75590000  1.0 -0.5714422859
O  O253  1  0.77210000  0.91460000  0.85940000  1.0 -0.6029632609
O  O254  1  0.77770000  0.89790000  0.63840000  1.0 -0.5880693417
O  O255  1  0.78230000  0.81810000  0.86270000  1.0 -1.1006074855
O  O256  1  0.82230000  0.07230000  0.57670000  1.0 -1.0320608575
O  O257  1  0.87120000  0.08840000  0.64210000  1.0 -0.6886540909
O  O258  1  0.76910000  0.08590000  0.85930000  1.0 -0.6029632609
O  O259  1  0.78490000  0.00250000  0.43720000  1.0 -0.8303573426
O  O260  1  0.60330000  0.72450000  0.63800000  1.0 -0.5800285926
O  O261  1  0.60710000  0.22520000  0.50650000  1.0 -0.5714422859
O  O262  1  0.72440000  0.10650000  0.50650000  1.0 -0.5800285926
O  O263  1  0.75430000  0.74590000  0.81550000  1.0 -1.080399986
O  O264  1  0.82160000  0.92760000  0.57610000  1.0 -0.9894476492
O  O265  1  0.69250000  0.80840000  0.82900000  1.0 -0.6702664528
O  O266  1  0.85940000  0.00010000  0.62520000  1.0 -1.0859347839
O  O267  1  0.75050000  0.86980000  0.58270000  1.0 -0.5800285926
O  O268  1  0.63070000  0.75280000  0.58290000  1.0 -0.5800285926
O  O269  1  0.71780000  0.04380000  0.46970000  1.0 -0.6103216739
O  O270  1  0.63690000  0.80430000  0.87650000  1.0 -0.6337463592
O  O271  1  0.63490000  0.86590000  0.83630000  1.0 -0.5111174691
O  O272  1  0.69530000  0.86530000  0.87660000  1.0 -0.6469484378
O  O273  1  0.54520000  0.21920000  0.46930000  1.0 -0.6103216739
O  O274  1  0.73690000  0.03360000  0.55950000  1.0 -0.4632972438
O  O275  1  0.77230000  0.00040000  0.61160000  1.0 -0.6640182692
O  O276  1  0.81540000  0.86580000  0.52470000  1.0 -0.6640182692
O  O277  1  0.73600000  0.96810000  0.55860000  1.0 -0.4481391344
O  O278  1  0.62730000  0.00020000  0.29920000  1.0 -0.7718046117
O  O279  1  0.55010000  0.95090000  0.30320000  1.0 -0.9636688564
O  O280  1  0.60050000  0.04550000  0.36990000  1.0 -0.6353685368
O  O281  1  0.54100000  0.10110000  0.36840000  1.0 -0.6103216739
O  O282  1  0.49990000  0.06650000  0.13930000  1.0 -1.1524604816
O  O283  1  0.68600000  0.99800000  0.60210000  1.0 -0.5458639074
O  O284  1  0.80000000  0.94900000  0.50190000  1.0 -1.1179907132
O  O285  1  0.80000000  0.05000000  0.50050000  1.0 -1.1279783208
O  O286  1  0.81280000  0.13790000  0.52430000  1.0 -0.6994352999
O  O287  1  0.62650000  0.67940000  0.91680000  1.0 -0.8303573426
O  O288  1  0.89000000  0.75800000  0.94420000  1.0 -0.6886540909
O  O289  1  0.74300000  0.61200000  0.94590000  1.0 -0.708659517
O  O290  1  0.59770000  0.10060000  0.23800000  1.0 -0.7302662913
O  O291  1  0.23080000  0.12280000  0.80320000  1.0 -0.5800285926
O  O292  1  0.23190000  0.87690000  0.80270000  1.0 -0.5800285926
O  O293  1  0.29280000  0.20820000  0.00180000  1.0 -0.6808975521
O  O294  1  0.39770000  0.03860000  0.07110000  1.0 -0.6103216739
O  O295  1  0.26260000  0.08580000  0.93430000  1.0 -0.6193148421
O  O296  1  0.39700000  0.96230000  0.07120000  1.0 -0.6103216739
O  O297  1  0.26310000  0.91520000  0.93450000  1.0 -0.6193148421
O  O298  1  0.31310000  0.87470000  0.96940000  1.0 -0.5880693417
O  O299  1  0.31260000  0.12480000  0.96990000  1.0 -0.5714422859
O  O300  1  0.31770000  0.24840000  0.94060000  1.0 -1.1006074855
O  O301  1  0.17270000  0.19820000  0.80050000  1.0 -0.7172237594
O  O302  1  0.19120000  0.96110000  0.68340000  1.0 -0.5714422859
O  O303  1  0.19100000  0.03760000  0.68260000  1.0 -0.5714422859
O  O304  1  0.17850000  0.12720000  0.91660000  1.0 -0.823240142
O  O305  1  0.25160000  0.18120000  0.94040000  1.0 -1.1006074855
O  O306  1  0.31000000  0.24300000  0.75720000  1.0 -0.5800285926
O  O307  1  0.31710000  0.28170000  0.86340000  1.0 -1.1061075587
O  O308  1  0.30240000  0.32960000  0.79980000  1.0 -0.7960188571
O  O309  1  0.12750000  0.08710000  0.64240000  1.0 -0.6994352999
O  O310  1  0.25520000  0.18900000  0.75590000  1.0 -0.5714422859
O  O311  1  0.22790000  0.08540000  0.85940000  1.0 -0.6029632609
O  O312  1  0.22230000  0.10210000  0.63840000  1.0 -0.5880693417
O  O313  1  0.21770000  0.18190000  0.86270000  1.0 -1.1006074855
O  O314  1  0.17770000  0.92770000  0.57670000  1.0 -1.0320608575
O  O315  1  0.12880000  0.91160000  0.64210000  1.0 -0.6886540909
O  O316  1  0.23090000  0.91410000  0.85930000  1.0 -0.6029632609
O  O317  1  0.21510000  0.99750000  0.43720000  1.0 -0.8303573426
O  O318  1  0.39670000  0.27550000  0.63800000  1.0 -0.5800285926
O  O319  1  0.39290000  0.77480000  0.50650000  1.0 -0.5714422859
O  O320  1  0.27560000  0.89350000  0.50650000  1.0 -0.5800285926
O  O321  1  0.24570000  0.25410000  0.81550000  1.0 -1.080399986
O  O322  1  0.17840000  0.07240000  0.57610000  1.0 -0.9894476492
O  O323  1  0.30750000  0.19160000  0.82900000  1.0 -0.6702664528
O  O324  1  0.14060000  0.99990000  0.62520000  1.0 -1.0859347839
O  O325  1  0.24950000  0.13020000  0.58270000  1.0 -0.5800285926
O  O326  1  0.36930000  0.24720000  0.58290000  1.0 -0.5800285926
O  O327  1  0.28220000  0.95620000  0.46970000  1.0 -0.6103216739
O  O328  1  0.36310000  0.19570000  0.87650000  1.0 -0.6337463592
O  O329  1  0.36510000  0.13410000  0.83630000  1.0 -0.5111174691
O  O330  1  0.30470000  0.13470000  0.87660000  1.0 -0.6469484378
O  O331  1  0.45480000  0.78080000  0.46930000  1.0 -0.6103216739
O  O332  1  0.26310000  0.96640000  0.55950000  1.0 -0.4632972438
O  O333  1  0.22770000  0.99960000  0.61160000  1.0 -0.6640182692
O  O334  1  0.18460000  0.13420000  0.52470000  1.0 -0.6640182692
O  O335  1  0.26400000  0.03190000  0.55860000  1.0 -0.4481391344
O  O336  1  0.37270000  0.99980000  0.29920000  1.0 -0.7718046117
O  O337  1  0.44990000  0.04910000  0.30320000  1.0 -0.9636688564
O  O338  1  0.39950000  0.95450000  0.36990000  1.0 -0.6353685368
O  O339  1  0.45900000  0.89890000  0.36840000  1.0 -0.6103216739
O  O340  1  0.50010000  0.93350000  0.13930000  1.0 -1.1524604816
O  O341  1  0.31400000  0.00200000  0.60210000  1.0 -0.5458639074
O  O342  1  0.20000000  0.05100000  0.50190000  1.0 -1.1179907132
O  O343  1  0.20000000  0.95000000  0.50050000  1.0 -1.1279783208
O  O344  1  0.18720000  0.86210000  0.52430000  1.0 -0.6994352999
O  O345  1  0.37350000  0.32060000  0.91680000  1.0 -0.8303573426
O  O346  1  0.11000000  0.24200000  0.94420000  1.0 -0.6886540909
O  O347  1  0.25700000  0.38800000  0.94590000  1.0 -0.708659517
O  O348  1  0.40230000  0.89940000  0.23800000  1.0 -0.7302662913
O  O349  1  0.62280000  0.26920000  0.80320000  1.0 -0.5800285926
O  O350  1  0.37690000  0.26810000  0.80270000  1.0 -0.5800285926
O  O351  1  0.70820000  0.20720000  0.00180000  1.0 -0.6808975521
O  O352  1  0.53860000  0.10230000  0.07110000  1.0 -0.6103216739
O  O353  1  0.58580000  0.23740000  0.93430000  1.0 -0.6193148421
O  O354  1  0.46230000  0.10300000  0.07120000  1.0 -0.6103216739
O  O355  1  0.41520000  0.23690000  0.93450000  1.0 -0.6193148421
O  O356  1  0.37470000  0.18690000  0.96940000  1.0 -0.5880693417
O  O357  1  0.62480000  0.18740000  0.96990000  1.0 -0.5714422859
O  O358  1  0.74840000  0.18230000  0.94060000  1.0 -1.1006074855
O  O359  1  0.69820000  0.32730000  0.80050000  1.0 -0.7172237594
O  O360  1  0.46110000  0.30880000  0.68340000  1.0 -0.5714422859
O  O361  1  0.53760000  0.30900000  0.68260000  1.0 -0.5714422859
O  O362  1  0.62720000  0.32150000  0.91660000  1.0 -0.823240142
O  O363  1  0.68120000  0.24840000  0.94040000  1.0 -1.1006074855
O  O364  1  0.74300000  0.19000000  0.75720000  1.0 -0.5800285926
O  O365  1  0.78170000  0.18290000  0.86340000  1.0 -1.1061075587
O  O366  1  0.82960000  0.19760000  0.79980000  1.0 -0.7960188571
O  O367  1  0.58710000  0.37250000  0.64240000  1.0 -0.6994352999
O  O368  1  0.68900000  0.24480000  0.75590000  1.0 -0.5714422859
O  O369  1  0.58540000  0.27210000  0.85940000  1.0 -0.6029632609
O  O370  1  0.60210000  0.27770000  0.63840000  1.0 -0.5880693417
O  O371  1  0.68190000  0.28230000  0.86270000  1.0 -1.1006074855
O  O372  1  0.42770000  0.32230000  0.57670000  1.0 -1.0320608575
O  O373  1  0.41160000  0.37120000  0.64210000  1.0 -0.6886540909
O  O374  1  0.41410000  0.26910000  0.85930000  1.0 -0.6029632609
O  O375  1  0.49750000  0.28490000  0.43720000  1.0 -0.8303573426
O  O376  1  0.77550000  0.10330000  0.63800000  1.0 -0.5800285926
O  O377  1  0.27480000  0.10710000  0.50650000  1.0 -0.5714422859
O  O378  1  0.39350000  0.22440000  0.50650000  1.0 -0.5800285926
O  O379  1  0.75410000  0.25430000  0.81550000  1.0 -1.080399986
O  O380  1  0.57240000  0.32160000  0.57610000  1.0 -0.9894476492
O  O381  1  0.69160000  0.19250000  0.82900000  1.0 -0.6702664528
O  O382  1  0.49990000  0.35940000  0.62520000  1.0 -1.0859347839
O  O383  1  0.63020000  0.25050000  0.58270000  1.0 -0.5800285926
O  O384  1  0.74720000  0.13070000  0.58290000  1.0 -0.5800285926
O  O385  1  0.45620000  0.21780000  0.46970000  1.0 -0.6103216739
O  O386  1  0.69570000  0.13690000  0.87650000  1.0 -0.6337463592
O  O387  1  0.63410000  0.13490000  0.83630000  1.0 -0.5111174691
O  O388  1  0.63470000  0.19530000  0.87660000  1.0 -0.6469484378
O  O389  1  0.28080000  0.04520000  0.46930000  1.0 -0.6103216739
O  O390  1  0.46640000  0.23690000  0.55950000  1.0 -0.4632972438
O  O391  1  0.49960000  0.27230000  0.61160000  1.0 -0.6640182692
O  O392  1  0.63420000  0.31540000  0.52470000  1.0 -0.6640182692
O  O393  1  0.53190000  0.23600000  0.55860000  1.0 -0.4481391344
O  O394  1  0.49980000  0.12730000  0.29920000  1.0 -0.7718046117
O  O395  1  0.54910000  0.05010000  0.30320000  1.0 -0.9636688564
O  O396  1  0.45450000  0.10050000  0.36990000  1.0 -0.6353685368
O  O397  1  0.39890000  0.04100000  0.36840000  1.0 -0.6103216739
O  O398  1  0.43350000  0.99990000  0.13930000  1.0 -1.1524604816
O  O399  1  0.50200000  0.18600000  0.60210000  1.0 -0.5458639074
O  O400  1  0.55100000  0.30000000  0.50190000  1.0 -1.1179907132
O  O401  1  0.45000000  0.30000000  0.50050000  1.0 -1.1279783208
O  O402  1  0.36210000  0.31280000  0.52430000  1.0 -0.6994352999
O  O403  1  0.82060000  0.12650000  0.91680000  1.0 -0.8303573426
O  O404  1  0.74200000  0.39000000  0.94420000  1.0 -0.6994352999
O  O405  1  0.88800000  0.24300000  0.94590000  1.0 -0.6994352999
O  O406  1  0.39940000  0.09770000  0.23800000  1.0 -0.7302662913
O  O407  1  0.37720000  0.73080000  0.80320000  1.0 -0.5800285926
O  O408  1  0.62310000  0.73190000  0.80270000  1.0 -0.5800285926
O  O409  1  0.29180000  0.79280000  0.00180000  1.0 -0.6808975521
O  O410  1  0.46140000  0.89770000  0.07110000  1.0 -0.6103216739
O  O411  1  0.41420000  0.76260000  0.93430000  1.0 -0.6193148421
O  O412  1  0.53770000  0.89700000  0.07120000  1.0 -0.6103216739
O  O413  1  0.58480000  0.76310000  0.93450000  1.0 -0.6193148421
O  O414  1  0.62530000  0.81310000  0.96940000  1.0 -0.5880693417
O  O415  1  0.37520000  0.81260000  0.96990000  1.0 -0.5714422859
O  O416  1  0.25160000  0.81770000  0.94060000  1.0 -1.1006074855
O  O417  1  0.30180000  0.67270000  0.80050000  1.0 -0.7172237594
O  O418  1  0.53890000  0.69120000  0.68340000  1.0 -0.5714422859
O  O419  1  0.46240000  0.69100000  0.68260000  1.0 -0.5714422859
O  O420  1  0.37280000  0.67850000  0.91660000  1.0 -0.823240142
O  O421  1  0.31880000  0.75160000  0.94040000  1.0 -1.1006074855
O  O422  1  0.25700000  0.81000000  0.75720000  1.0 -0.5800285926
O  O423  1  0.21830000  0.81710000  0.86340000  1.0 -1.1061075587
O  O424  1  0.17040000  0.80240000  0.79980000  1.0 -0.7960188571
O  O425  1  0.41290000  0.62750000  0.64240000  1.0 -0.6994352999
O  O426  1  0.31100000  0.75520000  0.75590000  1.0 -0.5714422859
O  O427  1  0.41460000  0.72790000  0.85940000  1.0 -0.6029632609
O  O428  1  0.39790000  0.72230000  0.63840000  1.0 -0.5880693417
O  O429  1  0.31810000  0.71770000  0.86270000  1.0 -1.1006074855
O  O430  1  0.57230000  0.67770000  0.57670000  1.0 -1.0320608575
O  O431  1  0.58840000  0.62880000  0.64210000  1.0 -0.6886540909
O  O432  1  0.58590000  0.73090000  0.85930000  1.0 -0.6029632609
O  O433  1  0.50250000  0.71510000  0.43720000  1.0 -0.8303573426
O  O434  1  0.22450000  0.89670000  0.63800000  1.0 -0.5800285926
O  O435  1  0.72520000  0.89290000  0.50650000  1.0 -0.5714422859
O  O436  1  0.60650000  0.77560000  0.50650000  1.0 -0.5800285926
O  O437  1  0.24590000  0.74570000  0.81550000  1.0 -1.080399986
O  O438  1  0.42760000  0.67840000  0.57610000  1.0 -0.9894476492
O  O439  1  0.30840000  0.80750000  0.82900000  1.0 -0.6702664528
O  O440  1  0.50010000  0.64060000  0.62520000  1.0 -1.0859347839
O  O441  1  0.36980000  0.74950000  0.58270000  1.0 -0.5800285926
O  O442  1  0.25280000  0.86930000  0.58290000  1.0 -0.5800285926
O  O443  1  0.54380000  0.78220000  0.46970000  1.0 -0.6103216739
O  O444  1  0.30430000  0.86310000  0.87650000  1.0 -0.6337463592
O  O445  1  0.36590000  0.86510000  0.83630000  1.0 -0.5111174691
O  O446  1  0.36530000  0.80470000  0.87660000  1.0 -0.6469484378
O  O447  1  0.71920000  0.95480000  0.46930000  1.0 -0.6103216739
O  O448  1  0.53360000  0.76310000  0.55950000  1.0 -0.4632972438
O  O449  1  0.50040000  0.72770000  0.61160000  1.0 -0.6640182692
O  O450  1  0.36580000  0.68460000  0.52470000  1.0 -0.6640182692
O  O451  1  0.46810000  0.76400000  0.55860000  1.0 -0.4481391344
O  O452  1  0.50020000  0.87270000  0.29920000  1.0 -0.7718046117
O  O453  1  0.45090000  0.94990000  0.30320000  1.0 -0.9636688564
O  O454  1  0.54550000  0.89950000  0.36990000  1.0 -0.6353685368
O  O455  1  0.60110000  0.95900000  0.36840000  1.0 -0.6103216739
O  O456  1  0.56650000  0.00010000  0.13930000  1.0 -1.1524604816
O  O457  1  0.49800000  0.81400000  0.60210000  1.0 -0.5458639074
O  O458  1  0.44900000  0.70000000  0.50190000  1.0 -1.1179907132
O  O459  1  0.55000000  0.70000000  0.50050000  1.0 -1.1279783208
O  O460  1  0.63790000  0.68720000  0.52430000  1.0 -0.6994352999
O  O461  1  0.17940000  0.87350000  0.91680000  1.0 -0.8303573426
O  O462  1  0.25800000  0.61000000  0.94420000  1.0 -0.6994352999
O  O463  1  0.11200000  0.75700000  0.94590000  1.0 -0.6994352999
O  O464  1  0.60060000  0.90230000  0.23800000  1.0 -0.7302662913
O  O465  1  0.00000000  0.50000000  0.92400000  1.0 -0.5629690248
O  O466  1  0.00000000  0.50000000  0.64400000  1.0 -0.7633763809
O  O467  1  0.50000000  0.00000000  0.07600000  1.0 -0.5714422859
O  O468  1  0.50000000  0.00000000  0.35600000  1.0 -0.7633763809
