# DDEC6 charges by PACMAN v1.1 (https://github.com/mtap-research/PACMAN-charge/)
data_MODNAU_ion_pacman
_symmetry_space_group_name_H-M   'P 1'
_cell_length_a   13.54970000
_cell_length_b   13.64540000
_cell_length_c   27.20370000
_cell_angle_alpha   90.00000000
_cell_angle_beta   90.00000000
_cell_angle_gamma   90.00000000
_symmetry_Int_Tables_number   1
_chemical_formula_structural   Cd3H7C13N8
_chemical_formula_sum   'Cd24 H56 C104 N64'
_cell_volume   5029.72137452
_cell_formula_units_Z   8
loop_
 _symmetry_equiv_pos_site_id
 _symmetry_equiv_pos_as_xyz
  1  'x, y, z'
loop_
 _atom_site_type_symbol
 _atom_site_label
 _atom_site_symmetry_multiplicity
 _atom_site_fract_x
 _atom_site_fract_y
 _atom_site_fract_z
 _atom_site_occupancy
 _atom_site_charge
Cd  Cd1  1  0.01342000  0.82567000  0.87572000  1.0 0.9560991991
Cd  Cd2  1  0.48658000  0.32567000  0.87572000  1.0 0.9560991991
Cd  Cd3  1  0.51342000  0.82567000  0.62428000  1.0 0.9560991991
Cd  Cd4  1  0.01342000  0.67433000  0.37572000  1.0 0.9560991991
Cd  Cd5  1  0.98658000  0.17433000  0.12428000  1.0 0.9560991991
Cd  Cd6  1  0.51342000  0.67433000  0.12428000  1.0 0.9560991991
Cd  Cd7  1  0.48658000  0.17433000  0.37572000  1.0 0.9560991991
Cd  Cd8  1  0.98658000  0.32567000  0.62428000  1.0 0.9560991991
Cd  Cd9  1  0.11674000  0.44769000  0.80807000  1.0 0.5634349603
Cd  Cd10  1  0.38326000  0.94769000  0.80807000  1.0 0.5634349603
Cd  Cd11  1  0.61674000  0.44769000  0.69193000  1.0 0.5634349603
Cd  Cd12  1  0.11674000  0.05231000  0.30807000  1.0 0.5634349603
Cd  Cd13  1  0.88326000  0.55231000  0.19193000  1.0 0.5634349603
Cd  Cd14  1  0.61674000  0.05231000  0.19193000  1.0 0.5634349603
Cd  Cd15  1  0.38326000  0.55231000  0.30807000  1.0 0.5634349603
Cd  Cd16  1  0.88326000  0.94769000  0.69193000  1.0 0.5634349603
Cd  Cd17  1  0.87520000  0.20555000  0.92313000  1.0 0.424716549
Cd  Cd18  1  0.62480000  0.70555000  0.92313000  1.0 0.424716549
Cd  Cd19  1  0.37520000  0.20555000  0.57687000  1.0 0.424716549
Cd  Cd20  1  0.87520000  0.29445000  0.42313000  1.0 0.424716549
Cd  Cd21  1  0.12480000  0.79445000  0.07687000  1.0 0.424716549
Cd  Cd22  1  0.37520000  0.29445000  0.07687000  1.0 0.424716549
Cd  Cd23  1  0.62480000  0.79445000  0.42313000  1.0 0.424716549
Cd  Cd24  1  0.12480000  0.70555000  0.57687000  1.0 0.424716549
H  H1  1  0.20640000  0.91400000  0.41510000  1.0 0.1266871858
H  H2  1  0.79360000  0.08600000  0.58490000  1.0 0.1266871858
H  H3  1  0.04520000  0.95450000  0.42520000  1.0 0.1493643057
H  H4  1  0.95480000  0.04550000  0.57480000  1.0 0.1493643057
H  H5  1  0.09960000  0.00970000  0.56550000  1.0 0.1493643057
H  H6  1  0.90040000  0.99030000  0.43450000  1.0 0.1493643057
H  H7  1  0.25940000  0.96840000  0.55320000  1.0 0.1266871858
H  H8  1  0.74060000  0.03160000  0.44680000  1.0 0.1266871858
H  H9  1  0.38820000  0.96910000  0.46140000  1.0 0.1585121322
H  H10  1  0.61180000  0.03090000  0.53860000  1.0 0.1585121322
H  H11  1  0.38240000  0.89400000  0.50490000  1.0 0.1585121322
H  H12  1  0.61760000  0.10600000  0.49510000  1.0 0.1585121322
H  H13  1  0.35670000  0.86040000  0.45130000  1.0 0.1493643057
H  H14  1  0.64330000  0.13960000  0.54870000  1.0 0.1493643057
H  H15  1  0.70640000  0.58600000  0.58490000  1.0 0.1266871858
H  H16  1  0.29360000  0.41400000  0.41510000  1.0 0.1266871858
H  H17  1  0.54520000  0.54550000  0.57480000  1.0 0.1493643057
H  H18  1  0.45480000  0.45450000  0.42520000  1.0 0.1493643057
H  H19  1  0.59960000  0.49030000  0.43450000  1.0 0.1493643057
H  H20  1  0.40040000  0.50970000  0.56550000  1.0 0.1493643057
H  H21  1  0.75940000  0.53160000  0.44680000  1.0 0.1266871858
H  H22  1  0.24060000  0.46840000  0.55320000  1.0 0.1266871858
H  H23  1  0.88820000  0.53090000  0.53860000  1.0 0.1585121322
H  H24  1  0.11180000  0.46910000  0.46140000  1.0 0.1585121322
H  H25  1  0.88240000  0.60600000  0.49510000  1.0 0.1585121322
H  H26  1  0.11760000  0.39400000  0.50490000  1.0 0.1585121322
H  H27  1  0.85670000  0.63960000  0.54870000  1.0 0.1493643057
H  H28  1  0.14330000  0.36040000  0.45130000  1.0 0.1493643057
H  H29  1  0.29360000  0.08600000  0.91510000  1.0 0.1266871858
H  H30  1  0.70640000  0.91400000  0.08490000  1.0 0.1266871858
H  H31  1  0.45480000  0.04550000  0.92520000  1.0 0.1493643057
H  H32  1  0.54520000  0.95450000  0.07480000  1.0 0.1493643057
H  H33  1  0.40040000  0.99030000  0.06550000  1.0 0.1493643057
H  H34  1  0.59960000  0.00970000  0.93450000  1.0 0.1493643057
H  H35  1  0.24060000  0.03160000  0.05320000  1.0 0.1266871858
H  H36  1  0.75940000  0.96840000  0.94680000  1.0 0.1266871858
H  H37  1  0.11180000  0.03090000  0.96140000  1.0 0.1585121322
H  H38  1  0.88820000  0.96910000  0.03860000  1.0 0.1585121322
H  H39  1  0.11760000  0.10600000  0.00490000  1.0 0.1585121322
H  H40  1  0.88240000  0.89400000  0.99510000  1.0 0.1585121322
H  H41  1  0.14330000  0.13960000  0.95130000  1.0 0.1493643057
H  H42  1  0.85670000  0.86040000  0.04870000  1.0 0.1493643057
H  H43  1  0.20640000  0.58600000  0.91510000  1.0 0.1266871858
H  H44  1  0.79360000  0.41400000  0.08490000  1.0 0.1266871858
H  H45  1  0.04520000  0.54550000  0.92520000  1.0 0.1493643057
H  H46  1  0.95480000  0.45450000  0.07480000  1.0 0.1493643057
H  H47  1  0.09960000  0.49030000  0.06550000  1.0 0.1493643057
H  H48  1  0.90040000  0.50970000  0.93450000  1.0 0.1493643057
H  H49  1  0.25940000  0.53160000  0.05320000  1.0 0.1266871858
H  H50  1  0.74060000  0.46840000  0.94680000  1.0 0.1266871858
H  H51  1  0.38820000  0.53090000  0.96140000  1.0 0.1585121322
H  H52  1  0.61180000  0.46910000  0.03860000  1.0 0.1585121322
H  H53  1  0.38240000  0.60600000  0.00490000  1.0 0.1585121322
H  H54  1  0.61760000  0.39400000  0.99510000  1.0 0.1585121322
H  H55  1  0.35670000  0.63960000  0.95130000  1.0 0.1493643057
H  H56  1  0.64330000  0.36040000  0.04870000  1.0 0.1493643057
C  C1  1  0.07620000  0.59800000  0.83080000  1.0 -0.0325454623
C  C2  1  0.42380000  0.09800000  0.83080000  1.0 -0.0325454623
C  C3  1  0.57620000  0.59800000  0.66920000  1.0 -0.0325454623
C  C4  1  0.07620000  0.90200000  0.33080000  1.0 -0.0325454623
C  C5  1  0.92380000  0.40200000  0.16920000  1.0 -0.0406861398
C  C6  1  0.57620000  0.90200000  0.16920000  1.0 -0.0406861398
C  C7  1  0.42380000  0.40200000  0.33080000  1.0 -0.0325454623
C  C8  1  0.92380000  0.09800000  0.66920000  1.0 -0.0325454623
C  C9  1  0.23940000  0.91030000  0.84030000  1.0 -0.0406861398
C  C10  1  0.26060000  0.41030000  0.84030000  1.0 -0.0406861398
C  C11  1  0.73940000  0.91030000  0.65970000  1.0 -0.0406861398
C  C12  1  0.23940000  0.58970000  0.34030000  1.0 -0.0406861398
C  C13  1  0.76060000  0.08970000  0.15970000  1.0 -0.0406861398
C  C14  1  0.73940000  0.58970000  0.15970000  1.0 -0.0406861398
C  C15  1  0.26060000  0.08970000  0.34030000  1.0 -0.0406861398
C  C16  1  0.76060000  0.41030000  0.65970000  1.0 -0.0406861398
C  C17  1  0.92430000  0.05570000  0.90600000  1.0 -0.0463489601
C  C18  1  0.57570000  0.55570000  0.90600000  1.0 -0.0463489601
C  C19  1  0.42430000  0.05570000  0.59400000  1.0 -0.0463489601
C  C20  1  0.92430000  0.44430000  0.40600000  1.0 -0.0463489601
C  C21  1  0.07570000  0.94430000  0.09400000  1.0 -0.0463489601
C  C22  1  0.42430000  0.44430000  0.09400000  1.0 -0.0463489601
C  C23  1  0.57570000  0.94430000  0.40600000  1.0 -0.0463489601
C  C24  1  0.07570000  0.55570000  0.59400000  1.0 -0.0463489601
C  C25  1  0.78200000  0.73630000  0.91110000  1.0 -0.0624568754
C  C26  1  0.71800000  0.23630000  0.91110000  1.0 -0.0624568754
C  C27  1  0.28200000  0.73630000  0.58890000  1.0 -0.0624568754
C  C28  1  0.78200000  0.76370000  0.41110000  1.0 -0.0624568754
C  C29  1  0.21800000  0.26370000  0.08890000  1.0 -0.0624568754
C  C30  1  0.28200000  0.76370000  0.08890000  1.0 -0.0624568754
C  C31  1  0.71800000  0.26370000  0.41110000  1.0 -0.0624568754
C  C32  1  0.21800000  0.23630000  0.58890000  1.0 -0.0624568754
C  C33  1  0.96920000  0.31130000  0.88380000  1.0 -0.0325454623
C  C34  1  0.53080000  0.81130000  0.88380000  1.0 -0.0325454623
C  C35  1  0.46920000  0.31130000  0.61620000  1.0 -0.0325454623
C  C36  1  0.96920000  0.18870000  0.38380000  1.0 -0.0325454623
C  C37  1  0.03080000  0.68870000  0.11620000  1.0 -0.0325454623
C  C38  1  0.46920000  0.18870000  0.11620000  1.0 -0.0325454623
C  C39  1  0.53080000  0.68870000  0.38380000  1.0 -0.0325454623
C  C40  1  0.03080000  0.81130000  0.61620000  1.0 -0.0325454623
C  C41  1  0.09350000  0.78820000  0.99600000  1.0 -0.0652655792
C  C42  1  0.40650000  0.28820000  0.99600000  1.0 -0.0624568754
C  C43  1  0.59350000  0.78820000  0.50400000  1.0 -0.0624568754
C  C44  1  0.09350000  0.71180000  0.49600000  1.0 -0.0624568754
C  C45  1  0.90650000  0.21180000  0.00400000  1.0 -0.0624568754
C  C46  1  0.59350000  0.71180000  0.00400000  1.0 -0.0624568754
C  C47  1  0.40650000  0.21180000  0.49600000  1.0 -0.0624568754
C  C48  1  0.90650000  0.28820000  0.50400000  1.0 -0.0624568754
C  C49  1  0.92530000  0.89260000  0.76330000  1.0 0.0063996795
C  C50  1  0.57470000  0.39260000  0.76330000  1.0 0.0063996795
C  C51  1  0.42530000  0.89260000  0.73670000  1.0 0.0063996795
C  C52  1  0.92530000  0.60740000  0.26330000  1.0 0.0063996795
C  C53  1  0.07470000  0.10740000  0.23670000  1.0 0.0045795818
C  C54  1  0.42530000  0.60740000  0.23670000  1.0 0.0063996795
C  C55  1  0.57470000  0.10740000  0.26330000  1.0 0.0063996795
C  C56  1  0.07470000  0.39260000  0.73670000  1.0 0.0063996795
C  C57  1  0.18450000  0.93470000  0.44580000  1.0 0.0365908807
C  C58  1  0.81550000  0.06530000  0.55420000  1.0 0.0365908807
C  C59  1  0.08800000  0.95830000  0.45190000  1.0 -0.1796990614
C  C60  1  0.91200000  0.04170000  0.54810000  1.0 -0.1796990614
C  C61  1  0.05270000  0.98740000  0.49630000  1.0 0.111615125
C  C62  1  0.94730000  0.01260000  0.50370000  1.0 0.111615125
C  C63  1  0.12020000  0.99070000  0.53430000  1.0 -0.1796990614
C  C64  1  0.87980000  0.00930000  0.46570000  1.0 -0.1796990614
C  C65  1  0.21550000  0.96670000  0.52690000  1.0 0.0159083707
C  C66  1  0.78450000  0.03330000  0.47310000  1.0 0.0159083707
C  C67  1  0.35320000  0.91360000  0.47430000  1.0 -0.3365590349
C  C68  1  0.64680000  0.08640000  0.52570000  1.0 -0.3365590349
C  C69  1  0.68450000  0.56530000  0.55420000  1.0 0.0365908807
C  C70  1  0.31550000  0.43470000  0.44580000  1.0 0.0365908807
C  C71  1  0.58800000  0.54170000  0.54810000  1.0 -0.1796990614
C  C72  1  0.41200000  0.45830000  0.45190000  1.0 -0.1796990614
C  C73  1  0.55270000  0.51260000  0.50370000  1.0 0.111615125
C  C74  1  0.44730000  0.48740000  0.49630000  1.0 0.111615125
C  C75  1  0.62020000  0.50930000  0.46570000  1.0 -0.1796990614
C  C76  1  0.37980000  0.49070000  0.53430000  1.0 -0.1796990614
C  C77  1  0.71550000  0.53330000  0.47310000  1.0 0.0159083707
C  C78  1  0.28450000  0.46670000  0.52690000  1.0 0.0159083707
C  C79  1  0.85320000  0.58640000  0.52570000  1.0 -0.3365590349
C  C80  1  0.14680000  0.41360000  0.47430000  1.0 -0.3365590349
C  C81  1  0.31550000  0.06530000  0.94580000  1.0 0.0365908807
C  C82  1  0.68450000  0.93470000  0.05420000  1.0 0.0365908807
C  C83  1  0.41200000  0.04170000  0.95190000  1.0 -0.1796990614
C  C84  1  0.58800000  0.95830000  0.04810000  1.0 -0.1796990614
C  C85  1  0.44730000  0.01260000  0.99630000  1.0 0.111615125
C  C86  1  0.55270000  0.98740000  0.00370000  1.0 0.111615125
C  C87  1  0.37980000  0.00930000  0.03430000  1.0 -0.1796990614
C  C88  1  0.62020000  0.99070000  0.96570000  1.0 -0.1796990614
C  C89  1  0.28450000  0.03330000  0.02690000  1.0 0.0159083707
C  C90  1  0.71550000  0.96670000  0.97310000  1.0 0.0159083707
C  C91  1  0.14680000  0.08640000  0.97430000  1.0 -0.3365590349
C  C92  1  0.85320000  0.91360000  0.02570000  1.0 -0.3365590349
C  C93  1  0.18450000  0.56530000  0.94580000  1.0 0.0365908807
C  C94  1  0.81550000  0.43470000  0.05420000  1.0 0.0365908807
C  C95  1  0.08800000  0.54170000  0.95190000  1.0 -0.1796990614
C  C96  1  0.91200000  0.45830000  0.04810000  1.0 -0.1796990614
C  C97  1  0.05270000  0.51260000  0.99630000  1.0 0.111615125
C  C98  1  0.94730000  0.48740000  0.00370000  1.0 0.111615125
C  C99  1  0.12020000  0.50930000  0.03430000  1.0 -0.1796990614
C  C100  1  0.87980000  0.49070000  0.96570000  1.0 -0.1796990614
C  C101  1  0.21550000  0.53330000  0.02690000  1.0 0.0159083707
C  C102  1  0.78450000  0.46670000  0.97310000  1.0 0.0159083707
C  C103  1  0.35320000  0.58640000  0.97430000  1.0 -0.3365590349
C  C104  1  0.64680000  0.41360000  0.02570000  1.0 -0.3365590349
N  N1  1  0.05610000  0.67140000  0.84676000  1.0 -0.3291042838
N  N2  1  0.44390000  0.17140000  0.84676000  1.0 -0.3291042838
N  N3  1  0.55610000  0.67140000  0.65324000  1.0 -0.3291042838
N  N4  1  0.05610000  0.82860000  0.34676000  1.0 -0.3291042838
N  N5  1  0.94390000  0.32860000  0.15324000  1.0 -0.3291042838
N  N6  1  0.55610000  0.82860000  0.15324000  1.0 -0.3291042838
N  N7  1  0.44390000  0.32860000  0.34676000  1.0 -0.3291042838
N  N8  1  0.94390000  0.17140000  0.65324000  1.0 -0.3291042838
N  N9  1  0.16650000  0.88940000  0.85730000  1.0 -0.3291042838
N  N10  1  0.33350000  0.38940000  0.85730000  1.0 -0.3291042838
N  N11  1  0.66650000  0.88940000  0.64270000  1.0 -0.3291042838
N  N12  1  0.16650000  0.61060000  0.35730000  1.0 -0.3291042838
N  N13  1  0.83350000  0.11060000  0.14270000  1.0 -0.3291042838
N  N14  1  0.66650000  0.61060000  0.14270000  1.0 -0.3291042838
N  N15  1  0.33350000  0.11060000  0.35730000  1.0 -0.3291042838
N  N16  1  0.83350000  0.38940000  0.64270000  1.0 -0.3291042838
N  N17  1  0.95360000  0.97890000  0.90191000  1.0 -0.3291042838
N  N18  1  0.54640000  0.47890000  0.90191000  1.0 -0.3291042838
N  N19  1  0.45360000  0.97890000  0.59809000  1.0 -0.3291042838
N  N20  1  0.95360000  0.52110000  0.40191000  1.0 -0.3291042838
N  N21  1  0.04640000  0.02110000  0.09809000  1.0 -0.3291042838
N  N22  1  0.45360000  0.52110000  0.09809000  1.0 -0.3291042838
N  N23  1  0.54640000  0.02110000  0.40191000  1.0 -0.3291042838
N  N24  1  0.04640000  0.47890000  0.59809000  1.0 -0.3291042838
N  N25  1  0.86170000  0.75750000  0.90310000  1.0 -0.3291042838
N  N26  1  0.63830000  0.25750000  0.90310000  1.0 -0.3291042838
N  N27  1  0.36170000  0.75750000  0.59690000  1.0 -0.3291042838
N  N28  1  0.86170000  0.74250000  0.40310000  1.0 -0.3291042838
N  N29  1  0.13830000  0.24250000  0.09690000  1.0 -0.3291042838
N  N30  1  0.36170000  0.74250000  0.09690000  1.0 -0.3291042838
N  N31  1  0.63830000  0.24250000  0.40310000  1.0 -0.3291042838
N  N32  1  0.13830000  0.25750000  0.59690000  1.0 -0.3291042838
N  N33  1  0.01870000  0.36320000  0.86180000  1.0 -0.3291042838
N  N34  1  0.48130000  0.86320000  0.86180000  1.0 -0.3291042838
N  N35  1  0.51870000  0.36320000  0.63820000  1.0 -0.3291042838
N  N36  1  0.01870000  0.13680000  0.36180000  1.0 -0.3291042838
N  N37  1  0.98130000  0.63680000  0.13820000  1.0 -0.3291042838
N  N38  1  0.51870000  0.13680000  0.13820000  1.0 -0.3291042838
N  N39  1  0.48130000  0.63680000  0.36180000  1.0 -0.3291042838
N  N40  1  0.98130000  0.86320000  0.63820000  1.0 -0.3291042838
N  N41  1  0.07340000  0.79440000  0.95599000  1.0 -0.3365590349
N  N42  1  0.42660000  0.29440000  0.95599000  1.0 -0.3365590349
N  N43  1  0.57340000  0.79440000  0.54401000  1.0 -0.3365590349
N  N44  1  0.07340000  0.70560000  0.45599000  1.0 -0.3365590349
N  N45  1  0.92660000  0.20560000  0.04401000  1.0 -0.3365590349
N  N46  1  0.57340000  0.70560000  0.04401000  1.0 -0.3365590349
N  N47  1  0.42660000  0.20560000  0.45599000  1.0 -0.3365590349
N  N48  1  0.92660000  0.29440000  0.54401000  1.0 -0.3365590349
N  N49  1  0.94850000  0.86180000  0.80020000  1.0 -0.320021851
N  N50  1  0.55150000  0.36180000  0.80020000  1.0 -0.320021851
N  N51  1  0.44850000  0.86180000  0.69980000  1.0 -0.320021851
N  N52  1  0.94850000  0.63820000  0.30020000  1.0 -0.320021851
N  N53  1  0.05150000  0.13820000  0.19980000  1.0 -0.320021851
N  N54  1  0.44850000  0.63820000  0.19980000  1.0 -0.320021851
N  N55  1  0.55150000  0.13820000  0.30020000  1.0 -0.320021851
N  N56  1  0.05150000  0.36180000  0.69980000  1.0 -0.320021851
N  N57  1  0.24820000  0.94060000  0.48250000  1.0 0.1444566901
N  N58  1  0.75180000  0.05940000  0.51750000  1.0 0.1444566901
N  N59  1  0.74820000  0.55940000  0.51750000  1.0 0.1444566901
N  N60  1  0.25180000  0.44060000  0.48250000  1.0 0.1444566901
N  N61  1  0.25180000  0.05940000  0.98250000  1.0 0.1444566901
N  N62  1  0.74820000  0.94060000  0.01750000  1.0 0.1444566901
N  N63  1  0.24820000  0.55940000  0.98250000  1.0 0.1444566901
N  N64  1  0.75180000  0.44060000  0.01750000  1.0 0.1444566901
