# DDEC6 charges by PACMAN v1.1 (https://github.com/mtap-research/PACMAN-charge/)
data_MOFNED_ASR_pacman
_symmetry_space_group_name_H-M   'P 1'
_cell_length_a   45.17580000
_cell_length_b   45.17580000
_cell_length_c   45.17580000
_cell_angle_alpha   156.90700000
_cell_angle_beta   156.90700000
_cell_angle_gamma   32.88740000
_symmetry_Int_Tables_number   1
_chemical_formula_structural   Zr3H30C80N4(ClO3)8
_chemical_formula_sum   'Zr12 H120 C320 N16 Cl32 O96'
_cell_volume   14171.27623335
_cell_formula_units_Z   4
loop_
 _symmetry_equiv_pos_site_id
 _symmetry_equiv_pos_as_xyz
  1  'x, y, z'
loop_
 _atom_site_type_symbol
 _atom_site_label
 _atom_site_symmetry_multiplicity
 _atom_site_fract_x
 _atom_site_fract_y
 _atom_site_fract_z
 _atom_site_occupancy
 _atom_site_charge
Zr  Zr1  1  0.57011000  0.38217000  0.95236000  1.0 2.3841215094
Zr  Zr2  1  0.42981000  0.61775000  0.04764000  1.0 2.3865499457
Zr  Zr3  1  0.13217000  0.67981000  0.31206000  1.0 2.3865499457
Zr  Zr4  1  0.36775000  0.82011000  0.68794000  1.0 2.3841215094
Zr  Zr5  1  0.17989000  0.86783000  0.54764000  1.0 2.3841215094
Zr  Zr6  1  0.32019000  0.63225000  0.45236000  1.0 2.3841215094
Zr  Zr7  1  0.61783000  0.57019000  0.18794000  1.0 2.3865499457
Zr  Zr8  1  0.38225000  0.42989000  0.81206000  1.0 2.3841215094
Zr  Zr9  1  0.52856000  0.52856000  0.00000000  1.0 2.3968775233
Zr  Zr10  1  0.27856000  0.77856000  0.50000000  1.0 2.3968775233
Zr  Zr11  1  0.22144000  0.72144000  0.50000000  1.0 2.3968775233
Zr  Zr12  1  0.47144000  0.47144000  0.00000000  1.0 2.3968775233
H  H1  1  0.85040000  0.11240000  0.28400000  1.0 0.1417687531
H  H2  1  0.13600000  0.06820000  0.62880000  1.0 0.1321268787
H  H3  1  0.18680000  0.25500000  0.70160000  1.0 0.1511209649
H  H4  1  0.74840000  0.36460000  0.31440000  1.0 0.1417687531
H  H5  1  0.16820000  0.90990000  0.45230000  1.0 0.1511209649
H  H6  1  0.05580000  0.26640000  0.44600000  1.0 0.1511209649
H  H7  1  0.11330000  0.98320000  0.43370000  1.0 0.1417687531
H  H8  1  0.81390000  0.51880000  0.36710000  1.0 0.1417687531
H  H9  1  0.08140000  0.14330000  0.61050000  1.0 0.1417687531
H  H10  1  0.79870000  0.27060000  0.15810000  1.0 0.1417687531
H  H11  1  0.73670000  0.30450000  0.08800000  1.0 0.1221842354
H  H12  1  0.87140000  0.48450000  0.43210000  1.0 0.1417687531
H  H13  1  0.61340000  0.32880000  0.83420000  1.0 0.168235041
H  H14  1  0.67790000  0.30020000  0.88770000  1.0 0.1627867294
H  H15  1  0.68910000  0.37690000  0.95140000  1.0 0.168235041
H  H16  1  0.82840000  0.56640000  0.71600000  1.0 0.1417687531
H  H17  1  0.43940000  0.50720000  0.37120000  1.0 0.1321268787
H  H18  1  0.55340000  0.48520000  0.29840000  1.0 0.1511209649
H  H19  1  0.05020000  0.43400000  0.68560000  1.0 0.1417687531
H  H20  1  0.45760000  0.71590000  0.54770000  1.0 0.1511209649
H  H21  1  0.82040000  0.60980000  0.55400000  1.0 0.1511209649
H  H22  1  0.54950000  0.67960000  0.56630000  1.0 0.1417687531
H  H23  1  0.15170000  0.44680000  0.63290000  1.0 0.1417687531
H  H24  1  0.53280000  0.47090000  0.38950000  1.0 0.1417687531
H  H25  1  0.11250000  0.64060000  0.84190000  1.0 0.1417687531
H  H26  1  0.21650000  0.64870000  0.91200000  1.0 0.1221842354
H  H27  1  0.05240000  0.43930000  0.56790000  1.0 0.1417687531
H  H28  1  0.49460000  0.77920000  0.16580000  1.0 0.168235041
H  H29  1  0.41250000  0.79020000  0.11230000  1.0 0.1627867294
H  H30  1  0.42550000  0.73770000  0.04860000  1.0 0.168235041
H  H31  1  0.86240000  0.07840000  0.76200000  1.0 0.1417687531
H  H32  1  0.81820000  0.68940000  0.43220000  1.0 0.1321268787
H  H33  1  0.00500000  0.80340000  0.56820000  1.0 0.1511209649
H  H34  1  0.11460000  0.30020000  0.11620000  1.0 0.1417687531
H  H35  1  0.65990000  0.70760000  0.24170000  1.0 0.1511209649
H  H36  1  0.01640000  0.07040000  0.71060000  1.0 0.1511209649
H  H37  1  0.73320000  0.79950000  0.36990000  1.0 0.1417687531
H  H38  1  0.26880000  0.40170000  0.20490000  1.0 0.1417687531
H  H39  1  0.89330000  0.78280000  0.56190000  1.0 0.1417687531
H  H40  1  0.02060000  0.36250000  0.97190000  1.0 0.1417687531
H  H41  1  0.05450000  0.46650000  0.06780000  1.0 0.1221842354
H  H42  1  0.23450000  0.30240000  0.11310000  1.0 0.1417687531
H  H43  1  0.07880000  0.74460000  0.21540000  1.0 0.168235041
H  H44  1  0.05020000  0.66250000  0.12230000  1.0 0.1627867294
H  H45  1  0.12690000  0.67550000  0.18780000  1.0 0.168235041
H  H46  1  0.31640000  0.10040000  0.23800000  1.0 0.1417687531
H  H47  1  0.25720000  0.38600000  0.56780000  1.0 0.1321268787
H  H48  1  0.23520000  0.43680000  0.43180000  1.0 0.1511209649
H  H49  1  0.18400000  0.99840000  0.88380000  1.0 0.1417687531
H  H50  1  0.46590000  0.41820000  0.75830000  1.0 0.1511209649
H  H51  1  0.35980000  0.30580000  0.28940000  1.0 0.1511209649
H  H52  1  0.42960000  0.36330000  0.63010000  1.0 0.1417687531
H  H53  1  0.19680000  0.06390000  0.79510000  1.0 0.1417687531
H  H54  1  0.22090000  0.33140000  0.43810000  1.0 0.1417687531
H  H55  1  0.39060000  0.04870000  0.02810000  1.0 0.1417687531
H  H56  1  0.39870000  0.98670000  0.93220000  1.0 0.1221842354
H  H57  1  0.18930000  0.12140000  0.88690000  1.0 0.1417687531
H  H58  1  0.52920000  0.86340000  0.78460000  1.0 0.168235041
H  H59  1  0.54020000  0.92790000  0.87770000  1.0 0.1627867294
H  H60  1  0.48770000  0.93910000  0.81220000  1.0 0.168235041
H  H61  1  0.89960000  0.13760000  0.21600000  1.0 0.1417687531
H  H62  1  0.61400000  0.18180000  0.87120000  1.0 0.1321268787
H  H63  1  0.56320000  0.99500000  0.79840000  1.0 0.1511209649
H  H64  1  0.00160000  0.88540000  0.18560000  1.0 0.1417687531
H  H65  1  0.58180000  0.34010000  0.04770000  1.0 0.1511209649
H  H66  1  0.69420000  0.98360000  0.05400000  1.0 0.1511209649
H  H67  1  0.63670000  0.26680000  0.06630000  1.0 0.1417687531
H  H68  1  0.93610000  0.73120000  0.13290000  1.0 0.1417687531
H  H69  1  0.66860000  0.10670000  0.88950000  1.0 0.1417687531
H  H70  1  0.95130000  0.97940000  0.34190000  1.0 0.1417687531
H  H71  1  0.01330000  0.94550000  0.41200000  1.0 0.1221842354
H  H72  1  0.87860000  0.76550000  0.06790000  1.0 0.1417687531
H  H73  1  0.13660000  0.92120000  0.66580000  1.0 0.168235041
H  H74  1  0.07210000  0.94980000  0.61230000  1.0 0.1627867294
H  H75  1  0.06090000  0.87310000  0.54860000  1.0 0.168235041
H  H76  1  0.92160000  0.68360000  0.78400000  1.0 0.1417687531
H  H77  1  0.31060000  0.74280000  0.12880000  1.0 0.1321268787
H  H78  1  0.19660000  0.76480000  0.20160000  1.0 0.1511209649
H  H79  1  0.69980000  0.81600000  0.81440000  1.0 0.1417687531
H  H80  1  0.29240000  0.53410000  0.95230000  1.0 0.1511209649
H  H81  1  0.92960000  0.64020000  0.94600000  1.0 0.1511209649
H  H82  1  0.20050000  0.57040000  0.93370000  1.0 0.1417687531
H  H83  1  0.59830000  0.80320000  0.86710000  1.0 0.1417687531
H  H84  1  0.21720000  0.77910000  0.11050000  1.0 0.1417687531
H  H85  1  0.63750000  0.60940000  0.65810000  1.0 0.1417687531
H  H86  1  0.53350000  0.60130000  0.58800000  1.0 0.1221842354
H  H87  1  0.69760000  0.81070000  0.93210000  1.0 0.1417687531
H  H88  1  0.25540000  0.47080000  0.33420000  1.0 0.168235041
H  H89  1  0.33750000  0.45980000  0.38770000  1.0 0.1627867294
H  H90  1  0.32450000  0.51230000  0.45140000  1.0 0.168235041
H  H91  1  0.88760000  0.17160000  0.73800000  1.0 0.1417687531
H  H92  1  0.93180000  0.56060000  0.06780000  1.0 0.1321268787
H  H93  1  0.74500000  0.44660000  0.93180000  1.0 0.1511209649
H  H94  1  0.63540000  0.94980000  0.38380000  1.0 0.1417687531
H  H95  1  0.09010000  0.54240000  0.25830000  1.0 0.1511209649
H  H96  1  0.73360000  0.17960000  0.78940000  1.0 0.1511209649
H  H97  1  0.01680000  0.45050000  0.13010000  1.0 0.1417687531
H  H98  1  0.48120000  0.84830000  0.29510000  1.0 0.1417687531
H  H99  1  0.85670000  0.46720000  0.93810000  1.0 0.1417687531
H  H100  1  0.72940000  0.88750000  0.52810000  1.0 0.1417687531
H  H101  1  0.69550000  0.78350000  0.43220000  1.0 0.1221842354
H  H102  1  0.51550000  0.94760000  0.38690000  1.0 0.1417687531
H  H103  1  0.67120000  0.50540000  0.28460000  1.0 0.168235041
H  H104  1  0.69980000  0.58750000  0.37770000  1.0 0.1627867294
H  H105  1  0.62310000  0.57450000  0.31220000  1.0 0.168235041
H  H106  1  0.43360000  0.14960000  0.26200000  1.0 0.1417687531
H  H107  1  0.49280000  0.86400000  0.93220000  1.0 0.1321268787
H  H108  1  0.51480000  0.81320000  0.06820000  1.0 0.1511209649
H  H109  1  0.56600000  0.25160000  0.61620000  1.0 0.1417687531
H  H110  1  0.28410000  0.83180000  0.74170000  1.0 0.1511209649
H  H111  1  0.39020000  0.94420000  0.21060000  1.0 0.1511209649
H  H112  1  0.32040000  0.88670000  0.86990000  1.0 0.1417687531
H  H113  1  0.55320000  0.18610000  0.70490000  1.0 0.1417687531
H  H114  1  0.52910000  0.91860000  0.06190000  1.0 0.1417687531
H  H115  1  0.35940000  0.20130000  0.47190000  1.0 0.1417687531
H  H116  1  0.35130000  0.26330000  0.56780000  1.0 0.1221842354
H  H117  1  0.56070000  0.12860000  0.61310000  1.0 0.1417687531
H  H118  1  0.22080000  0.38660000  0.71540000  1.0 0.168235041
H  H119  1  0.20980000  0.32210000  0.62230000  1.0 0.1627867294
H  H120  1  0.26230000  0.31090000  0.68780000  1.0 0.168235041
C  C1  1  0.01382000  0.26622000  0.47800000  1.0 -0.0111572277
C  C2  1  0.08867000  0.20087000  0.57220000  1.0 -0.0489108994
C  C3  1  0.93632000  0.28382000  0.41930000  1.0 0.0089477804
C  C4  1  0.88665000  0.27575000  0.39050000  1.0 -0.0111572277
C  C5  1  0.86140000  0.18490000  0.32650000  1.0 0.0974748801
C  C6  1  0.91031000  0.22771000  0.39260000  1.0 -0.0173828817
C  C7  1  0.91290000  0.30840000  0.39250000  1.0 0.0227963517
C  C8  1  0.01308000  0.19118000  0.48590000  1.0 0.0227963517
C  C9  1  0.98749000  0.22679000  0.46850000  1.0 0.0089477804
C  C10  1  0.83920000  0.33670000  0.34850000  1.0 -0.0402867449
C  C11  1  0.96115000  0.15045000  0.41870000  1.0 -0.0489108994
C  C12  1  0.04087000  0.25527000  0.52360000  1.0 -0.0173828817
C  C13  1  0.81861000  0.31321000  0.35980000  1.0 0.0974748801
C  C14  1  0.72614000  0.43764000  0.17550000  1.0 0.6282515859
C  C15  1  0.18812000  0.93052000  0.54620000  1.0 0.6372168695
C  C16  1  0.77061000  0.41521000  0.22240000  1.0 -0.0173828817
C  C17  1  0.15562000  0.98252000  0.54110000  1.0 -0.0266047497
C  C18  1  0.88432000  0.14372000  0.33360000  1.0 -0.1598475582
C  C19  1  0.13165000  0.05095000  0.58950000  1.0 -0.0709185602
C  C20  1  0.11613000  0.16563000  0.59270000  1.0 0.4434703847
C  C21  1  0.13792000  0.24422000  0.64010000  1.0 -0.116307269
C  C22  1  0.11483000  0.27183000  0.61700000  1.0 0.0940120777
C  C23  1  0.79461000  0.34181000  0.33720000  1.0 -0.1598475582
C  C24  1  0.93306000  0.32566000  0.37240000  1.0 0.4590578878
C  C25  1  0.05651000  0.25341000  0.47950000  1.0 0.1053875869
C  C26  1  0.15040000  0.95700000  0.48420000  1.0 -0.0612070708
C  C27  1  0.95848000  0.30268000  0.40460000  1.0 -0.0489108994
C  C28  1  0.98826000  0.10916000  0.43190000  1.0 0.4492349168
C  C29  1  0.02737000  0.27347000  0.44330000  1.0 -0.1388231751
C  C30  1  0.11902000  0.00072000  0.47430000  1.0 -0.1388231751
C  C31  1  0.80970000  0.46910000  0.32420000  1.0 -0.0612070708
C  C32  1  0.09964000  0.09624000  0.57940000  1.0 -0.1521344362
C  C33  1  0.09620000  0.07080000  0.52560000  1.0 0.168235041
C  C34  1  0.79897000  0.32067000  0.19810000  1.0 -0.1598475582
C  C35  1  0.83352000  0.37742000  0.29870000  1.0 0.1820747683
C  C36  1  0.76392000  0.34072000  0.15740000  1.0 -0.0612070708
C  C37  1  0.84256000  0.44876000  0.36200000  1.0 -0.1598475582
C  C38  1  0.81235000  0.36385000  0.31970000  1.0 0.4590578878
C  C39  1  0.62019000  0.38589000  0.93270000  1.0 0.769390445
C  C40  1  0.65329000  0.34409000  0.89840000  1.0 -0.5760812753
C  C41  1  0.78822000  0.53582000  0.52200000  1.0 -0.0111572277
C  C42  1  0.62867000  0.51647000  0.42780000  1.0 -0.0489108994
C  C43  1  0.86452000  0.51702000  0.58070000  1.0 0.0089477804
C  C44  1  0.88525000  0.49615000  0.60950000  1.0 -0.0111572277
C  C45  1  0.85840000  0.53490000  0.67350000  1.0 0.0974748801
C  C46  1  0.83511000  0.51771000  0.60740000  1.0 -0.0173828817
C  C47  1  0.91590000  0.52040000  0.60750000  1.0 0.0227963517
C  C48  1  0.70528000  0.52718000  0.51410000  1.0 0.0227963517
C  C49  1  0.75829000  0.51899000  0.53150000  1.0 0.0089477804
C  C50  1  0.98820000  0.49070000  0.65150000  1.0 -0.0402867449
C  C51  1  0.73175000  0.54245000  0.58130000  1.0 -0.0489108994
C  C52  1  0.73167000  0.51727000  0.47640000  1.0 -0.0173828817
C  C53  1  0.95341000  0.45881000  0.64020000  1.0 0.0974748801
C  C54  1  0.26214000  0.55064000  0.82450000  1.0 0.6282515859
C  C55  1  0.38432000  0.64192000  0.45380000  1.0 0.6372168695
C  C56  1  0.19281000  0.54821000  0.77760000  1.0 -0.0173828817
C  C57  1  0.44142000  0.61452000  0.45890000  1.0 -0.0266047497
C  C58  1  0.81012000  0.55072000  0.66640000  1.0 -0.1598475582
C  C59  1  0.46145000  0.54215000  0.41050000  1.0 -0.0709185602
C  C60  1  0.57293000  0.52343000  0.40730000  1.0 0.4492349168
C  C61  1  0.60412000  0.49782000  0.35990000  1.0 -0.116307269
C  C62  1  0.65483000  0.49783000  0.38300000  1.0 0.0940120777
C  C63  1  0.00461000  0.45741000  0.66280000  1.0 -0.1598475582
C  C64  1  0.95326000  0.56066000  0.62760000  1.0 0.4590578878
C  C65  1  0.77391000  0.57701000  0.52050000  1.0 0.1053875869
C  C66  1  0.47280000  0.66620000  0.51580000  1.0 -0.0612070708
C  C67  1  0.89808000  0.55388000  0.59540000  1.0 -0.0489108994
C  C68  1  0.67726000  0.55636000  0.56810000  1.0 0.4492349168
C  C69  1  0.83017000  0.58407000  0.55670000  1.0 -0.1388231751
C  C70  1  0.52642000  0.64472000  0.52570000  1.0 -0.1388231751
C  C71  1  0.14490000  0.48550000  0.67580000  1.0 -0.0612070708
C  C72  1  0.51684000  0.52024000  0.42060000  1.0 -0.1521344362
C  C73  1  0.54520000  0.57060000  0.47440000  1.0 0.168235041
C  C74  1  0.12257000  0.60087000  0.80190000  1.0 -0.1521344362
C  C75  1  0.07872000  0.53482000  0.70130000  1.0 0.1820747683
C  C76  1  0.18332000  0.60652000  0.84260000  1.0 -0.0709185602
C  C77  1  0.08676000  0.48056000  0.63800000  1.0 -0.1598475582
C  C78  1  0.04415000  0.49265000  0.68030000  1.0 0.4590578878
C  C79  1  0.45319000  0.68749000  0.06730000  1.0 0.769390445
C  C80  1  0.44569000  0.75489000  0.10160000  1.0 -0.5760812753
C  C81  1  0.01622000  0.03822000  0.75240000  1.0 -0.0111572277
C  C82  1  0.95087000  0.87867000  0.61220000  1.0 -0.0489108994
C  C83  1  0.03382000  0.11452000  0.84750000  1.0 0.0089477804
C  C84  1  0.02575000  0.13525000  0.88910000  1.0 -0.0111572277
C  C85  1  0.93490000  0.10840000  0.82350000  1.0 0.0974748801
C  C86  1  0.97771000  0.08511000  0.81740000  1.0 -0.0173828817
C  C87  1  0.05840000  0.16590000  0.89550000  1.0 0.0227963517
C  C88  1  0.94118000  0.95528000  0.67810000  1.0 0.0227963517
C  C89  1  0.97679000  0.00829000  0.73930000  1.0 0.0089477804
C  C90  1  0.08670000  0.23820000  0.99750000  1.0 -0.0402867449
C  C91  1  0.90045000  0.98175000  0.68930000  1.0 -0.0489108994
C  C92  1  0.00527000  0.98167000  0.71440000  1.0 -0.0111572277
C  C93  1  0.06321000  0.20341000  0.99460000  1.0 0.0974748801
C  C94  1  0.18764000  0.51214000  0.21150000  1.0 0.6282515859
C  C95  1  0.68052000  0.63432000  0.24240000  1.0 0.6372168695
C  C96  1  0.16521000  0.44281000  0.14460000  1.0 -0.0173828817
C  C97  1  0.73252000  0.69142000  0.32690000  1.0 -0.0266047497
C  C98  1  0.89372000  0.06012000  0.75940000  1.0 -0.1598475582
C  C99  1  0.80095000  0.71145000  0.41930000  1.0 -0.0709185602
C  C100  1  0.91563000  0.82293000  0.54950000  1.0 0.4434703847
C  C101  1  0.99422000  0.85412000  0.60630000  1.0 -0.116307269
C  C102  1  0.02183000  0.90483000  0.65700000  1.0 0.0940120777
C  C103  1  0.09181000  0.25461000  0.04720000  1.0 -0.1598475582
C  C104  1  0.07566000  0.20326000  0.89260000  1.0 0.4590578878
C  C105  1  0.00341000  0.02391000  0.69690000  1.0 0.1053875869
C  C106  1  0.70700000  0.72280000  0.30660000  1.0 -0.0612070708
C  C107  1  0.05268000  0.14808000  0.84420000  1.0 -0.0489108994
C  C108  1  0.85916000  0.92726000  0.62090000  1.0 0.4492349168
C  C109  1  0.02347000  0.08017000  0.74610000  1.0 -0.1388231751
C  C110  1  0.75072000  0.77642000  0.38170000  1.0 -0.1388231751
C  C111  1  0.21910000  0.39490000  0.15940000  1.0 -0.0612070708
C  C112  1  0.84624000  0.76684000  0.49660000  1.0 -0.1521344362
C  C113  1  0.82080000  0.79520000  0.47460000  1.0 0.168235041
C  C114  1  0.07067000  0.37257000  0.02170000  1.0 -0.1521344362
C  C115  1  0.12742000  0.32872000  0.04390000  1.0 0.1820747683
C  C116  1  0.09072000  0.43332000  0.07680000  1.0 -0.0612070708
C  C117  1  0.19876000  0.33676000  0.10620000  1.0 -0.1598475582
C  C118  1  0.11385000  0.29415000  0.05150000  1.0 0.4590578878
C  C119  1  0.13589000  0.70319000  0.26570000  1.0 0.769390445
C  C120  1  0.09409000  0.69569000  0.19080000  1.0 -0.5760812753
C  C121  1  0.28582000  0.26382000  0.24760000  1.0 -0.0111572277
C  C122  1  0.26647000  0.33867000  0.38780000  1.0 -0.0489108994
C  C123  1  0.26702000  0.18632000  0.15250000  1.0 0.0089477804
C  C124  1  0.24615000  0.13665000  0.11090000  1.0 -0.0111572277
C  C125  1  0.28490000  0.11140000  0.17650000  1.0 0.0974748801
C  C126  1  0.26771000  0.16031000  0.18260000  1.0 -0.0111572277
C  C127  1  0.27040000  0.16290000  0.10450000  1.0 0.0227963517
C  C128  1  0.27718000  0.26308000  0.32190000  1.0 0.0227963517
C  C129  1  0.26899000  0.23749000  0.26070000  1.0 0.0089477804
C  C130  1  0.24070000  0.08920000  0.00250000  1.0 -0.0402867449
C  C131  1  0.29245000  0.21115000  0.31070000  1.0 -0.0489108994
C  C132  1  0.26727000  0.29087000  0.28560000  1.0 -0.0173828817
C  C133  1  0.20881000  0.06861000  0.00540000  1.0 0.0974748801
C  C134  1  0.30064000  0.97614000  0.78850000  1.0 0.6282515859
C  C135  1  0.39192000  0.43812000  0.75760000  1.0 0.6372168695
C  C136  1  0.29821000  0.02061000  0.85540000  1.0 -0.0173828817
C  C137  1  0.36452000  0.40562000  0.67310000  1.0 -0.0266047497
C  C138  1  0.30072000  0.13432000  0.24060000  1.0 -0.1598475582
C  C139  1  0.29215000  0.38165000  0.58070000  1.0 -0.0709185602
C  C140  1  0.27343000  0.36613000  0.45050000  1.0 0.4434703847
C  C141  1  0.24782000  0.38792000  0.39370000  1.0 -0.116307269
C  C142  1  0.24783000  0.36483000  0.34300000  1.0 0.0940120777
C  C143  1  0.20741000  0.04461000  0.95280000  1.0 -0.1598475582
C  C144  1  0.31066000  0.18306000  0.10740000  1.0 0.4590578878
C  C145  1  0.32701000  0.30651000  0.30310000  1.0 0.1053875869
C  C146  1  0.41620000  0.40040000  0.69340000  1.0 -0.0612070708
C  C147  1  0.30388000  0.20848000  0.15580000  1.0 -0.0489108994
C  C148  1  0.30636000  0.23826000  0.37910000  1.0 0.4492349168
C  C149  1  0.33407000  0.27737000  0.25390000  1.0 -0.1388231751
C  C150  1  0.39472000  0.36902000  0.61830000  1.0 -0.1388231751
C  C151  1  0.23550000  0.05970000  0.84060000  1.0 -0.0612070708
C  C152  1  0.27024000  0.34964000  0.50340000  1.0 -0.1521344362
C  C153  1  0.32060000  0.34620000  0.52540000  1.0 0.168235041
C  C154  1  0.35087000  0.04897000  0.97830000  1.0 -0.1521344362
C  C155  1  0.28482000  0.08352000  0.95610000  1.0 0.1820747683
C  C156  1  0.35652000  0.01392000  0.92320000  1.0 -0.0709185602
C  C157  1  0.23056000  0.09256000  0.89380000  1.0 -0.1598475582
C  C158  1  0.24265000  0.06235000  0.94850000  1.0 0.4590578878
C  C159  1  0.43749000  0.87019000  0.73430000  1.0 0.769390445
C  C160  1  0.50489000  0.90329000  0.80920000  1.0 -0.5760812753
C  C161  1  0.73618000  0.98378000  0.02200000  1.0 -0.0111572277
C  C162  1  0.66133000  0.04913000  0.92780000  1.0 -0.0489108994
C  C163  1  0.81368000  0.96618000  0.08070000  1.0 0.0089477804
C  C164  1  0.86335000  0.97425000  0.10950000  1.0 -0.0111572277
C  C165  1  0.88860000  0.06510000  0.17350000  1.0 0.0974748801
C  C166  1  0.83969000  0.02229000  0.10740000  1.0 -0.0111572277
C  C167  1  0.83710000  0.94160000  0.10750000  1.0 0.0227963517
C  C168  1  0.73692000  0.05882000  0.01410000  1.0 0.0227963517
C  C169  1  0.76251000  0.02321000  0.03150000  1.0 0.0089477804
C  C170  1  0.91080000  0.91330000  0.15150000  1.0 -0.0402867449
C  C171  1  0.78885000  0.09955000  0.08130000  1.0 -0.0489108994
C  C172  1  0.70913000  0.99473000  0.97640000  1.0 -0.0173828817
C  C173  1  0.93139000  0.93679000  0.14020000  1.0 0.0974748801
C  C174  1  0.02386000  0.81236000  0.32450000  1.0 0.6282515859
C  C175  1  0.56188000  0.31948000  0.95380000  1.0 0.6372168695
C  C176  1  0.97939000  0.83479000  0.27760000  1.0 -0.0173828817
C  C177  1  0.59438000  0.26748000  0.95890000  1.0 -0.0266047497
C  C178  1  0.86568000  0.10628000  0.16640000  1.0 -0.1598475582
C  C179  1  0.61835000  0.19905000  0.91050000  1.0 -0.0709185602
C  C180  1  0.63387000  0.08437000  0.90730000  1.0 0.4434703847
C  C181  1  0.61208000  0.00578000  0.85990000  1.0 -0.116307269
C  C182  1  0.63517000  0.97817000  0.88300000  1.0 0.0940120777
C  C183  1  0.95539000  0.90819000  0.16280000  1.0 -0.1598475582
C  C184  1  0.81694000  0.92434000  0.12760000  1.0 0.4590578878
C  C185  1  0.69349000  0.99659000  0.02050000  1.0 0.1053875869
C  C186  1  0.59960000  0.29300000  0.01580000  1.0 -0.0612070708
C  C187  1  0.79152000  0.94732000  0.09540000  1.0 -0.0489108994
C  C188  1  0.76174000  0.14084000  0.06810000  1.0 0.4492349168
C  C189  1  0.72263000  0.97653000  0.05670000  1.0 -0.1388231751
C  C190  1  0.63098000  0.24928000  0.02570000  1.0 -0.1388231751
C  C191  1  0.94030000  0.78090000  0.17580000  1.0 -0.0612070708
C  C192  1  0.65036000  0.15376000  0.92060000  1.0 -0.1521344362
C  C193  1  0.65380000  0.17920000  0.97440000  1.0 0.168235041
C  C194  1  0.95103000  0.92933000  0.30190000  1.0 -0.1598475582
C  C195  1  0.91648000  0.87258000  0.20130000  1.0 0.1820747683
C  C196  1  0.98608000  0.90928000  0.34260000  1.0 -0.0612070708
C  C197  1  0.90744000  0.80124000  0.13800000  1.0 -0.1598475582
C  C198  1  0.93765000  0.88615000  0.18030000  1.0 0.4590578878
C  C199  1  0.12981000  0.86411000  0.56730000  1.0 0.769390445
C  C200  1  0.09671000  0.90591000  0.60160000  1.0 -0.5760812753
C  C201  1  0.96178000  0.71418000  0.97800000  1.0 -0.0111572277
C  C202  1  0.12133000  0.73353000  0.07220000  1.0 -0.0489108994
C  C203  1  0.88548000  0.73298000  0.91930000  1.0 0.0089477804
C  C204  1  0.86475000  0.75385000  0.89050000  1.0 -0.0111572277
C  C205  1  0.89160000  0.71510000  0.82650000  1.0 0.0974748801
C  C206  1  0.91489000  0.73229000  0.89260000  1.0 -0.0173828817
C  C207  1  0.83410000  0.72960000  0.89250000  1.0 0.0227963517
C  C208  1  0.04472000  0.72282000  0.98590000  1.0 0.0227963517
C  C209  1  0.99171000  0.73101000  0.96850000  1.0 0.0089477804
C  C210  1  0.76180000  0.75930000  0.84850000  1.0 -0.0402867449
C  C211  1  0.01825000  0.70755000  0.91870000  1.0 -0.0489108994
C  C212  1  0.01833000  0.73273000  0.02360000  1.0 -0.0173828817
C  C213  1  0.79659000  0.79119000  0.85980000  1.0 0.0974748801
C  C214  1  0.48786000  0.69936000  0.67550000  1.0 0.6282515859
C  C215  1  0.36568000  0.60808000  0.04620000  1.0 0.6372168695
C  C216  1  0.55719000  0.70179000  0.72240000  1.0 -0.0173828817
C  C217  1  0.30858000  0.63548000  0.04110000  1.0 -0.0266047497
C  C218  1  0.93988000  0.69928000  0.83360000  1.0 -0.1598475582
C  C219  1  0.28855000  0.70785000  0.08950000  1.0 -0.0709185602
C  C220  1  0.17707000  0.72657000  0.09270000  1.0 0.4492349168
C  C221  1  0.14588000  0.75218000  0.14010000  1.0 -0.116307269
C  C222  1  0.09517000  0.75217000  0.11700000  1.0 0.0940120777
C  C223  1  0.74539000  0.79259000  0.83720000  1.0 -0.1598475582
C  C224  1  0.79674000  0.68934000  0.87240000  1.0 0.4590578878
C  C225  1  0.97609000  0.67299000  0.97950000  1.0 0.1053875869
C  C226  1  0.27720000  0.58380000  0.98420000  1.0 -0.0612070708
C  C227  1  0.85192000  0.69612000  0.90460000  1.0 -0.0489108994
C  C228  1  0.07274000  0.69364000  0.93190000  1.0 0.4492349168
C  C229  1  0.91983000  0.66593000  0.94330000  1.0 -0.1388231751
C  C230  1  0.22358000  0.60528000  0.97430000  1.0 -0.1388231751
C  C231  1  0.60510000  0.76450000  0.82420000  1.0 -0.0612070708
C  C232  1  0.23316000  0.72976000  0.07940000  1.0 -0.1521344362
C  C233  1  0.20480000  0.67940000  0.02560000  1.0 0.168235041
C  C234  1  0.62743000  0.64913000  0.69810000  1.0 -0.1521344362
C  C235  1  0.67128000  0.71518000  0.79870000  1.0 0.1820747683
C  C236  1  0.56668000  0.64348000  0.65740000  1.0 -0.0709185602
C  C237  1  0.66324000  0.76944000  0.86200000  1.0 -0.1598475582
C  C238  1  0.70585000  0.75735000  0.81970000  1.0 0.4590578878
C  C239  1  0.29681000  0.56251000  0.43270000  1.0 0.769390445
C  C240  1  0.30431000  0.49511000  0.39840000  1.0 -0.5760812753
C  C241  1  0.73378000  0.21178000  0.74760000  1.0 -0.0111572277
C  C242  1  0.79913000  0.37133000  0.88780000  1.0 -0.0489108994
C  C243  1  0.71618000  0.13548000  0.65250000  1.0 0.0089477804
C  C244  1  0.72425000  0.11475000  0.61090000  1.0 -0.0111572277
C  C245  1  0.81510000  0.14160000  0.67650000  1.0 0.0974748801
C  C246  1  0.77229000  0.16489000  0.68260000  1.0 -0.0173828817
C  C247  1  0.69160000  0.08410000  0.60450000  1.0 0.0227963517
C  C248  1  0.80882000  0.29472000  0.82190000  1.0 0.0227963517
C  C249  1  0.77321000  0.24171000  0.76070000  1.0 0.0089477804
C  C250  1  0.66330000  0.01180000  0.50250000  1.0 -0.0402867449
C  C251  1  0.84955000  0.26825000  0.81070000  1.0 -0.0489108994
C  C252  1  0.74473000  0.26833000  0.78560000  1.0 -0.0173828817
C  C253  1  0.68679000  0.04659000  0.50540000  1.0 0.0974748801
C  C254  1  0.56236000  0.73786000  0.28850000  1.0 0.6282515859
C  C255  1  0.06948000  0.61568000  0.25760000  1.0 0.6372168695
C  C256  1  0.58479000  0.80719000  0.35540000  1.0 -0.0173828817
C  C257  1  0.01748000  0.55858000  0.17310000  1.0 -0.0266047497
C  C258  1  0.85628000  0.18988000  0.74060000  1.0 -0.1598475582
C  C259  1  0.94905000  0.53855000  0.08070000  1.0 -0.0709185602
C  C260  1  0.83437000  0.42707000  0.95050000  1.0 0.4434703847
C  C261  1  0.75578000  0.39588000  0.89370000  1.0 -0.116307269
C  C262  1  0.72817000  0.34517000  0.84300000  1.0 0.0940120777
C  C263  1  0.65819000  0.99539000  0.45280000  1.0 -0.1598475582
C  C264  1  0.67434000  0.04674000  0.60740000  1.0 0.4590578878
C  C265  1  0.74659000  0.22609000  0.80310000  1.0 0.0974748801
C  C266  1  0.04300000  0.52720000  0.19340000  1.0 -0.0612070708
C  C267  1  0.69732000  0.10192000  0.65580000  1.0 -0.0489108994
C  C268  1  0.89084000  0.32274000  0.87910000  1.0 0.4492349168
C  C269  1  0.72653000  0.16983000  0.75390000  1.0 -0.1388231751
C  C270  1  0.99928000  0.47358000  0.11830000  1.0 -0.1388231751
C  C271  1  0.53090000  0.85510000  0.34060000  1.0 -0.0612070708
C  C272  1  0.90376000  0.48316000  0.00340000  1.0 -0.1521344362
C  C273  1  0.92920000  0.45480000  0.02540000  1.0 0.168235041
C  C274  1  0.67933000  0.87743000  0.47830000  1.0 -0.1598475582
C  C275  1  0.62258000  0.92128000  0.45610000  1.0 0.1820747683
C  C276  1  0.65928000  0.81668000  0.42320000  1.0 -0.0612070708
C  C277  1  0.55124000  0.91324000  0.39380000  1.0 -0.1598475582
C  C278  1  0.63615000  0.95585000  0.44850000  1.0 0.4590578878
C  C279  1  0.61411000  0.54681000  0.23430000  1.0 0.769390445
C  C280  1  0.65591000  0.55431000  0.30920000  1.0 -0.5760812753
C  C281  1  0.46418000  0.98618000  0.25240000  1.0 -0.0111572277
C  C282  1  0.48353000  0.91133000  0.11220000  1.0 -0.0489108994
C  C283  1  0.48298000  0.06368000  0.34750000  1.0 0.0089477804
C  C284  1  0.50385000  0.11335000  0.38910000  1.0 -0.0111572277
C  C285  1  0.46510000  0.13860000  0.32350000  1.0 0.0974748801
C  C286  1  0.48229000  0.08969000  0.31740000  1.0 -0.0111572277
C  C287  1  0.47960000  0.08710000  0.39550000  1.0 0.0227963517
C  C288  1  0.47282000  0.98692000  0.17810000  1.0 0.0227963517
C  C289  1  0.48101000  0.01251000  0.23930000  1.0 0.0089477804
C  C290  1  0.50930000  0.16080000  0.49750000  1.0 -0.0402867449
C  C291  1  0.45755000  0.03885000  0.18930000  1.0 -0.0489108994
C  C292  1  0.48273000  0.95913000  0.21440000  1.0 -0.0173828817
C  C293  1  0.54119000  0.18139000  0.49460000  1.0 0.0974748801
C  C294  1  0.44936000  0.27386000  0.71150000  1.0 0.6282515859
C  C295  1  0.35808000  0.81188000  0.74240000  1.0 0.6372168695
C  C296  1  0.45179000  0.22939000  0.64460000  1.0 -0.0173828817
C  C297  1  0.38548000  0.84438000  0.82690000  1.0 -0.0266047497
C  C298  1  0.44928000  0.11568000  0.25940000  1.0 -0.1598475582
C  C299  1  0.45785000  0.86835000  0.91930000  1.0 -0.0709185602
C  C300  1  0.47657000  0.88387000  0.04950000  1.0 0.4434703847
C  C301  1  0.50218000  0.86208000  0.10630000  1.0 -0.116307269
C  C302  1  0.50217000  0.88517000  0.15700000  1.0 0.0940120777
C  C303  1  0.54259000  0.20539000  0.54720000  1.0 -0.1598475582
C  C304  1  0.43934000  0.06694000  0.39260000  1.0 0.4590578878
C  C305  1  0.42299000  0.94349000  0.19690000  1.0 0.1053875869
C  C306  1  0.33380000  0.84960000  0.80660000  1.0 -0.0612070708
C  C307  1  0.44612000  0.04152000  0.34420000  1.0 -0.0489108994
C  C308  1  0.44364000  0.01174000  0.12090000  1.0 0.4492349168
C  C309  1  0.41593000  0.97263000  0.24610000  1.0 -0.1388231751
C  C310  1  0.35528000  0.88098000  0.88170000  1.0 -0.1388231751
C  C311  1  0.51450000  0.19030000  0.65940000  1.0 -0.0612070708
C  C312  1  0.47976000  0.90036000  0.99660000  1.0 -0.1521344362
C  C313  1  0.42940000  0.90380000  0.97460000  1.0 0.168235041
C  C314  1  0.39913000  0.20103000  0.52170000  1.0 -0.1521344362
C  C315  1  0.46518000  0.16648000  0.54390000  1.0 0.1820747683
C  C316  1  0.39348000  0.23608000  0.57680000  1.0 -0.0709185602
C  C317  1  0.51944000  0.15744000  0.60620000  1.0 -0.1598475582
C  C318  1  0.50735000  0.18765000  0.55150000  1.0 0.4590578878
C  C319  1  0.31251000  0.37981000  0.76570000  1.0 0.769390445
C  C320  1  0.24511000  0.34671000  0.69080000  1.0 -0.5760812753
N  N1  1  0.86280000  0.35560000  0.33420000  1.0 -0.2179549115
N  N2  1  0.06466000  0.11736000  0.51570000  1.0 -0.2265552992
N  N3  1  0.02140000  0.52860000  0.66580000  1.0 -0.2179549115
N  N4  1  0.60166000  0.54896000  0.48430000  1.0 -0.2265552992
N  N5  1  0.10560000  0.27140000  0.99280000  1.0 -0.2179549115
N  N6  1  0.86736000  0.85166000  0.55270000  1.0 -0.2265552992
N  N7  1  0.27860000  0.11280000  0.00720000  1.0 -0.2179549115
N  N8  1  0.29896000  0.31466000  0.44730000  1.0 -0.2265552992
N  N9  1  0.88720000  0.89440000  0.16580000  1.0 -0.2179549115
N  N10  1  0.68534000  0.13264000  0.98430000  1.0 -0.2265552992
N  N11  1  0.72860000  0.72140000  0.83420000  1.0 -0.2179549115
N  N12  1  0.14834000  0.70104000  0.01570000  1.0 -0.2265552992
N  N13  1  0.64440000  0.97860000  0.50720000  1.0 -0.2179549115
N  N14  1  0.88264000  0.39834000  0.94730000  1.0 -0.2265552992
N  N15  1  0.47140000  0.13720000  0.49280000  1.0 -0.2179549115
N  N16  1  0.45104000  0.93534000  0.05270000  1.0 -0.2265552992
Cl  Cl1  1  0.76455000  0.33519000  0.36060000  1.0 -0.0402867449
Cl  Cl2  1  0.14048000  0.20741000  0.51505000  1.0 -0.0814827464
Cl  Cl3  1  0.17774000  0.33017000  0.70907000  1.0 -0.0814827464
Cl  Cl4  1  0.76651000  0.16628000  0.21325000  1.0 -0.0489108994
Cl  Cl5  1  0.97459000  0.40395000  0.63940000  1.0 -0.0402867449
Cl  Cl6  1  0.69236000  0.62543000  0.48495000  1.0 -0.0814827464
Cl  Cl7  1  0.62110000  0.46867000  0.29093000  1.0 -0.0814827464
Cl  Cl8  1  0.95303000  0.55326000  0.78675000  1.0 -0.0489108994
Cl  Cl9  1  0.08519000  0.22459000  0.07064000  1.0 -0.0402867449
Cl  Cl10  1  0.95741000  0.94236000  0.56693000  1.0 -0.0814827464
Cl  Cl11  1  0.08017000  0.87110000  0.65243000  1.0 -0.0814827464
Cl  Cl12  1  0.91628000  0.20303000  0.89977000  1.0 -0.0489108994
Cl  Cl13  1  0.15395000  0.01455000  0.92936000  1.0 -0.0402867449
Cl  Cl14  1  0.37543000  0.39048000  0.43307000  1.0 -0.0814827464
Cl  Cl15  1  0.21867000  0.42774000  0.34757000  1.0 -0.0814827464
Cl  Cl16  1  0.30326000  0.01651000  0.10023000  1.0 -0.0489108994
Cl  Cl17  1  0.98545000  0.91481000  0.13940000  1.0 -0.0402867449
Cl  Cl18  1  0.60952000  0.04259000  0.98495000  1.0 -0.0814827464
Cl  Cl19  1  0.57226000  0.91983000  0.79093000  1.0 -0.0814827464
Cl  Cl20  1  0.98349000  0.08372000  0.28675000  1.0 -0.0489108994
Cl  Cl21  1  0.77541000  0.84605000  0.86060000  1.0 -0.0402867449
Cl  Cl22  1  0.05764000  0.62457000  0.01505000  1.0 -0.0814827464
Cl  Cl23  1  0.12890000  0.78133000  0.20907000  1.0 -0.0814827464
Cl  Cl24  1  0.79697000  0.69674000  0.71325000  1.0 -0.0489108994
Cl  Cl25  1  0.66481000  0.02541000  0.42936000  1.0 -0.0402867449
Cl  Cl26  1  0.79259000  0.30764000  0.93307000  1.0 -0.0814827464
Cl  Cl27  1  0.66983000  0.37890000  0.84757000  1.0 -0.0814827464
Cl  Cl28  1  0.83372000  0.04697000  0.60023000  1.0 -0.0489108994
Cl  Cl29  1  0.59605000  0.23545000  0.57064000  1.0 -0.0402867449
Cl  Cl30  1  0.37457000  0.85952000  0.06693000  1.0 -0.0814827464
Cl  Cl31  1  0.53133000  0.82226000  0.15243000  1.0 -0.0814827464
Cl  Cl32  1  0.44674000  0.23349000  0.39977000  1.0 -0.0489108994
O  O1  1  0.49213000  0.43075000  0.89856000  1.0 -1.1094432811
O  O2  1  0.17028000  0.94113000  0.56631000  1.0 -0.5760812753
O  O3  1  0.41116000  0.54484000  0.92358000  1.0 -1.039317135
O  O4  1  0.72326000  0.50951000  0.23429000  1.0 -0.5906485954
O  O5  1  0.22952000  0.88023000  0.52851000  1.0 -0.5535985867
O  O6  1  0.69243000  0.38683000  0.08280000  1.0 -0.5627144316
O  O7  1  0.94761000  0.06521000  0.36840000  1.0 -0.4425695913
O  O8  1  0.75151000  0.39211000  0.28660000  1.0 -0.4019664937
O  O9  1  0.59309000  0.45399000  0.96270000  1.0 -0.6772406289
O  O10  1  0.18135000  0.17265000  0.66666667  1.0 -0.3834415341
O  O11  1  0.62308000  0.34898000  0.92830000  1.0 -0.6903965661
O  O12  1  0.96936000  0.31926000  0.37710000  1.0 -0.4097881468
O  O13  1  0.53219000  0.59357000  0.10144000  1.0 -1.1094432811
O  O14  1  0.37482000  0.60397000  0.43369000  1.0 -0.5747494737
O  O15  1  0.62126000  0.48758000  0.07642000  1.0 -1.039317135
O  O16  1  0.27522000  0.48897000  0.76571000  1.0 -0.5906485954
O  O17  1  0.35172000  0.70101000  0.47149000  1.0 -0.5535985867
O  O18  1  0.30403000  0.60963000  0.91720000  1.0 -0.5627144316
O  O19  1  0.69681000  0.57921000  0.63160000  1.0 -0.4425695913
O  O20  1  0.10551000  0.46491000  0.71340000  1.0 -0.4019664937
O  O21  1  0.49129000  0.63039000  0.03730000  1.0 -0.6772406289
O  O22  1  0.50595000  0.51465000  0.33333333  1.0 -0.3897163088
O  O23  1  0.42068000  0.69478000  0.07170000  1.0 -0.6903965661
O  O24  1  0.94216000  0.59226000  0.62290000  1.0 -0.4097881468
O  O25  1  0.18075000  0.78219000  0.43862000  1.0 -1.1094432811
O  O26  1  0.69113000  0.62482000  0.27085000  1.0 -0.5747494737
O  O27  1  0.29484000  0.87126000  0.63368000  1.0 -1.039317135
O  O28  1  0.25951000  0.52522000  0.28625000  1.0 -0.5906485954
O  O29  1  0.63023000  0.60172000  0.15071000  1.0 -0.5535985867
O  O30  1  0.13683000  0.55403000  0.19440000  1.0 -0.5627144316
O  O31  1  0.81521000  0.94681000  0.61760000  1.0 -0.4425695913
O  O32  1  0.14211000  0.35551000  0.14060000  1.0 -0.4019664937
O  O33  1  0.20399000  0.74129000  0.36090000  1.0 -0.6772406289
O  O34  1  0.92265000  0.75595000  0.49130000  1.0 -0.3897163088
O  O35  1  0.09898000  0.67068000  0.22590000  1.0 -0.6903965661
O  O36  1  0.06926000  0.19216000  0.84990000  1.0 -0.4097881468
O  O37  1  0.34357000  0.74213000  0.56138000  1.0 -1.1094432811
O  O38  1  0.35397000  0.42028000  0.72915000  1.0 -0.5760812753
O  O39  1  0.23758000  0.66116000  0.36632000  1.0 -1.039317135
O  O40  1  0.23897000  0.97326000  0.71375000  1.0 -0.5906485954
O  O41  1  0.45101000  0.47952000  0.84929000  1.0 -0.5535985867
O  O42  1  0.35963000  0.94243000  0.80560000  1.0 -0.5627144316
O  O43  1  0.32921000  0.19761000  0.38240000  1.0 -0.4425695913
O  O44  1  0.21491000  0.00151000  0.85940000  1.0 -0.4019664937
O  O45  1  0.38039000  0.84309000  0.63910000  1.0 -0.6772406289
O  O46  1  0.26465000  0.43135000  0.50870000  1.0 -0.3834415341
O  O47  1  0.44478000  0.87308000  0.77410000  1.0 -0.6903965661
O  O48  1  0.34226000  0.21936000  0.15010000  1.0 -0.4097881468
O  O49  1  0.25787000  0.81925000  0.60144000  1.0 -1.1094432811
O  O50  1  0.57972000  0.30887000  0.93369000  1.0 -0.5760812753
O  O51  1  0.33884000  0.70516000  0.57642000  1.0 -1.039317135
O  O52  1  0.02674000  0.74049000  0.26571000  1.0 -0.5906485954
O  O53  1  0.52048000  0.36977000  0.97149000  1.0 -0.5535985867
O  O54  1  0.05757000  0.86317000  0.41720000  1.0 -0.5627144316
O  O55  1  0.80239000  0.18479000  0.13160000  1.0 -0.4425695913
O  O56  1  0.99849000  0.85789000  0.21340000  1.0 -0.4019664937
O  O57  1  0.15691000  0.79601000  0.53730000  1.0 -0.6772406289
O  O58  1  0.56865000  0.07735000  0.83330000  1.0 -0.3834415341
O  O59  1  0.12692000  0.90102000  0.57170000  1.0 -0.6903965661
O  O60  1  0.78064000  0.93074000  0.12290000  1.0 -0.4097881468
O  O61  1  0.21781000  0.65643000  0.39856000  1.0 -1.1094432811
O  O62  1  0.37518000  0.64603000  0.06631000  1.0 -0.5760812753
O  O63  1  0.12874000  0.76242000  0.42358000  1.0 -1.0348061363
O  O64  1  0.47478000  0.76103000  0.73429000  1.0 -0.5906485954
O  O65  1  0.39828000  0.54899000  0.02851000  1.0 -0.5535985867
O  O66  1  0.44597000  0.64037000  0.58280000  1.0 -0.5627144316
O  O67  1  0.05319000  0.67079000  0.86840000  1.0 -0.4425695913
O  O68  1  0.64449000  0.78509000  0.78660000  1.0 -0.4019664937
O  O69  1  0.25871000  0.61961000  0.46270000  1.0 -0.6772406289
O  O70  1  0.24405000  0.73535000  0.16670000  1.0 -0.3897163088
O  O71  1  0.32932000  0.55522000  0.42830000  1.0 -0.6903965661
O  O72  1  0.80784000  0.65774000  0.87710000  1.0 -0.4097881468
O  O73  1  0.56925000  0.46781000  0.06138000  1.0 -1.1094432811
O  O74  1  0.05887000  0.62518000  0.22915000  1.0 -0.5760812753
O  O75  1  0.45516000  0.37874000  0.86632000  1.0 -1.039317135
O  O76  1  0.49049000  0.72478000  0.21375000  1.0 -0.5906485954
O  O77  1  0.11977000  0.64828000  0.34929000  1.0 -0.5535985867
O  O78  1  0.61317000  0.69597000  0.30560000  1.0 -0.5627144316
O  O79  1  0.93479000  0.30319000  0.88240000  1.0 -0.4425695913
O  O80  1  0.60789000  0.89449000  0.35940000  1.0 -0.4019664937
O  O81  1  0.54601000  0.50871000  0.13910000  1.0 -0.6772406289
O  O82  1  0.82735000  0.49405000  0.00870000  1.0 -0.3897163088
O  O83  1  0.65102000  0.57932000  0.27410000  1.0 -0.6903965661
O  O84  1  0.68074000  0.05784000  0.65010000  1.0 -0.4097881468
O  O85  1  0.40643000  0.50787000  0.93862000  1.0 -1.1094432811
O  O86  1  0.39603000  0.82972000  0.77085000  1.0 -0.5747494737
O  O87  1  0.51242000  0.58884000  0.13368000  1.0 -1.039317135
O  O88  1  0.51103000  0.27674000  0.78625000  1.0 -0.5906485954
O  O89  1  0.29899000  0.77048000  0.65071000  1.0 -0.5535985867
O  O90  1  0.39037000  0.30757000  0.69440000  1.0 -0.5627144316
O  O91  1  0.42079000  0.05239000  0.11760000  1.0 -0.4425695913
O  O92  1  0.53509000  0.24849000  0.64060000  1.0 -0.4019664937
O  O93  1  0.36961000  0.40691000  0.86090000  1.0 -0.6772406289
O  O94  1  0.48535000  0.81865000  0.99130000  1.0 -0.3834415341
O  O95  1  0.30522000  0.37692000  0.72590000  1.0 -0.6903965661
O  O96  1  0.40774000  0.03064000  0.34990000  1.0 -0.4097881468
