# DDEC6 charges by PACMAN v1.1 (https://github.com/mtap-research/PACMAN-charge/)
data_MOMRIR_ASR_pacman
_symmetry_space_group_name_H-M   'P 1'
_cell_length_a   20.16230000
_cell_length_b   20.16230000
_cell_length_c   28.91380000
_cell_angle_alpha   68.52270000
_cell_angle_beta   111.47700000
_cell_angle_gamma   151.38700000
_symmetry_Int_Tables_number   1
_chemical_formula_structural   ZnH10C9(NO2)2
_chemical_formula_sum   'Zn16 H160 C144 N32 O64'
_cell_volume   5211.59828658
_cell_formula_units_Z   16
loop_
 _symmetry_equiv_pos_site_id
 _symmetry_equiv_pos_as_xyz
  1  'x, y, z'
loop_
 _atom_site_type_symbol
 _atom_site_label
 _atom_site_symmetry_multiplicity
 _atom_site_fract_x
 _atom_site_fract_y
 _atom_site_fract_z
 _atom_site_occupancy
 _atom_site_charge
Zn  Zn1  1  0.00000000  0.00000000  0.00000000  1.0 0.9568004443
Zn  Zn2  1  0.00000000  0.00000000  0.50000000  1.0 0.9568004443
Zn  Zn3  1  0.12521000  0.01455000  0.13035000  1.0 0.9136969282
Zn  Zn4  1  0.01455000  0.12521000  0.36965000  1.0 0.9136969282
Zn  Zn5  1  0.87479000  0.98545000  0.86965000  1.0 0.9136969282
Zn  Zn6  1  0.98545000  0.87479000  0.63035000  1.0 0.9136969282
Zn  Zn7  1  0.07367000  0.83503000  0.25416000  1.0 0.7805740072
Zn  Zn8  1  0.83503000  0.07367000  0.24584000  1.0 0.7805740072
Zn  Zn9  1  0.92633000  0.16497000  0.74584000  1.0 0.7805740072
Zn  Zn10  1  0.16497000  0.92633000  0.75416000  1.0 0.7805740072
Zn  Zn11  1  0.01923000  0.65693000  0.37755000  1.0 0.8999057843
Zn  Zn12  1  0.65693000  0.01923000  0.12245000  1.0 0.8999057843
Zn  Zn13  1  0.98077000  0.34307000  0.62245000  1.0 0.8999057843
Zn  Zn14  1  0.34307000  0.98077000  0.87755000  1.0 0.8999057843
Zn  Zn15  1  0.50000000  0.00000000  0.00000000  1.0 0.7893187835
Zn  Zn16  1  0.00000000  0.50000000  0.50000000  1.0 0.7893187835
H  H1  1  0.16380000  0.01500000  0.01720000  1.0 0.2876581186
H  H2  1  0.01500000  0.16380000  0.48280000  1.0 0.2876581186
H  H3  1  0.83620000  0.98500000  0.98280000  1.0 0.2876581186
H  H4  1  0.98500000  0.83620000  0.51720000  1.0 0.2876581186
H  H5  1  0.37740000  0.85700000  0.06940000  1.0 0.3003105267
H  H6  1  0.85700000  0.37740000  0.43060000  1.0 0.3003105267
H  H7  1  0.62260000  0.14300000  0.93060000  1.0 0.3003105267
H  H8  1  0.14300000  0.62260000  0.56940000  1.0 0.3003105267
H  H9  1  0.29600000  0.81540000  0.01950000  1.0 0.279273419
H  H10  1  0.81540000  0.29600000  0.48050000  1.0 0.279273419
H  H11  1  0.70400000  0.18460000  0.98050000  1.0 0.279273419
H  H12  1  0.18460000  0.70400000  0.51950000  1.0 0.279273419
H  H13  1  0.78370000  0.91450000  0.09110000  1.0 0.1520398387
H  H14  1  0.91450000  0.78370000  0.40890000  1.0 0.1520398387
H  H15  1  0.21630000  0.08550000  0.90890000  1.0 0.1520398387
H  H16  1  0.08550000  0.21630000  0.59110000  1.0 0.1520398387
H  H17  1  0.88690000  0.98550000  0.13970000  1.0 0.165858852
H  H18  1  0.98550000  0.88690000  0.36030000  1.0 0.165858852
H  H19  1  0.11310000  0.01450000  0.86030000  1.0 0.165858852
H  H20  1  0.01450000  0.11310000  0.63970000  1.0 0.165858852
H  H21  1  0.92320000  0.07700000  0.09020000  1.0 0.1520398387
H  H22  1  0.07700000  0.92320000  0.40980000  1.0 0.1520398387
H  H23  1  0.07680000  0.92300000  0.90980000  1.0 0.1520398387
H  H24  1  0.92300000  0.07680000  0.59020000  1.0 0.1520398387
H  H25  1  0.29800000  0.12440000  0.25460000  1.0 0.2703676891
H  H26  1  0.12440000  0.29800000  0.24540000  1.0 0.2703676891
H  H27  1  0.70200000  0.87560000  0.74540000  1.0 0.2703676891
H  H28  1  0.87560000  0.70200000  0.75460000  1.0 0.2703676891
H  H29  1  0.95860000  0.82380000  0.25020000  1.0 0.2876581186
H  H30  1  0.82380000  0.95860000  0.24980000  1.0 0.2876581186
H  H31  1  0.04140000  0.17620000  0.74980000  1.0 0.2876581186
H  H32  1  0.17620000  0.04140000  0.75020000  1.0 0.2876581186
H  H33  1  0.92840000  0.74600000  0.30000000  1.0 0.3003105267
H  H34  1  0.74600000  0.92840000  0.20000000  1.0 0.3003105267
H  H35  1  0.07160000  0.25400000  0.70000000  1.0 0.3003105267
H  H36  1  0.25400000  0.07160000  0.80000000  1.0 0.3003105267
H  H37  1  0.85940000  0.54780000  0.25120000  1.0 0.2703676891
H  H38  1  0.54780000  0.85940000  0.24880000  1.0 0.2703676891
H  H39  1  0.14060000  0.45220000  0.74880000  1.0 0.2703676891
H  H40  1  0.45220000  0.14060000  0.75120000  1.0 0.2703676891
H  H41  1  0.21670000  0.92150000  0.20650000  1.0 0.3003105267
H  H42  1  0.92150000  0.21670000  0.29350000  1.0 0.3003105267
H  H43  1  0.78330000  0.07850000  0.79350000  1.0 0.3003105267
H  H44  1  0.07850000  0.78330000  0.70650000  1.0 0.3003105267
H  H45  1  0.18750000  0.84870000  0.25770000  1.0 0.2703676891
H  H46  1  0.84870000  0.18750000  0.24230000  1.0 0.2703676891
H  H47  1  0.81250000  0.15130000  0.74230000  1.0 0.2703676891
H  H48  1  0.15130000  0.81250000  0.75770000  1.0 0.2703676891
H  H49  1  0.81700000  0.46200000  0.48050000  1.0 0.2703676891
H  H50  1  0.46200000  0.81700000  0.01950000  1.0 0.2703676891
H  H51  1  0.18300000  0.53800000  0.51950000  1.0 0.2703676891
H  H52  1  0.53800000  0.18300000  0.98050000  1.0 0.2703676891
H  H53  1  0.13520000  0.89520000  0.00520000  1.0 0.1219886295
H  H54  1  0.89520000  0.13520000  0.49480000  1.0 0.1219886295
H  H55  1  0.86480000  0.10480000  0.99480000  1.0 0.1219886295
H  H56  1  0.10480000  0.86480000  0.50520000  1.0 0.1219886295
H  H57  1  0.29920000  0.26780000  0.40550000  1.0 0.3003105267
H  H58  1  0.26780000  0.29920000  0.09450000  1.0 0.3003105267
H  H59  1  0.70080000  0.73220000  0.59450000  1.0 0.3003105267
H  H60  1  0.73220000  0.70080000  0.90550000  1.0 0.3003105267
H  H61  1  0.28640000  0.20360000  0.45660000  1.0 0.3003105267
H  H62  1  0.20360000  0.28640000  0.04340000  1.0 0.3003105267
H  H63  1  0.71360000  0.79640000  0.54340000  1.0 0.3003105267
H  H64  1  0.79640000  0.71360000  0.95660000  1.0 0.3003105267
H  H65  1  0.39680000  0.93860000  0.12460000  1.0 0.1402542263
H  H66  1  0.93860000  0.39680000  0.37540000  1.0 0.1402542263
H  H67  1  0.60320000  0.06140000  0.87540000  1.0 0.1402542263
H  H68  1  0.06140000  0.60320000  0.62460000  1.0 0.1402542263
H  H69  1  0.35020000  0.99960000  0.13940000  1.0 0.1285601112
H  H70  1  0.99960000  0.35020000  0.36060000  1.0 0.1285601112
H  H71  1  0.64980000  0.00040000  0.86060000  1.0 0.1285601112
H  H72  1  0.00040000  0.64980000  0.63940000  1.0 0.1285601112
H  H73  1  0.48360000  0.29080000  0.28360000  1.0 0.1129652227
H  H74  1  0.29080000  0.48360000  0.21640000  1.0 0.1129652227
H  H75  1  0.51640000  0.70920000  0.71640000  1.0 0.1129652227
H  H76  1  0.70920000  0.51640000  0.78360000  1.0 0.1129652227
H  H77  1  0.70770000  0.49810000  0.31360000  1.0 0.1219886295
H  H78  1  0.49810000  0.70770000  0.18640000  1.0 0.1219886295
H  H79  1  0.29230000  0.50190000  0.68640000  1.0 0.1219886295
H  H80  1  0.50190000  0.29230000  0.81360000  1.0 0.1219886295
H  H81  1  0.77230000  0.69870000  0.18050000  1.0 0.1520398387
H  H82  1  0.69870000  0.77230000  0.31950000  1.0 0.1520398387
H  H83  1  0.22770000  0.30130000  0.81950000  1.0 0.1520398387
H  H84  1  0.30130000  0.22770000  0.68050000  1.0 0.1520398387
H  H85  1  0.54660000  0.48660000  0.14960000  1.0 0.1219886295
H  H86  1  0.48660000  0.54660000  0.35040000  1.0 0.1219886295
H  H87  1  0.45340000  0.51340000  0.85040000  1.0 0.1219886295
H  H88  1  0.51340000  0.45340000  0.64960000  1.0 0.1219886295
H  H89  1  0.86230000  0.56690000  0.14360000  1.0 0.1520398387
H  H90  1  0.56690000  0.86230000  0.35640000  1.0 0.1520398387
H  H91  1  0.13770000  0.43310000  0.85640000  1.0 0.1520398387
H  H92  1  0.43310000  0.13770000  0.64360000  1.0 0.1520398387
H  H93  1  0.75310000  0.53390000  0.11610000  1.0 0.1598820037
H  H94  1  0.53390000  0.75310000  0.38390000  1.0 0.1598820037
H  H95  1  0.24690000  0.46610000  0.88390000  1.0 0.1598820037
H  H96  1  0.46610000  0.24690000  0.61610000  1.0 0.1598820037
H  H97  1  0.89050000  0.65010000  0.09230000  1.0 0.1598820037
H  H98  1  0.65010000  0.89050000  0.40770000  1.0 0.1598820037
H  H99  1  0.10950000  0.34990000  0.90770000  1.0 0.1598820037
H  H100  1  0.34990000  0.10950000  0.59230000  1.0 0.1598820037
H  H101  1  0.43650000  0.14750000  0.38320000  1.0 0.1598820037
H  H102  1  0.14750000  0.43650000  0.11680000  1.0 0.1598820037
H  H103  1  0.56350000  0.85250000  0.61680000  1.0 0.1598820037
H  H104  1  0.85250000  0.56350000  0.88320000  1.0 0.1598820037
H  H105  1  0.34890000  0.14270000  0.36370000  1.0 0.1598820037
H  H106  1  0.14270000  0.34890000  0.13630000  1.0 0.1598820037
H  H107  1  0.65110000  0.85730000  0.63630000  1.0 0.1598820037
H  H108  1  0.85730000  0.65110000  0.86370000  1.0 0.1598820037
H  H109  1  0.32750000  0.06570000  0.41590000  1.0 0.1598820037
H  H110  1  0.06570000  0.32750000  0.08410000  1.0 0.1598820037
H  H111  1  0.67250000  0.93430000  0.58410000  1.0 0.1598820037
H  H112  1  0.93430000  0.67250000  0.91590000  1.0 0.1598820037
H  H113  1  0.67650000  0.37530000  0.21960000  1.0 0.1219886295
H  H114  1  0.37530000  0.67650000  0.28040000  1.0 0.1219886295
H  H115  1  0.32350000  0.62470000  0.78040000  1.0 0.1219886295
H  H116  1  0.62470000  0.32350000  0.71960000  1.0 0.1219886295
H  H117  1  0.45030000  0.16810000  0.18960000  1.0 0.1402542263
H  H118  1  0.16810000  0.45030000  0.31040000  1.0 0.1402542263
H  H119  1  0.54970000  0.83190000  0.81040000  1.0 0.1402542263
H  H120  1  0.83190000  0.54970000  0.68960000  1.0 0.1402542263
H  H121  1  0.37160000  0.97320000  0.32650000  1.0 0.1520398387
H  H122  1  0.97320000  0.37160000  0.17350000  1.0 0.1520398387
H  H123  1  0.62840000  0.02680000  0.67350000  1.0 0.1520398387
H  H124  1  0.02680000  0.62840000  0.82650000  1.0 0.1520398387
H  H125  1  0.59690000  0.18210000  0.35610000  1.0 0.1285601112
H  H126  1  0.18210000  0.59690000  0.14390000  1.0 0.1285601112
H  H127  1  0.40310000  0.81790000  0.64390000  1.0 0.1285601112
H  H128  1  0.81790000  0.40310000  0.85610000  1.0 0.1285601112
H  H129  1  0.69960000  0.55740000  0.36060000  1.0 0.1219886295
H  H130  1  0.55740000  0.69960000  0.13940000  1.0 0.1219886295
H  H131  1  0.30040000  0.44260000  0.63940000  1.0 0.1219886295
H  H132  1  0.44260000  0.30040000  0.86060000  1.0 0.1219886295
H  H133  1  0.49320000  0.43100000  0.36120000  1.0 0.1285601112
H  H134  1  0.43100000  0.49320000  0.13880000  1.0 0.1285601112
H  H135  1  0.50680000  0.56900000  0.63880000  1.0 0.1285601112
H  H136  1  0.56900000  0.50680000  0.86120000  1.0 0.1285601112
H  H137  1  0.45190000  0.24890000  0.49730000  1.0 0.1285601112
H  H138  1  0.24890000  0.45190000  0.00270000  1.0 0.1285601112
H  H139  1  0.54810000  0.75110000  0.50270000  1.0 0.1285601112
H  H140  1  0.75110000  0.54810000  0.99730000  1.0 0.1285601112
H  H141  1  0.65290000  0.36730000  0.49240000  1.0 0.1219886295
H  H142  1  0.36730000  0.65290000  0.00760000  1.0 0.1219886295
H  H143  1  0.34710000  0.63270000  0.50760000  1.0 0.1219886295
H  H144  1  0.63270000  0.34710000  0.99240000  1.0 0.1219886295
H  H145  1  0.39840000  0.80580000  0.43390000  1.0 0.1520398387
H  H146  1  0.80580000  0.39840000  0.06610000  1.0 0.1520398387
H  H147  1  0.60160000  0.19420000  0.56610000  1.0 0.1520398387
H  H148  1  0.19420000  0.60160000  0.93390000  1.0 0.1520398387
H  H149  1  0.28930000  0.66530000  0.41540000  1.0 0.1520398387
H  H150  1  0.66530000  0.28930000  0.08460000  1.0 0.1520398387
H  H151  1  0.71070000  0.33470000  0.58460000  1.0 0.1520398387
H  H152  1  0.33470000  0.71070000  0.91540000  1.0 0.1520398387
H  H153  1  0.34270000  0.78270000  0.37720000  1.0 0.1598820037
H  H154  1  0.78270000  0.34270000  0.12280000  1.0 0.1598820037
H  H155  1  0.65730000  0.21730000  0.62280000  1.0 0.1598820037
H  H156  1  0.21730000  0.65730000  0.87720000  1.0 0.1598820037
H  H157  1  0.18160000  0.83420000  0.99000000  1.0 0.1402542263
H  H158  1  0.83420000  0.18160000  0.51000000  1.0 0.1402542263
H  H159  1  0.81840000  0.16580000  0.01000000  1.0 0.1402542263
H  H160  1  0.16580000  0.81840000  0.49000000  1.0 0.1520398387
C  C1  1  0.95230000  0.00250000  0.09000000  1.0 0.7109682246
C  C2  1  0.00250000  0.95230000  0.41000000  1.0 0.7109682246
C  C3  1  0.04770000  0.99750000  0.91000000  1.0 0.7109682246
C  C4  1  0.99750000  0.04770000  0.59000000  1.0 0.7109682246
C  C5  1  0.87990000  0.99410000  0.10400000  1.0 -0.6207480819
C  C6  1  0.99410000  0.87990000  0.39600000  1.0 -0.6207480819
C  C7  1  0.12010000  0.00590000  0.89600000  1.0 -0.6207480819
C  C8  1  0.00590000  0.12010000  0.60400000  1.0 -0.6207480819
C  C9  1  0.21470000  0.00110000  0.08430000  1.0 0.3858119936
C  C10  1  0.00110000  0.21470000  0.41570000  1.0 0.3858119936
C  C11  1  0.78530000  0.99890000  0.91570000  1.0 0.3858119936
C  C12  1  0.99890000  0.78530000  0.58430000  1.0 0.3858119936
C  C13  1  0.24340000  0.96100000  0.07320000  1.0 -0.047024274
C  C14  1  0.96100000  0.24340000  0.42680000  1.0 -0.047024274
C  C15  1  0.75660000  0.03900000  0.92680000  1.0 -0.047024274
C  C16  1  0.03900000  0.75660000  0.57320000  1.0 -0.047024274
C  C17  1  0.18990000  0.90630000  0.02910000  1.0 -0.1468883024
C  C18  1  0.90630000  0.18990000  0.47090000  1.0 -0.1468883024
C  C19  1  0.81010000  0.09370000  0.97090000  1.0 -0.1468883024
C  C20  1  0.09370000  0.81010000  0.52910000  1.0 -0.1468883024
C  C21  1  0.29510000  0.88070000  0.05610000  1.0 0.279273419
C  C22  1  0.88070000  0.29510000  0.44390000  1.0 0.279273419
C  C23  1  0.70490000  0.11930000  0.94390000  1.0 0.279273419
C  C24  1  0.11930000  0.70490000  0.55610000  1.0 0.279273419
C  C25  1  0.34470000  0.93030000  0.10030000  1.0 -0.1939872901
C  C26  1  0.93030000  0.34470000  0.39970000  1.0 -0.1939872901
C  C27  1  0.65530000  0.06970000  0.89970000  1.0 -0.1939872901
C  C28  1  0.06970000  0.65530000  0.60030000  1.0 -0.1939872901
C  C29  1  0.31770000  0.96830000  0.10890000  1.0 -0.0989639323
C  C30  1  0.96830000  0.31770000  0.39110000  1.0 -0.0989639323
C  C31  1  0.68230000  0.03170000  0.89110000  1.0 -0.0989639323
C  C32  1  0.03170000  0.68230000  0.60890000  1.0 -0.0989639323
C  C33  1  0.35190000  0.23090000  0.19230000  1.0 0.3858119936
C  C34  1  0.23090000  0.35190000  0.30770000  1.0 0.3858119936
C  C35  1  0.64810000  0.76910000  0.80770000  1.0 0.3858119936
C  C36  1  0.76910000  0.64810000  0.69230000  1.0 0.3784179582
C  C37  1  0.49180000  0.36560000  0.21370000  1.0 -0.040591208
C  C38  1  0.36560000  0.49180000  0.28630000  1.0 -0.040591208
C  C39  1  0.50820000  0.63440000  0.78630000  1.0 -0.040591208
C  C40  1  0.63440000  0.50820000  0.71370000  1.0 -0.040591208
C  C41  1  0.54180000  0.37280000  0.26220000  1.0 -0.1221202088
C  C42  1  0.37280000  0.54180000  0.23780000  1.0 -0.1221202088
C  C43  1  0.45820000  0.62720000  0.73780000  1.0 -0.1221202088
C  C44  1  0.62720000  0.45820000  0.76220000  1.0 -0.1221202088
C  C45  1  0.67570000  0.49710000  0.28070000  1.0 -0.1939872901
C  C46  1  0.49710000  0.67570000  0.21930000  1.0 -0.1939872901
C  C47  1  0.32430000  0.50290000  0.71930000  1.0 -0.1939872901
C  C48  1  0.50290000  0.32430000  0.78070000  1.0 -0.1939872901
C  C49  1  0.76270000  0.62110000  0.24980000  1.0 0.2703676891
C  C50  1  0.62110000  0.76270000  0.25020000  1.0 0.2703676891
C  C51  1  0.23730000  0.37890000  0.75020000  1.0 0.2703676891
C  C52  1  0.37890000  0.23730000  0.74980000  1.0 0.2703676891
C  C53  1  0.71460000  0.61640000  0.20150000  1.0 -0.2015615457
C  C54  1  0.61640000  0.71460000  0.29850000  1.0 -0.2015615457
C  C55  1  0.28540000  0.38360000  0.79850000  1.0 -0.2015615457
C  C56  1  0.38360000  0.28540000  0.70150000  1.0 -0.2015615457
C  C57  1  0.57840000  0.48840000  0.18280000  1.0 -0.0989639323
C  C58  1  0.48840000  0.57840000  0.31720000  1.0 -0.0989639323
C  C59  1  0.42160000  0.51160000  0.81720000  1.0 -0.0989639323
C  C60  1  0.51160000  0.42160000  0.68280000  1.0 -0.0989639323
C  C61  1  0.92140000  0.71180000  0.15000000  1.0 0.6897065921
C  C62  1  0.71180000  0.92140000  0.35000000  1.0 0.6897065921
C  C63  1  0.07860000  0.28820000  0.85000000  1.0 0.6897065921
C  C64  1  0.28820000  0.07860000  0.65000000  1.0 0.6897065921
C  C65  1  0.85050000  0.60630000  0.12310000  1.0 -0.6141235323
C  C66  1  0.60630000  0.85050000  0.37690000  1.0 -0.6141235323
C  C67  1  0.14950000  0.39370000  0.87690000  1.0 -0.6141235323
C  C68  1  0.39370000  0.14950000  0.62310000  1.0 -0.6141235323
C  C69  1  0.23730000  0.96210000  0.35810000  1.0 0.6897065921
C  C70  1  0.96210000  0.23730000  0.14190000  1.0 0.6897065921
C  C71  1  0.76270000  0.03790000  0.64190000  1.0 0.6897065921
C  C72  1  0.03790000  0.76270000  0.85810000  1.0 0.6897065921
C  C73  1  0.34750000  0.09110000  0.38240000  1.0 -0.6141235323
C  C74  1  0.09110000  0.34750000  0.11760000  1.0 -0.6141235323
C  C75  1  0.65250000  0.90890000  0.61760000  1.0 -0.6141235323
C  C76  1  0.90890000  0.65250000  0.88240000  1.0 -0.6141235323
C  C77  1  0.79670000  0.43630000  0.31290000  1.0 0.3784179582
C  C78  1  0.43630000  0.79670000  0.18710000  1.0 0.3784179582
C  C79  1  0.20330000  0.56370000  0.68710000  1.0 0.3784179582
C  C80  1  0.56370000  0.20330000  0.81290000  1.0 0.3784179582
C  C81  1  0.65950000  0.30290000  0.29140000  1.0 -0.040591208
C  C82  1  0.30290000  0.65950000  0.20860000  1.0 -0.040591208
C  C83  1  0.34050000  0.69710000  0.70860000  1.0 -0.040591208
C  C84  1  0.69710000  0.34050000  0.79140000  1.0 -0.040591208
C  C85  1  0.61450000  0.29510000  0.24170000  1.0 -0.1263472081
C  C86  1  0.29510000  0.61450000  0.25830000  1.0 -0.1263472081
C  C87  1  0.38550000  0.70490000  0.75830000  1.0 -0.1263472081
C  C88  1  0.70490000  0.38550000  0.74170000  1.0 -0.1263472081
C  C89  1  0.47860000  0.17040000  0.22340000  1.0 -0.2015615457
C  C90  1  0.17040000  0.47860000  0.27660000  1.0 -0.2015615457
C  C91  1  0.52140000  0.82960000  0.77660000  1.0 -0.2015615457
C  C92  1  0.82960000  0.52140000  0.72340000  1.0 -0.2015615457
C  C93  1  0.38570000  0.05010000  0.25530000  1.0 0.2703676891
C  C94  1  0.05010000  0.38570000  0.24470000  1.0 0.2703676891
C  C95  1  0.61430000  0.94990000  0.74470000  1.0 0.2703676891
C  C96  1  0.94990000  0.61430000  0.75530000  1.0 0.2703676891
C  C97  1  0.43170000  0.05450000  0.30490000  1.0 -0.1939872901
C  C98  1  0.05450000  0.43170000  0.19510000  1.0 -0.1939872901
C  C99  1  0.56830000  0.94550000  0.69510000  1.0 -0.1939872901
C  C100  1  0.94550000  0.56830000  0.80490000  1.0 -0.1939872901
C  C101  1  0.56720000  0.18020000  0.32250000  1.0 -0.0989639323
C  C102  1  0.18020000  0.56720000  0.17750000  1.0 -0.0989639323
C  C103  1  0.43280000  0.81980000  0.67750000  1.0 -0.0989639323
C  C104  1  0.81980000  0.43280000  0.82250000  1.0 -0.0989639323
C  C105  1  0.82350000  0.54750000  0.41890000  1.0 0.4096453025
C  C106  1  0.54750000  0.82350000  0.08110000  1.0 0.4096453025
C  C107  1  0.17650000  0.45250000  0.58110000  1.0 0.4096453025
C  C108  1  0.45250000  0.17650000  0.91890000  1.0 0.4096453025
C  C109  1  0.69880000  0.47560000  0.42550000  1.0 -0.0557911636
C  C110  1  0.47560000  0.69880000  0.07450000  1.0 -0.0557911636
C  C111  1  0.30120000  0.52440000  0.57450000  1.0 -0.0557911636
C  C112  1  0.52440000  0.30120000  0.92550000  1.0 -0.0557911636
C  C113  1  0.64860000  0.49320000  0.38790000  1.0 -0.0989639323
C  C114  1  0.49320000  0.64860000  0.11210000  1.0 -0.0989639323
C  C115  1  0.35140000  0.50680000  0.61210000  1.0 -0.0989639323
C  C116  1  0.50680000  0.35140000  0.88790000  1.0 -0.0989639323
C  C117  1  0.52620000  0.42000000  0.38870000  1.0 -0.2085706012
C  C118  1  0.42000000  0.52620000  0.11130000  1.0 -0.2085706012
C  C119  1  0.47380000  0.58000000  0.61130000  1.0 -0.2085706012
C  C120  1  0.58000000  0.47380000  0.88870000  1.0 -0.2085706012
C  C121  1  0.45320000  0.33220000  0.42910000  1.0 0.2876581186
C  C122  1  0.33220000  0.45320000  0.07090000  1.0 0.2876581186
C  C123  1  0.54680000  0.66780000  0.57090000  1.0 0.2876581186
C  C124  1  0.66780000  0.54680000  0.92910000  1.0 0.2876581186
C  C125  1  0.50110000  0.31030000  0.46940000  1.0 -0.2209111915
C  C126  1  0.31030000  0.50110000  0.03060000  1.0 -0.2209111915
C  C127  1  0.49890000  0.68970000  0.53060000  1.0 -0.2209111915
C  C128  1  0.68970000  0.49890000  0.96940000  1.0 -0.2209111915
C  C129  1  0.62200000  0.38220000  0.46630000  1.0 -0.1221202088
C  C130  1  0.38220000  0.62200000  0.03370000  1.0 -0.1221202088
C  C131  1  0.37800000  0.61780000  0.53370000  1.0 -0.1221202088
C  C132  1  0.61780000  0.37800000  0.96630000  1.0 -0.1221202088
C  C133  1  0.19980000  0.67700000  0.42000000  1.0 0.7013508512
C  C134  1  0.67700000  0.19980000  0.08000000  1.0 0.7013508512
C  C135  1  0.80020000  0.32300000  0.58000000  1.0 0.7013508512
C  C136  1  0.32300000  0.80020000  0.92000000  1.0 0.7013508512
C  C137  1  0.31870000  0.73850000  0.41080000  1.0 -0.6207480819
C  C138  1  0.73850000  0.31870000  0.08920000  1.0 -0.6207480819
C  C139  1  0.68130000  0.26150000  0.58920000  1.0 -0.6207480819
C  C140  1  0.26150000  0.68130000  0.91080000  1.0 -0.6207480819
C  C141  1  0.21620000  0.86820000  0.02010000  1.0 -0.1939872901
C  C142  1  0.86820000  0.21620000  0.47990000  1.0 -0.1939872901
C  C143  1  0.78380000  0.13180000  0.97990000  1.0 -0.1939872901
C  C144  1  0.13180000  0.78380000  0.52010000  1.0 -0.1939872901
N  N1  1  0.17110000  0.02090000  0.04720000  1.0 -0.1378163537
N  N2  1  0.02090000  0.17110000  0.45280000  1.0 -0.1378163537
N  N3  1  0.82890000  0.97910000  0.95280000  1.0 -0.1378163537
N  N4  1  0.97910000  0.82890000  0.54720000  1.0 -0.1378163537
N  N5  1  0.32700000  0.84660000  0.04720000  1.0 -0.5525253014
N  N6  1  0.84660000  0.32700000  0.45280000  1.0 -0.5525253014
N  N7  1  0.67300000  0.15340000  0.95280000  1.0 -0.5525253014
N  N8  1  0.15340000  0.67300000  0.54720000  1.0 -0.5525253014
N  N9  1  0.27050000  0.11810000  0.22320000  1.0 -0.1378163537
N  N10  1  0.11810000  0.27050000  0.27680000  1.0 -0.1378163537
N  N11  1  0.72950000  0.88190000  0.77680000  1.0 -0.1378163537
N  N12  1  0.88190000  0.72950000  0.72320000  1.0 -0.1378163537
N  N13  1  0.90140000  0.74680000  0.26920000  1.0 -0.559734962
N  N14  1  0.74680000  0.90140000  0.23080000  1.0 -0.559734962
N  N15  1  0.09860000  0.25320000  0.73080000  1.0 -0.559734962
N  N16  1  0.25320000  0.09860000  0.76920000  1.0 -0.559734962
N  N17  1  0.88070000  0.55150000  0.28300000  1.0 -0.1378163537
N  N18  1  0.55150000  0.88070000  0.21700000  1.0 -0.1378163537
N  N19  1  0.11930000  0.44850000  0.71700000  1.0 -0.1378163537
N  N20  1  0.44850000  0.11930000  0.78300000  1.0 -0.1378163537
N  N21  1  0.24480000  0.92340000  0.23750000  1.0 -0.5525253014
N  N22  1  0.92340000  0.24480000  0.26250000  1.0 -0.5525253014
N  N23  1  0.75520000  0.07660000  0.76250000  1.0 -0.5525253014
N  N24  1  0.07660000  0.75520000  0.73750000  1.0 -0.5525253014
N  N25  1  0.86190000  0.51790000  0.45460000  1.0 -0.1758170293
N  N26  1  0.51790000  0.86190000  0.04540000  1.0 -0.1758170293
N  N27  1  0.13810000  0.48210000  0.54540000  1.0 -0.1758170293
N  N28  1  0.48210000  0.13810000  0.95460000  1.0 -0.1758170293
N  N29  1  0.33110000  0.25870000  0.43060000  1.0 -0.5811099038
N  N30  1  0.25870000  0.33110000  0.06940000  1.0 -0.5811099038
N  N31  1  0.66890000  0.74130000  0.56940000  1.0 -0.5811099038
N  N32  1  0.74130000  0.66890000  0.93060000  1.0 -0.5811099038
O  O1  1  0.95940000  0.02240000  0.04430000  1.0 -0.6305343674
O  O2  1  0.02240000  0.95940000  0.45570000  1.0 -0.6305343674
O  O3  1  0.04060000  0.97760000  0.95570000  1.0 -0.6305343674
O  O4  1  0.97760000  0.04060000  0.54430000  1.0 -0.6305343674
O  O5  1  0.99990000  0.98870000  0.12490000  1.0 -0.559734962
O  O6  1  0.98870000  0.99990000  0.37510000  1.0 -0.559734962
O  O7  1  0.00010000  0.01130000  0.87510000  1.0 -0.559734962
O  O8  1  0.01130000  0.00010000  0.62490000  1.0 -0.559734962
O  O9  1  0.13636000  0.05104000  0.05550000  1.0 -0.4574364067
O  O10  1  0.05104000  0.13636000  0.44450000  1.0 -0.4574364067
O  O11  1  0.86364000  0.94896000  0.94450000  1.0 -0.4574364067
O  O12  1  0.94896000  0.86364000  0.55550000  1.0 -0.4574364067
O  O13  1  0.23230000  0.01590000  0.12830000  1.0 -0.499845566
O  O14  1  0.01590000  0.23230000  0.37170000  1.0 -0.499845566
O  O15  1  0.76770000  0.98410000  0.87170000  1.0 -0.499845566
O  O16  1  0.98410000  0.76770000  0.62830000  1.0 -0.499845566
O  O17  1  0.14180000  0.98980000  0.20650000  1.0 -0.4449459479
O  O18  1  0.98980000  0.14180000  0.29350000  1.0 -0.4481743577
O  O19  1  0.85820000  0.01020000  0.79350000  1.0 -0.4481743577
O  O20  1  0.01020000  0.85820000  0.70650000  1.0 -0.4481743577
O  O21  1  0.31120000  0.22400000  0.14670000  1.0 -0.4822845922
O  O22  1  0.22400000  0.31120000  0.35330000  1.0 -0.4822845922
O  O23  1  0.68880000  0.77600000  0.85330000  1.0 -0.4822845922
O  O24  1  0.77600000  0.68880000  0.64670000  1.0 -0.4822845922
O  O25  1  0.94160000  0.79320000  0.12630000  1.0 -0.5525253014
O  O26  1  0.79320000  0.94160000  0.37370000  1.0 -0.5525253014
O  O27  1  0.05840000  0.20680000  0.87370000  1.0 -0.5525253014
O  O28  1  0.20680000  0.05840000  0.62630000  1.0 -0.5525253014
O  O29  1  0.95390000  0.70890000  0.19520000  1.0 -0.559734962
O  O30  1  0.70890000  0.95390000  0.30480000  1.0 -0.559734962
O  O31  1  0.04610000  0.29110000  0.80480000  1.0 -0.559734962
O  O32  1  0.29110000  0.04610000  0.69520000  1.0 -0.559734962
O  O33  1  0.19710000  0.96090000  0.31280000  1.0 -0.5811099038
O  O34  1  0.96090000  0.19710000  0.18720000  1.0 -0.5748042629
O  O35  1  0.80290000  0.03910000  0.68720000  1.0 -0.5748042629
O  O36  1  0.03910000  0.80290000  0.81280000  1.0 -0.5811099038
O  O37  1  0.19480000  0.86580000  0.38390000  1.0 -0.5525253014
O  O38  1  0.86580000  0.19480000  0.11610000  1.0 -0.5525253014
O  O39  1  0.80520000  0.13420000  0.61610000  1.0 -0.5525253014
O  O40  1  0.13420000  0.80520000  0.88390000  1.0 -0.5525253014
O  O41  1  0.00271000  0.67829000  0.30180000  1.0 -0.4574364067
O  O42  1  0.67829000  0.00271000  0.19820000  1.0 -0.4574364067
O  O43  1  0.99729000  0.32171000  0.69820000  1.0 -0.4574364067
O  O44  1  0.32171000  0.99729000  0.80180000  1.0 -0.4574364067
O  O45  1  0.83240000  0.44040000  0.36010000  1.0 -0.5162090973
O  O46  1  0.44040000  0.83240000  0.13990000  1.0 -0.5162090973
O  O47  1  0.16760000  0.55960000  0.63990000  1.0 -0.5162090973
O  O48  1  0.55960000  0.16760000  0.86010000  1.0 -0.5162090973
O  O49  1  0.97315000  0.57745000  0.44960000  1.0 -0.4481743577
O  O50  1  0.57745000  0.97315000  0.05040000  1.0 -0.4481743577
O  O51  1  0.02685000  0.42255000  0.55040000  1.0 -0.4481743577
O  O52  1  0.42255000  0.02685000  0.94960000  1.0 -0.4481743577
O  O53  1  0.88950000  0.62750000  0.38230000  1.0 -0.4481743577
O  O54  1  0.62750000  0.88950000  0.11770000  1.0 -0.4481743577
O  O55  1  0.11050000  0.37250000  0.61770000  1.0 -0.4481743577
O  O56  1  0.37250000  0.11050000  0.88230000  1.0 -0.4481743577
O  O57  1  0.14460000  0.67940000  0.38470000  1.0 -0.5525253014
O  O58  1  0.67940000  0.14460000  0.11530000  1.0 -0.5525253014
O  O59  1  0.85540000  0.32060000  0.61530000  1.0 -0.5525253014
O  O60  1  0.32060000  0.85540000  0.88470000  1.0 -0.5525253014
O  O61  1  0.17000000  0.62920000  0.46460000  1.0 -0.5811099038
O  O62  1  0.62920000  0.17000000  0.03540000  1.0 -0.5811099038
O  O63  1  0.83000000  0.37080000  0.53540000  1.0 -0.5811099038
O  O64  1  0.37080000  0.83000000  0.96460000  1.0 -0.5811099038
