# DDEC6 charges by PACMAN v1.1 (https://github.com/mtap-research/PACMAN-charge/)
data_MOPKEJ_FSR_pacman
_symmetry_space_group_name_H-M   'P 1'
_cell_length_a   9.15100000
_cell_length_b   9.16710000
_cell_length_c   9.31360000
_cell_angle_alpha   77.93000000
_cell_angle_beta   86.22000000
_cell_angle_gamma   88.36000000
_symmetry_Int_Tables_number   1
_chemical_formula_structural   Al3P3O13F
_chemical_formula_sum   'Al6 P6 O26 F2'
_cell_volume   762.27797292
_cell_formula_units_Z   2
loop_
 _symmetry_equiv_pos_site_id
 _symmetry_equiv_pos_as_xyz
  1  'x, y, z'
loop_
 _atom_site_type_symbol
 _atom_site_label
 _atom_site_symmetry_multiplicity
 _atom_site_fract_x
 _atom_site_fract_y
 _atom_site_fract_z
 _atom_site_occupancy
 _atom_site_charge
Al  Al1  1  0.43784000  0.13294000  0.91199000  1.0 1.610777758
Al  Al2  1  0.56216000  0.86706000  0.08801000  1.0 1.610777758
Al  Al3  1  0.62582000  0.39652000  0.34237000  1.0 1.7456352338
Al  Al4  1  0.37418000  0.60348000  0.65763000  1.0 1.7434675321
Al  Al5  1  0.84159000  0.36783000  0.92376000  1.0 1.7596510276
Al  Al6  1  0.15841000  0.63217000  0.07624000  1.0 1.7596510276
P  P1  1  0.35335000  0.83150000  0.85617000  1.0 1.4850912914
P  P2  1  0.64665000  0.16850000  0.14383000  1.0 1.4839886054
P  P3  1  0.18703000  0.38304000  0.89947000  1.0 1.5741294846
P  P4  1  0.81297000  0.61696000  0.10053000  1.0 1.5741294846
P  P5  1  0.61876000  0.37193000  0.67852000  1.0 1.5579215512
P  P6  1  0.38124000  0.62807000  0.32148000  1.0 1.5579215512
O  O1  1  0.20260000  0.77840000  0.92950000  1.0 -0.7906977907
O  O2  1  0.79740000  0.22160000  0.07050000  1.0 -0.7906977907
O  O3  1  0.37490000  0.77120000  0.71360000  1.0 -0.7504448071
O  O4  1  0.62510000  0.22880000  0.28640000  1.0 -0.7504448071
O  O5  1  0.47020000  0.76580000  0.96080000  1.0 -0.6371371821
O  O6  1  0.52980000  0.23420000  0.03920000  1.0 -0.6371371821
O  O7  1  0.35440000  0.00040000  0.81130000  1.0 -0.5860695616
O  O8  1  0.64560000  0.99960000  0.18870000  1.0 -0.5860695616
O  O9  1  0.26520000  0.23560000  0.92910000  1.0 -0.6636040583
O  O10  1  0.73480000  0.76440000  0.07090000  1.0 -0.6636040583
O  O11  1  0.02680000  0.35870000  0.88180000  1.0 -0.7802465533
O  O12  1  0.97320000  0.64130000  0.11820000  1.0 -0.7802465533
O  O13  1  0.20060000  0.46100000  0.02850000  1.0 -0.7802465533
O  O14  1  0.79940000  0.53900000  0.97150000  1.0 -0.7802465533
O  O15  1  0.24570000  0.48460000  0.75790000  1.0 -0.7906977907
O  O16  1  0.75430000  0.51540000  0.24210000  1.0 -0.7906977907
O  O17  1  0.50670000  0.25590000  0.74010000  1.0 -0.7095465437
O  O18  1  0.49330000  0.74410000  0.25990000  1.0 -0.7095465437
O  O19  1  0.55080000  0.52830000  0.66900000  1.0 -0.7802465533
O  O20  1  0.44920000  0.47170000  0.33100000  1.0 -0.7802465533
O  O21  1  0.75330000  0.36000000  0.76740000  1.0 -0.7504448071
O  O22  1  0.24670000  0.64000000  0.23260000  1.0 -0.7504448071
O  O23  1  0.67240000  0.35670000  0.52380000  1.0 -0.7712417021
O  O24  1  0.32760000  0.64330000  0.47620000  1.0 -0.7712417021
O  O25  1  0.38700000  0.99100000  0.09700000  1.0 -0.4516160265
O  O26  1  0.61300000  0.00900000  0.90300000  1.0 -0.4594532624
F  F1  1  0.39170000  0.98880000  0.08020000  1.0 -0.4845858589
F  F2  1  0.60830000  0.01120000  0.91980000  1.0 -0.4862393513
