# DDEC6 charges by PACMAN v1.1 (https://github.com/mtap-research/PACMAN-charge/)
data_MOSHUA_ASR_pacman
_symmetry_space_group_name_H-M   'P 1'
_cell_length_a   25.27900000
_cell_length_b   25.27900000
_cell_length_c   25.27900000
_cell_angle_alpha   90.00000000
_cell_angle_beta   90.00000000
_cell_angle_gamma   90.00000000
_symmetry_Int_Tables_number   1
_chemical_formula_structural   ZnH20C32(NO2)2
_chemical_formula_sum   'Zn12 H240 C384 N24 O48'
_cell_volume   16153.98479264
_cell_formula_units_Z   12
loop_
 _symmetry_equiv_pos_site_id
 _symmetry_equiv_pos_as_xyz
  1  'x, y, z'
loop_
 _atom_site_type_symbol
 _atom_site_label
 _atom_site_symmetry_multiplicity
 _atom_site_fract_x
 _atom_site_fract_y
 _atom_site_fract_z
 _atom_site_occupancy
 _atom_site_charge
Zn  Zn1  1  0.87500000  0.12500000  0.62500000  1.0 1.0866385337
Zn  Zn2  1  0.62500000  0.87500000  0.12500000  1.0 1.0866385337
Zn  Zn3  1  0.12500000  0.62500000  0.87500000  1.0 1.0866385337
Zn  Zn4  1  0.37500000  0.37500000  0.37500000  1.0 1.0866385337
Zn  Zn5  1  0.95841000  0.04159000  0.54159000  1.0 0.8907220002
Zn  Zn6  1  0.54159000  0.95841000  0.04159000  1.0 0.8907220002
Zn  Zn7  1  0.04159000  0.54159000  0.95841000  1.0 0.8907220002
Zn  Zn8  1  0.45841000  0.45841000  0.45841000  1.0 0.8907220002
Zn  Zn9  1  0.79159000  0.20841000  0.70841000  1.0 0.8907220002
Zn  Zn10  1  0.70841000  0.79159000  0.20841000  1.0 0.8907220002
Zn  Zn11  1  0.29159000  0.29159000  0.29159000  1.0 0.8907220002
Zn  Zn12  1  0.20841000  0.70841000  0.79159000  1.0 0.8907220002
H  H1  1  0.86810000  0.05720000  0.40430000  1.0 0.1188440655
H  H2  1  0.80530000  0.07080000  0.33890000  1.0 0.1128021719
H  H3  1  0.80210000  0.17230000  0.49170000  1.0 0.1418242249
H  H4  1  0.70710000  0.19830000  0.49800000  1.0 0.1128021719
H  H5  1  0.67510000  0.23880000  0.46370000  1.0 0.1188440655
H  H6  1  0.82870000  0.35370000  0.44010000  1.0 0.1128021719
H  H7  1  0.84100000  0.37080000  0.52940000  1.0 0.1128021719
H  H8  1  0.79400000  0.32310000  0.59210000  1.0 0.1128021719
H  H9  1  0.73470000  0.25820000  0.56550000  1.0 0.1188440655
H  H10  1  0.76940000  0.28890000  0.41350000  1.0 0.1188440655
H  H11  1  0.63190000  0.94280000  0.90430000  1.0 0.1188440655
H  H12  1  0.69470000  0.92920000  0.83890000  1.0 0.1128021719
H  H13  1  0.69790000  0.82770000  0.99170000  1.0 0.1418242249
H  H14  1  0.79290000  0.80170000  0.99800000  1.0 0.1128021719
H  H15  1  0.82490000  0.76120000  0.96370000  1.0 0.1188440655
H  H16  1  0.67130000  0.64630000  0.94010000  1.0 0.1128021719
H  H17  1  0.65900000  0.62920000  0.02940000  1.0 0.1128021719
H  H18  1  0.70600000  0.67690000  0.09210000  1.0 0.1128021719
H  H19  1  0.76530000  0.74180000  0.06550000  1.0 0.1188440655
H  H20  1  0.73060000  0.71110000  0.91350000  1.0 0.1188440655
H  H21  1  0.13190000  0.55720000  0.09570000  1.0 0.1188440655
H  H22  1  0.19470000  0.57080000  0.16110000  1.0 0.1128021719
H  H23  1  0.19790000  0.67230000  0.00830000  1.0 0.1418242249
H  H24  1  0.29290000  0.69830000  0.00200000  1.0 0.1128021719
H  H25  1  0.32490000  0.73880000  0.03630000  1.0 0.1188440655
H  H26  1  0.17130000  0.85370000  0.05990000  1.0 0.1128021719
H  H27  1  0.15900000  0.87080000  0.97060000  1.0 0.1128021719
H  H28  1  0.20600000  0.82310000  0.90790000  1.0 0.1128021719
H  H29  1  0.26530000  0.75820000  0.93450000  1.0 0.1188440655
H  H30  1  0.23060000  0.78890000  0.08650000  1.0 0.1188440655
H  H31  1  0.36810000  0.44280000  0.59570000  1.0 0.1188440655
H  H32  1  0.30530000  0.42920000  0.66110000  1.0 0.1128021719
H  H33  1  0.30210000  0.32770000  0.50830000  1.0 0.1418242249
H  H34  1  0.20710000  0.30170000  0.50200000  1.0 0.1128021719
H  H35  1  0.17510000  0.26120000  0.53630000  1.0 0.1188440655
H  H36  1  0.32870000  0.14630000  0.55990000  1.0 0.1128021719
H  H37  1  0.34100000  0.12920000  0.47060000  1.0 0.1128021719
H  H38  1  0.29400000  0.17690000  0.40790000  1.0 0.1128021719
H  H39  1  0.23470000  0.24180000  0.43450000  1.0 0.1188440655
H  H40  1  0.26940000  0.21110000  0.58650000  1.0 0.1188440655
H  H41  1  0.40430000  0.86810000  0.05720000  1.0 0.1188440655
H  H42  1  0.33890000  0.80530000  0.07080000  1.0 0.1128021719
H  H43  1  0.49170000  0.80210000  0.17230000  1.0 0.1418242249
H  H44  1  0.49800000  0.70710000  0.19830000  1.0 0.1128021719
H  H45  1  0.46370000  0.67510000  0.23880000  1.0 0.1188440655
H  H46  1  0.44010000  0.82870000  0.35370000  1.0 0.1128021719
H  H47  1  0.52940000  0.84100000  0.37080000  1.0 0.1128021719
H  H48  1  0.59210000  0.79400000  0.32310000  1.0 0.1128021719
H  H49  1  0.56550000  0.73470000  0.25820000  1.0 0.1188440655
H  H50  1  0.41350000  0.76940000  0.28890000  1.0 0.1188440655
H  H51  1  0.90430000  0.63190000  0.94280000  1.0 0.1188440655
H  H52  1  0.83890000  0.69470000  0.92920000  1.0 0.1128021719
H  H53  1  0.99170000  0.69790000  0.82770000  1.0 0.1418242249
H  H54  1  0.99800000  0.79290000  0.80170000  1.0 0.1128021719
H  H55  1  0.96370000  0.82490000  0.76120000  1.0 0.1188440655
H  H56  1  0.94010000  0.67130000  0.64630000  1.0 0.1128021719
H  H57  1  0.02940000  0.65900000  0.62920000  1.0 0.1128021719
H  H58  1  0.09210000  0.70600000  0.67690000  1.0 0.1128021719
H  H59  1  0.06550000  0.76530000  0.74180000  1.0 0.1188440655
H  H60  1  0.91350000  0.73060000  0.71110000  1.0 0.1188440655
H  H61  1  0.09570000  0.13190000  0.55720000  1.0 0.1188440655
H  H62  1  0.16110000  0.19470000  0.57080000  1.0 0.1128021719
H  H63  1  0.00830000  0.19790000  0.67230000  1.0 0.1418242249
H  H64  1  0.00200000  0.29290000  0.69830000  1.0 0.1128021719
H  H65  1  0.03630000  0.32490000  0.73880000  1.0 0.1188440655
H  H66  1  0.05990000  0.17130000  0.85370000  1.0 0.1128021719
H  H67  1  0.97060000  0.15900000  0.87080000  1.0 0.1128021719
H  H68  1  0.90790000  0.20600000  0.82310000  1.0 0.1128021719
H  H69  1  0.93450000  0.26530000  0.75820000  1.0 0.1188440655
H  H70  1  0.08650000  0.23060000  0.78890000  1.0 0.1188440655
H  H71  1  0.59570000  0.36810000  0.44280000  1.0 0.1188440655
H  H72  1  0.66110000  0.30530000  0.42920000  1.0 0.1128021719
H  H73  1  0.50830000  0.30210000  0.32770000  1.0 0.1418242249
H  H74  1  0.50200000  0.20710000  0.30170000  1.0 0.1128021719
H  H75  1  0.53630000  0.17510000  0.26120000  1.0 0.1188440655
H  H76  1  0.55990000  0.32870000  0.14630000  1.0 0.1128021719
H  H77  1  0.47060000  0.34100000  0.12920000  1.0 0.1128021719
H  H78  1  0.40790000  0.29400000  0.17690000  1.0 0.1128021719
H  H79  1  0.43450000  0.23470000  0.24180000  1.0 0.1188440655
H  H80  1  0.58650000  0.26940000  0.21110000  1.0 0.1188440655
H  H81  1  0.05720000  0.40430000  0.86810000  1.0 0.1188440655
H  H82  1  0.07080000  0.33890000  0.80530000  1.0 0.1128021719
H  H83  1  0.17230000  0.49170000  0.80210000  1.0 0.1418242249
H  H84  1  0.19830000  0.49800000  0.70710000  1.0 0.1128021719
H  H85  1  0.23880000  0.46370000  0.67510000  1.0 0.1188440655
H  H86  1  0.35370000  0.44010000  0.82870000  1.0 0.1128021719
H  H87  1  0.37080000  0.52940000  0.84100000  1.0 0.1128021719
H  H88  1  0.32310000  0.59210000  0.79400000  1.0 0.1128021719
H  H89  1  0.25820000  0.56550000  0.73470000  1.0 0.1188440655
H  H90  1  0.28890000  0.41350000  0.76940000  1.0 0.1188440655
H  H91  1  0.94280000  0.90430000  0.63190000  1.0 0.1188440655
H  H92  1  0.92920000  0.83890000  0.69470000  1.0 0.1128021719
H  H93  1  0.82770000  0.99170000  0.69790000  1.0 0.1418242249
H  H94  1  0.80170000  0.99800000  0.79290000  1.0 0.1128021719
H  H95  1  0.76120000  0.96370000  0.82490000  1.0 0.1188440655
H  H96  1  0.64630000  0.94010000  0.67130000  1.0 0.1128021719
H  H97  1  0.62920000  0.02940000  0.65900000  1.0 0.1128021719
H  H98  1  0.67690000  0.09210000  0.70600000  1.0 0.1128021719
H  H99  1  0.74180000  0.06550000  0.76530000  1.0 0.1188440655
H  H100  1  0.71110000  0.91350000  0.73060000  1.0 0.1188440655
H  H101  1  0.55720000  0.09570000  0.13190000  1.0 0.1188440655
H  H102  1  0.57080000  0.16110000  0.19470000  1.0 0.1128021719
H  H103  1  0.67230000  0.00830000  0.19790000  1.0 0.1418242249
H  H104  1  0.69830000  0.00200000  0.29290000  1.0 0.1128021719
H  H105  1  0.73880000  0.03630000  0.32490000  1.0 0.1188440655
H  H106  1  0.85370000  0.05990000  0.17130000  1.0 0.1128021719
H  H107  1  0.87080000  0.97060000  0.15900000  1.0 0.1128021719
H  H108  1  0.82310000  0.90790000  0.20600000  1.0 0.1128021719
H  H109  1  0.75820000  0.93450000  0.26530000  1.0 0.1188440655
H  H110  1  0.78890000  0.08650000  0.23060000  1.0 0.1188440655
H  H111  1  0.44280000  0.59570000  0.36810000  1.0 0.1188440655
H  H112  1  0.42920000  0.66110000  0.30530000  1.0 0.1128021719
H  H113  1  0.32770000  0.50830000  0.30210000  1.0 0.1418242249
H  H114  1  0.30170000  0.50200000  0.20710000  1.0 0.1128021719
H  H115  1  0.26120000  0.53630000  0.17510000  1.0 0.1188440655
H  H116  1  0.14630000  0.55990000  0.32870000  1.0 0.1128021719
H  H117  1  0.12920000  0.47060000  0.34100000  1.0 0.1128021719
H  H118  1  0.17690000  0.40790000  0.29400000  1.0 0.1128021719
H  H119  1  0.24180000  0.43450000  0.23470000  1.0 0.1188440655
H  H120  1  0.21110000  0.58650000  0.26940000  1.0 0.1188440655
H  H121  1  0.80720000  0.11810000  0.84570000  1.0 0.1188440655
H  H122  1  0.82080000  0.05530000  0.91110000  1.0 0.1128021719
H  H123  1  0.92230000  0.05210000  0.75830000  1.0 0.1418242249
H  H124  1  0.94830000  0.95710000  0.75200000  1.0 0.1128021719
H  H125  1  0.98880000  0.92510000  0.78630000  1.0 0.1188440655
H  H126  1  0.10370000  0.07870000  0.80990000  1.0 0.1128021719
H  H127  1  0.12080000  0.09100000  0.72060000  1.0 0.1128021719
H  H128  1  0.07310000  0.04400000  0.65790000  1.0 0.1128021719
H  H129  1  0.00820000  0.98470000  0.68450000  1.0 0.1188440655
H  H130  1  0.03890000  0.01940000  0.83650000  1.0 0.1188440655
H  H131  1  0.69280000  0.88190000  0.34570000  1.0 0.1188440655
H  H132  1  0.67920000  0.94470000  0.41110000  1.0 0.1128021719
H  H133  1  0.57770000  0.94790000  0.25830000  1.0 0.1418242249
H  H134  1  0.55170000  0.04290000  0.25200000  1.0 0.1128021719
H  H135  1  0.51120000  0.07490000  0.28630000  1.0 0.1188440655
H  H136  1  0.39630000  0.92130000  0.30990000  1.0 0.1128021719
H  H137  1  0.37920000  0.90900000  0.22060000  1.0 0.1128021719
H  H138  1  0.42690000  0.95600000  0.15790000  1.0 0.1128021719
H  H139  1  0.49180000  0.01530000  0.18450000  1.0 0.1188440655
H  H140  1  0.46110000  0.98060000  0.33650000  1.0 0.1188440655
H  H141  1  0.30720000  0.38190000  0.15430000  1.0 0.1188440655
H  H142  1  0.32080000  0.44470000  0.08890000  1.0 0.1128021719
H  H143  1  0.42230000  0.44790000  0.24170000  1.0 0.1418242249
H  H144  1  0.44830000  0.54290000  0.24800000  1.0 0.1128021719
H  H145  1  0.48880000  0.57490000  0.21370000  1.0 0.1188440655
H  H146  1  0.60370000  0.42130000  0.19010000  1.0 0.1128021719
H  H147  1  0.62080000  0.40900000  0.27940000  1.0 0.1128021719
H  H148  1  0.57310000  0.45600000  0.34210000  1.0 0.1128021719
H  H149  1  0.50820000  0.51530000  0.31550000  1.0 0.1188440655
H  H150  1  0.53890000  0.48060000  0.16350000  1.0 0.1188440655
H  H151  1  0.19280000  0.61810000  0.65430000  1.0 0.1188440655
H  H152  1  0.17920000  0.55530000  0.58890000  1.0 0.1128021719
H  H153  1  0.07770000  0.55210000  0.74170000  1.0 0.1418242249
H  H154  1  0.05170000  0.45710000  0.74800000  1.0 0.1128021719
H  H155  1  0.01120000  0.42510000  0.71370000  1.0 0.1188440655
H  H156  1  0.89630000  0.57870000  0.69010000  1.0 0.1128021719
H  H157  1  0.87920000  0.59100000  0.77940000  1.0 0.1128021719
H  H158  1  0.92690000  0.54400000  0.84210000  1.0 0.1128021719
H  H159  1  0.99180000  0.48470000  0.81550000  1.0 0.1188440655
H  H160  1  0.96110000  0.51940000  0.66350000  1.0 0.1188440655
H  H161  1  0.61810000  0.65430000  0.19280000  1.0 0.1188440655
H  H162  1  0.55530000  0.58890000  0.17920000  1.0 0.1128021719
H  H163  1  0.55210000  0.74170000  0.07770000  1.0 0.1418242249
H  H164  1  0.45710000  0.74800000  0.05170000  1.0 0.1128021719
H  H165  1  0.42510000  0.71370000  0.01120000  1.0 0.1188440655
H  H166  1  0.57870000  0.69010000  0.89630000  1.0 0.1128021719
H  H167  1  0.59100000  0.77940000  0.87920000  1.0 0.1128021719
H  H168  1  0.54400000  0.84210000  0.92690000  1.0 0.1128021719
H  H169  1  0.48470000  0.81550000  0.99180000  1.0 0.1188440655
H  H170  1  0.51940000  0.66350000  0.96110000  1.0 0.1188440655
H  H171  1  0.38190000  0.15430000  0.30720000  1.0 0.1188440655
H  H172  1  0.44470000  0.08890000  0.32080000  1.0 0.1128021719
H  H173  1  0.44790000  0.24170000  0.42230000  1.0 0.1418242249
H  H174  1  0.54290000  0.24800000  0.44830000  1.0 0.1128021719
H  H175  1  0.57490000  0.21370000  0.48880000  1.0 0.1188440655
H  H176  1  0.42130000  0.19010000  0.60370000  1.0 0.1128021719
H  H177  1  0.40900000  0.27940000  0.62080000  1.0 0.1128021719
H  H178  1  0.45600000  0.34210000  0.57310000  1.0 0.1128021719
H  H179  1  0.51530000  0.31550000  0.50820000  1.0 0.1188440655
H  H180  1  0.48060000  0.16350000  0.53890000  1.0 0.1188440655
H  H181  1  0.88190000  0.34570000  0.69280000  1.0 0.1188440655
H  H182  1  0.94470000  0.41110000  0.67920000  1.0 0.1128021719
H  H183  1  0.94790000  0.25830000  0.57770000  1.0 0.1418242249
H  H184  1  0.04290000  0.25200000  0.55170000  1.0 0.1128021719
H  H185  1  0.07490000  0.28630000  0.51120000  1.0 0.1188440655
H  H186  1  0.92130000  0.30990000  0.39630000  1.0 0.1128021719
H  H187  1  0.90900000  0.22060000  0.37920000  1.0 0.1128021719
H  H188  1  0.95600000  0.15790000  0.42690000  1.0 0.1128021719
H  H189  1  0.01530000  0.18450000  0.49180000  1.0 0.1188440655
H  H190  1  0.98060000  0.33650000  0.46110000  1.0 0.1188440655
H  H191  1  0.11810000  0.84570000  0.80720000  1.0 0.1188440655
H  H192  1  0.05530000  0.91110000  0.82080000  1.0 0.1128021719
H  H193  1  0.05210000  0.75830000  0.92230000  1.0 0.1418242249
H  H194  1  0.95710000  0.75200000  0.94830000  1.0 0.1128021719
H  H195  1  0.92510000  0.78630000  0.98880000  1.0 0.1188440655
H  H196  1  0.07870000  0.80990000  0.10370000  1.0 0.1128021719
H  H197  1  0.09100000  0.72060000  0.12080000  1.0 0.1128021719
H  H198  1  0.04400000  0.65790000  0.07310000  1.0 0.1128021719
H  H199  1  0.98470000  0.68450000  0.00820000  1.0 0.1188440655
H  H200  1  0.01940000  0.83650000  0.03890000  1.0 0.1188440655
H  H201  1  0.15430000  0.30720000  0.38190000  1.0 0.1188440655
H  H202  1  0.08890000  0.32080000  0.44470000  1.0 0.1128021719
H  H203  1  0.24170000  0.42230000  0.44790000  1.0 0.1418242249
H  H204  1  0.24800000  0.44830000  0.54290000  1.0 0.1128021719
H  H205  1  0.21370000  0.48880000  0.57490000  1.0 0.1188440655
H  H206  1  0.19010000  0.60370000  0.42130000  1.0 0.1128021719
H  H207  1  0.27940000  0.62080000  0.40900000  1.0 0.1128021719
H  H208  1  0.34210000  0.57310000  0.45600000  1.0 0.1128021719
H  H209  1  0.31550000  0.50820000  0.51530000  1.0 0.1188440655
H  H210  1  0.16350000  0.53890000  0.48060000  1.0 0.1188440655
H  H211  1  0.65430000  0.19280000  0.61810000  1.0 0.1188440655
H  H212  1  0.58890000  0.17920000  0.55530000  1.0 0.1128021719
H  H213  1  0.74170000  0.07770000  0.55210000  1.0 0.1418242249
H  H214  1  0.74800000  0.05170000  0.45710000  1.0 0.1128021719
H  H215  1  0.71370000  0.01120000  0.42510000  1.0 0.1188440655
H  H216  1  0.69010000  0.89630000  0.57870000  1.0 0.1128021719
H  H217  1  0.77940000  0.87920000  0.59100000  1.0 0.1128021719
H  H218  1  0.84210000  0.92690000  0.54400000  1.0 0.1128021719
H  H219  1  0.81550000  0.99180000  0.48470000  1.0 0.1188440655
H  H220  1  0.66350000  0.96110000  0.51940000  1.0 0.1188440655
H  H221  1  0.84570000  0.80720000  0.11810000  1.0 0.1188440655
H  H222  1  0.91110000  0.82080000  0.05530000  1.0 0.1128021719
H  H223  1  0.75830000  0.92230000  0.05210000  1.0 0.1418242249
H  H224  1  0.75200000  0.94830000  0.95710000  1.0 0.1128021719
H  H225  1  0.78630000  0.98880000  0.92510000  1.0 0.1188440655
H  H226  1  0.80990000  0.10370000  0.07870000  1.0 0.1128021719
H  H227  1  0.72060000  0.12080000  0.09100000  1.0 0.1128021719
H  H228  1  0.65790000  0.07310000  0.04400000  1.0 0.1128021719
H  H229  1  0.68450000  0.00820000  0.98470000  1.0 0.1188440655
H  H230  1  0.83650000  0.03890000  0.01940000  1.0 0.1188440655
H  H231  1  0.34570000  0.69280000  0.88190000  1.0 0.1188440655
H  H232  1  0.41110000  0.67920000  0.94470000  1.0 0.1128021719
H  H233  1  0.25830000  0.57770000  0.94790000  1.0 0.1418242249
H  H234  1  0.25200000  0.55170000  0.04290000  1.0 0.1128021719
H  H235  1  0.28630000  0.51120000  0.07490000  1.0 0.1188440655
H  H236  1  0.30990000  0.39630000  0.92130000  1.0 0.1128021719
H  H237  1  0.22060000  0.37920000  0.90900000  1.0 0.1128021719
H  H238  1  0.15790000  0.42690000  0.95600000  1.0 0.1128021719
H  H239  1  0.18450000  0.49180000  0.01530000  1.0 0.1188440655
H  H240  1  0.33650000  0.46110000  0.98060000  1.0 0.1188440655
C  C1  1  0.69890000  0.18660000  0.37400000  1.0 0.0701288145
C  C2  1  0.65440000  0.21790000  0.35830000  1.0 -0.0825673337
C  C3  1  0.87990000  0.09910000  0.49870000  1.0 0.569755975
C  C4  1  0.84140000  0.11340000  0.45450000  1.0 -0.0187099509
C  C5  1  0.84230000  0.08300000  0.40870000  1.0 -0.1405110026
C  C6  1  0.80460000  0.09110000  0.36950000  1.0 -0.1507150261
C  C7  1  0.76600000  0.12970000  0.37610000  1.0 -0.0332521449
C  C8  1  0.76500000  0.16010000  0.42190000  1.0 0.1418242249
C  C9  1  0.80270000  0.15200000  0.46110000  1.0 -0.1970423226
C  C10  1  0.71000000  0.22410000  0.46980000  1.0 -0.1736199323
C  C11  1  0.80990000  0.33460000  0.46520000  1.0 -0.1006073857
C  C12  1  0.81720000  0.34480000  0.51870000  1.0 -0.1142860038
C  C13  1  0.78910000  0.31620000  0.55630000  1.0 -0.0825673337
C  C14  1  0.75360000  0.27740000  0.54040000  1.0 -0.1507150261
C  C15  1  0.74620000  0.26710000  0.48690000  1.0 0.0983870041
C  C16  1  0.77440000  0.29580000  0.44930000  1.0 -0.1507150261
C  C17  1  0.80110000  0.81340000  0.87400000  1.0 0.0701288145
C  C18  1  0.84560000  0.78210000  0.85830000  1.0 -0.0825673337
C  C19  1  0.62010000  0.90090000  0.99870000  1.0 0.569755975
C  C20  1  0.65860000  0.88660000  0.95450000  1.0 -0.0187099509
C  C21  1  0.65770000  0.91700000  0.90870000  1.0 -0.1405110026
C  C22  1  0.69540000  0.90890000  0.86950000  1.0 -0.1507150261
C  C23  1  0.73400000  0.87030000  0.87610000  1.0 -0.0332521449
C  C24  1  0.73500000  0.83990000  0.92190000  1.0 0.1418242249
C  C25  1  0.69730000  0.84800000  0.96110000  1.0 -0.1970423226
C  C26  1  0.79000000  0.77590000  0.96980000  1.0 -0.1736199323
C  C27  1  0.69010000  0.66540000  0.96520000  1.0 -0.1006073857
C  C28  1  0.68280000  0.65520000  0.01870000  1.0 -0.1142860038
C  C29  1  0.71090000  0.68380000  0.05630000  1.0 -0.0825673337
C  C30  1  0.74640000  0.72260000  0.04040000  1.0 -0.1507150261
C  C31  1  0.75380000  0.73290000  0.98690000  1.0 0.0983870041
C  C32  1  0.72560000  0.70420000  0.94930000  1.0 -0.1507150261
C  C33  1  0.30110000  0.68660000  0.12600000  1.0 0.0701288145
C  C34  1  0.34560000  0.71790000  0.14170000  1.0 -0.0825673337
C  C35  1  0.12010000  0.59910000  0.00130000  1.0 0.569755975
C  C36  1  0.15860000  0.61340000  0.04550000  1.0 -0.0187099509
C  C37  1  0.15770000  0.58300000  0.09130000  1.0 -0.1405110026
C  C38  1  0.19540000  0.59110000  0.13050000  1.0 -0.1507150261
C  C39  1  0.23400000  0.62970000  0.12390000  1.0 -0.0332521449
C  C40  1  0.23500000  0.66010000  0.07810000  1.0 0.1418242249
C  C41  1  0.19730000  0.65200000  0.03890000  1.0 -0.1970423226
C  C42  1  0.29000000  0.72410000  0.03020000  1.0 -0.1736199323
C  C43  1  0.19010000  0.83460000  0.03480000  1.0 -0.1006073857
C  C44  1  0.18280000  0.84480000  0.98130000  1.0 -0.1142860038
C  C45  1  0.21090000  0.81620000  0.94370000  1.0 -0.0825673337
C  C46  1  0.24640000  0.77740000  0.95960000  1.0 -0.1507150261
C  C47  1  0.25380000  0.76710000  0.01310000  1.0 0.0983870041
C  C48  1  0.22560000  0.79580000  0.05070000  1.0 -0.1507150261
C  C49  1  0.19890000  0.31340000  0.62600000  1.0 0.0701288145
C  C50  1  0.15440000  0.28210000  0.64170000  1.0 -0.0825673337
C  C51  1  0.37990000  0.40090000  0.50130000  1.0 0.569755975
C  C52  1  0.34140000  0.38660000  0.54550000  1.0 -0.0187099509
C  C53  1  0.34230000  0.41700000  0.59130000  1.0 -0.1405110026
C  C54  1  0.30460000  0.40890000  0.63050000  1.0 -0.1507150261
C  C55  1  0.26600000  0.37030000  0.62390000  1.0 -0.0332521449
C  C56  1  0.26500000  0.33990000  0.57810000  1.0 0.1418242249
C  C57  1  0.30270000  0.34800000  0.53890000  1.0 -0.1970423226
C  C58  1  0.21000000  0.27590000  0.53020000  1.0 -0.1736199323
C  C59  1  0.30990000  0.16540000  0.53480000  1.0 -0.1006073857
C  C60  1  0.31720000  0.15520000  0.48130000  1.0 -0.1142860038
C  C61  1  0.28910000  0.18380000  0.44370000  1.0 -0.0825673337
C  C62  1  0.25360000  0.22260000  0.45960000  1.0 -0.1507150261
C  C63  1  0.24620000  0.23290000  0.51310000  1.0 0.0983870041
C  C64  1  0.27440000  0.20420000  0.55070000  1.0 -0.1507150261
C  C65  1  0.37400000  0.69890000  0.18660000  1.0 0.0701288145
C  C66  1  0.35830000  0.65440000  0.21790000  1.0 -0.0825673337
C  C67  1  0.49870000  0.87990000  0.09910000  1.0 0.569755975
C  C68  1  0.45450000  0.84140000  0.11340000  1.0 -0.0187099509
C  C69  1  0.40870000  0.84230000  0.08300000  1.0 -0.1405110026
C  C70  1  0.36950000  0.80460000  0.09110000  1.0 -0.1507150261
C  C71  1  0.37610000  0.76600000  0.12970000  1.0 -0.0332521449
C  C72  1  0.42190000  0.76500000  0.16010000  1.0 0.1418242249
C  C73  1  0.46110000  0.80270000  0.15200000  1.0 -0.1970423226
C  C74  1  0.46980000  0.71000000  0.22410000  1.0 -0.1736199323
C  C75  1  0.46520000  0.80990000  0.33460000  1.0 -0.1006073857
C  C76  1  0.51870000  0.81720000  0.34480000  1.0 -0.1142860038
C  C77  1  0.55630000  0.78910000  0.31620000  1.0 -0.0825673337
C  C78  1  0.54040000  0.75360000  0.27740000  1.0 -0.1507150261
C  C79  1  0.48690000  0.74620000  0.26710000  1.0 0.0983870041
C  C80  1  0.44930000  0.77440000  0.29580000  1.0 -0.1507150261
C  C81  1  0.87400000  0.80110000  0.81340000  1.0 0.0701288145
C  C82  1  0.85830000  0.84560000  0.78210000  1.0 -0.0825673337
C  C83  1  0.99870000  0.62010000  0.90090000  1.0 0.569755975
C  C84  1  0.95450000  0.65860000  0.88660000  1.0 -0.0187099509
C  C85  1  0.90870000  0.65770000  0.91700000  1.0 -0.1405110026
C  C86  1  0.86950000  0.69540000  0.90890000  1.0 -0.1507150261
C  C87  1  0.87610000  0.73400000  0.87030000  1.0 -0.0332521449
C  C88  1  0.92190000  0.73500000  0.83990000  1.0 0.1418242249
C  C89  1  0.96110000  0.69730000  0.84800000  1.0 -0.1970423226
C  C90  1  0.96980000  0.79000000  0.77590000  1.0 -0.1736199323
C  C91  1  0.96520000  0.69010000  0.66540000  1.0 -0.1006073857
C  C92  1  0.01870000  0.68280000  0.65520000  1.0 -0.1142860038
C  C93  1  0.05630000  0.71090000  0.68380000  1.0 -0.0825673337
C  C94  1  0.04040000  0.74640000  0.72260000  1.0 -0.1507150261
C  C95  1  0.98690000  0.75380000  0.73290000  1.0 0.0983870041
C  C96  1  0.94930000  0.72560000  0.70420000  1.0 -0.1507150261
C  C97  1  0.12600000  0.30110000  0.68660000  1.0 0.0701288145
C  C98  1  0.14170000  0.34560000  0.71790000  1.0 -0.0825673337
C  C99  1  0.00130000  0.12010000  0.59910000  1.0 0.569755975
C  C100  1  0.04550000  0.15860000  0.61340000  1.0 -0.0187099509
C  C101  1  0.09130000  0.15770000  0.58300000  1.0 -0.1405110026
C  C102  1  0.13050000  0.19540000  0.59110000  1.0 -0.1507150261
C  C103  1  0.12390000  0.23400000  0.62970000  1.0 -0.0332521449
C  C104  1  0.07810000  0.23500000  0.66010000  1.0 0.1418242249
C  C105  1  0.03890000  0.19730000  0.65200000  1.0 -0.1970423226
C  C106  1  0.03020000  0.29000000  0.72410000  1.0 -0.1736199323
C  C107  1  0.03480000  0.19010000  0.83460000  1.0 -0.1006073857
C  C108  1  0.98130000  0.18280000  0.84480000  1.0 -0.1142860038
C  C109  1  0.94370000  0.21090000  0.81620000  1.0 -0.0825673337
C  C110  1  0.95960000  0.24640000  0.77740000  1.0 -0.1507150261
C  C111  1  0.01310000  0.25380000  0.76710000  1.0 0.0983870041
C  C112  1  0.05070000  0.22560000  0.79580000  1.0 -0.1507150261
C  C113  1  0.62600000  0.19890000  0.31340000  1.0 0.0701288145
C  C114  1  0.64170000  0.15440000  0.28210000  1.0 -0.0825673337
C  C115  1  0.50130000  0.37990000  0.40090000  1.0 0.569755975
C  C116  1  0.54550000  0.34140000  0.38660000  1.0 -0.0187099509
C  C117  1  0.59130000  0.34230000  0.41700000  1.0 -0.1405110026
C  C118  1  0.63050000  0.30460000  0.40890000  1.0 -0.1507150261
C  C119  1  0.62390000  0.26600000  0.37030000  1.0 -0.0332521449
C  C120  1  0.57810000  0.26500000  0.33990000  1.0 0.1418242249
C  C121  1  0.53890000  0.30270000  0.34800000  1.0 -0.1970423226
C  C122  1  0.53020000  0.21000000  0.27590000  1.0 -0.1736199323
C  C123  1  0.53480000  0.30990000  0.16540000  1.0 -0.1006073857
C  C124  1  0.48130000  0.31720000  0.15520000  1.0 -0.1142860038
C  C125  1  0.44370000  0.28910000  0.18380000  1.0 -0.0825673337
C  C126  1  0.45960000  0.25360000  0.22260000  1.0 -0.1507150261
C  C127  1  0.51310000  0.24620000  0.23290000  1.0 0.0983870041
C  C128  1  0.55070000  0.27440000  0.20420000  1.0 -0.1507150261
C  C129  1  0.18660000  0.37400000  0.69890000  1.0 0.0701288145
C  C130  1  0.21790000  0.35830000  0.65440000  1.0 -0.0825673337
C  C131  1  0.09910000  0.49870000  0.87990000  1.0 0.569755975
C  C132  1  0.11340000  0.45450000  0.84140000  1.0 -0.0187099509
C  C133  1  0.08300000  0.40870000  0.84230000  1.0 -0.1405110026
C  C134  1  0.09110000  0.36950000  0.80460000  1.0 -0.1507150261
C  C135  1  0.12970000  0.37610000  0.76600000  1.0 -0.0332521449
C  C136  1  0.16010000  0.42190000  0.76500000  1.0 0.1418242249
C  C137  1  0.15200000  0.46110000  0.80270000  1.0 -0.1970423226
C  C138  1  0.22410000  0.46980000  0.71000000  1.0 -0.1736199323
C  C139  1  0.33460000  0.46520000  0.80990000  1.0 -0.1006073857
C  C140  1  0.34480000  0.51870000  0.81720000  1.0 -0.1142860038
C  C141  1  0.31620000  0.55630000  0.78910000  1.0 -0.0825673337
C  C142  1  0.27740000  0.54040000  0.75360000  1.0 -0.1507150261
C  C143  1  0.26710000  0.48690000  0.74620000  1.0 0.0983870041
C  C144  1  0.29580000  0.44930000  0.77440000  1.0 -0.1507150261
C  C145  1  0.81340000  0.87400000  0.80110000  1.0 0.0701288145
C  C146  1  0.78210000  0.85830000  0.84560000  1.0 -0.0825673337
C  C147  1  0.90090000  0.99870000  0.62010000  1.0 0.569755975
C  C148  1  0.88660000  0.95450000  0.65860000  1.0 -0.0187099509
C  C149  1  0.91700000  0.90870000  0.65770000  1.0 -0.1405110026
C  C150  1  0.90890000  0.86950000  0.69540000  1.0 -0.1507150261
C  C151  1  0.87030000  0.87610000  0.73400000  1.0 -0.0332521449
C  C152  1  0.83990000  0.92190000  0.73500000  1.0 0.1418242249
C  C153  1  0.84800000  0.96110000  0.69730000  1.0 -0.1970423226
C  C154  1  0.77590000  0.96980000  0.79000000  1.0 -0.1736199323
C  C155  1  0.66540000  0.96520000  0.69010000  1.0 -0.1006073857
C  C156  1  0.65520000  0.01870000  0.68280000  1.0 -0.1142860038
C  C157  1  0.68380000  0.05630000  0.71090000  1.0 -0.0825673337
C  C158  1  0.72260000  0.04040000  0.74640000  1.0 -0.1507150261
C  C159  1  0.73290000  0.98690000  0.75380000  1.0 0.0983870041
C  C160  1  0.70420000  0.94930000  0.72560000  1.0 -0.1507150261
C  C161  1  0.68660000  0.12600000  0.30110000  1.0 0.0701288145
C  C162  1  0.71790000  0.14170000  0.34560000  1.0 -0.0825673337
C  C163  1  0.59910000  0.00130000  0.12010000  1.0 0.569755975
C  C164  1  0.61340000  0.04550000  0.15860000  1.0 -0.0187099509
C  C165  1  0.58300000  0.09130000  0.15770000  1.0 -0.1405110026
C  C166  1  0.59110000  0.13050000  0.19540000  1.0 -0.1507150261
C  C167  1  0.62970000  0.12390000  0.23400000  1.0 -0.0332521449
C  C168  1  0.66010000  0.07810000  0.23500000  1.0 0.1418242249
C  C169  1  0.65200000  0.03890000  0.19730000  1.0 -0.1970423226
C  C170  1  0.72410000  0.03020000  0.29000000  1.0 -0.1736199323
C  C171  1  0.83460000  0.03480000  0.19010000  1.0 -0.1006073857
C  C172  1  0.84480000  0.98130000  0.18280000  1.0 -0.1142860038
C  C173  1  0.81620000  0.94370000  0.21090000  1.0 -0.0825673337
C  C174  1  0.77740000  0.95960000  0.24640000  1.0 -0.1507150261
C  C175  1  0.76710000  0.01310000  0.25380000  1.0 0.0983870041
C  C176  1  0.79580000  0.05070000  0.22560000  1.0 -0.1507150261
C  C177  1  0.31340000  0.62600000  0.19890000  1.0 0.0701288145
C  C178  1  0.28210000  0.64170000  0.15440000  1.0 -0.0825673337
C  C179  1  0.40090000  0.50130000  0.37990000  1.0 0.569755975
C  C180  1  0.38660000  0.54550000  0.34140000  1.0 -0.0187099509
C  C181  1  0.41700000  0.59130000  0.34230000  1.0 -0.1405110026
C  C182  1  0.40890000  0.63050000  0.30460000  1.0 -0.1507150261
C  C183  1  0.37030000  0.62390000  0.26600000  1.0 -0.0332521449
C  C184  1  0.33990000  0.57810000  0.26500000  1.0 0.1418242249
C  C185  1  0.34800000  0.53890000  0.30270000  1.0 -0.1970423226
C  C186  1  0.27590000  0.53020000  0.21000000  1.0 -0.1736199323
C  C187  1  0.16540000  0.53480000  0.30990000  1.0 -0.1006073857
C  C188  1  0.15520000  0.48130000  0.31720000  1.0 -0.1142860038
C  C189  1  0.18380000  0.44370000  0.28910000  1.0 -0.0825673337
C  C190  1  0.22260000  0.45960000  0.25360000  1.0 -0.1507150261
C  C191  1  0.23290000  0.51310000  0.24620000  1.0 0.0983870041
C  C192  1  0.20420000  0.55070000  0.27440000  1.0 -0.1507150261
C  C193  1  0.93660000  0.94890000  0.87600000  1.0 0.0701288145
C  C194  1  0.96790000  0.90440000  0.89170000  1.0 -0.0825673337
C  C195  1  0.84910000  0.12990000  0.75130000  1.0 0.569755975
C  C196  1  0.86340000  0.09140000  0.79550000  1.0 -0.0187099509
C  C197  1  0.83300000  0.09230000  0.84130000  1.0 -0.1405110026
C  C198  1  0.84110000  0.05460000  0.88050000  1.0 -0.1507150261
C  C199  1  0.87970000  0.01600000  0.87390000  1.0 -0.0332521449
C  C200  1  0.91010000  0.01500000  0.82810000  1.0 0.1418242249
C  C201  1  0.90200000  0.05270000  0.78890000  1.0 -0.1970423226
C  C202  1  0.97410000  0.96000000  0.78020000  1.0 -0.1736199323
C  C203  1  0.08460000  0.05990000  0.78480000  1.0 -0.1006073857
C  C204  1  0.09480000  0.06720000  0.73130000  1.0 -0.1142860038
C  C205  1  0.06620000  0.03910000  0.69370000  1.0 -0.0825673337
C  C206  1  0.02740000  0.00360000  0.70960000  1.0 -0.1507150261
C  C207  1  0.01710000  0.99620000  0.76310000  1.0 0.0983870041
C  C208  1  0.04580000  0.02440000  0.80070000  1.0 -0.1507150261
C  C209  1  0.56340000  0.05110000  0.37600000  1.0 0.0701288145
C  C210  1  0.53210000  0.09560000  0.39170000  1.0 -0.0825673337
C  C211  1  0.65090000  0.87010000  0.25130000  1.0 0.569755975
C  C212  1  0.63660000  0.90860000  0.29550000  1.0 -0.0187099509
C  C213  1  0.66700000  0.90770000  0.34130000  1.0 -0.1405110026
C  C214  1  0.65890000  0.94540000  0.38050000  1.0 -0.1507150261
C  C215  1  0.62030000  0.98400000  0.37390000  1.0 -0.0332521449
C  C216  1  0.58990000  0.98500000  0.32810000  1.0 0.1418242249
C  C217  1  0.59800000  0.94730000  0.28890000  1.0 -0.1970423226
C  C218  1  0.52590000  0.04000000  0.28020000  1.0 -0.1736199323
C  C219  1  0.41540000  0.94010000  0.28480000  1.0 -0.1006073857
C  C220  1  0.40520000  0.93280000  0.23130000  1.0 -0.1142860038
C  C221  1  0.43380000  0.96090000  0.19370000  1.0 -0.0825673337
C  C222  1  0.47260000  0.99640000  0.20960000  1.0 -0.1507150261
C  C223  1  0.48290000  0.00380000  0.26310000  1.0 0.0983870041
C  C224  1  0.45420000  0.97560000  0.30070000  1.0 -0.1507150261
C  C225  1  0.43660000  0.55110000  0.12400000  1.0 0.0701288145
C  C226  1  0.46790000  0.59560000  0.10830000  1.0 -0.0825673337
C  C227  1  0.34910000  0.37010000  0.24870000  1.0 0.569755975
C  C228  1  0.36340000  0.40860000  0.20450000  1.0 -0.0187099509
C  C229  1  0.33300000  0.40770000  0.15870000  1.0 -0.1405110026
C  C230  1  0.34110000  0.44540000  0.11950000  1.0 -0.1507150261
C  C231  1  0.37970000  0.48400000  0.12610000  1.0 -0.0332521449
C  C232  1  0.41010000  0.48500000  0.17190000  1.0 0.1418242249
C  C233  1  0.40200000  0.44730000  0.21110000  1.0 -0.1970423226
C  C234  1  0.47410000  0.54000000  0.21980000  1.0 -0.1736199323
C  C235  1  0.58460000  0.44010000  0.21520000  1.0 -0.1006073857
C  C236  1  0.59480000  0.43280000  0.26870000  1.0 -0.1142860038
C  C237  1  0.56620000  0.46090000  0.30630000  1.0 -0.0825673337
C  C238  1  0.52740000  0.49640000  0.29040000  1.0 -0.1507150261
C  C239  1  0.51710000  0.50380000  0.23690000  1.0 0.0983870041
C  C240  1  0.54580000  0.47560000  0.19930000  1.0 -0.1507150261
C  C241  1  0.06340000  0.44890000  0.62400000  1.0 0.0701288145
C  C242  1  0.03210000  0.40440000  0.60830000  1.0 -0.0825673337
C  C243  1  0.15090000  0.62990000  0.74870000  1.0 0.569755975
C  C244  1  0.13660000  0.59140000  0.70450000  1.0 -0.0187099509
C  C245  1  0.16700000  0.59230000  0.65870000  1.0 -0.1405110026
C  C246  1  0.15890000  0.55460000  0.61950000  1.0 -0.1507150261
C  C247  1  0.12030000  0.51600000  0.62610000  1.0 -0.0332521449
C  C248  1  0.08990000  0.51500000  0.67190000  1.0 0.1418242249
C  C249  1  0.09800000  0.55270000  0.71110000  1.0 -0.1970423226
C  C250  1  0.02590000  0.46000000  0.71980000  1.0 -0.1736199323
C  C251  1  0.91540000  0.55990000  0.71520000  1.0 -0.1006073857
C  C252  1  0.90520000  0.56720000  0.76870000  1.0 -0.1142860038
C  C253  1  0.93380000  0.53910000  0.80630000  1.0 -0.0825673337
C  C254  1  0.97260000  0.50360000  0.79040000  1.0 -0.1507150261
C  C255  1  0.98290000  0.49620000  0.73690000  1.0 0.0983870041
C  C256  1  0.95420000  0.52440000  0.69930000  1.0 -0.1507150261
C  C257  1  0.44890000  0.62400000  0.06340000  1.0 0.0701288145
C  C258  1  0.40440000  0.60830000  0.03210000  1.0 -0.0825673337
C  C259  1  0.62990000  0.74870000  0.15090000  1.0 0.569755975
C  C260  1  0.59140000  0.70450000  0.13660000  1.0 -0.0187099509
C  C261  1  0.59230000  0.65870000  0.16700000  1.0 -0.1405110026
C  C262  1  0.55460000  0.61950000  0.15890000  1.0 -0.1507150261
C  C263  1  0.51600000  0.62610000  0.12030000  1.0 -0.0332521449
C  C264  1  0.51500000  0.67190000  0.08990000  1.0 0.1418242249
C  C265  1  0.55270000  0.71110000  0.09800000  1.0 -0.1970423226
C  C266  1  0.46000000  0.71980000  0.02590000  1.0 -0.1736199323
C  C267  1  0.55990000  0.71520000  0.91540000  1.0 -0.1006073857
C  C268  1  0.56720000  0.76870000  0.90520000  1.0 -0.1142860038
C  C269  1  0.53910000  0.80630000  0.93380000  1.0 -0.0825673337
C  C270  1  0.50360000  0.79040000  0.97260000  1.0 -0.1507150261
C  C271  1  0.49620000  0.73690000  0.98290000  1.0 0.0983870041
C  C272  1  0.52440000  0.69930000  0.95420000  1.0 -0.1507150261
C  C273  1  0.55110000  0.12400000  0.43660000  1.0 0.0701288145
C  C274  1  0.59560000  0.10830000  0.46790000  1.0 -0.0825673337
C  C275  1  0.37010000  0.24870000  0.34910000  1.0 0.569755975
C  C276  1  0.40860000  0.20450000  0.36340000  1.0 -0.0187099509
C  C277  1  0.40770000  0.15870000  0.33300000  1.0 -0.1405110026
C  C278  1  0.44540000  0.11950000  0.34110000  1.0 -0.1507150261
C  C279  1  0.48400000  0.12610000  0.37970000  1.0 -0.0332521449
C  C280  1  0.48500000  0.17190000  0.41010000  1.0 0.1418242249
C  C281  1  0.44730000  0.21110000  0.40200000  1.0 -0.1970423226
C  C282  1  0.54000000  0.21980000  0.47410000  1.0 -0.1736199323
C  C283  1  0.44010000  0.21520000  0.58460000  1.0 -0.1006073857
C  C284  1  0.43280000  0.26870000  0.59480000  1.0 -0.1142860038
C  C285  1  0.46090000  0.30630000  0.56620000  1.0 -0.0825673337
C  C286  1  0.49640000  0.29040000  0.52740000  1.0 -0.1507150261
C  C287  1  0.50380000  0.23690000  0.51710000  1.0 0.0983870041
C  C288  1  0.47560000  0.19930000  0.54580000  1.0 -0.1507150261
C  C289  1  0.05110000  0.37600000  0.56340000  1.0 0.0701288145
C  C290  1  0.09560000  0.39170000  0.53210000  1.0 -0.0825673337
C  C291  1  0.87010000  0.25130000  0.65090000  1.0 0.569755975
C  C292  1  0.90860000  0.29550000  0.63660000  1.0 -0.0187099509
C  C293  1  0.90770000  0.34130000  0.66700000  1.0 -0.1405110026
C  C294  1  0.94540000  0.38050000  0.65890000  1.0 -0.1507150261
C  C295  1  0.98400000  0.37390000  0.62030000  1.0 -0.0332521449
C  C296  1  0.98500000  0.32810000  0.58990000  1.0 0.1418242249
C  C297  1  0.94730000  0.28890000  0.59800000  1.0 -0.1970423226
C  C298  1  0.04000000  0.28020000  0.52590000  1.0 -0.1736199323
C  C299  1  0.94010000  0.28480000  0.41540000  1.0 -0.1006073857
C  C300  1  0.93280000  0.23130000  0.40520000  1.0 -0.1142860038
C  C301  1  0.96090000  0.19370000  0.43380000  1.0 -0.0825673337
C  C302  1  0.99640000  0.20960000  0.47260000  1.0 -0.1507150261
C  C303  1  0.00380000  0.26310000  0.48290000  1.0 0.0983870041
C  C304  1  0.97560000  0.30070000  0.45420000  1.0 -0.1507150261
C  C305  1  0.94890000  0.87600000  0.93660000  1.0 0.0701288145
C  C306  1  0.90440000  0.89170000  0.96790000  1.0 -0.0825673337
C  C307  1  0.12990000  0.75130000  0.84910000  1.0 0.569755975
C  C308  1  0.09140000  0.79550000  0.86340000  1.0 -0.0187099509
C  C309  1  0.09230000  0.84130000  0.83300000  1.0 -0.1405110026
C  C310  1  0.05460000  0.88050000  0.84110000  1.0 -0.1507150261
C  C311  1  0.01600000  0.87390000  0.87970000  1.0 -0.0332521449
C  C312  1  0.01500000  0.82810000  0.91010000  1.0 0.1418242249
C  C313  1  0.05270000  0.78890000  0.90200000  1.0 -0.1970423226
C  C314  1  0.96000000  0.78020000  0.97410000  1.0 -0.1736199323
C  C315  1  0.05990000  0.78480000  0.08460000  1.0 -0.1006073857
C  C316  1  0.06720000  0.73130000  0.09480000  1.0 -0.1142860038
C  C317  1  0.03910000  0.69370000  0.06620000  1.0 -0.0825673337
C  C318  1  0.00360000  0.70960000  0.02740000  1.0 -0.1507150261
C  C319  1  0.99620000  0.76310000  0.01710000  1.0 0.0983870041
C  C320  1  0.02440000  0.80070000  0.04580000  1.0 -0.1507150261
C  C321  1  0.12400000  0.43660000  0.55110000  1.0 0.0701288145
C  C322  1  0.10830000  0.46790000  0.59560000  1.0 -0.0825673337
C  C323  1  0.24870000  0.34910000  0.37010000  1.0 0.569755975
C  C324  1  0.20450000  0.36340000  0.40860000  1.0 -0.0187099509
C  C325  1  0.15870000  0.33300000  0.40770000  1.0 -0.1405110026
C  C326  1  0.11950000  0.34110000  0.44540000  1.0 -0.1507150261
C  C327  1  0.12610000  0.37970000  0.48400000  1.0 -0.0332521449
C  C328  1  0.17190000  0.41010000  0.48500000  1.0 0.1418242249
C  C329  1  0.21110000  0.40200000  0.44730000  1.0 -0.1970423226
C  C330  1  0.21980000  0.47410000  0.54000000  1.0 -0.1736199323
C  C331  1  0.21520000  0.58460000  0.44010000  1.0 -0.1006073857
C  C332  1  0.26870000  0.59480000  0.43280000  1.0 -0.1142860038
C  C333  1  0.30630000  0.56620000  0.46090000  1.0 -0.0825673337
C  C334  1  0.29040000  0.52740000  0.49640000  1.0 -0.1507150261
C  C335  1  0.23690000  0.51710000  0.50380000  1.0 0.0983870041
C  C336  1  0.19930000  0.54580000  0.47560000  1.0 -0.1507150261
C  C337  1  0.62400000  0.06340000  0.44890000  1.0 0.0701288145
C  C338  1  0.60830000  0.03210000  0.40440000  1.0 -0.0825673337
C  C339  1  0.74870000  0.15090000  0.62990000  1.0 0.569755975
C  C340  1  0.70450000  0.13660000  0.59140000  1.0 -0.0187099509
C  C341  1  0.65870000  0.16700000  0.59230000  1.0 -0.1405110026
C  C342  1  0.61950000  0.15890000  0.55460000  1.0 -0.1507150261
C  C343  1  0.62610000  0.12030000  0.51600000  1.0 -0.0332521449
C  C344  1  0.67190000  0.08990000  0.51500000  1.0 0.1418242249
C  C345  1  0.71110000  0.09800000  0.55270000  1.0 -0.1970423226
C  C346  1  0.71980000  0.02590000  0.46000000  1.0 -0.1736199323
C  C347  1  0.71520000  0.91540000  0.55990000  1.0 -0.1006073857
C  C348  1  0.76870000  0.90520000  0.56720000  1.0 -0.1142860038
C  C349  1  0.80630000  0.93380000  0.53910000  1.0 -0.0825673337
C  C350  1  0.79040000  0.97260000  0.50360000  1.0 -0.1507150261
C  C351  1  0.73690000  0.98290000  0.49620000  1.0 0.0983870041
C  C352  1  0.69930000  0.95420000  0.52440000  1.0 -0.1507150261
C  C353  1  0.87600000  0.93660000  0.94890000  1.0 0.0701288145
C  C354  1  0.89170000  0.96790000  0.90440000  1.0 -0.0825673337
C  C355  1  0.75130000  0.84910000  0.12990000  1.0 0.569755975
C  C356  1  0.79550000  0.86340000  0.09140000  1.0 -0.0187099509
C  C357  1  0.84130000  0.83300000  0.09230000  1.0 -0.1405110026
C  C358  1  0.88050000  0.84110000  0.05460000  1.0 -0.1507150261
C  C359  1  0.87390000  0.87970000  0.01600000  1.0 -0.0332521449
C  C360  1  0.82810000  0.91010000  0.01500000  1.0 0.1418242249
C  C361  1  0.78890000  0.90200000  0.05270000  1.0 -0.1970423226
C  C362  1  0.78020000  0.97410000  0.96000000  1.0 -0.1736199323
C  C363  1  0.78480000  0.08460000  0.05990000  1.0 -0.1006073857
C  C364  1  0.73130000  0.09480000  0.06720000  1.0 -0.1142860038
C  C365  1  0.69370000  0.06620000  0.03910000  1.0 -0.0825673337
C  C366  1  0.70960000  0.02740000  0.00360000  1.0 -0.1507150261
C  C367  1  0.76310000  0.01710000  0.99620000  1.0 0.0983870041
C  C368  1  0.80070000  0.04580000  0.02440000  1.0 -0.1507150261
C  C369  1  0.37600000  0.56340000  0.05110000  1.0 0.0701288145
C  C370  1  0.39170000  0.53210000  0.09560000  1.0 -0.0825673337
C  C371  1  0.25130000  0.65090000  0.87010000  1.0 0.569755975
C  C372  1  0.29550000  0.63660000  0.90860000  1.0 -0.0187099509
C  C373  1  0.34130000  0.66700000  0.90770000  1.0 -0.1405110026
C  C374  1  0.38050000  0.65890000  0.94540000  1.0 -0.1507150261
C  C375  1  0.37390000  0.62030000  0.98400000  1.0 -0.0332521449
C  C376  1  0.32810000  0.58990000  0.98500000  1.0 0.1418242249
C  C377  1  0.28890000  0.59800000  0.94730000  1.0 -0.1970423226
C  C378  1  0.28020000  0.52590000  0.04000000  1.0 -0.1736199323
C  C379  1  0.28480000  0.41540000  0.94010000  1.0 -0.1006073857
C  C380  1  0.23130000  0.40520000  0.93280000  1.0 -0.1142860038
C  C381  1  0.19370000  0.43380000  0.96090000  1.0 -0.0825673337
C  C382  1  0.20960000  0.47260000  0.99640000  1.0 -0.1507150261
C  C383  1  0.26310000  0.48290000  0.00380000  1.0 0.0983870041
C  C384  1  0.30070000  0.45420000  0.97560000  1.0 -0.1507150261
N  N1  1  0.72810000  0.19710000  0.42100000  1.0 -0.0719474003
N  N2  1  0.77190000  0.80290000  0.92100000  1.0 -0.0719474003
N  N3  1  0.27190000  0.69710000  0.07900000  1.0 -0.0719474003
N  N4  1  0.22810000  0.30290000  0.57900000  1.0 -0.0719474003
N  N5  1  0.42100000  0.72810000  0.19710000  1.0 -0.0719474003
N  N6  1  0.92100000  0.77190000  0.80290000  1.0 -0.0719474003
N  N7  1  0.07900000  0.27190000  0.69710000  1.0 -0.0719474003
N  N8  1  0.57900000  0.22810000  0.30290000  1.0 -0.0719474003
N  N9  1  0.19710000  0.42100000  0.72810000  1.0 -0.0719474003
N  N10  1  0.80290000  0.92100000  0.77190000  1.0 -0.0719474003
N  N11  1  0.69710000  0.07900000  0.27190000  1.0 -0.0719474003
N  N12  1  0.30290000  0.57900000  0.22810000  1.0 -0.0719474003
N  N13  1  0.94710000  0.97810000  0.82900000  1.0 -0.0719474003
N  N14  1  0.55290000  0.02190000  0.32900000  1.0 -0.0719474003
N  N15  1  0.44710000  0.52190000  0.17100000  1.0 -0.0719474003
N  N16  1  0.05290000  0.47810000  0.67100000  1.0 -0.0719474003
N  N17  1  0.47810000  0.67100000  0.05290000  1.0 -0.0719474003
N  N18  1  0.52190000  0.17100000  0.44710000  1.0 -0.0719474003
N  N19  1  0.02190000  0.32900000  0.55290000  1.0 -0.0719474003
N  N20  1  0.97810000  0.82900000  0.94710000  1.0 -0.0719474003
N  N21  1  0.17100000  0.44710000  0.52190000  1.0 -0.0719474003
N  N22  1  0.67100000  0.05290000  0.47810000  1.0 -0.0719474003
N  N23  1  0.82900000  0.94710000  0.97810000  1.0 -0.0719474003
N  N24  1  0.32900000  0.55290000  0.02190000  1.0 -0.0719474003
O  O1  1  0.87460000  0.12560000  0.54060000  1.0 -0.5665672187
O  O2  1  0.91050000  0.06410000  0.48740000  1.0 -0.5054980133
O  O3  1  0.62540000  0.87440000  0.04060000  1.0 -0.5665672187
O  O4  1  0.58950000  0.93590000  0.98740000  1.0 -0.5054980133
O  O5  1  0.12540000  0.62560000  0.95940000  1.0 -0.5665672187
O  O6  1  0.08950000  0.56410000  0.01260000  1.0 -0.5054980133
O  O7  1  0.37460000  0.37440000  0.45940000  1.0 -0.5665672187
O  O8  1  0.41050000  0.43590000  0.51260000  1.0 -0.5054980133
O  O9  1  0.54060000  0.87460000  0.12560000  1.0 -0.5665672187
O  O10  1  0.48740000  0.91050000  0.06410000  1.0 -0.5054980133
O  O11  1  0.04060000  0.62540000  0.87440000  1.0 -0.5665672187
O  O12  1  0.98740000  0.58950000  0.93590000  1.0 -0.5054980133
O  O13  1  0.95940000  0.12540000  0.62560000  1.0 -0.5665672187
O  O14  1  0.01260000  0.08950000  0.56410000  1.0 -0.5054980133
O  O15  1  0.45940000  0.37460000  0.37440000  1.0 -0.5665672187
O  O16  1  0.51260000  0.41050000  0.43590000  1.0 -0.5054980133
O  O17  1  0.12560000  0.54060000  0.87460000  1.0 -0.5665672187
O  O18  1  0.06410000  0.48740000  0.91050000  1.0 -0.5054980133
O  O19  1  0.87440000  0.04060000  0.62540000  1.0 -0.5665672187
O  O20  1  0.93590000  0.98740000  0.58950000  1.0 -0.5054980133
O  O21  1  0.62560000  0.95940000  0.12540000  1.0 -0.5665672187
O  O22  1  0.56410000  0.01260000  0.08950000  1.0 -0.5054980133
O  O23  1  0.37440000  0.45940000  0.37460000  1.0 -0.5665672187
O  O24  1  0.43590000  0.51260000  0.41050000  1.0 -0.5054980133
O  O25  1  0.87560000  0.12460000  0.70940000  1.0 -0.5665672187
O  O26  1  0.81410000  0.16050000  0.76260000  1.0 -0.5054980133
O  O27  1  0.62440000  0.87540000  0.20940000  1.0 -0.5665672187
O  O28  1  0.68590000  0.83950000  0.26260000  1.0 -0.5054980133
O  O29  1  0.37560000  0.37540000  0.29060000  1.0 -0.5665672187
O  O30  1  0.31410000  0.33950000  0.23740000  1.0 -0.5054980133
O  O31  1  0.12440000  0.62460000  0.79060000  1.0 -0.5665672187
O  O32  1  0.18590000  0.66050000  0.73740000  1.0 -0.5054980133
O  O33  1  0.62460000  0.79060000  0.12440000  1.0 -0.5665672187
O  O34  1  0.66050000  0.73740000  0.18590000  1.0 -0.5054980133
O  O35  1  0.37540000  0.29060000  0.37560000  1.0 -0.5665672187
O  O36  1  0.33950000  0.23740000  0.31410000  1.0 -0.5054980133
O  O37  1  0.87540000  0.20940000  0.62440000  1.0 -0.5665672187
O  O38  1  0.83950000  0.26260000  0.68590000  1.0 -0.5054980133
O  O39  1  0.12460000  0.70940000  0.87560000  1.0 -0.5665672187
O  O40  1  0.16050000  0.76260000  0.81410000  1.0 -0.5054980133
O  O41  1  0.29060000  0.37560000  0.37540000  1.0 -0.5665672187
O  O42  1  0.23740000  0.31410000  0.33950000  1.0 -0.5054980133
O  O43  1  0.79060000  0.12440000  0.62460000  1.0 -0.5665672187
O  O44  1  0.73740000  0.18590000  0.66050000  1.0 -0.5054980133
O  O45  1  0.70940000  0.87560000  0.12460000  1.0 -0.5665672187
O  O46  1  0.76260000  0.81410000  0.16050000  1.0 -0.5054980133
O  O47  1  0.20940000  0.62440000  0.87540000  1.0 -0.5665672187
O  O48  1  0.26260000  0.68590000  0.83950000  1.0 -0.5054980133
