# DDEC6 charges by PACMAN v1.1 (https://github.com/mtap-research/PACMAN-charge/)
data_MOSKEN_ion_pacman
_symmetry_space_group_name_H-M   'P 1'
_cell_length_a   9.38630000
_cell_length_b   15.35660000
_cell_length_c   34.02200000
_cell_angle_alpha   90.00000000
_cell_angle_beta   90.00000000
_cell_angle_gamma   90.00000000
_symmetry_Int_Tables_number   1
_chemical_formula_structural   In3H60C78N(ClO10)2
_chemical_formula_sum   'In6 H120 C156 N2 Cl4 O40'
_cell_volume   4903.98737212
_cell_formula_units_Z   2
loop_
 _symmetry_equiv_pos_site_id
 _symmetry_equiv_pos_as_xyz
  1  'x, y, z'
loop_
 _atom_site_type_symbol
 _atom_site_label
 _atom_site_symmetry_multiplicity
 _atom_site_fract_x
 _atom_site_fract_y
 _atom_site_fract_z
 _atom_site_occupancy
 _atom_site_charge
In  In1  1  0.83156000  0.05823000  0.87902000  1.0 1.2576331893
In  In2  1  0.16844000  0.94177000  0.37902000  1.0 1.2576331893
In  In3  1  0.83156000  0.94177000  0.12098000  1.0 1.2576331893
In  In4  1  0.16844000  0.05823000  0.62098000  1.0 1.2576331893
In  In5  1  0.50000000  0.56139000  0.75000000  1.0 1.267322282
In  In6  1  0.50000000  0.43861000  0.25000000  1.0 1.267322282
H  H1  1  0.34075000  0.97327000  0.85174000  1.0 0.129340223
H  H2  1  0.53345000  0.97228000  0.81076000  1.0 0.1208768273
H  H3  1  0.29995000  0.08356000  0.72480000  1.0 0.1403966466
H  H4  1  0.10586000  0.09185000  0.76716000  1.0 0.1208768273
H  H5  1  0.09076000  0.26941000  0.95076000  1.0 0.129340223
H  H6  1  0.20920000  0.32646000  0.00486000  1.0 0.1208768273
H  H7  1  0.06062000  0.12497000  0.07102000  1.0 0.129340223
H  H8  1  0.94225000  0.07031000  0.01630000  1.0 0.129340223
H  H9  1  0.27581000  0.45189000  0.12364000  1.0 0.129340223
H  H10  1  0.17628000  0.39415000  0.06742000  1.0 0.1208768273
H  H11  1  0.29041000  0.15285000  0.10110000  1.0 0.129340223
H  H12  1  0.41488000  0.21334000  0.15552000  1.0 0.1208768273
H  H13  1  0.55530000  0.25315000  0.80410000  1.0 0.1208768273
H  H14  1  0.36165000  0.33796000  0.78663000  1.0 0.129340223
H  H15  1  0.14196000  0.24188000  0.87896000  1.0 0.1208768273
H  H16  1  0.33424000  0.15988000  0.89762000  1.0 0.129340223
H  H17  1  0.99959000  0.54227000  0.79336000  1.0 0.1110153521
H  H18  1  0.20247000  0.46314000  0.81330000  1.0 0.1208768273
H  H19  1  0.95974000  0.24093000  0.81599000  1.0 0.129340223
H  H20  1  0.76558000  0.32158000  0.79362000  1.0 0.1208768273
H  H21  1  0.65925000  0.02673000  0.35174000  1.0 0.129340223
H  H22  1  0.46655000  0.02772000  0.31076000  1.0 0.1208768273
H  H23  1  0.70005000  0.91644000  0.22480000  1.0 0.1403966466
H  H24  1  0.89414000  0.90815000  0.26716000  1.0 0.1208768273
H  H25  1  0.90924000  0.73059000  0.45076000  1.0 0.129340223
H  H26  1  0.79080000  0.67354000  0.50486000  1.0 0.1208768273
H  H27  1  0.93938000  0.87503000  0.57102000  1.0 0.129340223
H  H28  1  0.05775000  0.92969000  0.51630000  1.0 0.129340223
H  H29  1  0.72419000  0.54811000  0.62364000  1.0 0.129340223
H  H30  1  0.82372000  0.60585000  0.56742000  1.0 0.1208768273
H  H31  1  0.70959000  0.84715000  0.60110000  1.0 0.129340223
H  H32  1  0.58512000  0.78666000  0.65552000  1.0 0.1208768273
H  H33  1  0.44470000  0.74685000  0.30410000  1.0 0.1208768273
H  H34  1  0.63835000  0.66204000  0.28663000  1.0 0.129340223
H  H35  1  0.85804000  0.75812000  0.37896000  1.0 0.1208768273
H  H36  1  0.66576000  0.84012000  0.39762000  1.0 0.129340223
H  H37  1  0.00041000  0.45773000  0.29336000  1.0 0.1110153521
H  H38  1  0.79753000  0.53686000  0.31330000  1.0 0.1208768273
H  H39  1  0.04026000  0.75907000  0.31599000  1.0 0.129340223
H  H40  1  0.23442000  0.67842000  0.29362000  1.0 0.1208768273
H  H41  1  0.34075000  0.02673000  0.14826000  1.0 0.129340223
H  H42  1  0.53345000  0.02772000  0.18924000  1.0 0.1208768273
H  H43  1  0.29995000  0.91644000  0.27520000  1.0 0.1403966466
H  H44  1  0.10586000  0.90815000  0.23284000  1.0 0.1208768273
H  H45  1  0.09076000  0.73059000  0.04924000  1.0 0.129340223
H  H46  1  0.20920000  0.67354000  0.99514000  1.0 0.1208768273
H  H47  1  0.06062000  0.87503000  0.92898000  1.0 0.129340223
H  H48  1  0.94225000  0.92969000  0.98370000  1.0 0.129340223
H  H49  1  0.27581000  0.54811000  0.87636000  1.0 0.129340223
H  H50  1  0.17628000  0.60585000  0.93258000  1.0 0.1208768273
H  H51  1  0.29041000  0.84715000  0.89890000  1.0 0.129340223
H  H52  1  0.41488000  0.78666000  0.84448000  1.0 0.1208768273
H  H53  1  0.55530000  0.74685000  0.19590000  1.0 0.1208768273
H  H54  1  0.36165000  0.66204000  0.21337000  1.0 0.129340223
H  H55  1  0.14196000  0.75812000  0.12104000  1.0 0.1208768273
H  H56  1  0.33424000  0.84012000  0.10238000  1.0 0.129340223
H  H57  1  0.99959000  0.45773000  0.20664000  1.0 0.1110153521
H  H58  1  0.20247000  0.53686000  0.18670000  1.0 0.1208768273
H  H59  1  0.95974000  0.75907000  0.18401000  1.0 0.129340223
H  H60  1  0.76558000  0.67842000  0.20638000  1.0 0.1208768273
H  H61  1  0.65925000  0.97327000  0.64826000  1.0 0.129340223
H  H62  1  0.46655000  0.97228000  0.68924000  1.0 0.1208768273
H  H63  1  0.70005000  0.08356000  0.77520000  1.0 0.1403966466
H  H64  1  0.89414000  0.09185000  0.73284000  1.0 0.1208768273
H  H65  1  0.90924000  0.26941000  0.54924000  1.0 0.129340223
H  H66  1  0.79080000  0.32646000  0.49514000  1.0 0.1208768273
H  H67  1  0.93938000  0.12497000  0.42898000  1.0 0.129340223
H  H68  1  0.05775000  0.07031000  0.48370000  1.0 0.129340223
H  H69  1  0.72419000  0.45189000  0.37636000  1.0 0.129340223
H  H70  1  0.82372000  0.39415000  0.43258000  1.0 0.1208768273
H  H71  1  0.70959000  0.15285000  0.39890000  1.0 0.129340223
H  H72  1  0.58512000  0.21334000  0.34448000  1.0 0.1208768273
H  H73  1  0.44470000  0.25315000  0.69590000  1.0 0.1208768273
H  H74  1  0.63835000  0.33796000  0.71337000  1.0 0.129340223
H  H75  1  0.85804000  0.24188000  0.62104000  1.0 0.1208768273
H  H76  1  0.66576000  0.15988000  0.60238000  1.0 0.129340223
H  H77  1  0.00041000  0.54227000  0.70664000  1.0 0.1110153521
H  H78  1  0.79753000  0.46314000  0.68670000  1.0 0.1208768273
H  H79  1  0.04026000  0.24093000  0.68401000  1.0 0.129340223
H  H80  1  0.23442000  0.32158000  0.70638000  1.0 0.1208768273
H  H81  1  0.05465000  0.30977000  0.28650000  1.0 0.1022076135
H  H82  1  0.88647000  0.29928000  0.28141000  1.0 0.1022076135
H  H83  1  0.89755000  0.17433000  0.32247000  1.0 0.129340223
H  H84  1  0.94133000  0.26253000  0.34442000  1.0 0.129340223
H  H85  1  0.06197000  0.19597000  0.33019000  1.0 0.1403966466
H  H86  1  0.89173000  0.10820000  0.22237000  1.0 0.1110153521
H  H87  1  0.85530000  0.11485000  0.26807000  1.0 0.1022076135
H  H88  1  0.74231000  0.22311000  0.20888000  1.0 0.1403966466
H  H89  1  0.71141000  0.23634000  0.25476000  1.0 0.1403966466
H  H90  1  0.65699000  0.15026000  0.23291000  1.0 0.1403966466
H  H91  1  0.94535000  0.30977000  0.21350000  1.0 0.1022076135
H  H92  1  0.11353000  0.29928000  0.21859000  1.0 0.1022076135
H  H93  1  0.10245000  0.17433000  0.17753000  1.0 0.129340223
H  H94  1  0.05867000  0.26253000  0.15558000  1.0 0.129340223
H  H95  1  0.93803000  0.19597000  0.16981000  1.0 0.1403966466
H  H96  1  0.10827000  0.10820000  0.27763000  1.0 0.1110153521
H  H97  1  0.14470000  0.11485000  0.23193000  1.0 0.1022076135
H  H98  1  0.25769000  0.22311000  0.29112000  1.0 0.1403966466
H  H99  1  0.28859000  0.23634000  0.24524000  1.0 0.1403966466
H  H100  1  0.34301000  0.15026000  0.26709000  1.0 0.1403966466
H  H101  1  0.94535000  0.69023000  0.78650000  1.0 0.1022076135
H  H102  1  0.11353000  0.70072000  0.78141000  1.0 0.1022076135
H  H103  1  0.10245000  0.82567000  0.82247000  1.0 0.129340223
H  H104  1  0.05867000  0.73747000  0.84442000  1.0 0.129340223
H  H105  1  0.93803000  0.80403000  0.83019000  1.0 0.1403966466
H  H106  1  0.10827000  0.89180000  0.72237000  1.0 0.1110153521
H  H107  1  0.14470000  0.88515000  0.76807000  1.0 0.1022076135
H  H108  1  0.25769000  0.77689000  0.70888000  1.0 0.1403966466
H  H109  1  0.28859000  0.76366000  0.75476000  1.0 0.1403966466
H  H110  1  0.34301000  0.84974000  0.73291000  1.0 0.1403966466
H  H111  1  0.05465000  0.69023000  0.71350000  1.0 0.1022076135
H  H112  1  0.88647000  0.70072000  0.71859000  1.0 0.1022076135
H  H113  1  0.89755000  0.82567000  0.67753000  1.0 0.129340223
H  H114  1  0.94133000  0.73747000  0.65558000  1.0 0.129340223
H  H115  1  0.06197000  0.80403000  0.66981000  1.0 0.1403966466
H  H116  1  0.89173000  0.89180000  0.77763000  1.0 0.1110153521
H  H117  1  0.85530000  0.88515000  0.73193000  1.0 0.1022076135
H  H118  1  0.74231000  0.77689000  0.79112000  1.0 0.1403966466
H  H119  1  0.71141000  0.76366000  0.74524000  1.0 0.1403966466
H  H120  1  0.65699000  0.84974000  0.76709000  1.0 0.1403966466
C  C1  1  0.07260000  0.03350000  0.84000000  1.0 0.520030732
C  C2  1  0.20120000  0.03160000  0.81390000  1.0 -0.0208191191
C  C3  1  0.33200000  0.99670000  0.82600000  1.0 -0.0999860301
C  C4  1  0.44570000  0.99570000  0.80170000  1.0 -0.1346672824
C  C5  1  0.43690000  0.02870000  0.76325000  1.0 0.0705416004
C  C6  1  0.30880000  0.06240000  0.75092000  1.0 -0.1346672824
C  C7  1  0.19220000  0.06600000  0.77589000  1.0 -0.0999860301
C  C8  1  0.93640000  0.12810000  0.94200000  1.0 0.5515841941
C  C9  1  0.00390000  0.16510000  0.97780000  1.0 -0.0255775874
C  C10  1  0.08440000  0.24020000  0.97530000  1.0 -0.0895069733
C  C11  1  0.15590000  0.27410000  0.00730000  1.0 -0.1591115122
C  C12  1  0.14860000  0.23010000  0.04340000  1.0 0.0784500433
C  C13  1  0.06740000  0.15440000  0.04650000  1.0 -0.1346672824
C  C14  1  0.99660000  0.12230000  0.01400000  1.0 -0.073785988
C  C15  1  0.40820000  0.37530000  0.18290000  1.0 0.5325289766
C  C16  1  0.34760000  0.33850000  0.14570000  1.0 -0.0208191191
C  C17  1  0.28070000  0.39090000  0.11910000  1.0 -0.0895069733
C  C18  1  0.22050000  0.35640000  0.08590000  1.0 -0.148198794
C  C19  1  0.22280000  0.26820000  0.07870000  1.0 0.0705416004
C  C20  1  0.29060000  0.21400000  0.10520000  1.0 -0.1371751627
C  C21  1  0.36050000  0.24940000  0.13850000  1.0 -0.0895069733
C  C22  1  0.61080000  0.15200000  0.86710000  1.0 0.5043605367
C  C23  1  0.47150000  0.20090000  0.85430000  1.0 0.0297072759
C  C24  1  0.47220000  0.25200000  0.82000000  1.0 -0.1072305435
C  C25  1  0.35480000  0.30090000  0.80890000  1.0 -0.1203078594
C  C26  1  0.22690000  0.29690000  0.82970000  1.0 0.0633898551
C  C27  1  0.22620000  0.24430000  0.86350000  1.0 -0.1203078594
C  C28  1  0.34150000  0.19650000  0.87520000  1.0 -0.0999860301
C  C29  1  0.73760000  0.49240000  0.77660000  1.0 0.492815117
C  C30  1  0.86340000  0.43870000  0.79200000  1.0 0.0042471677
C  C31  1  0.99270000  0.48130000  0.79780000  1.0 -0.1203078594
C  C32  1  0.11400000  0.43390000  0.81030000  1.0 -0.148198794
C  C33  1  0.10550000  0.34400000  0.81840000  1.0 0.0784500433
C  C34  1  0.96960000  0.30170000  0.81150000  1.0 -0.1203078594
C  C35  1  0.85370000  0.35020000  0.79840000  1.0 -0.0999860301
C  C36  1  0.92740000  0.96650000  0.34000000  1.0 0.520030732
C  C37  1  0.79880000  0.96840000  0.31390000  1.0 -0.0208191191
C  C38  1  0.66800000  0.00330000  0.32600000  1.0 -0.0999860301
C  C39  1  0.55430000  0.00430000  0.30170000  1.0 -0.1346672824
C  C40  1  0.56310000  0.97130000  0.26325000  1.0 0.0705416004
C  C41  1  0.69120000  0.93760000  0.25092000  1.0 -0.1346672824
C  C42  1  0.80780000  0.93400000  0.27589000  1.0 -0.0999860301
C  C43  1  0.06360000  0.87190000  0.44200000  1.0 0.5515841941
C  C44  1  0.99610000  0.83490000  0.47780000  1.0 -0.0255775874
C  C45  1  0.91560000  0.75980000  0.47530000  1.0 -0.0895069733
C  C46  1  0.84410000  0.72590000  0.50730000  1.0 -0.1591115122
C  C47  1  0.85140000  0.76990000  0.54340000  1.0 0.0784500433
C  C48  1  0.93260000  0.84560000  0.54650000  1.0 -0.1346672824
C  C49  1  0.00340000  0.87770000  0.51400000  1.0 -0.073785988
C  C50  1  0.59180000  0.62470000  0.68290000  1.0 0.5325289766
C  C51  1  0.65240000  0.66150000  0.64570000  1.0 -0.0208191191
C  C52  1  0.71930000  0.60910000  0.61910000  1.0 -0.0895069733
C  C53  1  0.77950000  0.64360000  0.58590000  1.0 -0.148198794
C  C54  1  0.77720000  0.73180000  0.57870000  1.0 0.0705416004
C  C55  1  0.70940000  0.78600000  0.60520000  1.0 -0.1371751627
C  C56  1  0.63950000  0.75060000  0.63850000  1.0 -0.0895069733
C  C57  1  0.38920000  0.84800000  0.36710000  1.0 0.5043605367
C  C58  1  0.52850000  0.79910000  0.35430000  1.0 0.0297072759
C  C59  1  0.52780000  0.74800000  0.32000000  1.0 -0.1072305435
C  C60  1  0.64520000  0.69910000  0.30890000  1.0 -0.1203078594
C  C61  1  0.77310000  0.70310000  0.32970000  1.0 0.0633898551
C  C62  1  0.77380000  0.75570000  0.36350000  1.0 -0.1203078594
C  C63  1  0.65850000  0.80350000  0.37520000  1.0 -0.0999860301
C  C64  1  0.26240000  0.50760000  0.27660000  1.0 0.492815117
C  C65  1  0.13660000  0.56130000  0.29200000  1.0 0.0042471677
C  C66  1  0.00730000  0.51870000  0.29780000  1.0 -0.1203078594
C  C67  1  0.88600000  0.56610000  0.31030000  1.0 -0.148198794
C  C68  1  0.89450000  0.65600000  0.31840000  1.0 0.0784500433
C  C69  1  0.03040000  0.69830000  0.31150000  1.0 -0.1203078594
C  C70  1  0.14630000  0.64980000  0.29840000  1.0 -0.0999860301
C  C71  1  0.07260000  0.96650000  0.16000000  1.0 0.520030732
C  C72  1  0.20120000  0.96840000  0.18610000  1.0 -0.0208191191
C  C73  1  0.33200000  0.00330000  0.17400000  1.0 -0.0999860301
C  C74  1  0.44570000  0.00430000  0.19830000  1.0 -0.1346672824
C  C75  1  0.43690000  0.97130000  0.23675000  1.0 0.0705416004
C  C76  1  0.30880000  0.93760000  0.24908000  1.0 -0.1346672824
C  C77  1  0.19220000  0.93400000  0.22411000  1.0 -0.0999860301
C  C78  1  0.93640000  0.87190000  0.05800000  1.0 0.5515841941
C  C79  1  0.00390000  0.83490000  0.02220000  1.0 -0.0255775874
C  C80  1  0.08440000  0.75980000  0.02470000  1.0 -0.0895069733
C  C81  1  0.15590000  0.72590000  0.99270000  1.0 -0.1591115122
C  C82  1  0.14860000  0.76990000  0.95660000  1.0 0.0784500433
C  C83  1  0.06740000  0.84560000  0.95350000  1.0 -0.1346672824
C  C84  1  0.99660000  0.87770000  0.98600000  1.0 -0.073785988
C  C85  1  0.40820000  0.62470000  0.81710000  1.0 0.5325289766
C  C86  1  0.34760000  0.66150000  0.85430000  1.0 -0.0208191191
C  C87  1  0.28070000  0.60910000  0.88090000  1.0 -0.0895069733
C  C88  1  0.22050000  0.64360000  0.91410000  1.0 -0.148198794
C  C89  1  0.22280000  0.73180000  0.92130000  1.0 0.0705416004
C  C90  1  0.29060000  0.78600000  0.89480000  1.0 -0.1371751627
C  C91  1  0.36050000  0.75060000  0.86150000  1.0 -0.0895069733
C  C92  1  0.61080000  0.84800000  0.13290000  1.0 0.5043605367
C  C93  1  0.47150000  0.79910000  0.14570000  1.0 0.0297072759
C  C94  1  0.47220000  0.74800000  0.18000000  1.0 -0.1072305435
C  C95  1  0.35480000  0.69910000  0.19110000  1.0 -0.1203078594
C  C96  1  0.22690000  0.70310000  0.17030000  1.0 0.0633898551
C  C97  1  0.22620000  0.75570000  0.13650000  1.0 -0.1203078594
C  C98  1  0.34150000  0.80350000  0.12480000  1.0 -0.0999860301
C  C99  1  0.73760000  0.50760000  0.22340000  1.0 0.492815117
C  C100  1  0.86340000  0.56130000  0.20800000  1.0 0.0042471677
C  C101  1  0.99270000  0.51870000  0.20220000  1.0 -0.1203078594
C  C102  1  0.11400000  0.56610000  0.18970000  1.0 -0.148198794
C  C103  1  0.10550000  0.65600000  0.18160000  1.0 0.0784500433
C  C104  1  0.96960000  0.69830000  0.18850000  1.0 -0.1203078594
C  C105  1  0.85370000  0.64980000  0.20160000  1.0 -0.0999860301
C  C106  1  0.92740000  0.03350000  0.66000000  1.0 0.520030732
C  C107  1  0.79880000  0.03160000  0.68610000  1.0 -0.0208191191
C  C108  1  0.66800000  0.99670000  0.67400000  1.0 -0.0999860301
C  C109  1  0.55430000  0.99570000  0.69830000  1.0 -0.1346672824
C  C110  1  0.56310000  0.02870000  0.73675000  1.0 0.0705416004
C  C111  1  0.69120000  0.06240000  0.74908000  1.0 -0.1346672824
C  C112  1  0.80780000  0.06600000  0.72411000  1.0 -0.0999860301
C  C113  1  0.06360000  0.12810000  0.55800000  1.0 0.5515841941
C  C114  1  0.99610000  0.16510000  0.52220000  1.0 -0.0208191191
C  C115  1  0.91560000  0.24020000  0.52470000  1.0 -0.0895069733
C  C116  1  0.84410000  0.27410000  0.49270000  1.0 -0.1591115122
C  C117  1  0.85140000  0.23010000  0.45660000  1.0 0.0784500433
C  C118  1  0.93260000  0.15440000  0.45350000  1.0 -0.1346672824
C  C119  1  0.00340000  0.12230000  0.48600000  1.0 -0.073785988
C  C120  1  0.59180000  0.37530000  0.31710000  1.0 0.5325289766
C  C121  1  0.65240000  0.33850000  0.35430000  1.0 -0.0208191191
C  C122  1  0.71930000  0.39090000  0.38090000  1.0 -0.0895069733
C  C123  1  0.77950000  0.35640000  0.41410000  1.0 -0.148198794
C  C124  1  0.77720000  0.26820000  0.42130000  1.0 0.0705416004
C  C125  1  0.70940000  0.21400000  0.39480000  1.0 -0.1371751627
C  C126  1  0.63950000  0.24940000  0.36150000  1.0 -0.0895069733
C  C127  1  0.38920000  0.15200000  0.63290000  1.0 0.5043605367
C  C128  1  0.52850000  0.20090000  0.64570000  1.0 0.0297072759
C  C129  1  0.52780000  0.25200000  0.68000000  1.0 -0.1072305435
C  C130  1  0.64520000  0.30090000  0.69110000  1.0 -0.1203078594
C  C131  1  0.77310000  0.29690000  0.67030000  1.0 0.0633898551
C  C132  1  0.77380000  0.24430000  0.63650000  1.0 -0.1203078594
C  C133  1  0.65850000  0.19650000  0.62480000  1.0 -0.0999860301
C  C134  1  0.26240000  0.49240000  0.72340000  1.0 0.492815117
C  C135  1  0.13660000  0.43870000  0.70800000  1.0 0.0042471677
C  C136  1  0.00730000  0.48130000  0.70220000  1.0 -0.1203078594
C  C137  1  0.88600000  0.43390000  0.68970000  1.0 -0.148198794
C  C138  1  0.89450000  0.34400000  0.68160000  1.0 0.0784500433
C  C139  1  0.03040000  0.30170000  0.68850000  1.0 -0.1203078594
C  C140  1  0.14630000  0.35020000  0.70160000  1.0 -0.0999860301
C  C141  1  0.97630000  0.26670000  0.28530000  1.0 -0.0509195135
C  C142  1  0.96860000  0.22100000  0.32390000  1.0 -0.4103793105
C  C143  1  0.86950000  0.14950000  0.24380000  1.0 -0.0509195135
C  C144  1  0.73360000  0.19350000  0.23430000  1.0 -0.3999971201
C  C145  1  0.02370000  0.26670000  0.21470000  1.0 -0.0509195135
C  C146  1  0.03140000  0.22100000  0.17610000  1.0 -0.4103793105
C  C147  1  0.13050000  0.14950000  0.25620000  1.0 -0.0509195135
C  C148  1  0.26640000  0.19350000  0.26570000  1.0 -0.3999971201
C  C149  1  0.02370000  0.73330000  0.78530000  1.0 -0.0509195135
C  C150  1  0.03140000  0.77900000  0.82390000  1.0 -0.4103793105
C  C151  1  0.13050000  0.85050000  0.74380000  1.0 -0.0509195135
C  C152  1  0.26640000  0.80650000  0.73430000  1.0 -0.3999971201
C  C153  1  0.97630000  0.73330000  0.71470000  1.0 -0.0509195135
C  C154  1  0.96860000  0.77900000  0.67610000  1.0 -0.4103793105
C  C155  1  0.86950000  0.85050000  0.75620000  1.0 -0.0509195135
C  C156  1  0.73360000  0.80650000  0.76570000  1.0 -0.3999971201
N  N1  1  0.00000000  0.20900000  0.25000000  1.0 0.1570221061
N  N2  1  0.00000000  0.79100000  0.75000000  1.0 0.1570221061
Cl  Cl1  1  0.73020000  0.91572000  0.87255000  1.0 -0.5125920823
Cl  Cl2  1  0.26980000  0.08428000  0.37255000  1.0 -0.5125920823
Cl  Cl3  1  0.73020000  0.08428000  0.12745000  1.0 -0.5125920823
Cl  Cl4  1  0.26980000  0.91572000  0.62745000  1.0 -0.5125920823
O  O1  1  0.07840000  0.00520000  0.87402000  1.0 -0.5125920823
O  O2  1  0.96110000  0.06840000  0.82650000  1.0 -0.5182191183
O  O3  1  0.93940000  0.16950000  0.91018000  1.0 -0.5125920823
O  O4  1  0.87570000  0.05450000  0.94387000  1.0 -0.5002348324
O  O5  1  0.41200000  0.45680000  0.18722000  1.0 -0.5182191183
O  O6  1  0.45530000  0.32640000  0.20932000  1.0 -0.5002348324
O  O7  1  0.60220000  0.11320000  0.89849000  1.0 -0.4911041831
O  O8  1  0.69950000  0.14630000  0.84309000  1.0 -0.4681484824
O  O9  1  0.62810000  0.44530000  0.76818000  1.0 -0.4681484824
O  O10  1  0.73620000  0.56380000  0.77210000  1.0 -0.3999971201
O  O11  1  0.92160000  0.99480000  0.37402000  1.0 -0.5125920823
O  O12  1  0.03890000  0.93160000  0.32650000  1.0 -0.5182191183
O  O13  1  0.06060000  0.83050000  0.41018000  1.0 -0.5125920823
O  O14  1  0.12430000  0.94550000  0.44387000  1.0 -0.5002348324
O  O15  1  0.58800000  0.54320000  0.68722000  1.0 -0.5182191183
O  O16  1  0.54470000  0.67360000  0.70932000  1.0 -0.5002348324
O  O17  1  0.39780000  0.88680000  0.39849000  1.0 -0.4911041831
O  O18  1  0.30050000  0.85370000  0.34309000  1.0 -0.4681484824
O  O19  1  0.37190000  0.55470000  0.26818000  1.0 -0.4681484824
O  O20  1  0.26380000  0.43620000  0.27210000  1.0 -0.3999971201
O  O21  1  0.07840000  0.99480000  0.12598000  1.0 -0.5125920823
O  O22  1  0.96110000  0.93160000  0.17350000  1.0 -0.5182191183
O  O23  1  0.93940000  0.83050000  0.08982000  1.0 -0.5125920823
O  O24  1  0.87570000  0.94550000  0.05613000  1.0 -0.5002348324
O  O25  1  0.41200000  0.54320000  0.81278000  1.0 -0.5182191183
O  O26  1  0.45530000  0.67360000  0.79068000  1.0 -0.5002348324
O  O27  1  0.60220000  0.88680000  0.10151000  1.0 -0.4911041831
O  O28  1  0.69950000  0.85370000  0.15691000  1.0 -0.4681484824
O  O29  1  0.62810000  0.55470000  0.23182000  1.0 -0.4681484824
O  O30  1  0.73620000  0.43620000  0.22790000  1.0 -0.3999971201
O  O31  1  0.92160000  0.00520000  0.62598000  1.0 -0.5125920823
O  O32  1  0.03890000  0.06840000  0.67350000  1.0 -0.5182191183
O  O33  1  0.06060000  0.16950000  0.58982000  1.0 -0.5125920823
O  O34  1  0.12430000  0.05450000  0.55613000  1.0 -0.5002348324
O  O35  1  0.58800000  0.45680000  0.31278000  1.0 -0.5182191183
O  O36  1  0.54470000  0.32640000  0.29068000  1.0 -0.5002348324
O  O37  1  0.39780000  0.11320000  0.60151000  1.0 -0.4911041831
O  O38  1  0.30050000  0.14630000  0.65691000  1.0 -0.4681484824
O  O39  1  0.37190000  0.44530000  0.73182000  1.0 -0.4681484824
O  O40  1  0.26380000  0.56380000  0.72790000  1.0 -0.3999971201
