# DDEC6 charges by PACMAN v1.1 (https://github.com/mtap-research/PACMAN-charge/)
data_MOTKAI_ASR_pacman
_symmetry_space_group_name_H-M   'P 1'
_cell_length_a   4.93921000
_cell_length_b   12.18670000
_cell_length_c   10.78300000
_cell_angle_alpha   90.00000000
_cell_angle_beta   94.76650000
_cell_angle_gamma   90.00000000
_symmetry_Int_Tables_number   1
_chemical_formula_structural   AlPC2O3F
_chemical_formula_sum   'Al4 P4 C8 O12 F4'
_cell_volume   646.81287456
_cell_formula_units_Z   4
loop_
 _symmetry_equiv_pos_site_id
 _symmetry_equiv_pos_as_xyz
  1  'x, y, z'
loop_
 _atom_site_type_symbol
 _atom_site_label
 _atom_site_symmetry_multiplicity
 _atom_site_fract_x
 _atom_site_fract_y
 _atom_site_fract_z
 _atom_site_occupancy
 _atom_site_charge
Al  Al1  1  0.00000000  0.50000000  0.00000000  1.0 1.7453536657
Al  Al2  1  0.00000000  0.00000000  0.00000000  1.0 1.7453536657
Al  Al3  1  0.75650000  0.75000000  0.10140000  1.0 1.8620564607
Al  Al4  1  0.24350000  0.25000000  0.89860000  1.0 1.8620564607
P  P1  1  0.46410000  0.48600000  0.81870000  1.0 1.3353264001
P  P2  1  0.53590000  0.98600000  0.18130000  1.0 1.3341170219
P  P3  1  0.53590000  0.51400000  0.18130000  1.0 1.3341170219
P  P4  1  0.46410000  0.01400000  0.81870000  1.0 1.3353264001
C  C1  1  0.52960000  0.47790000  0.56780000  1.0 0.1961925109
C  C2  1  0.47040000  0.97790000  0.43220000  1.0 0.1961925109
C  C3  1  0.47040000  0.52210000  0.43220000  1.0 0.1961925109
C  C4  1  0.52960000  0.02210000  0.56780000  1.0 0.1961925109
C  C5  1  0.38320000  0.53660000  0.66666667  1.0 -0.3771386329
C  C6  1  0.61680000  0.03660000  0.33340000  1.0 -0.3771386329
C  C7  1  0.61680000  0.46340000  0.33340000  1.0 -0.3771386329
C  C8  1  0.38320000  0.96340000  0.66666667  1.0 -0.3771386329
O  O1  1  0.29810000  0.54120000  0.91630000  1.0 -0.7556009027
O  O2  1  0.70190000  0.04120000  0.08370000  1.0 -0.7556009027
O  O3  1  0.70190000  0.45880000  0.08370000  1.0 -0.7556009027
O  O4  1  0.29810000  0.95880000  0.91630000  1.0 -0.7556009027
O  O5  1  0.39270000  0.36320000  0.81110000  1.0 -0.7974185827
O  O6  1  0.60730000  0.86320000  0.18890000  1.0 -0.7974185827
O  O7  1  0.60730000  0.63680000  0.18890000  1.0 -0.7974185827
O  O8  1  0.39270000  0.13680000  0.81110000  1.0 -0.7974185827
O  O9  1  0.77400000  0.49290000  0.85620000  1.0 -0.777390692
O  O10  1  0.22600000  0.99290000  0.14380000  1.0 -0.777390692
O  O11  1  0.22600000  0.50710000  0.14380000  1.0 -0.777390692
O  O12  1  0.77400000  0.00710000  0.85620000  1.0 -0.777390692
F  F1  1  0.93370000  0.64670000  0.01630000  1.0 -0.6270704749
F  F2  1  0.06630000  0.14670000  0.98370000  1.0 -0.6270704749
F  F3  1  0.06630000  0.35330000  0.98370000  1.0 -0.6270704749
F  F4  1  0.93370000  0.85330000  0.01630000  1.0 -0.6270704749
