# DDEC6 charges by PACMAN v1.1 (https://github.com/mtap-research/PACMAN-charge/)
data_MOTVAV_ASR_pacman
_symmetry_space_group_name_H-M   'P 1'
_cell_length_a   28.91720000
_cell_length_b   28.91720000
_cell_length_c   17.56500000
_cell_angle_alpha   90.00000000
_cell_angle_beta   90.00000000
_cell_angle_gamma   134.40800000
_symmetry_Int_Tables_number   1
_chemical_formula_structural   Zr3H56(C43O6)2
_chemical_formula_sum   'Zr12 H224 C344 O48'
_cell_volume   10492.69062315
_cell_formula_units_Z   4
loop_
 _symmetry_equiv_pos_site_id
 _symmetry_equiv_pos_as_xyz
  1  'x, y, z'
loop_
 _atom_site_type_symbol
 _atom_site_label
 _atom_site_symmetry_multiplicity
 _atom_site_fract_x
 _atom_site_fract_y
 _atom_site_fract_z
 _atom_site_occupancy
 _atom_site_charge
Zr  Zr1  1  0.15813000  0.68517000  0.64902000  1.0 2.4383380936
Zr  Zr2  1  0.31483000  0.84187000  0.85098000  1.0 2.4383380936
Zr  Zr3  1  0.15813000  0.68517000  0.85098000  1.0 2.4383380936
Zr  Zr4  1  0.31483000  0.84187000  0.64902000  1.0 2.4383380936
Zr  Zr5  1  0.19068000  0.80932000  0.75000000  1.0 2.312203698
Zr  Zr6  1  0.28163000  0.71837000  0.75000000  1.0 2.3296449708
Zr  Zr7  1  0.84187000  0.31483000  0.14902000  1.0 2.4383380936
Zr  Zr8  1  0.68517000  0.15813000  0.35098000  1.0 2.4383380936
Zr  Zr9  1  0.84187000  0.31483000  0.35098000  1.0 2.4383380936
Zr  Zr10  1  0.68517000  0.15813000  0.14902000  1.0 2.4383380936
Zr  Zr11  1  0.80932000  0.19068000  0.25000000  1.0 2.312203698
Zr  Zr12  1  0.71837000  0.28163000  0.25000000  1.0 2.3296449708
H  H1  1  0.06483000  0.80889000  0.62482000  1.0 0.119788336
H  H2  1  0.02249000  0.85397000  0.59655000  1.0 0.110765108
H  H3  1  0.95707000  0.85697000  0.52319000  1.0 0.110765108
H  H4  1  0.90687000  0.71333000  0.38961000  1.0 0.110765108
H  H5  1  0.96366000  0.67840000  0.41026000  1.0 0.119788336
H  H6  1  0.00527000  0.65483000  0.49877000  1.0 0.110765108
H  H7  1  0.47445000  0.88103000  0.51764000  1.0 0.110765108
H  H8  1  0.54741000  0.88921000  0.44686000  1.0 0.119788336
H  H9  1  0.59504000  0.84526000  0.41111000  1.0 0.119788336
H  H10  1  0.52073000  0.68043000  0.51647000  1.0 0.110765108
H  H11  1  0.44941000  0.67793000  0.58448000  1.0 0.110765108
H  H12  1  0.40741000  0.71739000  0.61583000  1.0 0.119788336
H  H13  1  0.76110000  0.84488000  0.39492000  1.0 0.0891719115
H  H14  1  0.68914000  0.83774000  0.46923000  1.0 0.0891719115
H  H15  1  0.53819000  0.67955000  0.34991000  1.0 0.0987463933
H  H16  1  0.61015000  0.68669000  0.27559000  1.0 0.0794484104
H  H17  1  0.79281000  0.68705000  0.42925000  1.0 0.0987463933
H  H18  1  0.72868000  0.68868000  0.35814000  1.0 0.110765108
H  H19  1  0.93982000  0.87684000  0.39376000  1.0 0.0987463933
H  H20  1  0.87224000  0.87366000  0.32369000  1.0 0.110765108
H  H21  1  0.84306000  0.71082000  0.34673000  1.0 0.0987463933
H  H22  1  0.89306000  0.85762000  0.45782000  1.0 0.0891719115
H  H23  1  0.79133000  0.81831000  0.42929000  1.0 0.0794484104
H  H24  1  0.77497000  0.70991000  0.28206000  1.0 0.070888363
H  H25  1  0.65495000  0.68877000  0.39454000  1.0 0.0891719115
H  H26  1  0.58388000  0.68274000  0.46723000  1.0 0.0891719115
H  H27  1  0.72278000  0.84648000  0.29726000  1.0 0.0987463933
H  H28  1  0.66530000  0.85232000  0.38073000  1.0 0.0987463933
H  H29  1  0.19111000  0.93517000  0.87518000  1.0 0.119788336
H  H30  1  0.14603000  0.97751000  0.90345000  1.0 0.110765108
H  H31  1  0.14303000  0.04293000  0.97681000  1.0 0.110765108
H  H32  1  0.28667000  0.09313000  0.11039000  1.0 0.110765108
H  H33  1  0.32160000  0.03634000  0.08974000  1.0 0.119788336
H  H34  1  0.34517000  0.99473000  0.00123000  1.0 0.110765108
H  H35  1  0.11897000  0.52555000  0.98236000  1.0 0.110765108
H  H36  1  0.11079000  0.45259000  0.05314000  1.0 0.119788336
H  H37  1  0.15474000  0.40496000  0.08889000  1.0 0.119788336
H  H38  1  0.31957000  0.47927000  0.98353000  1.0 0.110765108
H  H39  1  0.32207000  0.55059000  0.91552000  1.0 0.110765108
H  H40  1  0.28261000  0.59259000  0.88417000  1.0 0.119788336
H  H41  1  0.15512000  0.23890000  0.10508000  1.0 0.0891719115
H  H42  1  0.16226000  0.31086000  0.03077000  1.0 0.0891719115
H  H43  1  0.32045000  0.46181000  0.15009000  1.0 0.0987463933
H  H44  1  0.31331000  0.38985000  0.22441000  1.0 0.0794484104
H  H45  1  0.31295000  0.20719000  0.07075000  1.0 0.0987463933
H  H46  1  0.31132000  0.27132000  0.14186000  1.0 0.110765108
H  H47  1  0.12316000  0.06018000  0.10624000  1.0 0.0987463933
H  H48  1  0.12634000  0.12776000  0.17631000  1.0 0.110765108
H  H49  1  0.28918000  0.15694000  0.15327000  1.0 0.0987463933
H  H50  1  0.14238000  0.10694000  0.04218000  1.0 0.0891719115
H  H51  1  0.18169000  0.20867000  0.07071000  1.0 0.0794484104
H  H52  1  0.29009000  0.22503000  0.21794000  1.0 0.070888363
H  H53  1  0.31123000  0.34505000  0.10546000  1.0 0.0891719115
H  H54  1  0.31726000  0.41612000  0.03277000  1.0 0.0891719115
H  H55  1  0.15352000  0.27722000  0.20274000  1.0 0.0987463933
H  H56  1  0.14768000  0.33470000  0.11927000  1.0 0.0987463933
H  H57  1  0.06483000  0.80889000  0.87518000  1.0 0.119788336
H  H58  1  0.02249000  0.85397000  0.90345000  1.0 0.110765108
H  H59  1  0.95707000  0.85697000  0.97681000  1.0 0.110765108
H  H60  1  0.90687000  0.71333000  0.11039000  1.0 0.110765108
H  H61  1  0.96366000  0.67840000  0.08974000  1.0 0.119788336
H  H62  1  0.00527000  0.65483000  0.00123000  1.0 0.110765108
H  H63  1  0.47445000  0.88103000  0.98236000  1.0 0.110765108
H  H64  1  0.54741000  0.88921000  0.05314000  1.0 0.119788336
H  H65  1  0.59504000  0.84526000  0.08889000  1.0 0.119788336
H  H66  1  0.52073000  0.68043000  0.98353000  1.0 0.110765108
H  H67  1  0.44941000  0.67793000  0.91552000  1.0 0.110765108
H  H68  1  0.40741000  0.71739000  0.88417000  1.0 0.119788336
H  H69  1  0.76110000  0.84488000  0.10508000  1.0 0.0891719115
H  H70  1  0.68914000  0.83774000  0.03077000  1.0 0.0891719115
H  H71  1  0.53819000  0.67955000  0.15009000  1.0 0.0987463933
H  H72  1  0.61015000  0.68669000  0.22441000  1.0 0.0794484104
H  H73  1  0.79281000  0.68705000  0.07075000  1.0 0.0987463933
H  H74  1  0.72868000  0.68868000  0.14186000  1.0 0.110765108
H  H75  1  0.93982000  0.87684000  0.10624000  1.0 0.0987463933
H  H76  1  0.87224000  0.87366000  0.17631000  1.0 0.110765108
H  H77  1  0.84306000  0.71082000  0.15327000  1.0 0.0987463933
H  H78  1  0.89306000  0.85762000  0.04218000  1.0 0.0891719115
H  H79  1  0.79133000  0.81831000  0.07071000  1.0 0.0794484104
H  H80  1  0.77497000  0.70991000  0.21794000  1.0 0.070888363
H  H81  1  0.65495000  0.68877000  0.10546000  1.0 0.0891719115
H  H82  1  0.58388000  0.68274000  0.03277000  1.0 0.0891719115
H  H83  1  0.72278000  0.84648000  0.20274000  1.0 0.0987463933
H  H84  1  0.66530000  0.85232000  0.11927000  1.0 0.0987463933
H  H85  1  0.19111000  0.93517000  0.62482000  1.0 0.119788336
H  H86  1  0.14603000  0.97751000  0.59655000  1.0 0.110765108
H  H87  1  0.14303000  0.04293000  0.52319000  1.0 0.110765108
H  H88  1  0.28667000  0.09313000  0.38961000  1.0 0.110765108
H  H89  1  0.32160000  0.03634000  0.41026000  1.0 0.119788336
H  H90  1  0.34517000  0.99473000  0.49877000  1.0 0.110765108
H  H91  1  0.11897000  0.52555000  0.51764000  1.0 0.110765108
H  H92  1  0.11079000  0.45259000  0.44686000  1.0 0.119788336
H  H93  1  0.15474000  0.40496000  0.41111000  1.0 0.119788336
H  H94  1  0.31957000  0.47927000  0.51647000  1.0 0.110765108
H  H95  1  0.32207000  0.55059000  0.58448000  1.0 0.110765108
H  H96  1  0.28261000  0.59259000  0.61583000  1.0 0.119788336
H  H97  1  0.15512000  0.23890000  0.39492000  1.0 0.0891719115
H  H98  1  0.16226000  0.31086000  0.46923000  1.0 0.0891719115
H  H99  1  0.32045000  0.46181000  0.34991000  1.0 0.0987463933
H  H100  1  0.31331000  0.38985000  0.27559000  1.0 0.0794484104
H  H101  1  0.31295000  0.20719000  0.42925000  1.0 0.0987463933
H  H102  1  0.31132000  0.27132000  0.35814000  1.0 0.110765108
H  H103  1  0.12316000  0.06018000  0.39376000  1.0 0.0987463933
H  H104  1  0.12634000  0.12776000  0.32369000  1.0 0.110765108
H  H105  1  0.28918000  0.15694000  0.34673000  1.0 0.0987463933
H  H106  1  0.14238000  0.10694000  0.45782000  1.0 0.0891719115
H  H107  1  0.18169000  0.20867000  0.42929000  1.0 0.0794484104
H  H108  1  0.29009000  0.22503000  0.28206000  1.0 0.070888363
H  H109  1  0.31123000  0.34505000  0.39454000  1.0 0.0891719115
H  H110  1  0.31726000  0.41612000  0.46723000  1.0 0.0891719115
H  H111  1  0.15352000  0.27722000  0.29726000  1.0 0.0987463933
H  H112  1  0.14768000  0.33470000  0.38073000  1.0 0.0987463933
H  H113  1  0.93517000  0.19111000  0.12482000  1.0 0.119788336
H  H114  1  0.97751000  0.14603000  0.09655000  1.0 0.119788336
H  H115  1  0.04293000  0.14303000  0.02319000  1.0 0.110765108
H  H116  1  0.09313000  0.28667000  0.88961000  1.0 0.110765108
H  H117  1  0.03634000  0.32160000  0.91026000  1.0 0.119788336
H  H118  1  0.99473000  0.34517000  0.99877000  1.0 0.110765108
H  H119  1  0.52555000  0.11897000  0.01764000  1.0 0.110765108
H  H120  1  0.45259000  0.11079000  0.94686000  1.0 0.119788336
H  H121  1  0.40496000  0.15474000  0.91111000  1.0 0.119788336
H  H122  1  0.47927000  0.31957000  0.01647000  1.0 0.110765108
H  H123  1  0.55059000  0.32207000  0.08448000  1.0 0.110765108
H  H124  1  0.59259000  0.28261000  0.11583000  1.0 0.119788336
H  H125  1  0.23890000  0.15512000  0.89492000  1.0 0.0891719115
H  H126  1  0.31086000  0.16226000  0.96923000  1.0 0.0891719115
H  H127  1  0.46181000  0.32045000  0.84991000  1.0 0.0987463933
H  H128  1  0.38985000  0.31331000  0.77559000  1.0 0.0794484104
H  H129  1  0.20719000  0.31295000  0.92925000  1.0 0.0987463933
H  H130  1  0.27132000  0.31132000  0.85814000  1.0 0.110765108
H  H131  1  0.06018000  0.12316000  0.89376000  1.0 0.0987463933
H  H132  1  0.12776000  0.12634000  0.82369000  1.0 0.110765108
H  H133  1  0.15694000  0.28918000  0.84673000  1.0 0.0987463933
H  H134  1  0.10694000  0.14238000  0.95782000  1.0 0.0891719115
H  H135  1  0.20867000  0.18169000  0.92929000  1.0 0.0794484104
H  H136  1  0.22503000  0.29009000  0.78206000  1.0 0.070888363
H  H137  1  0.34505000  0.31123000  0.89454000  1.0 0.0891719115
H  H138  1  0.41612000  0.31726000  0.96723000  1.0 0.0891719115
H  H139  1  0.27722000  0.15352000  0.79726000  1.0 0.0987463933
H  H140  1  0.33470000  0.14768000  0.88073000  1.0 0.0987463933
H  H141  1  0.80889000  0.06483000  0.37518000  1.0 0.119788336
H  H142  1  0.85397000  0.02249000  0.40345000  1.0 0.119788336
H  H143  1  0.85697000  0.95707000  0.47681000  1.0 0.110765108
H  H144  1  0.71333000  0.90687000  0.61039000  1.0 0.110765108
H  H145  1  0.67840000  0.96366000  0.58974000  1.0 0.119788336
H  H146  1  0.65483000  0.00527000  0.50123000  1.0 0.110765108
H  H147  1  0.88103000  0.47445000  0.48236000  1.0 0.110765108
H  H148  1  0.88921000  0.54741000  0.55314000  1.0 0.119788336
H  H149  1  0.84526000  0.59504000  0.58889000  1.0 0.119788336
H  H150  1  0.68043000  0.52073000  0.48353000  1.0 0.110765108
H  H151  1  0.67793000  0.44941000  0.41552000  1.0 0.110765108
H  H152  1  0.71739000  0.40741000  0.38417000  1.0 0.119788336
H  H153  1  0.84488000  0.76110000  0.60508000  1.0 0.0891719115
H  H154  1  0.83774000  0.68914000  0.53077000  1.0 0.0891719115
H  H155  1  0.67955000  0.53819000  0.65009000  1.0 0.0987463933
H  H156  1  0.68669000  0.61015000  0.72441000  1.0 0.0794484104
H  H157  1  0.68705000  0.79281000  0.57075000  1.0 0.0987463933
H  H158  1  0.68868000  0.72868000  0.64186000  1.0 0.110765108
H  H159  1  0.87684000  0.93982000  0.60624000  1.0 0.0987463933
H  H160  1  0.87366000  0.87224000  0.67631000  1.0 0.110765108
H  H161  1  0.71082000  0.84306000  0.65327000  1.0 0.0987463933
H  H162  1  0.85762000  0.89306000  0.54218000  1.0 0.0891719115
H  H163  1  0.81831000  0.79133000  0.57071000  1.0 0.0794484104
H  H164  1  0.70991000  0.77497000  0.71794000  1.0 0.070888363
H  H165  1  0.68877000  0.65495000  0.60546000  1.0 0.0891719115
H  H166  1  0.68274000  0.58388000  0.53277000  1.0 0.0891719115
H  H167  1  0.84648000  0.72278000  0.70274000  1.0 0.0987463933
H  H168  1  0.85232000  0.66530000  0.61927000  1.0 0.0987463933
H  H169  1  0.93517000  0.19111000  0.37518000  1.0 0.119788336
H  H170  1  0.97751000  0.14603000  0.40345000  1.0 0.119788336
H  H171  1  0.04293000  0.14303000  0.47681000  1.0 0.110765108
H  H172  1  0.09313000  0.28667000  0.61039000  1.0 0.110765108
H  H173  1  0.03634000  0.32160000  0.58974000  1.0 0.119788336
H  H174  1  0.99473000  0.34517000  0.50123000  1.0 0.110765108
H  H175  1  0.52555000  0.11897000  0.48236000  1.0 0.110765108
H  H176  1  0.45259000  0.11079000  0.55314000  1.0 0.119788336
H  H177  1  0.40496000  0.15474000  0.58889000  1.0 0.119788336
H  H178  1  0.47927000  0.31957000  0.48353000  1.0 0.110765108
H  H179  1  0.55059000  0.32207000  0.41552000  1.0 0.110765108
H  H180  1  0.59259000  0.28261000  0.38417000  1.0 0.119788336
H  H181  1  0.23890000  0.15512000  0.60508000  1.0 0.0891719115
H  H182  1  0.31086000  0.16226000  0.53077000  1.0 0.0891719115
H  H183  1  0.46181000  0.32045000  0.65009000  1.0 0.0987463933
H  H184  1  0.38985000  0.31331000  0.72441000  1.0 0.0794484104
H  H185  1  0.20719000  0.31295000  0.57075000  1.0 0.0987463933
H  H186  1  0.27132000  0.31132000  0.64186000  1.0 0.110765108
H  H187  1  0.06018000  0.12316000  0.60624000  1.0 0.0987463933
H  H188  1  0.12776000  0.12634000  0.67631000  1.0 0.110765108
H  H189  1  0.15694000  0.28918000  0.65327000  1.0 0.0987463933
H  H190  1  0.10694000  0.14238000  0.54218000  1.0 0.0891719115
H  H191  1  0.20867000  0.18169000  0.57071000  1.0 0.0794484104
H  H192  1  0.22503000  0.29009000  0.71794000  1.0 0.070888363
H  H193  1  0.34505000  0.31123000  0.60546000  1.0 0.0891719115
H  H194  1  0.41612000  0.31726000  0.53277000  1.0 0.0891719115
H  H195  1  0.27722000  0.15352000  0.70274000  1.0 0.0987463933
H  H196  1  0.33470000  0.14768000  0.61927000  1.0 0.0987463933
H  H197  1  0.80889000  0.06483000  0.12482000  1.0 0.119788336
H  H198  1  0.85397000  0.02249000  0.09655000  1.0 0.119788336
H  H199  1  0.85697000  0.95707000  0.02319000  1.0 0.110765108
H  H200  1  0.71333000  0.90687000  0.88961000  1.0 0.110765108
H  H201  1  0.67840000  0.96366000  0.91026000  1.0 0.119788336
H  H202  1  0.65483000  0.00527000  0.99877000  1.0 0.110765108
H  H203  1  0.88103000  0.47445000  0.01764000  1.0 0.110765108
H  H204  1  0.88921000  0.54741000  0.94686000  1.0 0.119788336
H  H205  1  0.84526000  0.59504000  0.91111000  1.0 0.119788336
H  H206  1  0.68043000  0.52073000  0.01647000  1.0 0.110765108
H  H207  1  0.67793000  0.44941000  0.08448000  1.0 0.110765108
H  H208  1  0.71739000  0.40741000  0.11583000  1.0 0.119788336
H  H209  1  0.84488000  0.76110000  0.89492000  1.0 0.0891719115
H  H210  1  0.83774000  0.68914000  0.96923000  1.0 0.0891719115
H  H211  1  0.67955000  0.53819000  0.84991000  1.0 0.0987463933
H  H212  1  0.68669000  0.61015000  0.77559000  1.0 0.0794484104
H  H213  1  0.68705000  0.79281000  0.92925000  1.0 0.0987463933
H  H214  1  0.68868000  0.72868000  0.85814000  1.0 0.110765108
H  H215  1  0.87684000  0.93982000  0.89376000  1.0 0.0987463933
H  H216  1  0.87366000  0.87224000  0.82369000  1.0 0.110765108
H  H217  1  0.71082000  0.84306000  0.84673000  1.0 0.0987463933
H  H218  1  0.85762000  0.89306000  0.95782000  1.0 0.0891719115
H  H219  1  0.81831000  0.79133000  0.92929000  1.0 0.0794484104
H  H220  1  0.70991000  0.77497000  0.78206000  1.0 0.070888363
H  H221  1  0.68877000  0.65495000  0.89454000  1.0 0.0891719115
H  H222  1  0.68274000  0.58388000  0.96723000  1.0 0.0891719115
H  H223  1  0.84648000  0.72278000  0.79726000  1.0 0.0987463933
H  H224  1  0.85232000  0.66530000  0.88073000  1.0 0.0987463933
C  C1  1  0.04790000  0.73330000  0.56920000  1.0 -0.047799419
C  C2  1  0.04210000  0.77970000  0.58320000  1.0 -0.1596731663
C  C3  1  0.00350000  0.78190000  0.53670000  1.0 0.0589345174
C  C4  1  0.99900000  0.82540000  0.55450000  1.0 -0.1526186396
C  C5  1  0.96020000  0.82720000  0.51100000  1.0 -0.1790444328
C  C6  1  0.92580000  0.78540000  0.44950000  1.0 0.0026307584
C  C7  1  0.93030000  0.74190000  0.43160000  1.0 -0.229316674
C  C8  1  0.96920000  0.74000000  0.47520000  1.0 0.0794484104
C  C9  1  0.97890000  0.70010000  0.45790000  1.0 -0.1790444328
C  C10  1  0.00990000  0.69030000  0.50710000  1.0 -0.1093825391
C  C11  1  0.43390000  0.79870000  0.57350000  1.0 -0.0693085858
C  C12  1  0.47560000  0.84918000  0.52331000  1.0 -0.0792471467
C  C13  1  0.51921000  0.85391000  0.48100000  1.0 -0.1790444328
C  C14  1  0.47990000  0.76010000  0.53820000  1.0 0.0529913576
C  C15  1  0.52316000  0.80984000  0.48670000  1.0 0.0891719115
C  C16  1  0.56550000  0.81130000  0.44630000  1.0 -0.2130872233
C  C17  1  0.56460000  0.76300000  0.45740000  1.0 0.0446326312
C  C18  1  0.52140000  0.71340000  0.50890000  1.0 -0.1716314506
C  C19  1  0.47890000  0.71190000  0.54930000  1.0 -0.1596731663
C  C20  1  0.43560000  0.75280000  0.58170000  1.0 -0.1347532811
C  C21  1  0.08760000  0.73260000  0.62150000  1.0 0.5895841198
C  C22  1  0.38880000  0.79340000  0.61880000  1.0 0.6240881758
C  C23  1  0.87580000  0.78180000  0.42160000  1.0 0.0078510811
C  C24  1  0.78990000  0.78150000  0.32900000  1.0 0.0341655032
C  C25  1  0.74000000  0.77060000  0.28680000  1.0 -0.1716314506
C  C26  1  0.69240000  0.76640000  0.32830000  1.0 0.0589345174
C  C27  1  0.71590000  0.81130000  0.38600000  1.0 -0.047799419
C  C28  1  0.67310000  0.80710000  0.42990000  1.0 -0.047799419
C  C29  1  0.60690000  0.75790000  0.41660000  1.0 0.0341655032
C  C30  1  0.58350000  0.71310000  0.35900000  1.0 -0.1093825391
C  C31  1  0.62620000  0.71740000  0.31490000  1.0 -0.1526186396
C  C32  1  0.81120000  0.72720000  0.40800000  1.0 -0.047799419
C  C33  1  0.77290000  0.72910000  0.36400000  1.0 -0.047799419
C  C34  1  0.89580000  0.83620000  0.38800000  1.0 -0.1093825391
C  C35  1  0.85410000  0.83370000  0.34500000  1.0 -0.0589354071
C  C36  1  0.83990000  0.74010000  0.36100000  1.0 -0.0792471467
C  C37  1  0.86270000  0.81930000  0.42900000  1.0 -0.0217336899
C  C38  1  0.81150000  0.80850000  0.40100000  1.0 -0.1526186396
C  C39  1  0.80010000  0.74190000  0.32100000  1.0 -0.0693085858
C  C40  1  0.65250000  0.71950000  0.38600000  1.0 -0.102621652
C  C41  1  0.61040000  0.71560000  0.42900000  1.0 -0.1093825391
C  C42  1  0.69320000  0.81080000  0.33100000  1.0 -0.0589354071
C  C43  1  0.65730000  0.81470000  0.37700000  1.0 -0.0589354071
C  C44  1  0.26670000  0.95210000  0.93080000  1.0 -0.047799419
C  C45  1  0.22030000  0.95790000  0.91680000  1.0 -0.1596731663
C  C46  1  0.21810000  0.99650000  0.96330000  1.0 0.0589345174
C  C47  1  0.17460000  0.00100000  0.94550000  1.0 -0.1526186396
C  C48  1  0.17280000  0.03980000  0.98900000  1.0 -0.1790444328
C  C49  1  0.21460000  0.07420000  0.05050000  1.0 0.0026307584
C  C50  1  0.25810000  0.06970000  0.06840000  1.0 -0.229316674
C  C51  1  0.26000000  0.03080000  0.02480000  1.0 0.0794484104
C  C52  1  0.29990000  0.02110000  0.04210000  1.0 -0.1790444328
C  C53  1  0.30970000  0.99010000  0.99290000  1.0 -0.1093825391
C  C54  1  0.20130000  0.56610000  0.92650000  1.0 -0.0693085858
C  C55  1  0.15082000  0.52440000  0.97669000  1.0 -0.0792471467
C  C56  1  0.14609000  0.48079000  0.01900000  1.0 -0.1790444328
C  C57  1  0.23990000  0.52010000  0.96180000  1.0 0.0529913576
C  C58  1  0.19016000  0.47684000  0.01330000  1.0 0.0891719115
C  C59  1  0.18870000  0.43450000  0.05370000  1.0 -0.2130872233
C  C60  1  0.23700000  0.43540000  0.04260000  1.0 0.0446326312
C  C61  1  0.28660000  0.47860000  0.99110000  1.0 -0.1716314506
C  C62  1  0.28810000  0.52110000  0.95070000  1.0 -0.1596731663
C  C63  1  0.24720000  0.56440000  0.91830000  1.0 -0.1347532811
C  C64  1  0.26740000  0.91240000  0.87850000  1.0 0.5895841198
C  C65  1  0.20660000  0.61120000  0.88120000  1.0 0.6240881758
C  C66  1  0.21820000  0.12420000  0.07840000  1.0 0.0078510811
C  C67  1  0.21850000  0.21010000  0.17100000  1.0 0.0341655032
C  C68  1  0.22940000  0.26000000  0.21320000  1.0 -0.1716314506
C  C69  1  0.23360000  0.30760000  0.17170000  1.0 0.0589345174
C  C70  1  0.18870000  0.28410000  0.11400000  1.0 -0.047799419
C  C71  1  0.19290000  0.32690000  0.07010000  1.0 -0.047799419
C  C72  1  0.24210000  0.39310000  0.08340000  1.0 0.0341655032
C  C73  1  0.28690000  0.41650000  0.14100000  1.0 -0.1093825391
C  C74  1  0.28260000  0.37380000  0.18510000  1.0 -0.1526186396
C  C75  1  0.27280000  0.18880000  0.09200000  1.0 -0.047799419
C  C76  1  0.27090000  0.22710000  0.13600000  1.0 -0.047799419
C  C77  1  0.16380000  0.10420000  0.11200000  1.0 -0.1093825391
C  C78  1  0.16630000  0.14590000  0.15500000  1.0 -0.0589354071
C  C79  1  0.25990000  0.16010000  0.13900000  1.0 -0.0792471467
C  C80  1  0.18070000  0.13730000  0.07100000  1.0 -0.0217336899
C  C81  1  0.19150000  0.18850000  0.09900000  1.0 -0.1526186396
C  C82  1  0.25810000  0.19990000  0.17900000  1.0 -0.0693085858
C  C83  1  0.28050000  0.34750000  0.11400000  1.0 -0.102621652
C  C84  1  0.28440000  0.38960000  0.07100000  1.0 -0.1093825391
C  C85  1  0.18920000  0.30680000  0.16900000  1.0 -0.0589354071
C  C86  1  0.18530000  0.34270000  0.12300000  1.0 -0.0589354071
C  C87  1  0.04790000  0.73330000  0.93080000  1.0 -0.047799419
C  C88  1  0.04210000  0.77970000  0.91680000  1.0 -0.1596731663
C  C89  1  0.00350000  0.78190000  0.96330000  1.0 0.0589345174
C  C90  1  0.99900000  0.82540000  0.94550000  1.0 -0.1526186396
C  C91  1  0.96020000  0.82720000  0.98900000  1.0 -0.1790444328
C  C92  1  0.92580000  0.78540000  0.05050000  1.0 0.0026307584
C  C93  1  0.93030000  0.74190000  0.06840000  1.0 -0.229316674
C  C94  1  0.96920000  0.74000000  0.02480000  1.0 0.0794484104
C  C95  1  0.97890000  0.70010000  0.04210000  1.0 -0.1790444328
C  C96  1  0.00990000  0.69030000  0.99290000  1.0 -0.1093825391
C  C97  1  0.43390000  0.79870000  0.92650000  1.0 -0.0693085858
C  C98  1  0.47560000  0.84918000  0.97669000  1.0 -0.0792471467
C  C99  1  0.51921000  0.85391000  0.01900000  1.0 -0.1790444328
C  C100  1  0.47990000  0.76010000  0.96180000  1.0 0.0529913576
C  C101  1  0.52316000  0.80984000  0.01330000  1.0 0.0891719115
C  C102  1  0.56550000  0.81130000  0.05370000  1.0 -0.2130872233
C  C103  1  0.56460000  0.76300000  0.04260000  1.0 0.0446326312
C  C104  1  0.52140000  0.71340000  0.99110000  1.0 -0.1716314506
C  C105  1  0.47890000  0.71190000  0.95070000  1.0 -0.1596731663
C  C106  1  0.43560000  0.75280000  0.91830000  1.0 -0.1347532811
C  C107  1  0.08760000  0.73260000  0.87850000  1.0 0.5895841198
C  C108  1  0.38880000  0.79340000  0.88120000  1.0 0.6240881758
C  C109  1  0.87580000  0.78180000  0.07840000  1.0 0.0078510811
C  C110  1  0.78990000  0.78150000  0.17100000  1.0 0.0341655032
C  C111  1  0.74000000  0.77060000  0.21320000  1.0 -0.1716314506
C  C112  1  0.69240000  0.76640000  0.17170000  1.0 0.0589345174
C  C113  1  0.71590000  0.81130000  0.11400000  1.0 -0.047799419
C  C114  1  0.67310000  0.80710000  0.07010000  1.0 -0.047799419
C  C115  1  0.60690000  0.75790000  0.08340000  1.0 0.0341655032
C  C116  1  0.58350000  0.71310000  0.14100000  1.0 -0.1093825391
C  C117  1  0.62620000  0.71740000  0.18510000  1.0 -0.1526186396
C  C118  1  0.81120000  0.72720000  0.09200000  1.0 -0.047799419
C  C119  1  0.77290000  0.72910000  0.13600000  1.0 -0.047799419
C  C120  1  0.89580000  0.83620000  0.11200000  1.0 -0.1093825391
C  C121  1  0.85410000  0.83370000  0.15500000  1.0 -0.0589354071
C  C122  1  0.83990000  0.74010000  0.13900000  1.0 -0.0792471467
C  C123  1  0.86270000  0.81930000  0.07100000  1.0 -0.0217336899
C  C124  1  0.81150000  0.80850000  0.09900000  1.0 -0.1526186396
C  C125  1  0.80010000  0.74190000  0.17900000  1.0 -0.0693085858
C  C126  1  0.65250000  0.71950000  0.11400000  1.0 -0.102621652
C  C127  1  0.61040000  0.71560000  0.07100000  1.0 -0.1093825391
C  C128  1  0.69320000  0.81080000  0.16900000  1.0 -0.0589354071
C  C129  1  0.65730000  0.81470000  0.12300000  1.0 -0.0589354071
C  C130  1  0.26670000  0.95210000  0.56920000  1.0 -0.047799419
C  C131  1  0.22030000  0.95790000  0.58320000  1.0 -0.1596731663
C  C132  1  0.21810000  0.99650000  0.53670000  1.0 0.0589345174
C  C133  1  0.17460000  0.00100000  0.55450000  1.0 -0.1526186396
C  C134  1  0.17280000  0.03980000  0.51100000  1.0 -0.1790444328
C  C135  1  0.21460000  0.07420000  0.44950000  1.0 0.0026307584
C  C136  1  0.25810000  0.06970000  0.43160000  1.0 -0.229316674
C  C137  1  0.26000000  0.03080000  0.47520000  1.0 0.0794484104
C  C138  1  0.29990000  0.02110000  0.45790000  1.0 -0.1790444328
C  C139  1  0.30970000  0.99010000  0.50710000  1.0 -0.1093825391
C  C140  1  0.20130000  0.56610000  0.57350000  1.0 -0.0693085858
C  C141  1  0.15082000  0.52440000  0.52331000  1.0 -0.0792471467
C  C142  1  0.14609000  0.48079000  0.48100000  1.0 -0.1790444328
C  C143  1  0.23990000  0.52010000  0.53820000  1.0 0.0529913576
C  C144  1  0.19016000  0.47684000  0.48670000  1.0 0.0891719115
C  C145  1  0.18870000  0.43450000  0.44630000  1.0 -0.2130872233
C  C146  1  0.23700000  0.43540000  0.45740000  1.0 0.0446326312
C  C147  1  0.28660000  0.47860000  0.50890000  1.0 -0.1716314506
C  C148  1  0.28810000  0.52110000  0.54930000  1.0 -0.1596731663
C  C149  1  0.24720000  0.56440000  0.58170000  1.0 -0.1347532811
C  C150  1  0.26740000  0.91240000  0.62150000  1.0 0.5895841198
C  C151  1  0.20660000  0.61120000  0.61880000  1.0 0.6240881758
C  C152  1  0.21820000  0.12420000  0.42160000  1.0 0.0078510811
C  C153  1  0.21850000  0.21010000  0.32900000  1.0 0.0341655032
C  C154  1  0.22940000  0.26000000  0.28680000  1.0 -0.1716314506
C  C155  1  0.23360000  0.30760000  0.32830000  1.0 0.0589345174
C  C156  1  0.18870000  0.28410000  0.38600000  1.0 -0.047799419
C  C157  1  0.19290000  0.32690000  0.42990000  1.0 -0.047799419
C  C158  1  0.24210000  0.39310000  0.41660000  1.0 0.0341655032
C  C159  1  0.28690000  0.41650000  0.35900000  1.0 -0.1093825391
C  C160  1  0.28260000  0.37380000  0.31490000  1.0 -0.1526186396
C  C161  1  0.27280000  0.18880000  0.40800000  1.0 -0.047799419
C  C162  1  0.27090000  0.22710000  0.36400000  1.0 -0.047799419
C  C163  1  0.16380000  0.10420000  0.38800000  1.0 -0.1093825391
C  C164  1  0.16630000  0.14590000  0.34500000  1.0 -0.0589354071
C  C165  1  0.25990000  0.16010000  0.36100000  1.0 -0.0792471467
C  C166  1  0.18070000  0.13730000  0.42900000  1.0 -0.0217336899
C  C167  1  0.19150000  0.18850000  0.40100000  1.0 -0.1526186396
C  C168  1  0.25810000  0.19990000  0.32100000  1.0 -0.0693085858
C  C169  1  0.28050000  0.34750000  0.38600000  1.0 -0.102621652
C  C170  1  0.28440000  0.38960000  0.42900000  1.0 -0.1093825391
C  C171  1  0.18920000  0.30680000  0.33100000  1.0 -0.0589354071
C  C172  1  0.18530000  0.34270000  0.37700000  1.0 -0.0589354071
C  C173  1  0.95210000  0.26670000  0.06920000  1.0 -0.047799419
C  C174  1  0.95790000  0.22030000  0.08320000  1.0 -0.1596731663
C  C175  1  0.99650000  0.21810000  0.03670000  1.0 0.0589345174
C  C176  1  0.00100000  0.17460000  0.05450000  1.0 -0.1526186396
C  C177  1  0.03980000  0.17280000  0.01100000  1.0 -0.1790444328
C  C178  1  0.07420000  0.21460000  0.94950000  1.0 0.0026307584
C  C179  1  0.06970000  0.25810000  0.93160000  1.0 -0.229316674
C  C180  1  0.03080000  0.26000000  0.97520000  1.0 0.0794484104
C  C181  1  0.02110000  0.29990000  0.95790000  1.0 -0.1790444328
C  C182  1  0.99010000  0.30970000  0.00710000  1.0 -0.1093825391
C  C183  1  0.56610000  0.20130000  0.07350000  1.0 -0.0693085858
C  C184  1  0.52440000  0.15082000  0.02331000  1.0 -0.0792471467
C  C185  1  0.48079000  0.14609000  0.98100000  1.0 -0.1790444328
C  C186  1  0.52010000  0.23990000  0.03820000  1.0 0.0529913576
C  C187  1  0.47684000  0.19016000  0.98670000  1.0 0.0891719115
C  C188  1  0.43450000  0.18870000  0.94630000  1.0 -0.2130872233
C  C189  1  0.43540000  0.23700000  0.95740000  1.0 0.0446326312
C  C190  1  0.47860000  0.28660000  0.00890000  1.0 -0.1716314506
C  C191  1  0.52110000  0.28810000  0.04930000  1.0 -0.1596731663
C  C192  1  0.56440000  0.24720000  0.08170000  1.0 -0.1347532811
C  C193  1  0.91240000  0.26740000  0.12150000  1.0 0.5895841198
C  C194  1  0.61120000  0.20660000  0.11880000  1.0 0.6240881758
C  C195  1  0.12420000  0.21820000  0.92160000  1.0 0.0078510811
C  C196  1  0.21010000  0.21850000  0.82900000  1.0 0.0341655032
C  C197  1  0.26000000  0.22940000  0.78680000  1.0 -0.1716314506
C  C198  1  0.30760000  0.23360000  0.82830000  1.0 0.0589345174
C  C199  1  0.28410000  0.18870000  0.88600000  1.0 -0.047799419
C  C200  1  0.32690000  0.19290000  0.92990000  1.0 -0.047799419
C  C201  1  0.39310000  0.24210000  0.91660000  1.0 0.0341655032
C  C202  1  0.41650000  0.28690000  0.85900000  1.0 -0.1093825391
C  C203  1  0.37380000  0.28260000  0.81490000  1.0 -0.1526186396
C  C204  1  0.18880000  0.27280000  0.90800000  1.0 -0.047799419
C  C205  1  0.22710000  0.27090000  0.86400000  1.0 -0.047799419
C  C206  1  0.10420000  0.16380000  0.88800000  1.0 -0.1093825391
C  C207  1  0.14590000  0.16630000  0.84500000  1.0 -0.0589354071
C  C208  1  0.16010000  0.25990000  0.86100000  1.0 -0.0792471467
C  C209  1  0.13730000  0.18070000  0.92900000  1.0 -0.0217336899
C  C210  1  0.18850000  0.19150000  0.90100000  1.0 -0.1526186396
C  C211  1  0.19990000  0.25810000  0.82100000  1.0 -0.0693085858
C  C212  1  0.34750000  0.28050000  0.88600000  1.0 -0.102621652
C  C213  1  0.38960000  0.28440000  0.92900000  1.0 -0.1093825391
C  C214  1  0.30680000  0.18920000  0.83100000  1.0 -0.0589354071
C  C215  1  0.34270000  0.18530000  0.87700000  1.0 -0.0589354071
C  C216  1  0.73330000  0.04790000  0.43080000  1.0 -0.047799419
C  C217  1  0.77970000  0.04210000  0.41680000  1.0 -0.1596731663
C  C218  1  0.78190000  0.00350000  0.46330000  1.0 0.0589345174
C  C219  1  0.82540000  0.99900000  0.44550000  1.0 -0.1526186396
C  C220  1  0.82720000  0.96020000  0.48900000  1.0 -0.1790444328
C  C221  1  0.78540000  0.92580000  0.55050000  1.0 0.0026307584
C  C222  1  0.74190000  0.93030000  0.56840000  1.0 -0.229316674
C  C223  1  0.74000000  0.96920000  0.52480000  1.0 0.0794484104
C  C224  1  0.70010000  0.97890000  0.54210000  1.0 -0.1790444328
C  C225  1  0.69030000  0.00990000  0.49290000  1.0 -0.1093825391
C  C226  1  0.79870000  0.43390000  0.42650000  1.0 -0.0693085858
C  C227  1  0.84918000  0.47560000  0.47669000  1.0 -0.0792471467
C  C228  1  0.85391000  0.51921000  0.51900000  1.0 -0.1790444328
C  C229  1  0.76010000  0.47990000  0.46180000  1.0 0.0529913576
C  C230  1  0.80984000  0.52316000  0.51330000  1.0 0.0891719115
C  C231  1  0.81130000  0.56550000  0.55370000  1.0 -0.2130872233
C  C232  1  0.76300000  0.56460000  0.54260000  1.0 0.0529913576
C  C233  1  0.71340000  0.52140000  0.49110000  1.0 -0.1716314506
C  C234  1  0.71190000  0.47890000  0.45070000  1.0 -0.1596731663
C  C235  1  0.75280000  0.43560000  0.41830000  1.0 -0.1347532811
C  C236  1  0.73260000  0.08760000  0.37850000  1.0 0.5895841198
C  C237  1  0.79340000  0.38880000  0.38120000  1.0 0.6240881758
C  C238  1  0.78180000  0.87580000  0.57840000  1.0 0.0078510811
C  C239  1  0.78150000  0.78990000  0.67100000  1.0 0.0341655032
C  C240  1  0.77060000  0.74000000  0.71320000  1.0 -0.1716314506
C  C241  1  0.76640000  0.69240000  0.67170000  1.0 0.0589345174
C  C242  1  0.81130000  0.71590000  0.61400000  1.0 -0.047799419
C  C243  1  0.80710000  0.67310000  0.57010000  1.0 -0.047799419
C  C244  1  0.75790000  0.60690000  0.58340000  1.0 0.0341655032
C  C245  1  0.71310000  0.58350000  0.64100000  1.0 -0.1093825391
C  C246  1  0.71740000  0.62620000  0.68510000  1.0 -0.1526186396
C  C247  1  0.72720000  0.81120000  0.59200000  1.0 -0.047799419
C  C248  1  0.72910000  0.77290000  0.63600000  1.0 -0.047799419
C  C249  1  0.83620000  0.89580000  0.61200000  1.0 -0.1093825391
C  C250  1  0.83370000  0.85410000  0.65500000  1.0 -0.0589354071
C  C251  1  0.74010000  0.83990000  0.63900000  1.0 -0.0792471467
C  C252  1  0.81930000  0.86270000  0.57100000  1.0 -0.0217336899
C  C253  1  0.80850000  0.81150000  0.59900000  1.0 -0.1526186396
C  C254  1  0.74190000  0.80010000  0.67900000  1.0 -0.0693085858
C  C255  1  0.71950000  0.65250000  0.61400000  1.0 -0.102621652
C  C256  1  0.71560000  0.61040000  0.57100000  1.0 -0.1093825391
C  C257  1  0.81080000  0.69320000  0.66900000  1.0 -0.0589354071
C  C258  1  0.81470000  0.65730000  0.62300000  1.0 -0.0589354071
C  C259  1  0.95210000  0.26670000  0.43080000  1.0 -0.047799419
C  C260  1  0.95790000  0.22030000  0.41680000  1.0 -0.1596731663
C  C261  1  0.99650000  0.21810000  0.46330000  1.0 0.0589345174
C  C262  1  0.00100000  0.17460000  0.44550000  1.0 -0.1526186396
C  C263  1  0.03980000  0.17280000  0.48900000  1.0 -0.1790444328
C  C264  1  0.07420000  0.21460000  0.55050000  1.0 0.0026307584
C  C265  1  0.06970000  0.25810000  0.56840000  1.0 -0.229316674
C  C266  1  0.03080000  0.26000000  0.52480000  1.0 0.0794484104
C  C267  1  0.02110000  0.29990000  0.54210000  1.0 -0.1790444328
C  C268  1  0.99010000  0.30970000  0.49290000  1.0 -0.1093825391
C  C269  1  0.56610000  0.20130000  0.42650000  1.0 -0.0693085858
C  C270  1  0.52440000  0.15082000  0.47669000  1.0 -0.0792471467
C  C271  1  0.48079000  0.14609000  0.51900000  1.0 -0.1790444328
C  C272  1  0.52010000  0.23990000  0.46180000  1.0 0.0529913576
C  C273  1  0.47684000  0.19016000  0.51330000  1.0 0.0891719115
C  C274  1  0.43450000  0.18870000  0.55370000  1.0 -0.2130872233
C  C275  1  0.43540000  0.23700000  0.54260000  1.0 0.0529913576
C  C276  1  0.47860000  0.28660000  0.49110000  1.0 -0.1716314506
C  C277  1  0.52110000  0.28810000  0.45070000  1.0 -0.1596731663
C  C278  1  0.56440000  0.24720000  0.41830000  1.0 -0.1347532811
C  C279  1  0.91240000  0.26740000  0.37850000  1.0 0.5895841198
C  C280  1  0.61120000  0.20660000  0.38120000  1.0 0.6240881758
C  C281  1  0.12420000  0.21820000  0.57840000  1.0 0.0078510811
C  C282  1  0.21010000  0.21850000  0.67100000  1.0 0.0341655032
C  C283  1  0.26000000  0.22940000  0.71320000  1.0 -0.1716314506
C  C284  1  0.30760000  0.23360000  0.67170000  1.0 0.0589345174
C  C285  1  0.28410000  0.18870000  0.61400000  1.0 -0.047799419
C  C286  1  0.32690000  0.19290000  0.57010000  1.0 -0.047799419
C  C287  1  0.39310000  0.24210000  0.58340000  1.0 0.0341655032
C  C288  1  0.41650000  0.28690000  0.64100000  1.0 -0.1093825391
C  C289  1  0.37380000  0.28260000  0.68510000  1.0 -0.1526186396
C  C290  1  0.18880000  0.27280000  0.59200000  1.0 -0.047799419
C  C291  1  0.22710000  0.27090000  0.63600000  1.0 -0.047799419
C  C292  1  0.10420000  0.16380000  0.61200000  1.0 -0.1093825391
C  C293  1  0.14590000  0.16630000  0.65500000  1.0 -0.0589354071
C  C294  1  0.16010000  0.25990000  0.63900000  1.0 -0.0792471467
C  C295  1  0.13730000  0.18070000  0.57100000  1.0 -0.0217336899
C  C296  1  0.18850000  0.19150000  0.59900000  1.0 -0.1526186396
C  C297  1  0.19990000  0.25810000  0.67900000  1.0 -0.0693085858
C  C298  1  0.34750000  0.28050000  0.61400000  1.0 -0.102621652
C  C299  1  0.38960000  0.28440000  0.57100000  1.0 -0.1093825391
C  C300  1  0.30680000  0.18920000  0.66900000  1.0 -0.0589354071
C  C301  1  0.34270000  0.18530000  0.62300000  1.0 -0.0589354071
C  C302  1  0.73330000  0.04790000  0.06920000  1.0 -0.047799419
C  C303  1  0.77970000  0.04210000  0.08320000  1.0 -0.1596731663
C  C304  1  0.78190000  0.00350000  0.03670000  1.0 0.0589345174
C  C305  1  0.82540000  0.99900000  0.05450000  1.0 -0.1526186396
C  C306  1  0.82720000  0.96020000  0.01100000  1.0 -0.1790444328
C  C307  1  0.78540000  0.92580000  0.94950000  1.0 0.0026307584
C  C308  1  0.74190000  0.93030000  0.93160000  1.0 -0.229316674
C  C309  1  0.74000000  0.96920000  0.97520000  1.0 0.0794484104
C  C310  1  0.70010000  0.97890000  0.95790000  1.0 -0.1790444328
C  C311  1  0.69030000  0.00990000  0.00710000  1.0 -0.1093825391
C  C312  1  0.79870000  0.43390000  0.07350000  1.0 -0.0693085858
C  C313  1  0.84918000  0.47560000  0.02331000  1.0 -0.0792471467
C  C314  1  0.85391000  0.51921000  0.98100000  1.0 -0.1790444328
C  C315  1  0.76010000  0.47990000  0.03820000  1.0 0.0529913576
C  C316  1  0.80984000  0.52316000  0.98670000  1.0 0.0891719115
C  C317  1  0.81130000  0.56550000  0.94630000  1.0 -0.2130872233
C  C318  1  0.76300000  0.56460000  0.95740000  1.0 0.0446326312
C  C319  1  0.71340000  0.52140000  0.00890000  1.0 -0.1716314506
C  C320  1  0.71190000  0.47890000  0.04930000  1.0 -0.1596731663
C  C321  1  0.75280000  0.43560000  0.08170000  1.0 -0.1347532811
C  C322  1  0.73260000  0.08760000  0.12150000  1.0 0.5895841198
C  C323  1  0.79340000  0.38880000  0.11880000  1.0 0.6240881758
C  C324  1  0.78180000  0.87580000  0.92160000  1.0 0.0078510811
C  C325  1  0.78150000  0.78990000  0.82900000  1.0 0.0341655032
C  C326  1  0.77060000  0.74000000  0.78680000  1.0 -0.1716314506
C  C327  1  0.76640000  0.69240000  0.82830000  1.0 0.0589345174
C  C328  1  0.81130000  0.71590000  0.88600000  1.0 -0.047799419
C  C329  1  0.80710000  0.67310000  0.92990000  1.0 -0.047799419
C  C330  1  0.75790000  0.60690000  0.91660000  1.0 0.0341655032
C  C331  1  0.71310000  0.58350000  0.85900000  1.0 -0.1093825391
C  C332  1  0.71740000  0.62620000  0.81490000  1.0 -0.1526186396
C  C333  1  0.72720000  0.81120000  0.90800000  1.0 -0.047799419
C  C334  1  0.72910000  0.77290000  0.86400000  1.0 -0.047799419
C  C335  1  0.83620000  0.89580000  0.88800000  1.0 -0.1093825391
C  C336  1  0.83370000  0.85410000  0.84500000  1.0 -0.0589354071
C  C337  1  0.74010000  0.83990000  0.86100000  1.0 -0.0792471467
C  C338  1  0.81930000  0.86270000  0.92900000  1.0 -0.0217336899
C  C339  1  0.80850000  0.81150000  0.90100000  1.0 -0.1526186396
C  C340  1  0.74190000  0.80010000  0.82100000  1.0 -0.0693085858
C  C341  1  0.71950000  0.65250000  0.88600000  1.0 -0.102621652
C  C342  1  0.71560000  0.61040000  0.92900000  1.0 -0.1093825391
C  C343  1  0.81080000  0.69320000  0.83100000  1.0 -0.0589354071
C  C344  1  0.81470000  0.65730000  0.87700000  1.0 -0.0589354071
O  O1  1  0.11410000  0.77350000  0.67210000  1.0 -0.5419116987
O  O2  1  0.38660000  0.83740000  0.61050000  1.0 -0.6377733124
O  O3  1  0.36010000  0.75490000  0.67670000  1.0 -0.5797969027
O  O4  1  0.09410000  0.69870000  0.59930000  1.0 -0.5506365074
O  O5  1  0.22650000  0.88590000  0.82790000  1.0 -0.5419116987
O  O6  1  0.16260000  0.61340000  0.88950000  1.0 -0.6377733124
O  O7  1  0.24510000  0.63990000  0.82330000  1.0 -0.5797969027
O  O8  1  0.30130000  0.90590000  0.90070000  1.0 -0.5506365074
O  O9  1  0.11410000  0.77350000  0.82790000  1.0 -0.5419116987
O  O10  1  0.38660000  0.83740000  0.88950000  1.0 -0.6377733124
O  O11  1  0.36010000  0.75490000  0.82330000  1.0 -0.5797969027
O  O12  1  0.09410000  0.69870000  0.90070000  1.0 -0.5506365074
O  O13  1  0.22650000  0.88590000  0.67210000  1.0 -0.5419116987
O  O14  1  0.16260000  0.61340000  0.61050000  1.0 -0.6377733124
O  O15  1  0.24510000  0.63990000  0.67670000  1.0 -0.5797969027
O  O16  1  0.30130000  0.90590000  0.59930000  1.0 -0.5506365074
O  O17  1  0.21390000  0.78610000  0.65940000  1.0 -1.171991892
O  O18  1  0.21390000  0.78610000  0.84060000  1.0 -1.171991892
O  O19  1  0.18310000  0.67150000  0.75000000  1.0 -1.1479200794
O  O20  1  0.12330000  0.69950000  0.75000000  1.0 -1.1411560549
O  O21  1  0.32850000  0.81690000  0.75000000  1.0 -1.1479200794
O  O22  1  0.30050000  0.87670000  0.75000000  1.0 -1.1411560549
O  O23  1  0.25940000  0.74060000  0.64240000  1.0 -1.1914849056
O  O24  1  0.25940000  0.74060000  0.85760000  1.0 -1.1914849056
O  O25  1  0.88590000  0.22650000  0.17210000  1.0 -0.5419116987
O  O26  1  0.61340000  0.16260000  0.11050000  1.0 -0.6377733124
O  O27  1  0.63990000  0.24510000  0.17670000  1.0 -0.5797969027
O  O28  1  0.90590000  0.30130000  0.09930000  1.0 -0.5506365074
O  O29  1  0.77350000  0.11410000  0.32790000  1.0 -0.5419116987
O  O30  1  0.83740000  0.38660000  0.38950000  1.0 -0.6377733124
O  O31  1  0.75490000  0.36010000  0.32330000  1.0 -0.5797969027
O  O32  1  0.69870000  0.09410000  0.40070000  1.0 -0.5506365074
O  O33  1  0.88590000  0.22650000  0.32790000  1.0 -0.5419116987
O  O34  1  0.61340000  0.16260000  0.38950000  1.0 -0.6377733124
O  O35  1  0.63990000  0.24510000  0.32330000  1.0 -0.5797969027
O  O36  1  0.90590000  0.30130000  0.40070000  1.0 -0.5506365074
O  O37  1  0.77350000  0.11410000  0.17210000  1.0 -0.5419116987
O  O38  1  0.83740000  0.38660000  0.11050000  1.0 -0.6377733124
O  O39  1  0.75490000  0.36010000  0.17670000  1.0 -0.5797969027
O  O40  1  0.69870000  0.09410000  0.09930000  1.0 -0.5506365074
O  O41  1  0.78610000  0.21390000  0.15940000  1.0 -1.171991892
O  O42  1  0.78610000  0.21390000  0.34060000  1.0 -1.171991892
O  O43  1  0.81690000  0.32850000  0.25000000  1.0 -1.1479200794
O  O44  1  0.87670000  0.30050000  0.25000000  1.0 -1.1411560549
O  O45  1  0.67150000  0.18310000  0.25000000  1.0 -1.1479200794
O  O46  1  0.69950000  0.12330000  0.25000000  1.0 -1.1411560549
O  O47  1  0.74060000  0.25940000  0.14240000  1.0 -1.1914849056
O  O48  1  0.74060000  0.25940000  0.35760000  1.0 -1.1914849056
