# DDEC6 charges by PACMAN v1.1 (https://github.com/mtap-research/PACMAN-charge/)
data_MOTVOI_ion_pacman
_symmetry_space_group_name_H-M   'P 1'
_cell_length_a   15.47240000
_cell_length_b   14.14590000
_cell_length_c   28.54600000
_cell_angle_alpha   90.00000000
_cell_angle_beta   122.63300000
_cell_angle_gamma   90.00000000
_symmetry_Int_Tables_number   1
_chemical_formula_structural   Eu3H90C78(N5O18)2
_chemical_formula_sum   'Eu6 H180 C156 N20 O72'
_cell_volume   5261.61212852
_cell_formula_units_Z   2
loop_
 _symmetry_equiv_pos_site_id
 _symmetry_equiv_pos_as_xyz
  1  'x, y, z'
loop_
 _atom_site_type_symbol
 _atom_site_label
 _atom_site_symmetry_multiplicity
 _atom_site_fract_x
 _atom_site_fract_y
 _atom_site_fract_z
 _atom_site_occupancy
 _atom_site_charge
Eu  Eu1  1  0.93553000  0.87368000  0.49155000  1.0 2.1227108805
Eu  Eu2  1  0.06447000  0.37368000  0.00845000  1.0 2.1227108805
Eu  Eu3  1  0.06447000  0.12632000  0.50845000  1.0 2.1227108805
Eu  Eu4  1  0.93553000  0.62632000  0.99155000  1.0 2.1227108805
Eu  Eu5  1  0.00000000  0.50000000  0.50000000  1.0 2.0521354049
Eu  Eu6  1  0.00000000  0.00000000  0.00000000  1.0 2.0521354049
H  H1  1  0.03740000  0.17020000  0.62490000  1.0 0.1199553468
H  H2  1  0.96260000  0.67020000  0.87510000  1.0 0.1199553468
H  H3  1  0.96260000  0.82980000  0.37510000  1.0 0.1199553468
H  H4  1  0.03740000  0.32980000  0.12490000  1.0 0.1199553468
H  H5  1  0.06570000  0.23800000  0.70330000  1.0 0.1199553468
H  H6  1  0.93430000  0.73800000  0.79670000  1.0 0.1199553468
H  H7  1  0.93430000  0.76200000  0.29670000  1.0 0.1199553468
H  H8  1  0.06570000  0.26200000  0.20330000  1.0 0.1199553468
H  H9  1  0.89450000  0.94510000  0.64380000  1.0 0.1313027414
H  H10  1  0.10550000  0.44510000  0.85620000  1.0 0.1313027414
H  H11  1  0.10550000  0.05490000  0.35620000  1.0 0.1313027414
H  H12  1  0.89450000  0.55490000  0.14380000  1.0 0.1313027414
H  H13  1  0.07700000  0.28660000  0.88280000  1.0 0.1199553468
H  H14  1  0.92300000  0.78660000  0.61720000  1.0 0.1199553468
H  H15  1  0.92300000  0.71340000  0.11720000  1.0 0.1199553468
H  H16  1  0.07700000  0.21340000  0.38280000  1.0 0.1199553468
H  H17  1  0.08750000  0.27770000  0.80210000  1.0 0.1199553468
H  H18  1  0.91250000  0.77770000  0.69790000  1.0 0.1199553468
H  H19  1  0.91250000  0.72230000  0.19790000  1.0 0.1199553468
H  H20  1  0.08750000  0.22230000  0.30210000  1.0 0.1199553468
H  H21  1  0.92280000  0.03870000  0.84250000  1.0 0.1380887913
H  H22  1  0.07720000  0.53870000  0.65750000  1.0 0.1380887913
H  H23  1  0.07720000  0.96130000  0.15750000  1.0 0.1380887913
H  H24  1  0.92280000  0.46130000  0.34250000  1.0 0.1380887913
H  H25  1  0.77520000  0.01890000  0.67860000  1.0 0.1380887913
H  H26  1  0.22480000  0.51890000  0.82140000  1.0 0.1380887913
H  H27  1  0.22480000  0.98110000  0.32140000  1.0 0.1380887913
H  H28  1  0.77520000  0.48110000  0.17860000  1.0 0.1380887913
H  H29  1  0.78750000  0.93310000  0.71830000  1.0 0.1473520107
H  H30  1  0.21250000  0.43310000  0.78170000  1.0 0.1473520107
H  H31  1  0.21250000  0.06690000  0.28170000  1.0 0.1473520107
H  H32  1  0.78750000  0.56690000  0.21830000  1.0 0.1473520107
H  H33  1  0.78700000  0.03970000  0.73690000  1.0 0.1313027414
H  H34  1  0.21300000  0.53970000  0.76310000  1.0 0.1313027414
H  H35  1  0.21300000  0.96030000  0.26310000  1.0 0.1313027414
H  H36  1  0.78700000  0.46030000  0.23690000  1.0 0.1313027414
H  H37  1  0.76150000  0.82790000  0.34990000  1.0 0.1199553468
H  H38  1  0.23850000  0.32790000  0.15010000  1.0 0.1199553468
H  H39  1  0.23850000  0.17210000  0.65010000  1.0 0.1199553468
H  H40  1  0.76150000  0.67210000  0.84990000  1.0 0.1199553468
H  H41  1  0.60700000  0.83570000  0.26390000  1.0 0.1199553468
H  H42  1  0.39300000  0.33570000  0.23610000  1.0 0.1199553468
H  H43  1  0.39300000  0.16430000  0.73610000  1.0 0.1199553468
H  H44  1  0.60700000  0.66430000  0.76390000  1.0 0.1199553468
H  H45  1  0.74940000  0.54490000  0.34410000  1.0 0.1199553468
H  H46  1  0.25060000  0.04490000  0.15590000  1.0 0.1199553468
H  H47  1  0.25060000  0.45510000  0.65590000  1.0 0.1199553468
H  H48  1  0.74940000  0.95510000  0.84410000  1.0 0.1199553468
H  H49  1  0.24670000  0.74830000  0.11110000  1.0 0.1199553468
H  H50  1  0.75330000  0.24830000  0.38890000  1.0 0.1199553468
H  H51  1  0.75330000  0.25170000  0.88890000  1.0 0.1199553468
H  H52  1  0.24670000  0.75170000  0.61110000  1.0 0.1199553468
H  H53  1  0.40670000  0.80900000  0.18210000  1.0 0.1033412796
H  H54  1  0.59330000  0.30900000  0.31790000  1.0 0.1033412796
H  H55  1  0.59330000  0.19100000  0.81790000  1.0 0.1033412796
H  H56  1  0.40670000  0.69100000  0.68210000  1.0 0.1033412796
H  H57  1  0.35270000  0.48200000  0.15600000  1.0 0.1313027414
H  H58  1  0.64730000  0.98200000  0.34400000  1.0 0.1313027414
H  H59  1  0.64730000  0.51800000  0.84400000  1.0 0.1313027414
H  H60  1  0.35270000  0.01800000  0.65600000  1.0 0.1313027414
H  H61  1  0.54750000  0.39980000  0.21460000  1.0 0.1473520107
H  H62  1  0.45250000  0.89980000  0.28540000  1.0 0.1473520107
H  H63  1  0.45250000  0.60020000  0.78540000  1.0 0.1473520107
H  H64  1  0.54750000  0.10020000  0.71460000  1.0 0.1473520107
H  H65  1  0.60390000  0.48090000  0.20170000  1.0 0.1473520107
H  H66  1  0.39610000  0.98090000  0.29830000  1.0 0.1473520107
H  H67  1  0.39610000  0.51910000  0.79830000  1.0 0.1473520107
H  H68  1  0.60390000  0.01910000  0.70170000  1.0 0.1473520107
H  H69  1  0.65980000  0.43420000  0.26220000  1.0 0.1199553468
H  H70  1  0.34020000  0.93420000  0.23780000  1.0 0.1199553468
H  H71  1  0.34020000  0.56580000  0.73780000  1.0 0.1199553468
H  H72  1  0.65980000  0.06580000  0.76220000  1.0 0.1199553468
H  H73  1  0.03920000  0.91110000  0.77500000  1.0 0.3356998532
H  H74  1  0.96080000  0.41110000  0.72500000  1.0 0.3356998532
H  H75  1  0.96080000  0.08890000  0.22500000  1.0 0.3356998532
H  H76  1  0.03920000  0.58890000  0.27500000  1.0 0.3356998532
H  H77  1  0.57580000  0.45790000  0.31320000  1.0 0.3320969611
H  H78  1  0.42420000  0.95790000  0.18680000  1.0 0.3320969611
H  H79  1  0.42420000  0.54210000  0.68680000  1.0 0.3320969611
H  H80  1  0.57580000  0.04210000  0.81320000  1.0 0.3320969611
H  H81  1  0.09760000  0.67060000  0.39740000  1.0 0.1033412796
H  H82  1  0.90240000  0.17060000  0.10260000  1.0 0.1033412796
H  H83  1  0.90240000  0.32940000  0.60260000  1.0 0.1033412796
H  H84  1  0.09760000  0.82940000  0.89740000  1.0 0.1033412796
H  H85  1  0.31660000  0.64740000  0.51410000  1.0 0.1199553468
H  H86  1  0.68340000  0.14740000  0.98590000  1.0 0.1199553468
H  H87  1  0.68340000  0.35260000  0.48590000  1.0 0.1199553468
H  H88  1  0.31660000  0.85260000  0.01410000  1.0 0.1199553468
H  H89  1  0.34790000  0.75460000  0.53400000  1.0 0.1313027414
H  H90  1  0.65210000  0.25460000  0.96600000  1.0 0.1313027414
H  H91  1  0.65210000  0.24540000  0.46600000  1.0 0.1313027414
H  H92  1  0.34790000  0.74540000  0.03400000  1.0 0.1313027414
H  H93  1  0.26650000  0.70170000  0.54300000  1.0 0.1620585738
H  H94  1  0.73350000  0.20170000  0.95700000  1.0 0.1620585738
H  H95  1  0.73350000  0.29830000  0.45700000  1.0 0.1620585738
H  H96  1  0.26650000  0.79830000  0.04300000  1.0 0.1620585738
H  H97  1  0.17780000  0.88160000  0.44160000  1.0 0.1473520107
H  H98  1  0.82220000  0.38160000  0.05840000  1.0 0.1473520107
H  H99  1  0.82220000  0.11840000  0.55840000  1.0 0.1473520107
H  H100  1  0.17780000  0.61840000  0.94160000  1.0 0.1473520107
H  H101  1  0.29190000  0.85200000  0.46020000  1.0 0.1380887913
H  H102  1  0.70810000  0.35200000  0.03980000  1.0 0.1380887913
H  H103  1  0.70810000  0.14800000  0.53980000  1.0 0.1380887913
H  H104  1  0.29190000  0.64800000  0.96020000  1.0 0.1380887913
H  H105  1  0.19640000  0.82120000  0.40040000  1.0 0.1199553468
H  H106  1  0.80360000  0.32120000  0.09960000  1.0 0.1199553468
H  H107  1  0.80360000  0.17880000  0.59960000  1.0 0.1199553468
H  H108  1  0.19640000  0.67880000  0.90040000  1.0 0.1313027414
H  H109  1  0.71200000  0.66030000  0.54280000  1.0 0.2858971774
H  H110  1  0.28800000  0.16030000  0.95720000  1.0 0.2858971774
H  H111  1  0.28800000  0.33970000  0.45720000  1.0 0.2858971774
H  H112  1  0.71200000  0.83970000  0.04280000  1.0 0.2858971774
H  H113  1  0.72630000  0.60940000  0.50590000  1.0 0.3062707304
H  H114  1  0.27370000  0.10940000  0.99410000  1.0 0.3062707304
H  H115  1  0.27370000  0.39060000  0.49410000  1.0 0.3062707304
H  H116  1  0.72630000  0.89060000  0.00590000  1.0 0.3062707304
H  H117  1  0.30350000  0.75630000  0.28720000  1.0 0.1380887913
H  H118  1  0.19470000  0.80470000  0.24520000  1.0 0.1145594238
H  H119  1  0.27460000  0.78900000  0.22670000  1.0 0.1313027414
H  H120  1  0.30010000  0.60380000  0.21020000  1.0 0.1199553468
H  H121  1  0.24720000  0.53290000  0.23110000  1.0 0.1199553468
H  H122  1  0.33670000  0.60220000  0.27440000  1.0 0.1313027414
H  H123  1  0.16580000  0.64810000  0.24080000  1.0 0.2276137888
H  H124  1  0.15630000  0.67220000  0.18750000  1.0 0.248860222
H  H125  1  0.69650000  0.25630000  0.21280000  1.0 0.1380887913
H  H126  1  0.80530000  0.30470000  0.25480000  1.0 0.1145594238
H  H127  1  0.72540000  0.28900000  0.27330000  1.0 0.1313027414
H  H128  1  0.69990000  0.10380000  0.28980000  1.0 0.1199553468
H  H129  1  0.75280000  0.03290000  0.26890000  1.0 0.1199553468
H  H130  1  0.66330000  0.10220000  0.22560000  1.0 0.1313027414
H  H131  1  0.83420000  0.14810000  0.25920000  1.0 0.2276137888
H  H132  1  0.84370000  0.17220000  0.31250000  1.0 0.248860222
H  H133  1  0.69650000  0.24370000  0.71280000  1.0 0.1380887913
H  H134  1  0.80530000  0.19530000  0.75480000  1.0 0.1145594238
H  H135  1  0.72540000  0.21100000  0.77330000  1.0 0.1313027414
H  H136  1  0.69990000  0.39620000  0.78980000  1.0 0.1199553468
H  H137  1  0.75280000  0.46710000  0.76890000  1.0 0.1199553468
H  H138  1  0.66330000  0.39780000  0.72560000  1.0 0.1313027414
H  H139  1  0.83420000  0.35190000  0.75920000  1.0 0.2276137888
H  H140  1  0.84370000  0.32780000  0.81250000  1.0 0.248860222
H  H141  1  0.30350000  0.74370000  0.78720000  1.0 0.1380887913
H  H142  1  0.19470000  0.69530000  0.74520000  1.0 0.1145594238
H  H143  1  0.27460000  0.71100000  0.72670000  1.0 0.1313027414
H  H144  1  0.30010000  0.89620000  0.71020000  1.0 0.1199553468
H  H145  1  0.24720000  0.96710000  0.73110000  1.0 0.1199553468
H  H146  1  0.33670000  0.89780000  0.77440000  1.0 0.1313027414
H  H147  1  0.16580000  0.85190000  0.74080000  1.0 0.2276137888
H  H148  1  0.15630000  0.82780000  0.68750000  1.0 0.248860222
H  H149  1  0.51740000  0.02190000  0.04770000  1.0 0.1313027414
H  H150  1  0.40000000  0.99750000  0.02450000  1.0 0.1199553468
H  H151  1  0.46760000  0.92660000  0.01330000  1.0 0.1199553468
H  H152  1  0.52990000  0.81390000  0.04990000  1.0 0.1313027414
H  H153  1  0.53160000  0.77040000  0.10220000  1.0 0.1313027414
H  H154  1  0.62740000  0.83030000  0.11150000  1.0 0.1313027414
H  H155  1  0.44600000  0.90520000  0.09640000  1.0 0.2276137888
H  H156  1  0.54820000  0.95360000  0.12440000  1.0 0.248860222
H  H157  1  0.48260000  0.52190000  0.45230000  1.0 0.1313027414
H  H158  1  0.60000000  0.49750000  0.47550000  1.0 0.1199553468
H  H159  1  0.53240000  0.42660000  0.48670000  1.0 0.1199553468
H  H160  1  0.47010000  0.31390000  0.45010000  1.0 0.1313027414
H  H161  1  0.46840000  0.27040000  0.39780000  1.0 0.1313027414
H  H162  1  0.37260000  0.33030000  0.38850000  1.0 0.1313027414
H  H163  1  0.55400000  0.40520000  0.40360000  1.0 0.2276137888
H  H164  1  0.45180000  0.45360000  0.37560000  1.0 0.248860222
H  H165  1  0.48260000  0.97810000  0.95230000  1.0 0.1313027414
H  H166  1  0.60000000  0.00250000  0.97550000  1.0 0.1199553468
H  H167  1  0.53240000  0.07340000  0.98670000  1.0 0.1199553468
H  H168  1  0.47010000  0.18610000  0.95010000  1.0 0.1313027414
H  H169  1  0.46840000  0.22960000  0.89780000  1.0 0.1313027414
H  H170  1  0.37260000  0.16970000  0.88850000  1.0 0.1313027414
H  H171  1  0.55400000  0.09480000  0.90360000  1.0 0.2276137888
H  H172  1  0.45180000  0.04640000  0.87560000  1.0 0.248860222
H  H173  1  0.51740000  0.47810000  0.54770000  1.0 0.1313027414
H  H174  1  0.40000000  0.50250000  0.52450000  1.0 0.1199553468
H  H175  1  0.46760000  0.57340000  0.51330000  1.0 0.1199553468
H  H176  1  0.52990000  0.68610000  0.54990000  1.0 0.1313027414
H  H177  1  0.53160000  0.72960000  0.60220000  1.0 0.1313027414
H  H178  1  0.62740000  0.66970000  0.61150000  1.0 0.1313027414
H  H179  1  0.44600000  0.59480000  0.59640000  1.0 0.2276137888
H  H180  1  0.54820000  0.54640000  0.62440000  1.0 0.248860222
C  C1  1  0.94660000  0.00840000  0.57500000  1.0 0.6188959448
C  C2  1  0.05340000  0.50840000  0.92500000  1.0 0.6188959448
C  C3  1  0.05340000  0.99160000  0.42500000  1.0 0.6188959448
C  C4  1  0.94660000  0.49160000  0.07500000  1.0 0.6188959448
C  C5  1  0.96270000  0.05330000  0.62700000  1.0 -0.0222286036
C  C6  1  0.03730000  0.55330000  0.87300000  1.0 -0.0222286036
C  C7  1  0.03730000  0.94670000  0.37300000  1.0 -0.0222286036
C  C8  1  0.96270000  0.44670000  0.12700000  1.0 -0.0222286036
C  C9  1  0.01430000  0.13940000  0.64580000  1.0 -0.1093811507
C  C10  1  0.98570000  0.63940000  0.85420000  1.0 -0.1093811507
C  C11  1  0.98570000  0.86060000  0.35420000  1.0 -0.1093811507
C  C12  1  0.01430000  0.36060000  0.14580000  1.0 -0.1093811507
C  C13  1  0.03160000  0.17870000  0.69180000  1.0 -0.1390169368
C  C14  1  0.96840000  0.67870000  0.80820000  1.0 -0.1390169368
C  C15  1  0.96840000  0.82130000  0.30820000  1.0 -0.1390169368
C  C16  1  0.03160000  0.32130000  0.19180000  1.0 -0.1390169368
C  C17  1  0.00000000  0.13380000  0.72460000  1.0 0.0287551593
C  C18  1  0.00000000  0.63380000  0.77540000  1.0 0.0287551593
C  C19  1  0.00000000  0.86620000  0.27540000  1.0 0.0247557319
C  C20  1  0.00000000  0.36620000  0.22460000  1.0 0.0287551593
C  C21  1  0.94730000  0.04790000  0.70480000  1.0 -0.0421029121
C  C22  1  0.05270000  0.54790000  0.79520000  1.0 -0.0421029121
C  C23  1  0.05270000  0.95210000  0.29520000  1.0 -0.0421029121
C  C24  1  0.94730000  0.45210000  0.20480000  1.0 -0.0421029121
C  C25  1  0.92850000  0.00430000  0.65610000  1.0 -0.1811523891
C  C26  1  0.07150000  0.50430000  0.84390000  1.0 -0.1811523891
C  C27  1  0.07150000  0.99570000  0.34390000  1.0 -0.1811523891
C  C28  1  0.92850000  0.49570000  0.15610000  1.0 -0.1811523891
C  C29  1  0.99620000  0.17510000  0.92220000  1.0 0.6360738246
C  C30  1  0.00380000  0.67510000  0.57780000  1.0 0.6360738246
C  C31  1  0.00380000  0.82490000  0.07780000  1.0 0.6360738246
C  C32  1  0.99620000  0.32490000  0.42220000  1.0 0.6360738246
C  C33  1  0.00310000  0.16530000  0.87230000  1.0 -0.0421029121
C  C34  1  0.99690000  0.66530000  0.62770000  1.0 -0.0421029121
C  C35  1  0.99690000  0.83470000  0.12770000  1.0 -0.0421029121
C  C36  1  0.00310000  0.33470000  0.37230000  1.0 -0.0421029121
C  C37  1  0.04780000  0.23370000  0.85870000  1.0 -0.1498389247
C  C38  1  0.95220000  0.73370000  0.64130000  1.0 -0.1498389247
C  C39  1  0.95220000  0.76630000  0.14130000  1.0 -0.1498389247
C  C40  1  0.04780000  0.26630000  0.35870000  1.0 -0.1498389247
C  C41  1  0.05360000  0.23060000  0.81010000  1.0 -0.1498389247
C  C42  1  0.94640000  0.73060000  0.68990000  1.0 -0.1498389247
C  C43  1  0.94640000  0.76940000  0.18990000  1.0 -0.1498389247
C  C44  1  0.05360000  0.26940000  0.31010000  1.0 -0.1498389247
C  C45  1  0.00820000  0.15720000  0.77790000  1.0 0.0287551593
C  C46  1  0.99180000  0.65720000  0.72210000  1.0 0.0287551593
C  C47  1  0.99180000  0.84280000  0.22210000  1.0 0.0287551593
C  C48  1  0.00820000  0.34280000  0.27790000  1.0 0.0287551593
C  C49  1  0.96290000  0.08460000  0.79050000  1.0 -0.0222286036
C  C50  1  0.03710000  0.58460000  0.70950000  1.0 -0.0222286036
C  C51  1  0.03710000  0.91540000  0.20950000  1.0 -0.0222286036
C  C52  1  0.96290000  0.41540000  0.29050000  1.0 -0.0222286036
C  C53  1  0.95680000  0.08720000  0.83540000  1.0 -0.1498389247
C  C54  1  0.04320000  0.58720000  0.66460000  1.0 -0.1498389247
C  C55  1  0.04320000  0.91280000  0.16460000  1.0 -0.1498389247
C  C56  1  0.95680000  0.41280000  0.33540000  1.0 -0.1498389247
C  C57  1  0.92100000  0.00260000  0.74490000  1.0 0.3356998532
C  C58  1  0.07900000  0.50260000  0.75510000  1.0 0.3356998532
C  C59  1  0.07900000  0.99740000  0.25510000  1.0 0.3320969611
C  C60  1  0.92100000  0.49740000  0.24490000  1.0 0.3320969611
C  C61  1  0.80820000  0.99820000  0.71740000  1.0 -0.5380819098
C  C62  1  0.19180000  0.49820000  0.78260000  1.0 -0.5380819098
C  C63  1  0.19180000  0.00180000  0.28260000  1.0 -0.5380819098
C  C64  1  0.80820000  0.50180000  0.21740000  1.0 -0.5380819098
C  C65  1  0.87280000  0.68190000  0.40850000  1.0 0.6632466285
C  C66  1  0.12720000  0.18190000  0.09150000  1.0 0.6632466285
C  C67  1  0.12720000  0.31810000  0.59150000  1.0 0.6632466285
C  C68  1  0.87280000  0.81810000  0.90850000  1.0 0.6632466285
C  C69  1  0.77170000  0.68680000  0.35520000  1.0 -0.0473601458
C  C70  1  0.22830000  0.18680000  0.14480000  1.0 -0.0473601458
C  C71  1  0.22830000  0.31320000  0.64480000  1.0 -0.0473601458
C  C72  1  0.77170000  0.81320000  0.85520000  1.0 -0.0473601458
C  C73  1  0.72680000  0.77110000  0.33170000  1.0 -0.1093811507
C  C74  1  0.27320000  0.27110000  0.16830000  1.0 -0.1093811507
C  C75  1  0.27320000  0.22890000  0.66830000  1.0 -0.1093811507
C  C76  1  0.72680000  0.72890000  0.83170000  1.0 -0.1093811507
C  C77  1  0.63200000  0.77660000  0.28210000  1.0 -0.1390169368
C  C78  1  0.36800000  0.27660000  0.21790000  1.0 -0.1390169368
C  C79  1  0.36800000  0.22340000  0.71790000  1.0 -0.1390169368
C  C80  1  0.63200000  0.72340000  0.78210000  1.0 -0.1390169368
C  C81  1  0.57560000  0.69760000  0.25980000  1.0 0.0287551593
C  C82  1  0.42440000  0.19760000  0.24020000  1.0 0.0287551593
C  C83  1  0.42440000  0.30240000  0.74020000  1.0 0.0287551593
C  C84  1  0.57560000  0.80240000  0.75980000  1.0 0.0287551593
C  C85  1  0.62330000  0.60720000  0.28180000  1.0 -0.0222286036
C  C86  1  0.37670000  0.10720000  0.21820000  1.0 -0.0222286036
C  C87  1  0.37670000  0.39280000  0.71820000  1.0 -0.0222286036
C  C88  1  0.62330000  0.89280000  0.78180000  1.0 -0.0222286036
C  C89  1  0.71840000  0.60440000  0.32880000  1.0 -0.1335622252
C  C90  1  0.28160000  0.10440000  0.17120000  1.0 -0.1335622252
C  C91  1  0.28160000  0.39560000  0.67120000  1.0 -0.1335622252
C  C92  1  0.71840000  0.89560000  0.82880000  1.0 -0.1335622252
C  C93  1  0.18640000  0.57250000  0.08070000  1.0 0.6485259502
C  C94  1  0.81360000  0.07250000  0.41930000  1.0 0.6485259502
C  C95  1  0.81360000  0.42750000  0.91930000  1.0 0.6485259502
C  C96  1  0.18640000  0.92750000  0.58070000  1.0 0.6485259502
C  C97  1  0.28880000  0.60810000  0.12730000  1.0 -0.0421029121
C  C98  1  0.71120000  0.10810000  0.37270000  1.0 -0.0421029121
C  C99  1  0.71120000  0.39190000  0.87270000  1.0 -0.0421029121
C  C100  1  0.28880000  0.89190000  0.62730000  1.0 -0.0421029121
C  C101  1  0.30170000  0.70680000  0.13450000  1.0 -0.1498389247
C  C102  1  0.69830000  0.20680000  0.36550000  1.0 -0.1498389247
C  C103  1  0.69830000  0.29320000  0.86550000  1.0 -0.1498389247
C  C104  1  0.30170000  0.79320000  0.63450000  1.0 -0.1498389247
C  C105  1  0.39630000  0.74280000  0.17640000  1.0 -0.1811523891
C  C106  1  0.60370000  0.24280000  0.32360000  1.0 -0.1811523891
C  C107  1  0.60370000  0.25720000  0.82360000  1.0 -0.1811523891
C  C108  1  0.39630000  0.75720000  0.67640000  1.0 -0.1811523891
C  C109  1  0.47580000  0.67950000  0.21020000  1.0 0.0287551593
C  C110  1  0.52420000  0.17950000  0.28980000  1.0 0.0287551593
C  C111  1  0.52420000  0.32050000  0.78980000  1.0 0.0287551593
C  C112  1  0.47580000  0.82050000  0.71020000  1.0 0.0287551593
C  C113  1  0.45880000  0.58370000  0.20520000  1.0 -0.0473601458
C  C114  1  0.54120000  0.08370000  0.29480000  1.0 -0.0473601458
C  C115  1  0.54120000  0.41630000  0.79480000  1.0 -0.0473601458
C  C116  1  0.45880000  0.91630000  0.70520000  1.0 -0.0473601458
C  C117  1  0.36350000  0.54830000  0.16130000  1.0 -0.1335622252
C  C118  1  0.63650000  0.04830000  0.33870000  1.0 -0.1335622252
C  C119  1  0.63650000  0.45170000  0.83870000  1.0 -0.1335622252
C  C120  1  0.36350000  0.95170000  0.66130000  1.0 -0.1335622252
C  C121  1  0.54570000  0.53040000  0.24840000  1.0 0.3062707304
C  C122  1  0.45430000  0.03040000  0.25160000  1.0 0.3062707304
C  C123  1  0.45430000  0.46960000  0.75160000  1.0 0.3062707304
C  C124  1  0.54570000  0.96960000  0.74840000  1.0 0.3062707304
C  C125  1  0.59360000  0.45430000  0.23000000  1.0 -0.5380819098
C  C126  1  0.40640000  0.95430000  0.27000000  1.0 -0.5380819098
C  C127  1  0.40640000  0.54570000  0.77000000  1.0 -0.5380819098
C  C128  1  0.59360000  0.04570000  0.73000000  1.0 -0.5380819098
C  C129  1  0.13680000  0.67490000  0.43680000  1.0 0.2276137888
C  C130  1  0.86320000  0.17490000  0.06320000  1.0 0.2276137888
C  C131  1  0.86320000  0.32510000  0.56320000  1.0 0.2276137888
C  C132  1  0.13680000  0.82510000  0.93680000  1.0 0.2276137888
C  C133  1  0.29170000  0.70860000  0.51820000  1.0 -0.3776815266
C  C134  1  0.70830000  0.20860000  0.98180000  1.0 -0.3776815266
C  C135  1  0.70830000  0.29140000  0.48180000  1.0 -0.3776815266
C  C136  1  0.29170000  0.79140000  0.01820000  1.0 -0.3776815266
C  C137  1  0.21970000  0.83210000  0.43940000  1.0 -0.3776815266
C  C138  1  0.78030000  0.33210000  0.06060000  1.0 -0.3776815266
C  C139  1  0.78030000  0.16790000  0.56060000  1.0 -0.3776815266
C  C140  1  0.21970000  0.66790000  0.93940000  1.0 -0.3776815266
C  C141  1  0.24760000  0.76260000  0.24810000  1.0 -0.3194435345
C  C142  1  0.27770000  0.59580000  0.23620000  1.0 -0.3194435345
C  C143  1  0.75240000  0.26260000  0.25190000  1.0 -0.3194435345
C  C144  1  0.72230000  0.09580000  0.26380000  1.0 -0.3194435345
C  C145  1  0.75240000  0.23740000  0.75190000  1.0 -0.3194435345
C  C146  1  0.72230000  0.40420000  0.76380000  1.0 -0.3194435345
C  C147  1  0.24760000  0.73740000  0.74810000  1.0 -0.3194435345
C  C148  1  0.27770000  0.90420000  0.73620000  1.0 -0.3194435345
C  C149  1  0.46880000  0.97080000  0.04010000  1.0 -0.3599386718
C  C150  1  0.55260000  0.82420000  0.08890000  1.0 -0.3599386718
C  C151  1  0.53120000  0.47080000  0.45990000  1.0 -0.3599386718
C  C152  1  0.44740000  0.32420000  0.41110000  1.0 -0.3599386718
C  C153  1  0.53120000  0.02920000  0.95990000  1.0 -0.3599386718
C  C154  1  0.44740000  0.17580000  0.91110000  1.0 -0.3599386718
C  C155  1  0.46880000  0.52920000  0.54010000  1.0 -0.3599386718
C  C156  1  0.55260000  0.67580000  0.58890000  1.0 -0.3599386718
N  N1  1  0.73390000  0.75090000  0.47750000  1.0 0.677966979
N  N2  1  0.26610000  0.25090000  0.02250000  1.0 0.677966979
N  N3  1  0.26610000  0.24910000  0.52250000  1.0 0.677966979
N  N4  1  0.73390000  0.74910000  0.97750000  1.0 0.677966979
N  N5  1  0.20950000  0.74120000  0.46450000  1.0 0.1033412796
N  N6  1  0.79050000  0.24120000  0.03550000  1.0 0.1033412796
N  N7  1  0.79050000  0.25880000  0.53550000  1.0 0.1033412796
N  N8  1  0.20950000  0.75880000  0.96450000  1.0 0.1033412796
N  N9  1  0.73990000  0.50670000  0.44680000  1.0 0.6981959163
N  N10  1  0.26010000  0.00670000  0.05320000  1.0 0.6981959163
N  N11  1  0.26010000  0.49330000  0.55320000  1.0 0.6981959163
N  N12  1  0.73990000  0.99330000  0.94680000  1.0 0.6981959163
N  N13  1  0.20190000  0.66730000  0.22530000  1.0 -0.0996774633
N  N14  1  0.79810000  0.16730000  0.27470000  1.0 -0.0996774633
N  N15  1  0.79810000  0.33270000  0.77470000  1.0 -0.0996774633
N  N16  1  0.20190000  0.83270000  0.72530000  1.0 -0.0996774633
N  N17  1  0.50160000  0.91870000  0.09390000  1.0 -0.0996774633
N  N18  1  0.49840000  0.41870000  0.40610000  1.0 -0.0996774633
N  N19  1  0.49840000  0.08130000  0.90610000  1.0 -0.0996774633
N  N20  1  0.50160000  0.58130000  0.59390000  1.0 -0.0996774633
O  O1  1  0.89540000  0.93200000  0.55640000  1.0 -0.6492407353
O  O2  1  0.10460000  0.43200000  0.94360000  1.0 -0.6492407353
O  O3  1  0.10460000  0.06800000  0.44360000  1.0 -0.6492407353
O  O4  1  0.89540000  0.56800000  0.05640000  1.0 -0.6492407353
O  O5  1  0.98620000  0.04200000  0.54880000  1.0 -0.7546783121
O  O6  1  0.01380000  0.54200000  0.95120000  1.0 -0.7556172044
O  O7  1  0.01380000  0.95800000  0.45120000  1.0 -0.7556172044
O  O8  1  0.98620000  0.45800000  0.04880000  1.0 -0.7546783121
O  O9  1  0.03890000  0.24340000  0.95320000  1.0 -0.6268195392
O  O10  1  0.96110000  0.74340000  0.54680000  1.0 -0.6268195392
O  O11  1  0.96110000  0.75660000  0.04680000  1.0 -0.6268195392
O  O12  1  0.03890000  0.25660000  0.45320000  1.0 -0.6268195392
O  O13  1  0.95680000  0.11220000  0.93430000  1.0 -0.6492407353
O  O14  1  0.04320000  0.61220000  0.56570000  1.0 -0.6492407353
O  O15  1  0.04320000  0.88780000  0.06570000  1.0 -0.6492407353
O  O16  1  0.95680000  0.38780000  0.43430000  1.0 -0.6492407353
O  O17  1  0.97000000  0.92170000  0.76730000  1.0 -0.467950228
O  O18  1  0.03000000  0.42170000  0.73270000  1.0 -0.467950228
O  O19  1  0.03000000  0.07830000  0.23270000  1.0 -0.467950228
O  O20  1  0.97000000  0.57830000  0.26730000  1.0 -0.467950228
O  O21  1  0.91910000  0.75760000  0.43000000  1.0 -0.6726779969
O  O22  1  0.08090000  0.25760000  0.07000000  1.0 -0.6726779969
O  O23  1  0.08090000  0.24240000  0.57000000  1.0 -0.6726779969
O  O24  1  0.91910000  0.74240000  0.93000000  1.0 -0.6726779969
O  O25  1  0.90830000  0.60250000  0.43150000  1.0 -0.716402042
O  O26  1  0.09170000  0.10250000  0.06850000  1.0 -0.716402042
O  O27  1  0.09170000  0.39750000  0.56850000  1.0 -0.716402042
O  O28  1  0.90830000  0.89750000  0.93150000  1.0 -0.716402042
O  O29  1  0.11010000  0.62780000  0.05990000  1.0 -0.6895270379
O  O30  1  0.88990000  0.12780000  0.44010000  1.0 -0.6895270379
O  O31  1  0.88990000  0.37220000  0.94010000  1.0 -0.6895270379
O  O32  1  0.11010000  0.87220000  0.55990000  1.0 -0.6895270379
O  O33  1  0.18480000  0.48480000  0.06830000  1.0 -0.6975736053
O  O34  1  0.81520000  0.98480000  0.43170000  1.0 -0.6975736053
O  O35  1  0.81520000  0.51520000  0.93170000  1.0 -0.6975736053
O  O36  1  0.18480000  0.01520000  0.56830000  1.0 -0.6975736053
O  O37  1  0.51900000  0.49050000  0.28260000  1.0 -0.5270394118
O  O38  1  0.48100000  0.99050000  0.21740000  1.0 -0.5270394118
O  O39  1  0.48100000  0.50950000  0.71740000  1.0 -0.5270394118
O  O40  1  0.51900000  0.00950000  0.78260000  1.0 -0.5270394118
O  O41  1  0.76520000  0.80870000  0.45800000  1.0 -0.4199754739
O  O42  1  0.23480000  0.30870000  0.04200000  1.0 -0.4199754739
O  O43  1  0.23480000  0.19130000  0.54200000  1.0 -0.4199754739
O  O44  1  0.76520000  0.69130000  0.95800000  1.0 -0.4199754739
O  O45  1  0.64810000  0.71430000  0.44470000  1.0 -0.3949728639
O  O46  1  0.35190000  0.21430000  0.05530000  1.0 -0.3949728639
O  O47  1  0.35190000  0.28570000  0.55530000  1.0 -0.3954268427
O  O48  1  0.64810000  0.78570000  0.94470000  1.0 -0.3949728639
O  O49  1  0.78030000  0.73350000  0.52710000  1.0 -0.1811523891
O  O50  1  0.21970000  0.23350000  0.97290000  1.0 -0.1811523891
O  O51  1  0.21970000  0.26650000  0.47290000  1.0 -0.1811523891
O  O52  1  0.78030000  0.76650000  0.02710000  1.0 -0.1811523891
O  O53  1  0.12350000  0.61400000  0.46980000  1.0 -0.5476833613
O  O54  1  0.87650000  0.11400000  0.03020000  1.0 -0.5476833613
O  O55  1  0.87650000  0.38600000  0.53020000  1.0 -0.5476833613
O  O56  1  0.12350000  0.88600000  0.96980000  1.0 -0.5476833613
O  O57  1  0.75470000  0.41780000  0.45150000  1.0 -0.3599386718
O  O58  1  0.24530000  0.91780000  0.04850000  1.0 -0.3599386718
O  O59  1  0.24530000  0.58220000  0.54850000  1.0 -0.3599386718
O  O60  1  0.75470000  0.08220000  0.95150000  1.0 -0.3599386718
O  O61  1  0.79970000  0.55960000  0.48280000  1.0 -0.4294145436
O  O62  1  0.20030000  0.05960000  0.01720000  1.0 -0.4294145436
O  O63  1  0.20030000  0.44040000  0.51720000  1.0 -0.4294145436
O  O64  1  0.79970000  0.94040000  0.98280000  1.0 -0.4294145436
O  O65  1  0.65360000  0.53790000  0.40090000  1.0 -0.52221227
O  O66  1  0.34640000  0.03790000  0.09910000  1.0 -0.52221227
O  O67  1  0.34640000  0.46210000  0.59910000  1.0 -0.52221227
O  O68  1  0.65360000  0.96210000  0.90090000  1.0 -0.52221227
O  O69  1  0.74530000  0.61550000  0.53980000  1.0 -0.4199754739
O  O70  1  0.25470000  0.11550000  0.96020000  1.0 -0.4199754739
O  O71  1  0.25470000  0.38450000  0.46020000  1.0 -0.4199754739
O  O72  1  0.74530000  0.88450000  0.03980000  1.0 -0.4199754739
