# DDEC6 charges by PACMAN v1.1 (https://github.com/mtap-research/PACMAN-charge/)
data_MOXPIZ_ion_pacman
_symmetry_space_group_name_H-M   'P 1'
_cell_length_a   15.03100000
_cell_length_b   16.25300000
_cell_length_c   39.95200000
_cell_angle_alpha   90.00000000
_cell_angle_beta   90.00000000
_cell_angle_gamma   90.00000000
_symmetry_Int_Tables_number   1
_chemical_formula_structural   CuH44C49(N2O5)4
_chemical_formula_sum   'Cu4 H176 C196 N32 O80'
_cell_volume   9760.22737554
_cell_formula_units_Z   4
loop_
 _symmetry_equiv_pos_site_id
 _symmetry_equiv_pos_as_xyz
  1  'x, y, z'
loop_
 _atom_site_type_symbol
 _atom_site_label
 _atom_site_symmetry_multiplicity
 _atom_site_fract_x
 _atom_site_fract_y
 _atom_site_fract_z
 _atom_site_occupancy
 _atom_site_charge
Cu  Cu1  1  0.50000000  0.50000000  0.00000000  1.0 0.6080984745
Cu  Cu2  1  0.00000000  0.00000000  0.50000000  1.0 0.6174199852
Cu  Cu3  1  0.00000000  0.50000000  0.50000000  1.0 0.6080984745
Cu  Cu4  1  0.50000000  0.00000000  0.00000000  1.0 0.6174199852
H  H1  1  0.15050000  0.61960000  0.34510000  1.0 0.1401976347
H  H2  1  0.84950000  0.61960000  0.65490000  1.0 0.1401976347
H  H3  1  0.15050000  0.38040000  0.65490000  1.0 0.1401976347
H  H4  1  0.84950000  0.38040000  0.34510000  1.0 0.1401976347
H  H5  1  0.13490000  0.70620000  0.39050000  1.0 0.1281716837
H  H6  1  0.86510000  0.70620000  0.60950000  1.0 0.1281716837
H  H7  1  0.13490000  0.29380000  0.60950000  1.0 0.1281716837
H  H8  1  0.86510000  0.29380000  0.39050000  1.0 0.1281716837
H  H9  1  0.89330000  0.76630000  0.36130000  1.0 0.1174868792
H  H10  1  0.10670000  0.76630000  0.63870000  1.0 0.1174868792
H  H11  1  0.89330000  0.23370000  0.63870000  1.0 0.1174868792
H  H12  1  0.10670000  0.23370000  0.36130000  1.0 0.1174868792
H  H13  1  0.90550000  0.68410000  0.31480000  1.0 0.1401976347
H  H14  1  0.09450000  0.68410000  0.68520000  1.0 0.1401976347
H  H15  1  0.90550000  0.31590000  0.68520000  1.0 0.1401976347
H  H16  1  0.09450000  0.31590000  0.31480000  1.0 0.1401976347
H  H17  1  0.10840000  0.75610000  0.43820000  1.0 0.1401976347
H  H18  1  0.89160000  0.75610000  0.56180000  1.0 0.1401976347
H  H19  1  0.10840000  0.24390000  0.56180000  1.0 0.1401976347
H  H20  1  0.89160000  0.24390000  0.43820000  1.0 0.1401976347
H  H21  1  0.95950000  0.62040000  0.26280000  1.0 0.1281716837
H  H22  1  0.04050000  0.62040000  0.73720000  1.0 0.1281716837
H  H23  1  0.95950000  0.37960000  0.73720000  1.0 0.1281716837
H  H24  1  0.04050000  0.37960000  0.26280000  1.0 0.1281716837
H  H25  1  0.91970000  0.55940000  0.29010000  1.0 0.1174868792
H  H26  1  0.08030000  0.55940000  0.70990000  1.0 0.1174868792
H  H27  1  0.91970000  0.44060000  0.70990000  1.0 0.1174868792
H  H28  1  0.08030000  0.44060000  0.29010000  1.0 0.1174868792
H  H29  1  0.09740000  0.85130000  0.48030000  1.0 0.1281716837
H  H30  1  0.90260000  0.85130000  0.51970000  1.0 0.1281716837
H  H31  1  0.09740000  0.14870000  0.51970000  1.0 0.1281716837
H  H32  1  0.90260000  0.14870000  0.48030000  1.0 0.1281716837
H  H33  1  0.89600000  0.95600000  0.43910000  1.0 0.1174868792
H  H34  1  0.10400000  0.95600000  0.56090000  1.0 0.1174868792
H  H35  1  0.89600000  0.04400000  0.56090000  1.0 0.1174868792
H  H36  1  0.10400000  0.04400000  0.43910000  1.0 0.1174868792
H  H37  1  0.90230000  0.86600000  0.39410000  1.0 0.1281716837
H  H38  1  0.09770000  0.86600000  0.60590000  1.0 0.1281716837
H  H39  1  0.90230000  0.13400000  0.60590000  1.0 0.1281716837
H  H40  1  0.09770000  0.13400000  0.39410000  1.0 0.1281716837
H  H41  1  0.93450000  0.42540000  0.22150000  1.0 0.1174868792
H  H42  1  0.06550000  0.42540000  0.77850000  1.0 0.1174868792
H  H43  1  0.93450000  0.57460000  0.77850000  1.0 0.1174868792
H  H44  1  0.06550000  0.57460000  0.22150000  1.0 0.1174868792
H  H45  1  0.86810000  0.46870000  0.24700000  1.0 0.1281716837
H  H46  1  0.13190000  0.46870000  0.75300000  1.0 0.1281716837
H  H47  1  0.86810000  0.53130000  0.75300000  1.0 0.1281716837
H  H48  1  0.13190000  0.53130000  0.24700000  1.0 0.1281716837
H  H49  1  0.79770000  0.42320000  0.19570000  1.0 0.1401976347
H  H50  1  0.20230000  0.42320000  0.80430000  1.0 0.1401976347
H  H51  1  0.79770000  0.57680000  0.80430000  1.0 0.1401976347
H  H52  1  0.20230000  0.57680000  0.19570000  1.0 0.1401976347
H  H53  1  0.71750000  0.40630000  0.14690000  1.0 0.1116710353
H  H54  1  0.28250000  0.40630000  0.85310000  1.0 0.1116710353
H  H55  1  0.71750000  0.59370000  0.85310000  1.0 0.1116710353
H  H56  1  0.28250000  0.59370000  0.14690000  1.0 0.1116710353
H  H57  1  0.82330000  0.61600000  0.11140000  1.0 0.1281716837
H  H58  1  0.17670000  0.61600000  0.88860000  1.0 0.1281716837
H  H59  1  0.82330000  0.38400000  0.88860000  1.0 0.1281716837
H  H60  1  0.17670000  0.38400000  0.11140000  1.0 0.1281716837
H  H61  1  0.90420000  0.62940000  0.15970000  1.0 0.1536898587
H  H62  1  0.09580000  0.62940000  0.84030000  1.0 0.1536898587
H  H63  1  0.90420000  0.37060000  0.84030000  1.0 0.1536898587
H  H64  1  0.09580000  0.37060000  0.15970000  1.0 0.1536898587
H  H65  1  0.63150000  0.40740000  0.10760000  1.0 0.1281716837
H  H66  1  0.36850000  0.40740000  0.89240000  1.0 0.1281716837
H  H67  1  0.63150000  0.59260000  0.89240000  1.0 0.1281716837
H  H68  1  0.36850000  0.59260000  0.10760000  1.0 0.1281716837
H  H69  1  0.54120000  0.40060000  0.06070000  1.0 0.1174868792
H  H70  1  0.45880000  0.40060000  0.93930000  1.0 0.1174868792
H  H71  1  0.54120000  0.59940000  0.93930000  1.0 0.1174868792
H  H72  1  0.45880000  0.59940000  0.06070000  1.0 0.1174868792
H  H73  1  0.66700000  0.58850000  0.02100000  1.0 0.1281716837
H  H74  1  0.33300000  0.58850000  0.97900000  1.0 0.1281716837
H  H75  1  0.66700000  0.41150000  0.97900000  1.0 0.1281716837
H  H76  1  0.33300000  0.41150000  0.02100000  1.0 0.1281716837
H  H77  1  0.75910000  0.59770000  0.06660000  1.0 0.1401976347
H  H78  1  0.24090000  0.59770000  0.93340000  1.0 0.1401976347
H  H79  1  0.75910000  0.40230000  0.93340000  1.0 0.1401976347
H  H80  1  0.24090000  0.40230000  0.06660000  1.0 0.1401976347
H  H81  1  0.34950000  0.38040000  0.15490000  1.0 0.1401976347
H  H82  1  0.65050000  0.38040000  0.84510000  1.0 0.1401976347
H  H83  1  0.34950000  0.61960000  0.84510000  1.0 0.1401976347
H  H84  1  0.65050000  0.61960000  0.15490000  1.0 0.1401976347
H  H85  1  0.36510000  0.29380000  0.10950000  1.0 0.1281716837
H  H86  1  0.63490000  0.29380000  0.89050000  1.0 0.1281716837
H  H87  1  0.36510000  0.70620000  0.89050000  1.0 0.1281716837
H  H88  1  0.63490000  0.70620000  0.10950000  1.0 0.1281716837
H  H89  1  0.60670000  0.23370000  0.13870000  1.0 0.1174868792
H  H90  1  0.39330000  0.23370000  0.86130000  1.0 0.1174868792
H  H91  1  0.60670000  0.76630000  0.86130000  1.0 0.1174868792
H  H92  1  0.39330000  0.76630000  0.13870000  1.0 0.1174868792
H  H93  1  0.59450000  0.31590000  0.18520000  1.0 0.1401976347
H  H94  1  0.40550000  0.31590000  0.81480000  1.0 0.1401976347
H  H95  1  0.59450000  0.68410000  0.81480000  1.0 0.1401976347
H  H96  1  0.40550000  0.68410000  0.18520000  1.0 0.1401976347
H  H97  1  0.39160000  0.24390000  0.06180000  1.0 0.1401976347
H  H98  1  0.60840000  0.24390000  0.93820000  1.0 0.1401976347
H  H99  1  0.39160000  0.75610000  0.93820000  1.0 0.1401976347
H  H100  1  0.60840000  0.75610000  0.06180000  1.0 0.1401976347
H  H101  1  0.54050000  0.37960000  0.23720000  1.0 0.1281716837
H  H102  1  0.45950000  0.37960000  0.76280000  1.0 0.1281716837
H  H103  1  0.54050000  0.62040000  0.76280000  1.0 0.1281716837
H  H104  1  0.45950000  0.62040000  0.23720000  1.0 0.1281716837
H  H105  1  0.58030000  0.44060000  0.20990000  1.0 0.1174868792
H  H106  1  0.41970000  0.44060000  0.79010000  1.0 0.1174868792
H  H107  1  0.58030000  0.55940000  0.79010000  1.0 0.1174868792
H  H108  1  0.41970000  0.55940000  0.20990000  1.0 0.1174868792
H  H109  1  0.40260000  0.14870000  0.01970000  1.0 0.1281716837
H  H110  1  0.59740000  0.14870000  0.98030000  1.0 0.1281716837
H  H111  1  0.40260000  0.85130000  0.98030000  1.0 0.1281716837
H  H112  1  0.59740000  0.85130000  0.01970000  1.0 0.1281716837
H  H113  1  0.60400000  0.04400000  0.06090000  1.0 0.1174868792
H  H114  1  0.39600000  0.04400000  0.93910000  1.0 0.1174868792
H  H115  1  0.60400000  0.95600000  0.93910000  1.0 0.1174868792
H  H116  1  0.39600000  0.95600000  0.06090000  1.0 0.1174868792
H  H117  1  0.59770000  0.13400000  0.10590000  1.0 0.1281716837
H  H118  1  0.40230000  0.13400000  0.89410000  1.0 0.1281716837
H  H119  1  0.59770000  0.86600000  0.89410000  1.0 0.1281716837
H  H120  1  0.40230000  0.86600000  0.10590000  1.0 0.1281716837
H  H121  1  0.56550000  0.57460000  0.27850000  1.0 0.1174868792
H  H122  1  0.43450000  0.57460000  0.72150000  1.0 0.1174868792
H  H123  1  0.56550000  0.42540000  0.72150000  1.0 0.1174868792
H  H124  1  0.43450000  0.42540000  0.27850000  1.0 0.1174868792
H  H125  1  0.63190000  0.53130000  0.25300000  1.0 0.1281716837
H  H126  1  0.36810000  0.53130000  0.74700000  1.0 0.1281716837
H  H127  1  0.63190000  0.46870000  0.74700000  1.0 0.1281716837
H  H128  1  0.36810000  0.46870000  0.25300000  1.0 0.1281716837
H  H129  1  0.70230000  0.57680000  0.30430000  1.0 0.1401976347
H  H130  1  0.29770000  0.57680000  0.69570000  1.0 0.1401976347
H  H131  1  0.70230000  0.42320000  0.69570000  1.0 0.1401976347
H  H132  1  0.29770000  0.42320000  0.30430000  1.0 0.1401976347
H  H133  1  0.78250000  0.59370000  0.35310000  1.0 0.1116710353
H  H134  1  0.21750000  0.59370000  0.64690000  1.0 0.1116710353
H  H135  1  0.78250000  0.40630000  0.64690000  1.0 0.1116710353
H  H136  1  0.21750000  0.40630000  0.35310000  1.0 0.1116710353
H  H137  1  0.67670000  0.38400000  0.38860000  1.0 0.1281716837
H  H138  1  0.32330000  0.38400000  0.61140000  1.0 0.1281716837
H  H139  1  0.67670000  0.61600000  0.61140000  1.0 0.1281716837
H  H140  1  0.32330000  0.61600000  0.38860000  1.0 0.1281716837
H  H141  1  0.59580000  0.37060000  0.34030000  1.0 0.1536898587
H  H142  1  0.40420000  0.37060000  0.65970000  1.0 0.1536898587
H  H143  1  0.59580000  0.62940000  0.65970000  1.0 0.1536898587
H  H144  1  0.40420000  0.62940000  0.34030000  1.0 0.1536898587
H  H145  1  0.86850000  0.59260000  0.39240000  1.0 0.1281716837
H  H146  1  0.13150000  0.59260000  0.60760000  1.0 0.1281716837
H  H147  1  0.86850000  0.40740000  0.60760000  1.0 0.1281716837
H  H148  1  0.13150000  0.40740000  0.39240000  1.0 0.1281716837
H  H149  1  0.95880000  0.59940000  0.43930000  1.0 0.1174868792
H  H150  1  0.04120000  0.59940000  0.56070000  1.0 0.1174868792
H  H151  1  0.95880000  0.40060000  0.56070000  1.0 0.1174868792
H  H152  1  0.04120000  0.40060000  0.43930000  1.0 0.1174868792
H  H153  1  0.83300000  0.41150000  0.47900000  1.0 0.1281716837
H  H154  1  0.16700000  0.41150000  0.52100000  1.0 0.1281716837
H  H155  1  0.83300000  0.58850000  0.52100000  1.0 0.1281716837
H  H156  1  0.16700000  0.58850000  0.47900000  1.0 0.1281716837
H  H157  1  0.74090000  0.40230000  0.43340000  1.0 0.1401976347
H  H158  1  0.25910000  0.40230000  0.56660000  1.0 0.1401976347
H  H159  1  0.74090000  0.59770000  0.56660000  1.0 0.1401976347
H  H160  1  0.25910000  0.59770000  0.43340000  1.0 0.1401976347
H  H161  1  0.25250000  0.72770000  0.21350000  1.0 0.3577728841
H  H162  1  0.21530000  0.76140000  0.17390000  1.0 0.4138212178
H  H163  1  0.74750000  0.72770000  0.78650000  1.0 0.3577728841
H  H164  1  0.78470000  0.76140000  0.82610000  1.0 0.4138212178
H  H165  1  0.25250000  0.27230000  0.78650000  1.0 0.3577728841
H  H166  1  0.21530000  0.23860000  0.82610000  1.0 0.4138212178
H  H167  1  0.74750000  0.27230000  0.21350000  1.0 0.3577728841
H  H168  1  0.78470000  0.23860000  0.17390000  1.0 0.4138212178
H  H169  1  0.24750000  0.27230000  0.28650000  1.0 0.3577728841
H  H170  1  0.28470000  0.23860000  0.32610000  1.0 0.4138212178
H  H171  1  0.75250000  0.27230000  0.71350000  1.0 0.3577728841
H  H172  1  0.71530000  0.23860000  0.67390000  1.0 0.4138212178
H  H173  1  0.24750000  0.72770000  0.71350000  1.0 0.3577728841
H  H174  1  0.28470000  0.76140000  0.67390000  1.0 0.4138212178
H  H175  1  0.75250000  0.72770000  0.28650000  1.0 0.3577728841
H  H176  1  0.71530000  0.76140000  0.32610000  1.0 0.4138212178
C  C1  1  0.00000000  0.50000000  0.25570000  1.0 0.0908988509
C  C2  1  0.00000000  0.50000000  0.74430000  1.0 0.0908988509
C  C3  1  0.02970000  0.64240000  0.32540000  1.0 0.2689994696
C  C4  1  0.97030000  0.64240000  0.67460000  1.0 0.2689994696
C  C5  1  0.02970000  0.35760000  0.67460000  1.0 0.2689994696
C  C6  1  0.97030000  0.35760000  0.32540000  1.0 0.2689994696
C  C7  1  0.09750000  0.64950000  0.34800000  1.0 -0.1810674247
C  C8  1  0.90250000  0.64950000  0.65200000  1.0 -0.1810674247
C  C9  1  0.09750000  0.35050000  0.65200000  1.0 -0.1810674247
C  C10  1  0.90250000  0.35050000  0.34800000  1.0 -0.1810674247
C  C11  1  0.08730000  0.70130000  0.37540000  1.0 -0.0952509966
C  C12  1  0.91270000  0.70130000  0.62460000  1.0 -0.0952509966
C  C13  1  0.08730000  0.29870000  0.62460000  1.0 -0.0952509966
C  C14  1  0.91270000  0.29870000  0.37540000  1.0 -0.0952509966
C  C15  1  0.01240000  0.74510000  0.38150000  1.0 0.0375396881
C  C16  1  0.98760000  0.74510000  0.61850000  1.0 0.0375396881
C  C17  1  0.01240000  0.25490000  0.61850000  1.0 0.0375396881
C  C18  1  0.98760000  0.25490000  0.38150000  1.0 0.0375396881
C  C19  1  0.94630000  0.73650000  0.35810000  1.0 -0.1201689568
C  C20  1  0.05370000  0.73650000  0.64190000  1.0 -0.1201689568
C  C21  1  0.94630000  0.26350000  0.64190000  1.0 -0.1201689568
C  C22  1  0.05370000  0.26350000  0.35810000  1.0 -0.1201689568
C  C23  1  0.95260000  0.68730000  0.33020000  1.0 -0.1970279392
C  C24  1  0.04740000  0.68730000  0.66980000  1.0 -0.1970279392
C  C25  1  0.95260000  0.31270000  0.66980000  1.0 -0.1970279392
C  C26  1  0.04740000  0.31270000  0.33020000  1.0 -0.1970279392
C  C27  1  0.00660000  0.80020000  0.41010000  1.0 0.1281716837
C  C28  1  0.99340000  0.80020000  0.58990000  1.0 0.1281716837
C  C29  1  0.00660000  0.19980000  0.58990000  1.0 0.1281716837
C  C30  1  0.99340000  0.19980000  0.41010000  1.0 0.1281716837
C  C31  1  0.06430000  0.79700000  0.43710000  1.0 -0.1519643709
C  C32  1  0.93570000  0.79700000  0.56290000  1.0 -0.1519643709
C  C33  1  0.06430000  0.20300000  0.56290000  1.0 -0.1519643709
C  C34  1  0.93570000  0.20300000  0.43710000  1.0 -0.1519643709
C  C35  1  0.97300000  0.57290000  0.27710000  1.0 -0.0733035722
C  C36  1  0.02700000  0.57290000  0.72290000  1.0 -0.0733035722
C  C37  1  0.97300000  0.42710000  0.72290000  1.0 -0.0733035722
C  C38  1  0.02700000  0.42710000  0.27710000  1.0 -0.0733035722
C  C39  1  0.05640000  0.85470000  0.46250000  1.0 0.1038653005
C  C40  1  0.94360000  0.85470000  0.53750000  1.0 0.1038653005
C  C41  1  0.05640000  0.14530000  0.53750000  1.0 0.1038653005
C  C42  1  0.94360000  0.14530000  0.46250000  1.0 0.1038653005
C  C43  1  0.94070000  0.91560000  0.43880000  1.0 0.0908988509
C  C44  1  0.05930000  0.91560000  0.56120000  1.0 0.0908988509
C  C45  1  0.94070000  0.08440000  0.56120000  1.0 0.0908988509
C  C46  1  0.05930000  0.08440000  0.43880000  1.0 0.0908988509
C  C47  1  0.94390000  0.86080000  0.41160000  1.0 -0.1810674247
C  C48  1  0.05610000  0.86080000  0.58840000  1.0 -0.1810674247
C  C49  1  0.94390000  0.13920000  0.58840000  1.0 -0.1810674247
C  C50  1  0.05610000  0.13920000  0.41160000  1.0 -0.1810674247
C  C51  1  0.92180000  0.47670000  0.23350000  1.0 -0.0733035722
C  C52  1  0.07820000  0.47670000  0.76650000  1.0 -0.0733035722
C  C53  1  0.92180000  0.52330000  0.76650000  1.0 -0.0733035722
C  C54  1  0.07820000  0.52330000  0.23350000  1.0 -0.0733035722
C  C55  1  0.85990000  0.52660000  0.18240000  1.0 0.2575265143
C  C56  1  0.14010000  0.52660000  0.81760000  1.0 0.2575265143
C  C57  1  0.85990000  0.47340000  0.81760000  1.0 0.2575265143
C  C58  1  0.14010000  0.47340000  0.18240000  1.0 0.2575265143
C  C59  1  0.80380000  0.46200000  0.17840000  1.0 -0.2095152911
C  C60  1  0.19620000  0.46200000  0.82160000  1.0 -0.2095152911
C  C61  1  0.80380000  0.53800000  0.82160000  1.0 -0.2095152911
C  C62  1  0.19620000  0.53800000  0.17840000  1.0 -0.2095152911
C  C63  1  0.75520000  0.45210000  0.14920000  1.0 -0.1138282128
C  C64  1  0.24480000  0.45210000  0.85080000  1.0 -0.1138282128
C  C65  1  0.75520000  0.54790000  0.85080000  1.0 -0.1138282128
C  C66  1  0.24480000  0.54790000  0.14920000  1.0 -0.1138282128
C  C67  1  0.76160000  0.50970000  0.12300000  1.0 0.0511047963
C  C68  1  0.23840000  0.50970000  0.87700000  1.0 0.0511047963
C  C69  1  0.76160000  0.49030000  0.87700000  1.0 0.0511047963
C  C70  1  0.23840000  0.49030000  0.12300000  1.0 0.0511047963
C  C71  1  0.81790000  0.57570000  0.12810000  1.0 -0.0889202336
C  C72  1  0.18210000  0.57570000  0.87190000  1.0 -0.0889202336
C  C73  1  0.81790000  0.42430000  0.87190000  1.0 -0.0889202336
C  C74  1  0.18210000  0.42430000  0.12810000  1.0 -0.0889202336
C  C75  1  0.86620000  0.58390000  0.15710000  1.0 -0.1721331755
C  C76  1  0.13380000  0.58390000  0.84290000  1.0 -0.1721331755
C  C77  1  0.86620000  0.41610000  0.84290000  1.0 -0.1721331755
C  C78  1  0.13380000  0.41610000  0.15710000  1.0 -0.1721331755
C  C79  1  0.70470000  0.50170000  0.09270000  1.0 0.1281716837
C  C80  1  0.29530000  0.50170000  0.90730000  1.0 0.1281716837
C  C81  1  0.70470000  0.49830000  0.90730000  1.0 0.1281716837
C  C82  1  0.29530000  0.49830000  0.09270000  1.0 0.1281716837
C  C83  1  0.64020000  0.44520000  0.09010000  1.0 -0.1721331755
C  C84  1  0.35980000  0.44520000  0.90990000  1.0 -0.1721331755
C  C85  1  0.64020000  0.55480000  0.90990000  1.0 -0.1721331755
C  C86  1  0.35980000  0.55480000  0.09010000  1.0 -0.1721331755
C  C87  1  0.58550000  0.44130000  0.06190000  1.0 0.0841334361
C  C88  1  0.41450000  0.44130000  0.93810000  1.0 0.0841334361
C  C89  1  0.58550000  0.55870000  0.93810000  1.0 0.0841334361
C  C90  1  0.41450000  0.55870000  0.06190000  1.0 0.0841334361
C  C91  1  0.65940000  0.55120000  0.03870000  1.0 0.0908988509
C  C92  1  0.34060000  0.55120000  0.96130000  1.0 0.0908988509
C  C93  1  0.65940000  0.44880000  0.96130000  1.0 0.0908988509
C  C94  1  0.34060000  0.44880000  0.03870000  1.0 0.0908988509
C  C95  1  0.71470000  0.55700000  0.06590000  1.0 -0.1421280132
C  C96  1  0.28530000  0.55700000  0.93410000  1.0 -0.1421280132
C  C97  1  0.71470000  0.44300000  0.93410000  1.0 -0.1421280132
C  C98  1  0.28530000  0.44300000  0.06590000  1.0 -0.1421280132
C  C99  1  0.50000000  0.50000000  0.24430000  1.0 0.0908988509
C  C100  1  0.50000000  0.50000000  0.75570000  1.0 0.0908988509
C  C101  1  0.47030000  0.35760000  0.17460000  1.0 0.2689994696
C  C102  1  0.52970000  0.35760000  0.82540000  1.0 0.2689994696
C  C103  1  0.47030000  0.64240000  0.82540000  1.0 0.2689994696
C  C104  1  0.52970000  0.64240000  0.17460000  1.0 0.2689994696
C  C105  1  0.40250000  0.35050000  0.15200000  1.0 -0.1810674247
C  C106  1  0.59750000  0.35050000  0.84800000  1.0 -0.1810674247
C  C107  1  0.40250000  0.64950000  0.84800000  1.0 -0.1810674247
C  C108  1  0.59750000  0.64950000  0.15200000  1.0 -0.1810674247
C  C109  1  0.41270000  0.29870000  0.12460000  1.0 -0.0952509966
C  C110  1  0.58730000  0.29870000  0.87540000  1.0 -0.0952509966
C  C111  1  0.41270000  0.70130000  0.87540000  1.0 -0.0952509966
C  C112  1  0.58730000  0.70130000  0.12460000  1.0 -0.0952509966
C  C113  1  0.48760000  0.25490000  0.11850000  1.0 0.0375396881
C  C114  1  0.51240000  0.25490000  0.88150000  1.0 0.0375396881
C  C115  1  0.48760000  0.74510000  0.88150000  1.0 0.0375396881
C  C116  1  0.51240000  0.74510000  0.11850000  1.0 0.0375396881
C  C117  1  0.55370000  0.26350000  0.14190000  1.0 -0.1201689568
C  C118  1  0.44630000  0.26350000  0.85810000  1.0 -0.1201689568
C  C119  1  0.55370000  0.73650000  0.85810000  1.0 -0.1201689568
C  C120  1  0.44630000  0.73650000  0.14190000  1.0 -0.1201689568
C  C121  1  0.54740000  0.31270000  0.16980000  1.0 -0.1970279392
C  C122  1  0.45260000  0.31270000  0.83020000  1.0 -0.1970279392
C  C123  1  0.54740000  0.68730000  0.83020000  1.0 -0.1970279392
C  C124  1  0.45260000  0.68730000  0.16980000  1.0 -0.1970279392
C  C125  1  0.49340000  0.19980000  0.08990000  1.0 0.1281716837
C  C126  1  0.50660000  0.19980000  0.91010000  1.0 0.1281716837
C  C127  1  0.49340000  0.80020000  0.91010000  1.0 0.1281716837
C  C128  1  0.50660000  0.80020000  0.08990000  1.0 0.1281716837
C  C129  1  0.43570000  0.20300000  0.06290000  1.0 -0.1519643709
C  C130  1  0.56430000  0.20300000  0.93710000  1.0 -0.1519643709
C  C131  1  0.43570000  0.79700000  0.93710000  1.0 -0.1519643709
C  C132  1  0.56430000  0.79700000  0.06290000  1.0 -0.1519643709
C  C133  1  0.52700000  0.42710000  0.22290000  1.0 -0.0733035722
C  C134  1  0.47300000  0.42710000  0.77710000  1.0 -0.0733035722
C  C135  1  0.52700000  0.57290000  0.77710000  1.0 -0.0733035722
C  C136  1  0.47300000  0.57290000  0.22290000  1.0 -0.0733035722
C  C137  1  0.44360000  0.14530000  0.03750000  1.0 0.1038653005
C  C138  1  0.55640000  0.14530000  0.96250000  1.0 0.1038653005
C  C139  1  0.44360000  0.85470000  0.96250000  1.0 0.1038653005
C  C140  1  0.55640000  0.85470000  0.03750000  1.0 0.1038653005
C  C141  1  0.55930000  0.08440000  0.06120000  1.0 0.0908988509
C  C142  1  0.44070000  0.08440000  0.93880000  1.0 0.0908988509
C  C143  1  0.55930000  0.91560000  0.93880000  1.0 0.0908988509
C  C144  1  0.44070000  0.91560000  0.06120000  1.0 0.0908988509
C  C145  1  0.55610000  0.13920000  0.08840000  1.0 -0.1810674247
C  C146  1  0.44390000  0.13920000  0.91160000  1.0 -0.1810674247
C  C147  1  0.55610000  0.86080000  0.91160000  1.0 -0.1810674247
C  C148  1  0.44390000  0.86080000  0.08840000  1.0 -0.1810674247
C  C149  1  0.57820000  0.52330000  0.26650000  1.0 -0.0733035722
C  C150  1  0.42180000  0.52330000  0.73350000  1.0 -0.0733035722
C  C151  1  0.57820000  0.47670000  0.73350000  1.0 -0.0733035722
C  C152  1  0.42180000  0.47670000  0.26650000  1.0 -0.0733035722
C  C153  1  0.64010000  0.47340000  0.31760000  1.0 0.2575265143
C  C154  1  0.35990000  0.47340000  0.68240000  1.0 0.2575265143
C  C155  1  0.64010000  0.52660000  0.68240000  1.0 0.2575265143
C  C156  1  0.35990000  0.52660000  0.31760000  1.0 0.2575265143
C  C157  1  0.69620000  0.53800000  0.32160000  1.0 -0.2095152911
C  C158  1  0.30380000  0.53800000  0.67840000  1.0 -0.2095152911
C  C159  1  0.69620000  0.46200000  0.67840000  1.0 -0.2095152911
C  C160  1  0.30380000  0.46200000  0.32160000  1.0 -0.2095152911
C  C161  1  0.74480000  0.54790000  0.35080000  1.0 -0.1138282128
C  C162  1  0.25520000  0.54790000  0.64920000  1.0 -0.1138282128
C  C163  1  0.74480000  0.45210000  0.64920000  1.0 -0.1138282128
C  C164  1  0.25520000  0.45210000  0.35080000  1.0 -0.1138282128
C  C165  1  0.73840000  0.49030000  0.37700000  1.0 0.0511047963
C  C166  1  0.26160000  0.49030000  0.62300000  1.0 0.0511047963
C  C167  1  0.73840000  0.50970000  0.62300000  1.0 0.0511047963
C  C168  1  0.26160000  0.50970000  0.37700000  1.0 0.0511047963
C  C169  1  0.68210000  0.42430000  0.37190000  1.0 -0.0889202336
C  C170  1  0.31790000  0.42430000  0.62810000  1.0 -0.0889202336
C  C171  1  0.68210000  0.57570000  0.62810000  1.0 -0.0889202336
C  C172  1  0.31790000  0.57570000  0.37190000  1.0 -0.0889202336
C  C173  1  0.63380000  0.41610000  0.34290000  1.0 -0.1721331755
C  C174  1  0.36620000  0.41610000  0.65710000  1.0 -0.1721331755
C  C175  1  0.63380000  0.58390000  0.65710000  1.0 -0.1721331755
C  C176  1  0.36620000  0.58390000  0.34290000  1.0 -0.1721331755
C  C177  1  0.79530000  0.49830000  0.40730000  1.0 0.1281716837
C  C178  1  0.20470000  0.49830000  0.59270000  1.0 0.1281716837
C  C179  1  0.79530000  0.50170000  0.59270000  1.0 0.1281716837
C  C180  1  0.20470000  0.50170000  0.40730000  1.0 0.1281716837
C  C181  1  0.85980000  0.55480000  0.40990000  1.0 -0.1721331755
C  C182  1  0.14020000  0.55480000  0.59010000  1.0 -0.1721331755
C  C183  1  0.85980000  0.44520000  0.59010000  1.0 -0.1721331755
C  C184  1  0.14020000  0.44520000  0.40990000  1.0 -0.1721331755
C  C185  1  0.91450000  0.55870000  0.43810000  1.0 0.0841334361
C  C186  1  0.08550000  0.55870000  0.56190000  1.0 0.0841334361
C  C187  1  0.91450000  0.44130000  0.56190000  1.0 0.0841334361
C  C188  1  0.08550000  0.44130000  0.43810000  1.0 0.0841334361
C  C189  1  0.84060000  0.44880000  0.46130000  1.0 0.0908988509
C  C190  1  0.15940000  0.44880000  0.53870000  1.0 0.0908988509
C  C191  1  0.84060000  0.55120000  0.53870000  1.0 0.0908988509
C  C192  1  0.15940000  0.55120000  0.46130000  1.0 0.0908988509
C  C193  1  0.78530000  0.44300000  0.43410000  1.0 -0.1421280132
C  C194  1  0.21470000  0.44300000  0.56590000  1.0 -0.1421280132
C  C195  1  0.78530000  0.55700000  0.56590000  1.0 -0.1421280132
C  C196  1  0.21470000  0.55700000  0.43410000  1.0 -0.1421280132
N  N1  1  0.99740000  0.91310000  0.46400000  1.0 -0.2210176241
N  N2  1  0.00260000  0.91310000  0.53600000  1.0 -0.2210176241
N  N3  1  0.99740000  0.08690000  0.53600000  1.0 -0.2210176241
N  N4  1  0.00260000  0.08690000  0.46400000  1.0 -0.2210176241
N  N5  1  0.59490000  0.49460000  0.03640000  1.0 -0.2210176241
N  N6  1  0.40510000  0.49460000  0.96360000  1.0 -0.2210176241
N  N7  1  0.59490000  0.50540000  0.96360000  1.0 -0.2210176241
N  N8  1  0.40510000  0.50540000  0.03640000  1.0 -0.2210176241
N  N9  1  0.50260000  0.08690000  0.03600000  1.0 -0.2210176241
N  N10  1  0.49740000  0.08690000  0.96400000  1.0 -0.2210176241
N  N11  1  0.50260000  0.91310000  0.96400000  1.0 -0.2210176241
N  N12  1  0.49740000  0.91310000  0.03600000  1.0 -0.2210176241
N  N13  1  0.90510000  0.50540000  0.46360000  1.0 -0.2210176241
N  N14  1  0.09490000  0.50540000  0.53640000  1.0 -0.2210176241
N  N15  1  0.90510000  0.49460000  0.53640000  1.0 -0.2210176241
N  N16  1  0.09490000  0.49460000  0.46360000  1.0 -0.2210176241
N  N17  1  0.25800000  0.73390000  0.26440000  1.0 0.7126901719
N  N18  1  0.74200000  0.73390000  0.73560000  1.0 0.7126901719
N  N19  1  0.25800000  0.26610000  0.73560000  1.0 0.7126901719
N  N20  1  0.74200000  0.26610000  0.26440000  1.0 0.7126901719
N  N21  1  0.24200000  0.26610000  0.23560000  1.0 0.7126901719
N  N22  1  0.75800000  0.26610000  0.76440000  1.0 0.7126901719
N  N23  1  0.24200000  0.73390000  0.76440000  1.0 0.7126901719
N  N24  1  0.75800000  0.73390000  0.23560000  1.0 0.7126901719
N  N25  1  0.16670000  0.26800000  0.05460000  1.0 0.7126901719
N  N26  1  0.83330000  0.26800000  0.94540000  1.0 0.7126901719
N  N27  1  0.16670000  0.73200000  0.94540000  1.0 0.7126901719
N  N28  1  0.83330000  0.73200000  0.05460000  1.0 0.7126901719
N  N29  1  0.33333333  0.73200000  0.44540000  1.0 0.7126901719
N  N30  1  0.66666667  0.73200000  0.55460000  1.0 0.7126901719
N  N31  1  0.33333333  0.26800000  0.55460000  1.0 0.7126901719
N  N32  1  0.66666667  0.26800000  0.44540000  1.0 0.7126901719
O  O1  1  0.90890000  0.54270000  0.21030000  1.0 -0.1421280132
O  O2  1  0.09110000  0.54270000  0.78970000  1.0 -0.1421280132
O  O3  1  0.90890000  0.45730000  0.78970000  1.0 -0.1421280132
O  O4  1  0.09110000  0.45730000  0.21030000  1.0 -0.1421280132
O  O5  1  0.83380000  0.00000000  0.50000000  1.0 -0.3439302173
O  O6  1  0.16620000  0.00000000  0.50000000  1.0 -0.3467946377
O  O7  1  0.04460000  0.59210000  0.29900000  1.0 -0.1421280132
O  O8  1  0.95540000  0.59210000  0.70100000  1.0 -0.1421280132
O  O9  1  0.04460000  0.40790000  0.70100000  1.0 -0.1421280132
O  O10  1  0.95540000  0.40790000  0.29900000  1.0 -0.1421280132
O  O11  1  0.50000000  0.35180000  0.00000000  1.0 -0.2944433716
O  O12  1  0.50000000  0.64820000  0.00000000  1.0 -0.2944433716
O  O13  1  0.59110000  0.45730000  0.28970000  1.0 -0.1421280132
O  O14  1  0.40890000  0.45730000  0.71030000  1.0 -0.1421280132
O  O15  1  0.59110000  0.54270000  0.71030000  1.0 -0.1421280132
O  O16  1  0.40890000  0.54270000  0.28970000  1.0 -0.1421280132
O  O17  1  0.66620000  0.00000000  0.00000000  1.0 -0.3439302173
O  O18  1  0.33380000  0.00000000  0.00000000  1.0 -0.3439302173
O  O19  1  0.45540000  0.40790000  0.20100000  1.0 -0.1421280132
O  O20  1  0.54460000  0.40790000  0.79900000  1.0 -0.1421280132
O  O21  1  0.45540000  0.59210000  0.79900000  1.0 -0.1421280132
O  O22  1  0.54460000  0.59210000  0.20100000  1.0 -0.1421280132
O  O23  1  0.00000000  0.64820000  0.50000000  1.0 -0.2975599196
O  O24  1  0.00000000  0.35180000  0.50000000  1.0 -0.2975599196
O  O25  1  0.26900000  0.67900000  0.24010000  1.0 -0.4898320612
O  O26  1  0.17600000  0.76200000  0.27110000  1.0 -0.429895318
O  O27  1  0.32700000  0.76000000  0.28190000  1.0 -0.4113756147
O  O28  1  0.24100000  0.75800000  0.19690000  1.0 -0.7543273297
O  O29  1  0.73100000  0.67900000  0.75990000  1.0 -0.4898320612
O  O30  1  0.82400000  0.76200000  0.72890000  1.0 -0.429895318
O  O31  1  0.67300000  0.76000000  0.71810000  1.0 -0.4113756147
O  O32  1  0.75900000  0.75800000  0.80310000  1.0 -0.7543273297
O  O33  1  0.26900000  0.32100000  0.75990000  1.0 -0.4898320612
O  O34  1  0.17600000  0.23800000  0.72890000  1.0 -0.429895318
O  O35  1  0.32700000  0.24000000  0.71810000  1.0 -0.4113756147
O  O36  1  0.24100000  0.24200000  0.80310000  1.0 -0.7543273297
O  O37  1  0.73100000  0.32100000  0.24010000  1.0 -0.4898320612
O  O38  1  0.82400000  0.23800000  0.27110000  1.0 -0.429895318
O  O39  1  0.67300000  0.24000000  0.28190000  1.0 -0.4113756147
O  O40  1  0.75900000  0.24200000  0.19690000  1.0 -0.7543273297
O  O41  1  0.23100000  0.32100000  0.25990000  1.0 -0.4898320612
O  O42  1  0.32400000  0.23800000  0.22890000  1.0 -0.429895318
O  O43  1  0.17300000  0.24000000  0.21810000  1.0 -0.4113756147
O  O44  1  0.25900000  0.24200000  0.30310000  1.0 -0.7543273297
O  O45  1  0.76900000  0.32100000  0.74010000  1.0 -0.4898320612
O  O46  1  0.67600000  0.23800000  0.77110000  1.0 -0.429895318
O  O47  1  0.82700000  0.24000000  0.78190000  1.0 -0.4113756147
O  O48  1  0.74100000  0.24200000  0.69690000  1.0 -0.7543273297
O  O49  1  0.23100000  0.67900000  0.74010000  1.0 -0.4898320612
O  O50  1  0.32400000  0.76200000  0.77110000  1.0 -0.429895318
O  O51  1  0.17300000  0.76000000  0.78190000  1.0 -0.4113756147
O  O52  1  0.25900000  0.75800000  0.69690000  1.0 -0.7543273297
O  O53  1  0.76900000  0.67900000  0.25990000  1.0 -0.4898320612
O  O54  1  0.67600000  0.76200000  0.22890000  1.0 -0.429895318
O  O55  1  0.82700000  0.76000000  0.21810000  1.0 -0.4113756147
O  O56  1  0.74100000  0.75800000  0.30310000  1.0 -0.7543273297
O  O57  1  0.21200000  0.26000000  0.02770000  1.0 -0.447825889
O  O58  1  0.09300000  0.30700000  0.05420000  1.0 -0.3876915452
O  O59  1  0.19500000  0.23700000  0.08190000  1.0 -0.429895318
O  O60  1  0.78800000  0.26000000  0.97230000  1.0 -0.447825889
O  O61  1  0.90700000  0.30700000  0.94580000  1.0 -0.3876915452
O  O62  1  0.80500000  0.23700000  0.91810000  1.0 -0.429895318
O  O63  1  0.21200000  0.74000000  0.97230000  1.0 -0.447825889
O  O64  1  0.09300000  0.69300000  0.94580000  1.0 -0.3876915452
O  O65  1  0.19500000  0.76300000  0.91810000  1.0 -0.429895318
O  O66  1  0.78800000  0.74000000  0.02770000  1.0 -0.447825889
O  O67  1  0.90700000  0.69300000  0.05420000  1.0 -0.3876915452
O  O68  1  0.80500000  0.76300000  0.08190000  1.0 -0.429895318
O  O69  1  0.28800000  0.74000000  0.47230000  1.0 -0.447825889
O  O70  1  0.40700000  0.69300000  0.44580000  1.0 -0.3876915452
O  O71  1  0.30500000  0.76300000  0.41810000  1.0 -0.429895318
O  O72  1  0.71200000  0.74000000  0.52770000  1.0 -0.447825889
O  O73  1  0.59300000  0.69300000  0.55420000  1.0 -0.3876915452
O  O74  1  0.69500000  0.76300000  0.58190000  1.0 -0.429895318
O  O75  1  0.28800000  0.26000000  0.52770000  1.0 -0.447825889
O  O76  1  0.40700000  0.30700000  0.55420000  1.0 -0.3876915452
O  O77  1  0.30500000  0.23700000  0.58190000  1.0 -0.429895318
O  O78  1  0.71200000  0.26000000  0.47230000  1.0 -0.447825889
O  O79  1  0.59300000  0.30700000  0.44580000  1.0 -0.3876915452
O  O80  1  0.69500000  0.23700000  0.41810000  1.0 -0.429895318
