# DDEC6 charges by PACMAN v1.1 (https://github.com/mtap-research/PACMAN-charge/)
data_MOYMUJ_FSR_pacman
_symmetry_space_group_name_H-M   'P 1'
_cell_length_a   14.42010000
_cell_length_b   19.68320000
_cell_length_c   24.39370000
_cell_angle_alpha   90.00000000
_cell_angle_beta   95.63200000
_cell_angle_gamma   90.00000000
_symmetry_Int_Tables_number   1
_chemical_formula_structural   Co2H102C78N4O13
_chemical_formula_sum   'Co8 H408 C312 N16 O52'
_cell_volume   6890.33169445
_cell_formula_units_Z   4
loop_
 _symmetry_equiv_pos_site_id
 _symmetry_equiv_pos_as_xyz
  1  'x, y, z'
loop_
 _atom_site_type_symbol
 _atom_site_label
 _atom_site_symmetry_multiplicity
 _atom_site_fract_x
 _atom_site_fract_y
 _atom_site_fract_z
 _atom_site_occupancy
 _atom_site_charge
Co  Co1  1  0.50427000  0.85928000  0.72996000  1.0 0.895458692
Co  Co2  1  0.49573000  0.35928000  0.77004000  1.0 0.895458692
Co  Co3  1  0.49573000  0.14072000  0.27004000  1.0 0.8946194587
Co  Co4  1  0.50427000  0.64072000  0.22996000  1.0 0.895458692
Co  Co5  1  0.74831000  0.89181000  0.77353000  1.0 0.8599464533
Co  Co6  1  0.25169000  0.39181000  0.72647000  1.0 0.8599464533
Co  Co7  1  0.25169000  0.10819000  0.22647000  1.0 0.8599464533
Co  Co8  1  0.74831000  0.60819000  0.27353000  1.0 0.8599464533
H  H1  1  0.83580000  0.33900000  0.83620000  1.0 0.0788663582
H  H2  1  0.16420000  0.83900000  0.66380000  1.0 0.0788663582
H  H3  1  0.16420000  0.66100000  0.16380000  1.0 0.0788663582
H  H4  1  0.83580000  0.16100000  0.33620000  1.0 0.0788663582
H  H5  1  0.80000000  0.35450000  0.77460000  1.0 0.0905076082
H  H6  1  0.20000000  0.85450000  0.72540000  1.0 0.0905076082
H  H7  1  0.20000000  0.64550000  0.22540000  1.0 0.0905076082
H  H8  1  0.80000000  0.14550000  0.27460000  1.0 0.0905076082
H  H9  1  0.74880000  0.24700000  0.79790000  1.0 0.0507703734
H  H10  1  0.25120000  0.74700000  0.70210000  1.0 0.0507703734
H  H11  1  0.25120000  0.75300000  0.20210000  1.0 0.0507703734
H  H12  1  0.74880000  0.25300000  0.29790000  1.0 0.0507703734
H  H13  1  0.81690000  0.23990000  0.75190000  1.0 0.0692388595
H  H14  1  0.18310000  0.73990000  0.74810000  1.0 0.0692388595
H  H15  1  0.18310000  0.76010000  0.24810000  1.0 0.0692388595
H  H16  1  0.81690000  0.26010000  0.25190000  1.0 0.0692388595
H  H17  1  0.93790000  0.20810000  0.81830000  1.0 0.0788663582
H  H18  1  0.06210000  0.70810000  0.68170000  1.0 0.0788663582
H  H19  1  0.06210000  0.79190000  0.18170000  1.0 0.0788663582
H  H20  1  0.93790000  0.29190000  0.31830000  1.0 0.0788663582
H  H21  1  0.87130000  0.21680000  0.86500000  1.0 0.0788663582
H  H22  1  0.12870000  0.71680000  0.63500000  1.0 0.0788663582
H  H23  1  0.12870000  0.78320000  0.13500000  1.0 0.0788663582
H  H24  1  0.87130000  0.28320000  0.36500000  1.0 0.0788663582
H  H25  1  0.73260000  0.14700000  0.76160000  1.0 0.1009940763
H  H26  1  0.26740000  0.64700000  0.73840000  1.0 0.1009940763
H  H27  1  0.26740000  0.85300000  0.23840000  1.0 0.1009940763
H  H28  1  0.73260000  0.35300000  0.26160000  1.0 0.1009940763
H  H29  1  0.69480000  0.03730000  0.74550000  1.0 0.1384903019
H  H30  1  0.30520000  0.53730000  0.75450000  1.0 0.1384903019
H  H31  1  0.30520000  0.96270000  0.25450000  1.0 0.1384903019
H  H32  1  0.69480000  0.46270000  0.24550000  1.0 0.1384903019
H  H33  1  0.89430000  0.97480000  0.85030000  1.0 0.1312752075
H  H34  1  0.10570000  0.47480000  0.64970000  1.0 0.1312752075
H  H35  1  0.10570000  0.02520000  0.14970000  1.0 0.1312752075
H  H36  1  0.89430000  0.52520000  0.35030000  1.0 0.1312752075
H  H37  1  0.93840000  0.08530000  0.86940000  1.0 0.1196772045
H  H38  1  0.06160000  0.58530000  0.63060000  1.0 0.1196772045
H  H39  1  0.06160000  0.91470000  0.13060000  1.0 0.1196772045
H  H40  1  0.93840000  0.41470000  0.36940000  1.0 0.1196772045
H  H41  1  0.19540000  0.82070000  0.92470000  1.0 0.0788663582
H  H42  1  0.80460000  0.32070000  0.57530000  1.0 0.0788663582
H  H43  1  0.80460000  0.17930000  0.07530000  1.0 0.0788663582
H  H44  1  0.19540000  0.67930000  0.42470000  1.0 0.0788663582
H  H45  1  0.18830000  0.74230000  0.91190000  1.0 0.0692388595
H  H46  1  0.81170000  0.24230000  0.58810000  1.0 0.0692388595
H  H47  1  0.81170000  0.25770000  0.08810000  1.0 0.0692388595
H  H48  1  0.18830000  0.75770000  0.41190000  1.0 0.0692388595
H  H49  1  0.33770000  0.80420000  0.98030000  1.0 0.0507703734
H  H50  1  0.66230000  0.30420000  0.51970000  1.0 0.0507703734
H  H51  1  0.66230000  0.19580000  0.01970000  1.0 0.0507703734
H  H52  1  0.33770000  0.69580000  0.48030000  1.0 0.0507703734
H  H53  1  0.33790000  0.72670000  0.96460000  1.0 0.0605264778
H  H54  1  0.66210000  0.22670000  0.53540000  1.0 0.0605264778
H  H55  1  0.66210000  0.27330000  0.03540000  1.0 0.0605264778
H  H56  1  0.33790000  0.77330000  0.46460000  1.0 0.0605264778
H  H57  1  0.20740000  0.78880000  0.02980000  1.0 0.0692388595
H  H58  1  0.79260000  0.28880000  0.47020000  1.0 0.0692388595
H  H59  1  0.79260000  0.21120000  0.97020000  1.0 0.0692388595
H  H60  1  0.20740000  0.71120000  0.52980000  1.0 0.0692388595
H  H61  1  0.19700000  0.71260000  0.00970000  1.0 0.0788663582
H  H62  1  0.80300000  0.21260000  0.49030000  1.0 0.0788663582
H  H63  1  0.80300000  0.28740000  0.99030000  1.0 0.0788663582
H  H64  1  0.19700000  0.78740000  0.50970000  1.0 0.0788663582
H  H65  1  0.70340000  0.87720000  0.40920000  1.0 0.0788663582
H  H66  1  0.29660000  0.37720000  0.09080000  1.0 0.0788663582
H  H67  1  0.29660000  0.12280000  0.59080000  1.0 0.0788663582
H  H68  1  0.70340000  0.62280000  0.90920000  1.0 0.0788663582
H  H69  1  0.67940000  0.81520000  0.44570000  1.0 0.0692388595
H  H70  1  0.32060000  0.31520000  0.05430000  1.0 0.0692388595
H  H71  1  0.32060000  0.18480000  0.55430000  1.0 0.0692388595
H  H72  1  0.67940000  0.68480000  0.94570000  1.0 0.0692388595
H  H73  1  0.61950000  0.82960000  0.38970000  1.0 0.0692388595
H  H74  1  0.38050000  0.32960000  0.11030000  1.0 0.0692388595
H  H75  1  0.38050000  0.17040000  0.61030000  1.0 0.0692388595
H  H76  1  0.61950000  0.67040000  0.88970000  1.0 0.0692388595
H  H77  1  0.51930000  0.93220000  0.37860000  1.0 0.0692388595
H  H78  1  0.48070000  0.43220000  0.12140000  1.0 0.0692388595
H  H79  1  0.48070000  0.06780000  0.62140000  1.0 0.0692388595
H  H80  1  0.51930000  0.56780000  0.87860000  1.0 0.0692388595
H  H81  1  0.51520000  0.98350000  0.42750000  1.0 0.0788663582
H  H82  1  0.48480000  0.48350000  0.07250000  1.0 0.0788663582
H  H83  1  0.48480000  0.01650000  0.57250000  1.0 0.0788663582
H  H84  1  0.51520000  0.51650000  0.92750000  1.0 0.0788663582
H  H85  1  0.60710000  0.97590000  0.39860000  1.0 0.1087654155
H  H86  1  0.39290000  0.47590000  0.10140000  1.0 0.1087654155
H  H87  1  0.39290000  0.02410000  0.60140000  1.0 0.1087654155
H  H88  1  0.60710000  0.52410000  0.89860000  1.0 0.1087654155
H  H89  1  0.46950000  0.84170000  0.43150000  1.0 0.0692388595
H  H90  1  0.53050000  0.34170000  0.06850000  1.0 0.0692388595
H  H91  1  0.53050000  0.15830000  0.56850000  1.0 0.0692388595
H  H92  1  0.46950000  0.65830000  0.93150000  1.0 0.0692388595
H  H93  1  0.52700000  0.81480000  0.48500000  1.0 0.0605264778
H  H94  1  0.47300000  0.31480000  0.01500000  1.0 0.0605264778
H  H95  1  0.47300000  0.18520000  0.51500000  1.0 0.0605264778
H  H96  1  0.52700000  0.68520000  0.98500000  1.0 0.0605264778
H  H97  1  0.46810000  0.88140000  0.48710000  1.0 0.1009940763
H  H98  1  0.53190000  0.38140000  0.01290000  1.0 0.1009940763
H  H99  1  0.53190000  0.11860000  0.51290000  1.0 0.1009940763
H  H100  1  0.46810000  0.61860000  0.98710000  1.0 0.1009940763
H  H101  1  0.79110000  0.78700000  0.17810000  1.0 0.0692388595
H  H102  1  0.20890000  0.28700000  0.32190000  1.0 0.0692388595
H  H103  1  0.20890000  0.21300000  0.82190000  1.0 0.0692388595
H  H104  1  0.79110000  0.71300000  0.67810000  1.0 0.0692388595
H  H105  1  0.80130000  0.72590000  0.13780000  1.0 0.0788663582
H  H106  1  0.19870000  0.22590000  0.36220000  1.0 0.0788663582
H  H107  1  0.19870000  0.27410000  0.86220000  1.0 0.0788663582
H  H108  1  0.80130000  0.77410000  0.63780000  1.0 0.0788663582
H  H109  1  0.87740000  0.78310000  0.14370000  1.0 0.1087654155
H  H110  1  0.12260000  0.28310000  0.35630000  1.0 0.1087654155
H  H111  1  0.12260000  0.21690000  0.85630000  1.0 0.1087654155
H  H112  1  0.87740000  0.71690000  0.64370000  1.0 0.1087654155
H  H113  1  0.62140000  0.82600000  0.06880000  1.0 0.0788663582
H  H114  1  0.37860000  0.32600000  0.43120000  1.0 0.0788663582
H  H115  1  0.37860000  0.17400000  0.93120000  1.0 0.0788663582
H  H116  1  0.62140000  0.67400000  0.56880000  1.0 0.0788663582
H  H117  1  0.64420000  0.75120000  0.08750000  1.0 0.0788663582
H  H118  1  0.35580000  0.25120000  0.41250000  1.0 0.0788663582
H  H119  1  0.35580000  0.24880000  0.91250000  1.0 0.0788663582
H  H120  1  0.64420000  0.74880000  0.58750000  1.0 0.0788663582
H  H121  1  0.63480000  0.80800000  0.13170000  1.0 0.0788663582
H  H122  1  0.36520000  0.30800000  0.36830000  1.0 0.0788663582
H  H123  1  0.36520000  0.19200000  0.86830000  1.0 0.0788663582
H  H124  1  0.63480000  0.69200000  0.63170000  1.0 0.0788663582
H  H125  1  0.75820000  0.89920000  0.14670000  1.0 0.0692388595
H  H126  1  0.24180000  0.39920000  0.35330000  1.0 0.0692388595
H  H127  1  0.24180000  0.10080000  0.85330000  1.0 0.0692388595
H  H128  1  0.75820000  0.60080000  0.64670000  1.0 0.0692388595
H  H129  1  0.83650000  0.90200000  0.10640000  1.0 0.0605264778
H  H130  1  0.16350000  0.40200000  0.39360000  1.0 0.0605264778
H  H131  1  0.16350000  0.09800000  0.89360000  1.0 0.0605264778
H  H132  1  0.83650000  0.59800000  0.60640000  1.0 0.0605264778
H  H133  1  0.73250000  0.91610000  0.08420000  1.0 0.1087654155
H  H134  1  0.26750000  0.41610000  0.41580000  1.0 0.1087654155
H  H135  1  0.26750000  0.08390000  0.91580000  1.0 0.1087654155
H  H136  1  0.73250000  0.58390000  0.58420000  1.0 0.1087654155
H  H137  1  0.89280000  0.03080000  0.47830000  1.0 0.329381949
H  H138  1  0.10720000  0.53080000  0.02170000  1.0 0.329381949
H  H139  1  0.10720000  0.96920000  0.52170000  1.0 0.329381949
H  H140  1  0.89280000  0.46920000  0.97830000  1.0 0.329381949
H  H141  1  0.03570000  0.62410000  0.01670000  1.0 0.329381949
H  H142  1  0.96430000  0.12410000  0.48330000  1.0 0.329381949
H  H143  1  0.96430000  0.37590000  0.98330000  1.0 0.329381949
H  H144  1  0.03570000  0.87590000  0.51670000  1.0 0.329381949
H  H145  1  0.61310000  0.89570000  0.82420000  1.0 0.3412345064
H  H146  1  0.38690000  0.39570000  0.67580000  1.0 0.3412345064
H  H147  1  0.38690000  0.10430000  0.17580000  1.0 0.3412345064
H  H148  1  0.61310000  0.60430000  0.32420000  1.0 0.3412345064
H  H149  1  0.58610000  0.94590000  0.78680000  1.0 0.329381949
H  H150  1  0.41390000  0.44590000  0.71320000  1.0 0.329381949
H  H151  1  0.41390000  0.05410000  0.21320000  1.0 0.329381949
H  H152  1  0.58610000  0.55410000  0.28680000  1.0 0.329381949
H  H153  1  0.80980000  0.69130000  0.78430000  1.0 0.1312752075
H  H154  1  0.19020000  0.19130000  0.71570000  1.0 0.1312752075
H  H155  1  0.19020000  0.30870000  0.21570000  1.0 0.1312752075
H  H156  1  0.80980000  0.80870000  0.28430000  1.0 0.1312752075
H  H157  1  0.73200000  0.49710000  0.78540000  1.0 0.1312752075
H  H158  1  0.26800000  0.99710000  0.71460000  1.0 0.1312752075
H  H159  1  0.26800000  0.50290000  0.21460000  1.0 0.1312752075
H  H160  1  0.73200000  0.00290000  0.28540000  1.0 0.1312752075
H  H161  1  0.54150000  0.64120000  0.74350000  1.0 0.1312752075
H  H162  1  0.45850000  0.14120000  0.75650000  1.0 0.1312752075
H  H163  1  0.45850000  0.35880000  0.25650000  1.0 0.1312752075
H  H164  1  0.54150000  0.85880000  0.24350000  1.0 0.1312752075
H  H165  1  0.85730000  0.48980000  0.85230000  1.0 0.1196772045
H  H166  1  0.14270000  0.98980000  0.64770000  1.0 0.1196772045
H  H167  1  0.14270000  0.51020000  0.14770000  1.0 0.1196772045
H  H168  1  0.85730000  0.01020000  0.35230000  1.0 0.1196772045
H  H169  1  0.96080000  0.51450000  0.86350000  1.0 0.1384903019
H  H170  1  0.03920000  0.01450000  0.63650000  1.0 0.1384903019
H  H171  1  0.03920000  0.48550000  0.13650000  1.0 0.1384903019
H  H172  1  0.96080000  0.98550000  0.36350000  1.0 0.1384903019
H  H173  1  0.87990000  0.55870000  0.88310000  1.0 0.1384903019
H  H174  1  0.12010000  0.05870000  0.61690000  1.0 0.1384903019
H  H175  1  0.12010000  0.44130000  0.11690000  1.0 0.1384903019
H  H176  1  0.87990000  0.94130000  0.38310000  1.0 0.1384903019
H  H177  1  0.90960000  0.54330000  0.71980000  1.0 0.1312752075
H  H178  1  0.09040000  0.04330000  0.78020000  1.0 0.1312752075
H  H179  1  0.09040000  0.45670000  0.28020000  1.0 0.1312752075
H  H180  1  0.90960000  0.95670000  0.21980000  1.0 0.1312752075
H  H181  1  0.97790000  0.50390000  0.76260000  1.0 0.1196772045
H  H182  1  0.02210000  0.00390000  0.73740000  1.0 0.1196772045
H  H183  1  0.02210000  0.49610000  0.23740000  1.0 0.1196772045
H  H184  1  0.97790000  0.99610000  0.26260000  1.0 0.1196772045
H  H185  1  0.87370000  0.48080000  0.75150000  1.0 0.1196772045
H  H186  1  0.12630000  0.98080000  0.74850000  1.0 0.1196772045
H  H187  1  0.12630000  0.51920000  0.24850000  1.0 0.1196772045
H  H188  1  0.87370000  0.01920000  0.25150000  1.0 0.1196772045
H  H189  1  0.94150000  0.65900000  0.83060000  1.0 0.1312752075
H  H190  1  0.05850000  0.15900000  0.66940000  1.0 0.1312752075
H  H191  1  0.05850000  0.34100000  0.16940000  1.0 0.1312752075
H  H192  1  0.94150000  0.84100000  0.33060000  1.0 0.1312752075
H  H193  1  0.02020000  0.61130000  0.81270000  1.0 0.1312752075
H  H194  1  0.97980000  0.11130000  0.68730000  1.0 0.1312752075
H  H195  1  0.97980000  0.38870000  0.18730000  1.0 0.1312752075
H  H196  1  0.02020000  0.88870000  0.31270000  1.0 0.1312752075
H  H197  1  0.95480000  0.65000000  0.76800000  1.0 0.1196772045
H  H198  1  0.04520000  0.15000000  0.73200000  1.0 0.1196772045
H  H199  1  0.04520000  0.35000000  0.23200000  1.0 0.1196772045
H  H200  1  0.95480000  0.85000000  0.26800000  1.0 0.1196772045
H  H201  1  0.77670000  0.00500000  0.62520000  1.0 0.1196772045
H  H202  1  0.22330000  0.50500000  0.87480000  1.0 0.1196772045
H  H203  1  0.22330000  0.99500000  0.37480000  1.0 0.1196772045
H  H204  1  0.77670000  0.49500000  0.12520000  1.0 0.1196772045
H  H205  1  0.73000000  0.98300000  0.46130000  1.0 0.1009940763
H  H206  1  0.27000000  0.48300000  0.03870000  1.0 0.1009940763
H  H207  1  0.27000000  0.01700000  0.53870000  1.0 0.1009940763
H  H208  1  0.73000000  0.51700000  0.96130000  1.0 0.1009940763
H  H209  1  0.57310000  0.88250000  0.56030000  1.0 0.1196772045
H  H210  1  0.42690000  0.38250000  0.93970000  1.0 0.1196772045
H  H211  1  0.42690000  0.11750000  0.43970000  1.0 0.1196772045
H  H212  1  0.57310000  0.61750000  0.06030000  1.0 0.1196772045
H  H213  1  0.88150000  0.76420000  0.90520000  1.0 0.1312752075
H  H214  1  0.11850000  0.26420000  0.59480000  1.0 0.1312752075
H  H215  1  0.11850000  0.23580000  0.09480000  1.0 0.1312752075
H  H216  1  0.88150000  0.73580000  0.40520000  1.0 0.1312752075
H  H217  1  0.89200000  0.73000000  0.06730000  1.0 0.1087654155
H  H218  1  0.10800000  0.23000000  0.43270000  1.0 0.1087654155
H  H219  1  0.10800000  0.27000000  0.93270000  1.0 0.1087654155
H  H220  1  0.89200000  0.77000000  0.56730000  1.0 0.1087654155
H  H221  1  0.70450000  0.85810000  0.99580000  1.0 0.1312752075
H  H222  1  0.29550000  0.35810000  0.50420000  1.0 0.1312752075
H  H223  1  0.29550000  0.14190000  0.00420000  1.0 0.1312752075
H  H224  1  0.70450000  0.64190000  0.49580000  1.0 0.1312752075
H  H225  1  0.13960000  0.39390000  0.82720000  1.0 0.1087654155
H  H226  1  0.86040000  0.89390000  0.67280000  1.0 0.1087654155
H  H227  1  0.86040000  0.60610000  0.17280000  1.0 0.1087654155
H  H228  1  0.13960000  0.10610000  0.32720000  1.0 0.1087654155
H  H229  1  0.00110000  0.36450000  0.85680000  1.0 0.1312752075
H  H230  1  0.99890000  0.86450000  0.64320000  1.0 0.1312752075
H  H231  1  0.99890000  0.63550000  0.14320000  1.0 0.1312752075
H  H232  1  0.00110000  0.13550000  0.35680000  1.0 0.1312752075
H  H233  1  0.91330000  0.31300000  0.70460000  1.0 0.1312752075
H  H234  1  0.08670000  0.81300000  0.79540000  1.0 0.1312752075
H  H235  1  0.08670000  0.68700000  0.29540000  1.0 0.1312752075
H  H236  1  0.91330000  0.18700000  0.20460000  1.0 0.1312752075
H  H237  1  0.05910000  0.33610000  0.67920000  1.0 0.1087654155
H  H238  1  0.94090000  0.83610000  0.82080000  1.0 0.1087654155
H  H239  1  0.94090000  0.66390000  0.32080000  1.0 0.1087654155
H  H240  1  0.05910000  0.16390000  0.17920000  1.0 0.1087654155
H  H241  1  0.43080000  0.73130000  0.78930000  1.0 0.1087654155
H  H242  1  0.56920000  0.23130000  0.71070000  1.0 0.1087654155
H  H243  1  0.56920000  0.26870000  0.21070000  1.0 0.1087654155
H  H244  1  0.43080000  0.76870000  0.28930000  1.0 0.1087654155
H  H245  1  0.33120000  0.69870000  0.85070000  1.0 0.1312752075
H  H246  1  0.66880000  0.19870000  0.64930000  1.0 0.1312752075
H  H247  1  0.66880000  0.30130000  0.14930000  1.0 0.1312752075
H  H248  1  0.33120000  0.80130000  0.35070000  1.0 0.1312752075
H  H249  1  0.27370000  0.88650000  0.87620000  1.0 0.1312752075
H  H250  1  0.72630000  0.38650000  0.62380000  1.0 0.1312752075
H  H251  1  0.72630000  0.11350000  0.12380000  1.0 0.1312752075
H  H252  1  0.27370000  0.61350000  0.37620000  1.0 0.1312752075
H  H253  1  0.37580000  0.91780000  0.81500000  1.0 0.1009940763
H  H254  1  0.62420000  0.41780000  0.68500000  1.0 0.1009940763
H  H255  1  0.62420000  0.08220000  0.18500000  1.0 0.1009940763
H  H256  1  0.37580000  0.58220000  0.31500000  1.0 0.1009940763
H  H257  1  0.38170000  0.81670000  0.08730000  1.0 0.1312752075
H  H258  1  0.61830000  0.31670000  0.41270000  1.0 0.1312752075
H  H259  1  0.61830000  0.18330000  0.91270000  1.0 0.1312752075
H  H260  1  0.38170000  0.68330000  0.58730000  1.0 0.1312752075
H  H261  1  0.45950000  0.77650000  0.16690000  1.0 0.1196772045
H  H262  1  0.54050000  0.27650000  0.33310000  1.0 0.1196772045
H  H263  1  0.54050000  0.22350000  0.83310000  1.0 0.1196772045
H  H264  1  0.45950000  0.72350000  0.66690000  1.0 0.1196772045
H  H265  1  0.35500000  0.59720000  0.13980000  1.0 0.1196772045
H  H266  1  0.64500000  0.09720000  0.36020000  1.0 0.1196772045
H  H267  1  0.64500000  0.40280000  0.86020000  1.0 0.1196772045
H  H268  1  0.35500000  0.90280000  0.63980000  1.0 0.1196772045
H  H269  1  0.27990000  0.63080000  0.05920000  1.0 0.1312752075
H  H270  1  0.72010000  0.13080000  0.44080000  1.0 0.1312752075
H  H271  1  0.72010000  0.36920000  0.94080000  1.0 0.1312752075
H  H272  1  0.27990000  0.86920000  0.55920000  1.0 0.1312752075
H  H273  1  0.81110000  0.36060000  0.80900000  1.0 0.0788663582
H  H274  1  0.18890000  0.86060000  0.69100000  1.0 0.0788663582
H  H275  1  0.18890000  0.63940000  0.19100000  1.0 0.0788663582
H  H276  1  0.81110000  0.13940000  0.30900000  1.0 0.0788663582
H  H277  1  0.88110000  0.33750000  0.85890000  1.0 0.0905076082
H  H278  1  0.11890000  0.83750000  0.64110000  1.0 0.0905076082
H  H279  1  0.11890000  0.66250000  0.14110000  1.0 0.0905076082
H  H280  1  0.88110000  0.16250000  0.35890000  1.0 0.0905076082
H  H281  1  0.75690000  0.25820000  0.82360000  1.0 0.0605264778
H  H282  1  0.24310000  0.75820000  0.67640000  1.0 0.0605264778
H  H283  1  0.24310000  0.74180000  0.17640000  1.0 0.0605264778
H  H284  1  0.75690000  0.24180000  0.32360000  1.0 0.0605264778
H  H285  1  0.82000000  0.24360000  0.77670000  1.0 0.0605264778
H  H286  1  0.18000000  0.74360000  0.72330000  1.0 0.0605264778
H  H287  1  0.18000000  0.75640000  0.22330000  1.0 0.0605264778
H  H288  1  0.82000000  0.25640000  0.27670000  1.0 0.0605264778
H  H289  1  0.93490000  0.20390000  0.85330000  1.0 0.0788663582
H  H290  1  0.06510000  0.70390000  0.64670000  1.0 0.0788663582
H  H291  1  0.06510000  0.79610000  0.14670000  1.0 0.0788663582
H  H292  1  0.93490000  0.29610000  0.35330000  1.0 0.0788663582
H  H293  1  0.84630000  0.19700000  0.88560000  1.0 0.0788663582
H  H294  1  0.15370000  0.69700000  0.61440000  1.0 0.0788663582
H  H295  1  0.15370000  0.80300000  0.11440000  1.0 0.0788663582
H  H296  1  0.84630000  0.30300000  0.38560000  1.0 0.0788663582
H  H297  1  0.78310000  0.10840000  0.89110000  1.0 0.1087654155
H  H298  1  0.21690000  0.60840000  0.60890000  1.0 0.1087654155
H  H299  1  0.21690000  0.89160000  0.10890000  1.0 0.1087654155
H  H300  1  0.78310000  0.39160000  0.39110000  1.0 0.1087654155
H  H301  1  0.74230000  0.00040000  0.86980000  1.0 0.1384903019
H  H302  1  0.25770000  0.50040000  0.63020000  1.0 0.1384903019
H  H303  1  0.25770000  0.99960000  0.13020000  1.0 0.1384903019
H  H304  1  0.74230000  0.49960000  0.36980000  1.0 0.1384903019
H  H305  1  0.84450000  0.01160000  0.72970000  1.0 0.1196772045
H  H306  1  0.15550000  0.51160000  0.77030000  1.0 0.1196772045
H  H307  1  0.15550000  0.98840000  0.27030000  1.0 0.1196772045
H  H308  1  0.84450000  0.48840000  0.22970000  1.0 0.1196772045
H  H309  1  0.88930000  0.12210000  0.74810000  1.0 0.1087654155
H  H310  1  0.11070000  0.62210000  0.75190000  1.0 0.1087654155
H  H311  1  0.11070000  0.87790000  0.25190000  1.0 0.1087654155
H  H312  1  0.88930000  0.37790000  0.24810000  1.0 0.1087654155
H  H313  1  0.79500000  0.20750000  0.61400000  1.0 0.0905076082
H  H314  1  0.20500000  0.70750000  0.88600000  1.0 0.0905076082
H  H315  1  0.20500000  0.79250000  0.38600000  1.0 0.0905076082
H  H316  1  0.79500000  0.29250000  0.11400000  1.0 0.0905076082
H  H317  1  0.83090000  0.27560000  0.59000000  1.0 0.0692388595
H  H318  1  0.16910000  0.77560000  0.91000000  1.0 0.0692388595
H  H319  1  0.16910000  0.72440000  0.41000000  1.0 0.0692388595
H  H320  1  0.83090000  0.22440000  0.09000000  1.0 0.0692388595
H  H321  1  0.67960000  0.19870000  0.54560000  1.0 0.0692388595
H  H322  1  0.32040000  0.69870000  0.95440000  1.0 0.0692388595
H  H323  1  0.32040000  0.80130000  0.45440000  1.0 0.0692388595
H  H324  1  0.67960000  0.30130000  0.04560000  1.0 0.0692388595
H  H325  1  0.77410000  0.20260000  0.52130000  1.0 0.0605264778
H  H326  1  0.22590000  0.70260000  0.97870000  1.0 0.0605264778
H  H327  1  0.22590000  0.79740000  0.47870000  1.0 0.0605264778
H  H328  1  0.77410000  0.29740000  0.02130000  1.0 0.0605264778
H  H329  1  0.61900000  0.27890000  0.49450000  1.0 0.0788663582
H  H330  1  0.38100000  0.77890000  0.00550000  1.0 0.0788663582
H  H331  1  0.38100000  0.72110000  0.50550000  1.0 0.0788663582
H  H332  1  0.61900000  0.22110000  0.99450000  1.0 0.0788663582
H  H333  1  0.71560000  0.31140000  0.48530000  1.0 0.0335316661
H  H334  1  0.28440000  0.81140000  0.01470000  1.0 0.0335316661
H  H335  1  0.28440000  0.68860000  0.51470000  1.0 0.0335316661
H  H336  1  0.71560000  0.18860000  0.98530000  1.0 0.0335316661
H  H337  1  0.38100000  0.47050000  0.10050000  1.0 0.1087654155
H  H338  1  0.61900000  0.97050000  0.39950000  1.0 0.1087654155
H  H339  1  0.61900000  0.52950000  0.89950000  1.0 0.1087654155
H  H340  1  0.38100000  0.02950000  0.60050000  1.0 0.1087654155
H  H341  1  0.32330000  0.40410000  0.10740000  1.0 0.0507703734
H  H342  1  0.67670000  0.90410000  0.39260000  1.0 0.0507703734
H  H343  1  0.67670000  0.59590000  0.89260000  1.0 0.0507703734
H  H344  1  0.32330000  0.09590000  0.60740000  1.0 0.044676048
H  H345  1  0.42820000  0.40760000  0.13130000  1.0 0.0605264778
H  H346  1  0.57180000  0.90760000  0.36870000  1.0 0.0605264778
H  H347  1  0.57180000  0.59240000  0.86870000  1.0 0.0605264778
H  H348  1  0.42820000  0.09240000  0.63130000  1.0 0.0605264778
H  H349  1  0.55380000  0.38630000  0.07460000  1.0 0.0605264778
H  H350  1  0.44620000  0.88630000  0.42540000  1.0 0.0605264778
H  H351  1  0.44620000  0.61370000  0.92540000  1.0 0.0605264778
H  H352  1  0.55380000  0.11370000  0.57460000  1.0 0.0605264778
H  H353  1  0.53610000  0.39910000  0.01100000  1.0 0.1009940763
H  H354  1  0.46390000  0.89910000  0.48900000  1.0 0.1009940763
H  H355  1  0.46390000  0.60090000  0.98900000  1.0 0.1009940763
H  H356  1  0.53610000  0.10090000  0.51100000  1.0 0.1009940763
H  H357  1  0.52830000  0.45930000  0.05240000  1.0 0.0788663582
H  H358  1  0.47170000  0.95930000  0.44760000  1.0 0.0788663582
H  H359  1  0.47170000  0.54070000  0.94760000  1.0 0.0788663582
H  H360  1  0.52830000  0.04070000  0.55240000  1.0 0.0788663582
H  H361  1  0.34070000  0.30530000  0.03660000  1.0 0.0692388595
H  H362  1  0.65930000  0.80530000  0.46340000  1.0 0.0788663582
H  H363  1  0.65930000  0.69470000  0.96340000  1.0 0.0692388595
H  H364  1  0.34070000  0.19470000  0.53660000  1.0 0.0788663582
H  H365  1  0.44250000  0.30070000  0.01960000  1.0 0.0692388595
H  H366  1  0.55750000  0.80070000  0.48040000  1.0 0.0692388595
H  H367  1  0.55750000  0.69930000  0.98040000  1.0 0.0692388595
H  H368  1  0.44250000  0.19930000  0.51960000  1.0 0.0692388595
H  H369  1  0.42510000  0.29960000  0.08200000  1.0 0.0692388595
H  H370  1  0.57490000  0.79960000  0.41800000  1.0 0.0692388595
H  H371  1  0.57490000  0.70040000  0.91800000  1.0 0.0692388595
H  H372  1  0.42510000  0.20040000  0.58200000  1.0 0.0692388595
H  H373  1  0.33380000  0.23260000  0.41600000  1.0 0.0788663582
H  H374  1  0.66620000  0.73260000  0.08400000  1.0 0.0788663582
H  H375  1  0.66620000  0.76740000  0.58400000  1.0 0.0788663582
H  H376  1  0.33380000  0.26740000  0.91600000  1.0 0.0788663582
H  H377  1  0.25320000  0.21660000  0.36990000  1.0 0.0692388595
H  H378  1  0.74680000  0.71660000  0.13010000  1.0 0.0692388595
H  H379  1  0.74680000  0.78340000  0.63010000  1.0 0.0692388595
H  H380  1  0.25320000  0.28340000  0.86990000  1.0 0.0692388595
H  H381  1  0.33560000  0.26410000  0.35710000  1.0 0.0605264778
H  H382  1  0.66440000  0.76410000  0.14290000  1.0 0.0605264778
H  H383  1  0.66440000  0.73590000  0.64290000  1.0 0.0605264778
H  H384  1  0.33560000  0.23590000  0.85710000  1.0 0.0605264778
H  H385  1  0.32150000  0.38340000  0.36830000  1.0 0.0605264778
H  H386  1  0.67850000  0.88340000  0.13170000  1.0 0.0605264778
H  H387  1  0.67850000  0.61660000  0.63170000  1.0 0.0605264778
H  H388  1  0.32150000  0.11660000  0.86830000  1.0 0.0605264778
H  H389  1  0.27430000  0.41230000  0.41860000  1.0 0.1087654155
H  H390  1  0.72570000  0.91230000  0.08140000  1.0 0.1087654155
H  H391  1  0.72570000  0.58770000  0.58140000  1.0 0.1087654155
H  H392  1  0.27430000  0.08770000  0.91860000  1.0 0.1087654155
H  H393  1  0.36070000  0.36390000  0.42840000  1.0 0.0605264778
H  H394  1  0.63930000  0.86390000  0.07160000  1.0 0.0605264778
H  H395  1  0.63930000  0.63610000  0.57160000  1.0 0.0605264778
H  H396  1  0.36070000  0.13610000  0.92840000  1.0 0.0605264778
H  H397  1  0.18370000  0.33180000  0.32370000  1.0 0.0692388595
H  H398  1  0.81630000  0.83180000  0.17630000  1.0 0.0692388595
H  H399  1  0.81630000  0.66820000  0.67630000  1.0 0.0692388595
H  H400  1  0.18370000  0.16820000  0.82370000  1.0 0.0692388595
H  H401  1  0.12120000  0.28440000  0.35630000  1.0 0.1087654155
H  H402  1  0.87880000  0.78440000  0.14370000  1.0 0.1087654155
H  H403  1  0.87880000  0.71560000  0.64370000  1.0 0.1087654155
H  H404  1  0.12120000  0.21560000  0.85630000  1.0 0.1087654155
H  H405  1  0.12430000  0.36260000  0.36810000  1.0 0.0605264778
H  H406  1  0.87570000  0.86260000  0.13190000  1.0 0.0605264778
H  H407  1  0.87570000  0.63740000  0.63190000  1.0 0.0605264778
H  H408  1  0.12430000  0.13740000  0.86810000  1.0 0.0605264778
C  C1  1  0.84160000  0.32600000  0.79830000  1.0 -0.0962199473
C  C2  1  0.15840000  0.82600000  0.70170000  1.0 -0.0962199473
C  C3  1  0.15840000  0.67400000  0.20170000  1.0 -0.0962199473
C  C4  1  0.84160000  0.17400000  0.29830000  1.0 -0.0962199473
C  C5  1  0.81320000  0.25210000  0.79010000  1.0 -0.0585725556
C  C6  1  0.18680000  0.75210000  0.70990000  1.0 -0.0585725556
C  C7  1  0.18680000  0.74790000  0.20990000  1.0 -0.0585725556
C  C8  1  0.81320000  0.24790000  0.29010000  1.0 -0.0585725556
C  C9  1  0.87380000  0.20380000  0.82680000  1.0 -0.1101091589
C  C10  1  0.12620000  0.70380000  0.67320000  1.0 -0.1101091589
C  C11  1  0.12620000  0.79620000  0.17320000  1.0 -0.1101091589
C  C12  1  0.87380000  0.29620000  0.32680000  1.0 -0.1101091589
C  C13  1  0.84350000  0.12980000  0.81960000  1.0 0.0905076082
C  C14  1  0.15650000  0.62980000  0.68040000  1.0 0.0905076082
C  C15  1  0.15650000  0.87020000  0.18040000  1.0 0.0905076082
C  C16  1  0.84350000  0.37020000  0.31960000  1.0 0.0905076082
C  C17  1  0.76690000  0.11300000  0.78060000  1.0 -0.1335425799
C  C18  1  0.23310000  0.61300000  0.71940000  1.0 -0.1335425799
C  C19  1  0.23310000  0.88700000  0.21940000  1.0 -0.1335425799
C  C20  1  0.76690000  0.38700000  0.28060000  1.0 -0.1335425799
C  C21  1  0.74470000  0.04700000  0.77150000  1.0 0.0078093031
C  C22  1  0.25530000  0.54700000  0.72850000  1.0 0.0078093031
C  C23  1  0.25530000  0.95300000  0.22850000  1.0 0.0078093031
C  C24  1  0.74470000  0.45300000  0.27150000  1.0 0.0078093031
C  C25  1  0.86040000  0.00980000  0.83230000  1.0 0.0078093031
C  C26  1  0.13960000  0.50980000  0.66770000  1.0 0.0078093031
C  C27  1  0.13960000  0.99020000  0.16770000  1.0 0.0078093031
C  C28  1  0.86040000  0.49020000  0.33230000  1.0 0.0078093031
C  C29  1  0.88740000  0.07730000  0.84380000  1.0 -0.0894630707
C  C30  1  0.11260000  0.57730000  0.65620000  1.0 -0.0894630707
C  C31  1  0.11260000  0.92270000  0.15620000  1.0 -0.0894630707
C  C32  1  0.88740000  0.42270000  0.34380000  1.0 -0.0894630707
C  C33  1  0.23120000  0.77980000  0.91950000  1.0 -0.0894630707
C  C34  1  0.76880000  0.27980000  0.58050000  1.0 -0.0894630707
C  C35  1  0.76880000  0.22020000  0.08050000  1.0 -0.0894630707
C  C36  1  0.23120000  0.72020000  0.41950000  1.0 -0.0894630707
C  C37  1  0.29820000  0.76500000  0.97140000  1.0 -0.0500744434
C  C38  1  0.70180000  0.26500000  0.52860000  1.0 -0.0500744434
C  C39  1  0.70180000  0.23500000  0.02860000  1.0 -0.0500744434
C  C40  1  0.29820000  0.73500000  0.47140000  1.0 -0.0500744434
C  C41  1  0.24110000  0.74900000  0.01930000  1.0 -0.1101091589
C  C42  1  0.75890000  0.24900000  0.48070000  1.0 -0.1101091589
C  C43  1  0.75890000  0.25100000  0.98070000  1.0 -0.1101091589
C  C44  1  0.24110000  0.75100000  0.51930000  1.0 -0.1101091589
C  C45  1  0.65380000  0.85010000  0.42120000  1.0 -0.1739664811
C  C46  1  0.34620000  0.35010000  0.07880000  1.0 -0.1739664811
C  C47  1  0.34620000  0.14990000  0.57880000  1.0 -0.1739664811
C  C48  1  0.65380000  0.64990000  0.92120000  1.0 -0.1739664811
C  C49  1  0.55420000  0.95220000  0.41010000  1.0 -0.1987670603
C  C50  1  0.44580000  0.45220000  0.08990000  1.0 -0.1987670603
C  C51  1  0.44580000  0.04780000  0.58990000  1.0 -0.1987670603
C  C52  1  0.55420000  0.54780000  0.91010000  1.0 -0.1987670603
C  C53  1  0.50580000  0.85470000  0.46500000  1.0 -0.211525213
C  C54  1  0.49420000  0.35470000  0.03500000  1.0 -0.211525213
C  C55  1  0.49420000  0.14530000  0.53500000  1.0 -0.211525213
C  C56  1  0.50580000  0.64530000  0.96500000  1.0 -0.211525213
C  C57  1  0.81200000  0.77370000  0.14350000  1.0 -0.1987670603
C  C58  1  0.18800000  0.27370000  0.35650000  1.0 -0.1987670603
C  C59  1  0.18800000  0.22630000  0.85650000  1.0 -0.1987670603
C  C60  1  0.81200000  0.72630000  0.64350000  1.0 -0.1987670603
C  C61  1  0.65530000  0.79820000  0.09620000  1.0 -0.1888007546
C  C62  1  0.34470000  0.29820000  0.40380000  1.0 -0.1888007546
C  C63  1  0.34470000  0.20180000  0.90380000  1.0 -0.1888007546
C  C64  1  0.65530000  0.70180000  0.59620000  1.0 -0.1888007546
C  C65  1  0.77280000  0.88990000  0.10980000  1.0 -0.1987670603
C  C66  1  0.22720000  0.38990000  0.39020000  1.0 -0.1987670603
C  C67  1  0.22720000  0.11010000  0.89020000  1.0 -0.1987670603
C  C68  1  0.77280000  0.61010000  0.60980000  1.0 -0.1987670603
C  C69  1  0.65060000  0.75140000  0.75330000  1.0 0.5323934791
C  C70  1  0.34940000  0.25140000  0.74670000  1.0 0.5323934791
C  C71  1  0.34940000  0.24860000  0.24670000  1.0 0.5323934791
C  C72  1  0.65060000  0.74860000  0.25330000  1.0 0.5323934791
C  C73  1  0.67260000  0.67760000  0.76290000  1.0 -0.0211311101
C  C74  1  0.32740000  0.17760000  0.73710000  1.0 -0.0211311101
C  C75  1  0.32740000  0.32240000  0.23710000  1.0 -0.0211311101
C  C76  1  0.67260000  0.82240000  0.26290000  1.0 -0.0211311101
C  C77  1  0.76390000  0.65810000  0.77860000  1.0 -0.1888007546
C  C78  1  0.23610000  0.15810000  0.72140000  1.0 -0.1888007546
C  C79  1  0.23610000  0.34190000  0.22140000  1.0 -0.1888007546
C  C80  1  0.76390000  0.84190000  0.27860000  1.0 -0.1888007546
C  C81  1  0.78820000  0.59020000  0.78610000  1.0 0.0335316661
C  C82  1  0.21180000  0.09020000  0.71390000  1.0 0.0335316661
C  C83  1  0.21180000  0.40980000  0.21390000  1.0 0.0335316661
C  C84  1  0.78820000  0.90980000  0.28610000  1.0 0.0335316661
C  C85  1  0.71750000  0.54270000  0.77940000  1.0 -0.1813883043
C  C86  1  0.28250000  0.04270000  0.72060000  1.0 -0.1813883043
C  C87  1  0.28250000  0.45730000  0.22060000  1.0 -0.1813883043
C  C88  1  0.71750000  0.95730000  0.27940000  1.0 -0.1813883043
C  C89  1  0.62560000  0.56070000  0.76390000  1.0 -0.0211311101
C  C90  1  0.37440000  0.06070000  0.73610000  1.0 -0.0211311101
C  C91  1  0.37440000  0.43930000  0.23610000  1.0 -0.0211311101
C  C92  1  0.62560000  0.93930000  0.26390000  1.0 -0.0211311101
C  C93  1  0.60260000  0.62860000  0.75480000  1.0 -0.1335425799
C  C94  1  0.39740000  0.12860000  0.74520000  1.0 -0.1335425799
C  C95  1  0.39740000  0.37140000  0.24520000  1.0 -0.1335425799
C  C96  1  0.60260000  0.87140000  0.25480000  1.0 -0.1335425799
C  C97  1  0.55130000  0.50750000  0.75560000  1.0 0.5401952801
C  C98  1  0.44870000  0.00750000  0.74440000  1.0 0.5401952801
C  C99  1  0.44870000  0.49250000  0.24440000  1.0 0.5401952801
C  C100  1  0.55130000  0.99250000  0.25560000  1.0 0.5401952801
C  C101  1  0.88860000  0.56620000  0.79970000  1.0 0.2969877657
C  C102  1  0.11140000  0.06620000  0.70030000  1.0 0.2969877657
C  C103  1  0.11140000  0.43380000  0.20030000  1.0 0.2969877657
C  C104  1  0.88860000  0.93380000  0.29970000  1.0 0.2969877657
C  C105  1  0.89750000  0.52880000  0.85480000  1.0 -0.4845216038
C  C106  1  0.10250000  0.02880000  0.64520000  1.0 -0.4851563337
C  C107  1  0.10250000  0.47120000  0.14520000  1.0 -0.4851563337
C  C108  1  0.89750000  0.97120000  0.35480000  1.0 -0.4845216038
C  C109  1  0.91490000  0.51920000  0.75420000  1.0 -0.5104994463
C  C110  1  0.08510000  0.01920000  0.74580000  1.0 -0.5104994463
C  C111  1  0.08510000  0.48080000  0.24580000  1.0 -0.5104994463
C  C112  1  0.91490000  0.98080000  0.25420000  1.0 -0.5104994463
C  C113  1  0.95800000  0.62760000  0.80310000  1.0 -0.5201552274
C  C114  1  0.04200000  0.12760000  0.69690000  1.0 -0.5201552274
C  C115  1  0.04200000  0.37240000  0.19690000  1.0 -0.5201552274
C  C116  1  0.95800000  0.87240000  0.30310000  1.0 -0.5201552274
C  C117  1  0.65170000  0.91830000  0.65900000  1.0 0.5520257589
C  C118  1  0.34830000  0.41830000  0.84100000  1.0 0.5520257589
C  C119  1  0.34830000  0.08170000  0.34100000  1.0 0.5520257589
C  C120  1  0.65170000  0.58170000  0.15900000  1.0 0.5520257589
C  C121  1  0.67230000  0.93910000  0.60170000  1.0 -0.0211311101
C  C122  1  0.32770000  0.43910000  0.89830000  1.0 -0.0211311101
C  C123  1  0.32770000  0.06090000  0.39830000  1.0 -0.0211311101
C  C124  1  0.67230000  0.56090000  0.10170000  1.0 -0.0211311101
C  C125  1  0.74340000  0.98530000  0.59470000  1.0 -0.083069381
C  C126  1  0.25660000  0.48530000  0.90530000  1.0 -0.083069381
C  C127  1  0.25660000  0.01470000  0.40530000  1.0 -0.083069381
C  C128  1  0.74340000  0.51470000  0.09470000  1.0 -0.083069381
C  C129  1  0.76440000  0.00190000  0.54200000  1.0 -0.0500744434
C  C130  1  0.23560000  0.50190000  0.95800000  1.0 -0.0500744434
C  C131  1  0.23560000  0.99810000  0.45800000  1.0 -0.0500744434
C  C132  1  0.76440000  0.49810000  0.04200000  1.0 -0.0500744434
C  C133  1  0.71440000  0.97230000  0.49640000  1.0 -0.2411596241
C  C134  1  0.28560000  0.47230000  0.00360000  1.0 -0.2411596241
C  C135  1  0.28560000  0.02770000  0.50360000  1.0 -0.2411596241
C  C136  1  0.71440000  0.52770000  0.99640000  1.0 -0.2411596241
C  C137  1  0.64210000  0.92710000  0.50200000  1.0 -0.0404640773
C  C138  1  0.35790000  0.42710000  0.99800000  1.0 -0.0404640773
C  C139  1  0.35790000  0.07290000  0.49800000  1.0 -0.0404640773
C  C140  1  0.64210000  0.57290000  0.00200000  1.0 -0.0404640773
C  C141  1  0.62210000  0.91190000  0.55550000  1.0 -0.2288402046
C  C142  1  0.37790000  0.41190000  0.94450000  1.0 -0.2288402046
C  C143  1  0.37790000  0.08810000  0.44450000  1.0 -0.2288402046
C  C144  1  0.62210000  0.58810000  0.05550000  1.0 -0.2288402046
C  C145  1  0.83860000  0.05230000  0.53540000  1.0 0.5241792586
C  C146  1  0.16140000  0.55230000  0.96460000  1.0 0.5241792586
C  C147  1  0.16140000  0.94770000  0.46460000  1.0 0.5241792586
C  C148  1  0.83860000  0.44770000  0.03540000  1.0 0.5241792586
C  C149  1  0.58790000  0.89570000  0.45150000  1.0 0.2032141288
C  C150  1  0.41210000  0.39570000  0.04850000  1.0 0.2032141288
C  C151  1  0.41210000  0.10430000  0.54850000  1.0 0.2032141288
C  C152  1  0.58790000  0.60430000  0.95150000  1.0 0.2032141288
C  C153  1  0.74040000  0.85170000  0.89210000  1.0 0.5520257589
C  C154  1  0.25960000  0.35170000  0.60790000  1.0 0.5520257589
C  C155  1  0.25960000  0.14830000  0.10790000  1.0 0.5520257589
C  C156  1  0.74040000  0.64830000  0.39210000  1.0 0.5520257589
C  C157  1  0.78630000  0.81730000  0.94320000  1.0 -0.0037661432
C  C158  1  0.21370000  0.31730000  0.55680000  1.0 -0.0037661432
C  C159  1  0.21370000  0.18270000  0.05680000  1.0 -0.0037661432
C  C160  1  0.78630000  0.68270000  0.44320000  1.0 -0.0037661432
C  C161  1  0.85910000  0.77230000  0.93910000  1.0 -0.1101091589
C  C162  1  0.14090000  0.27230000  0.56090000  1.0 -0.1101091589
C  C163  1  0.14090000  0.22770000  0.06090000  1.0 -0.1101091589
C  C164  1  0.85910000  0.72770000  0.43910000  1.0 -0.1101091589
C  C165  1  0.89800000  0.73950000  0.98580000  1.0 -0.0211311101
C  C166  1  0.10200000  0.23950000  0.51420000  1.0 -0.0211311101
C  C167  1  0.10200000  0.26050000  0.01420000  1.0 -0.0211311101
C  C168  1  0.89800000  0.76050000  0.48580000  1.0 -0.0211311101
C  C169  1  0.86520000  0.75250000  0.03610000  1.0 -0.256650679
C  C170  1  0.13480000  0.25250000  0.46390000  1.0 -0.256650679
C  C171  1  0.13480000  0.24750000  0.96390000  1.0 -0.256650679
C  C172  1  0.86520000  0.74750000  0.53610000  1.0 -0.256650679
C  C173  1  0.79380000  0.79780000  0.04140000  1.0 -0.0211311101
C  C174  1  0.20620000  0.29780000  0.45860000  1.0 -0.0211311101
C  C175  1  0.20620000  0.20220000  0.95860000  1.0 -0.0211311101
C  C176  1  0.79380000  0.70220000  0.54140000  1.0 -0.0211311101
C  C177  1  0.75450000  0.82860000  0.99360000  1.0 -0.211525213
C  C178  1  0.24550000  0.32860000  0.50640000  1.0 -0.211525213
C  C179  1  0.24550000  0.17140000  0.00640000  1.0 -0.211525213
C  C180  1  0.75450000  0.67140000  0.49360000  1.0 -0.211525213
C  C181  1  0.97310000  0.68880000  0.98140000  1.0 0.5045245824
C  C182  1  0.02690000  0.18880000  0.51860000  1.0 0.5045245824
C  C183  1  0.02690000  0.31120000  0.01860000  1.0 0.5045245824
C  C184  1  0.97310000  0.81120000  0.48140000  1.0 0.5045245824
C  C185  1  0.75860000  0.81320000  0.09730000  1.0 0.1942477127
C  C186  1  0.24140000  0.31320000  0.40270000  1.0 0.1942477127
C  C187  1  0.24140000  0.18680000  0.90270000  1.0 0.1942477127
C  C188  1  0.75860000  0.68680000  0.59730000  1.0 0.1942477127
C  C189  1  0.09360000  0.37660000  0.80160000  1.0 0.0078093031
C  C190  1  0.90640000  0.87660000  0.69840000  1.0 0.0078093031
C  C191  1  0.90640000  0.62340000  0.19840000  1.0 0.0078093031
C  C192  1  0.09360000  0.12340000  0.30160000  1.0 0.0078093031
C  C193  1  0.00960000  0.35980000  0.81970000  1.0 -0.2657645109
C  C194  1  0.99040000  0.85980000  0.68030000  1.0 -0.2657645109
C  C195  1  0.99040000  0.64020000  0.18030000  1.0 -0.2657645109
C  C196  1  0.00960000  0.14020000  0.31970000  1.0 -0.2657645109
C  C197  1  0.94110000  0.33720000  0.78530000  1.0 0.1196772045
C  C198  1  0.05890000  0.83720000  0.71470000  1.0 0.1196772045
C  C199  1  0.05890000  0.66280000  0.21470000  1.0 0.1196772045
C  C200  1  0.94110000  0.16280000  0.28530000  1.0 0.1196772045
C  C201  1  0.95960000  0.32890000  0.73070000  1.0 -0.2817027035
C  C202  1  0.04040000  0.82890000  0.76930000  1.0 -0.2874536577
C  C203  1  0.04040000  0.67110000  0.26930000  1.0 -0.2874536577
C  C204  1  0.95960000  0.17110000  0.23070000  1.0 -0.2817027035
C  C205  1  0.04700000  0.34420000  0.71540000  1.0 0.0507703734
C  C206  1  0.95300000  0.84420000  0.78460000  1.0 0.0507703734
C  C207  1  0.95300000  0.65580000  0.28460000  1.0 0.0507703734
C  C208  1  0.04700000  0.15580000  0.21540000  1.0 0.0507703734
C  C209  1  0.39900000  0.76480000  0.80680000  1.0 -0.007685689
C  C210  1  0.60100000  0.26480000  0.69320000  1.0 -0.007685689
C  C211  1  0.60100000  0.23520000  0.19320000  1.0 -0.007685689
C  C212  1  0.39900000  0.73520000  0.30680000  1.0 -0.007685689
C  C213  1  0.33870000  0.74490000  0.84450000  1.0 -0.3186935427
C  C214  1  0.66130000  0.24490000  0.65550000  1.0 -0.3140537801
C  C215  1  0.66130000  0.25510000  0.15550000  1.0 -0.3140537801
C  C216  1  0.33870000  0.75510000  0.34450000  1.0 -0.3140537801
C  C217  1  0.29070000  0.78910000  0.87250000  1.0 0.1087654155
C  C218  1  0.70930000  0.28910000  0.62750000  1.0 0.1087654155
C  C219  1  0.70930000  0.21090000  0.12750000  1.0 0.1087654155
C  C220  1  0.29070000  0.71090000  0.37250000  1.0 0.1087654155
C  C221  1  0.30570000  0.85250000  0.85940000  1.0 -0.256650679
C  C222  1  0.69430000  0.35250000  0.64060000  1.0 -0.256650679
C  C223  1  0.69430000  0.14750000  0.14060000  1.0 -0.256650679
C  C224  1  0.30570000  0.64750000  0.35940000  1.0 -0.256650679
C  C225  1  0.36740000  0.87170000  0.82130000  1.0 0.0788663582
C  C226  1  0.63260000  0.37170000  0.67870000  1.0 0.0788663582
C  C227  1  0.63260000  0.12830000  0.17870000  1.0 0.0788663582
C  C228  1  0.36740000  0.62830000  0.32130000  1.0 0.0788663582
C  C229  1  0.31480000  0.72710000  0.06570000  1.0 0.0788663582
C  C230  1  0.68520000  0.22710000  0.43430000  1.0 0.0788663582
C  C231  1  0.68520000  0.27290000  0.93430000  1.0 0.0788663582
C  C232  1  0.31480000  0.77290000  0.56570000  1.0 0.0788663582
C  C233  1  0.37430000  0.77180000  0.09800000  1.0 -0.2817027035
C  C234  1  0.62570000  0.27180000  0.40200000  1.0 -0.2817027035
C  C235  1  0.62570000  0.22820000  0.90200000  1.0 -0.2817027035
C  C236  1  0.37430000  0.72820000  0.59800000  1.0 -0.2817027035
C  C237  1  0.42070000  0.74720000  0.14540000  1.0 -0.0211311101
C  C238  1  0.57930000  0.24720000  0.35460000  1.0 -0.0211311101
C  C239  1  0.57930000  0.25280000  0.85460000  1.0 -0.0211311101
C  C240  1  0.42070000  0.75280000  0.64540000  1.0 -0.0211311101
C  C241  1  0.36020000  0.64230000  0.12930000  1.0 -0.0500744434
C  C242  1  0.63980000  0.14230000  0.37070000  1.0 -0.0500744434
C  C243  1  0.63980000  0.35770000  0.87070000  1.0 -0.0500744434
C  C244  1  0.36020000  0.85770000  0.62930000  1.0 -0.0500744434
C  C245  1  0.31340000  0.66250000  0.08140000  1.0 -0.3186935427
C  C246  1  0.68660000  0.16250000  0.41860000  1.0 -0.3186935427
C  C247  1  0.68660000  0.33750000  0.91860000  1.0 -0.3186935427
C  C248  1  0.31340000  0.83750000  0.58140000  1.0 -0.3186935427
C  C249  1  0.85990000  0.32830000  0.82060000  1.0 -0.1101091589
C  C250  1  0.14010000  0.82830000  0.67940000  1.0 -0.1101091589
C  C251  1  0.14010000  0.67170000  0.17940000  1.0 -0.1101091589
C  C252  1  0.85990000  0.17170000  0.32060000  1.0 -0.1101091589
C  C253  1  0.82120000  0.25630000  0.81520000  1.0 -0.0404640773
C  C254  1  0.17880000  0.75630000  0.68480000  1.0 -0.0404640773
C  C255  1  0.17880000  0.74370000  0.18480000  1.0 -0.0404640773
C  C256  1  0.82120000  0.24370000  0.31520000  1.0 -0.0404640773
C  C257  1  0.86800000  0.19760000  0.84920000  1.0 -0.1228458944
C  C258  1  0.13200000  0.69760000  0.65080000  1.0 -0.1228458944
C  C259  1  0.13200000  0.80240000  0.15080000  1.0 -0.1228458944
C  C260  1  0.86800000  0.30240000  0.34920000  1.0 -0.1228458944
C  C261  1  0.79660000  0.08990000  0.85770000  1.0 -0.1335425799
C  C262  1  0.20340000  0.58990000  0.64230000  1.0 -0.1335425799
C  C263  1  0.20340000  0.91010000  0.14230000  1.0 -0.1335425799
C  C264  1  0.79660000  0.41010000  0.35770000  1.0 -0.1335425799
C  C265  1  0.77250000  0.02540000  0.84450000  1.0 0.0021120434
C  C266  1  0.22750000  0.52540000  0.65550000  1.0 0.0021120434
C  C267  1  0.22750000  0.97460000  0.15550000  1.0 0.0021120434
C  C268  1  0.77250000  0.47460000  0.34450000  1.0 0.0021120434
C  C269  1  0.83160000  0.03090000  0.76290000  1.0 0.0164351811
C  C270  1  0.16840000  0.53090000  0.73710000  1.0 0.0164351811
C  C271  1  0.16840000  0.96910000  0.23710000  1.0 0.0164351811
C  C272  1  0.83160000  0.46910000  0.26290000  1.0 0.0164351811
C  C273  1  0.85890000  0.09860000  0.77420000  1.0 -0.0894630707
C  C274  1  0.14110000  0.59860000  0.72580000  1.0 -0.0894630707
C  C275  1  0.14110000  0.90140000  0.22580000  1.0 -0.0894630707
C  C276  1  0.85890000  0.40140000  0.27420000  1.0 -0.0894630707
C  C277  1  0.77570000  0.24870000  0.59420000  1.0 -0.1101091589
C  C278  1  0.22430000  0.74870000  0.90580000  1.0 -0.1101091589
C  C279  1  0.22430000  0.75130000  0.40580000  1.0 -0.1101091589
C  C280  1  0.77570000  0.25130000  0.09420000  1.0 -0.1101091589
C  C281  1  0.72790000  0.23020000  0.53720000  1.0 -0.0500744434
C  C282  1  0.27210000  0.73020000  0.96280000  1.0 -0.0500744434
C  C283  1  0.27210000  0.76980000  0.46280000  1.0 -0.0500744434
C  C284  1  0.72790000  0.26980000  0.03720000  1.0 -0.0500744434
C  C285  1  0.68310000  0.26870000  0.48870000  1.0 -0.0962199473
C  C286  1  0.31690000  0.76870000  0.01130000  1.0 -0.0962199473
C  C287  1  0.31690000  0.73130000  0.51130000  1.0 -0.0962199473
C  C288  1  0.68310000  0.23130000  0.98870000  1.0 -0.0962199473
C  C289  1  0.38360000  0.42180000  0.10170000  1.0 -0.1813883043
C  C290  1  0.61640000  0.92180000  0.39830000  1.0 -0.1813883043
C  C291  1  0.61640000  0.57820000  0.89830000  1.0 -0.1813883043
C  C292  1  0.38360000  0.07820000  0.60170000  1.0 -0.1813883043
C  C293  1  0.51770000  0.41160000  0.04640000  1.0 -0.1987670603
C  C294  1  0.48230000  0.91160000  0.45360000  1.0 -0.1987670603
C  C295  1  0.48230000  0.58840000  0.95360000  1.0 -0.1987670603
C  C296  1  0.51770000  0.08840000  0.54640000  1.0 -0.1987670603
C  C297  1  0.40440000  0.31810000  0.04650000  1.0 -0.1987670603
C  C298  1  0.59560000  0.81810000  0.45350000  1.0 -0.1987670603
C  C299  1  0.59560000  0.68190000  0.95350000  1.0 -0.1987670603
C  C300  1  0.40440000  0.18190000  0.54650000  1.0 -0.1987670603
C  C301  1  0.29620000  0.25070000  0.38470000  1.0 -0.1888007546
C  C302  1  0.70380000  0.75070000  0.11530000  1.0 -0.1888007546
C  C303  1  0.70380000  0.74930000  0.61530000  1.0 -0.1888007546
C  C304  1  0.29620000  0.24930000  0.88470000  1.0 -0.1888007546
C  C305  1  0.30520000  0.37370000  0.40470000  1.0 -0.1888007546
C  C306  1  0.69480000  0.87370000  0.09530000  1.0 -0.1888007546
C  C307  1  0.69480000  0.62630000  0.59530000  1.0 -0.1888007546
C  C308  1  0.30520000  0.12630000  0.90470000  1.0 -0.1888007546
C  C309  1  0.16010000  0.32400000  0.35860000  1.0 -0.211525213
C  C310  1  0.83990000  0.82400000  0.14140000  1.0 -0.211525213
C  C311  1  0.83990000  0.67600000  0.64140000  1.0 -0.211525213
C  C312  1  0.16010000  0.17600000  0.85860000  1.0 -0.211525213
N  N1  1  0.78920000  0.99460000  0.79720000  1.0 -0.007685689
N  N2  1  0.21080000  0.49460000  0.70280000  1.0 -0.007685689
N  N3  1  0.21080000  0.00540000  0.20280000  1.0 -0.007685689
N  N4  1  0.78920000  0.50540000  0.29720000  1.0 -0.007685689
N  N5  1  0.11390000  0.36970000  0.75000000  1.0 -0.256650679
N  N6  1  0.88610000  0.86970000  0.75000000  1.0 -0.256650679
N  N7  1  0.88610000  0.63030000  0.25000000  1.0 -0.256650679
N  N8  1  0.11390000  0.13030000  0.25000000  1.0 -0.2502969473
N  N9  1  0.41370000  0.82860000  0.79430000  1.0 -0.2502969473
N  N10  1  0.58630000  0.32860000  0.70570000  1.0 -0.2502969473
N  N11  1  0.58630000  0.17140000  0.20570000  1.0 -0.2411596241
N  N12  1  0.41370000  0.67140000  0.29430000  1.0 -0.2502969473
N  N13  1  0.41320000  0.68340000  0.16240000  1.0 -0.2502969473
N  N14  1  0.58680000  0.18340000  0.33760000  1.0 -0.2502969473
N  N15  1  0.58680000  0.31660000  0.83760000  1.0 -0.2502969473
N  N16  1  0.41320000  0.81660000  0.66240000  1.0 -0.2502969473
O  O1  1  0.56590000  0.76721000  0.74219000  1.0 -0.5304111379
O  O2  1  0.43410000  0.26721000  0.75781000  1.0 -0.5304111379
O  O3  1  0.43410000  0.23279000  0.25781000  1.0 -0.5304111379
O  O4  1  0.56590000  0.73279000  0.24219000  1.0 -0.5304111379
O  O5  1  0.71790000  0.79180000  0.75625000  1.0 -0.5104994463
O  O6  1  0.28210000  0.29180000  0.74375000  1.0 -0.5104994463
O  O7  1  0.28210000  0.20820000  0.24375000  1.0 -0.5104994463
O  O8  1  0.71790000  0.70820000  0.25625000  1.0 -0.5104994463
O  O9  1  0.47610000  0.52260000  0.72870000  1.0 -0.5304111379
O  O10  1  0.52390000  0.02260000  0.77130000  1.0 -0.5304111379
O  O11  1  0.52390000  0.47740000  0.27130000  1.0 -0.5304111379
O  O12  1  0.47610000  0.97740000  0.22870000  1.0 -0.5304111379
O  O13  1  0.57030000  0.44973000  0.77555000  1.0 -0.5601669165
O  O14  1  0.42970000  0.94973000  0.72445000  1.0 -0.5601669165
O  O15  1  0.42970000  0.55027000  0.22445000  1.0 -0.5601669165
O  O16  1  0.57030000  0.05027000  0.27555000  1.0 -0.5601669165
O  O17  1  0.87330000  0.08340000  0.57789000  1.0 -0.5104994463
O  O18  1  0.12670000  0.58340000  0.92211000  1.0 -0.5104994463
O  O19  1  0.12670000  0.91660000  0.42211000  1.0 -0.5104994463
O  O20  1  0.87330000  0.41660000  0.07789000  1.0 -0.5104994463
O  O21  1  0.86410000  0.06370000  0.48840000  1.0 -0.4498122397
O  O22  1  0.13590000  0.56370000  0.01160000  1.0 -0.4498122397
O  O23  1  0.13590000  0.93630000  0.51160000  1.0 -0.4498122397
O  O24  1  0.86410000  0.43630000  0.98840000  1.0 -0.4498122397
O  O25  1  0.71450000  0.93090000  0.69678000  1.0 -0.5601669165
O  O26  1  0.28550000  0.43090000  0.80322000  1.0 -0.5601669165
O  O27  1  0.28550000  0.06910000  0.30322000  1.0 -0.5601669165
O  O28  1  0.71450000  0.56910000  0.19678000  1.0 -0.5601669165
O  O29  1  0.57580000  0.88970000  0.66378000  1.0 -0.5104994463
O  O30  1  0.42420000  0.38970000  0.83622000  1.0 -0.5104994463
O  O31  1  0.42420000  0.11030000  0.33622000  1.0 -0.5104994463
O  O32  1  0.57580000  0.61030000  0.16378000  1.0 -0.5104994463
O  O33  1  0.78910000  0.85990000  0.85286000  1.0 -0.5801288548
O  O34  1  0.21090000  0.35990000  0.64714000  1.0 -0.5801288548
O  O35  1  0.21090000  0.14010000  0.14714000  1.0 -0.5801288548
O  O36  1  0.78910000  0.64010000  0.35286000  1.0 -0.5801288548
O  O37  1  0.65780000  0.87020000  0.89248000  1.0 -0.5448871615
O  O38  1  0.34220000  0.37020000  0.60752000  1.0 -0.5448871615
O  O39  1  0.34220000  0.12980000  0.10752000  1.0 -0.5448871615
O  O40  1  0.65780000  0.62980000  0.39248000  1.0 -0.5448871615
O  O41  1  0.00360000  0.65610000  0.02512000  1.0 -0.5005307111
O  O42  1  0.99640000  0.15610000  0.47488000  1.0 -0.5005307111
O  O43  1  0.99640000  0.34390000  0.97488000  1.0 -0.5005307111
O  O44  1  0.00360000  0.84390000  0.52512000  1.0 -0.5005307111
O  O45  1  0.00570000  0.68040000  0.93626000  1.0 -0.5005307111
O  O46  1  0.99430000  0.18040000  0.56374000  1.0 -0.5005307111
O  O47  1  0.99430000  0.31960000  0.06374000  1.0 -0.5005307111
O  O48  1  0.00570000  0.81960000  0.43626000  1.0 -0.5005307111
O  O49  1  0.60520000  0.90651000  0.79126000  1.0 -0.7222085658
O  O50  1  0.39480000  0.40651000  0.70874000  1.0 -0.7222085658
O  O51  1  0.39480000  0.09349000  0.20874000  1.0 -0.7222085658
O  O52  1  0.60520000  0.59349000  0.29126000  1.0 -0.7222085658
