# DDEC6 charges by PACMAN v1.1 (https://github.com/mtap-research/PACMAN-charge/)
data_MOYNIY_ASR_pacman
_symmetry_space_group_name_H-M   'P 1'
_cell_length_a   14.87120000
_cell_length_b   14.87120000
_cell_length_c   14.06810000
_cell_angle_alpha   63.30900000
_cell_angle_beta   116.69100000
_cell_angle_gamma   87.41360000
_symmetry_Int_Tables_number   1
_chemical_formula_structural   CdH20C21O4
_chemical_formula_sum   'Cd4 H80 C84 O16'
_cell_volume   2361.70654190
_cell_formula_units_Z   4
loop_
 _symmetry_equiv_pos_site_id
 _symmetry_equiv_pos_as_xyz
  1  'x, y, z'
loop_
 _atom_site_type_symbol
 _atom_site_label
 _atom_site_symmetry_multiplicity
 _atom_site_fract_x
 _atom_site_fract_y
 _atom_site_fract_z
 _atom_site_occupancy
 _atom_site_charge
Cd  Cd1  1  0.95869000  0.95869000  0.75000000  1.0 0.935620604
Cd  Cd2  1  0.04131000  0.04131000  0.25000000  1.0 0.935620604
Cd  Cd3  1  0.00000000  0.00000000  0.00000000  1.0 1.0621049385
Cd  Cd4  1  0.00000000  0.00000000  0.50000000  1.0 1.0621049385
H  H1  1  0.23750000  0.98750000  0.09240000  1.0 0.1211361525
H  H2  1  0.98750000  0.23750000  0.40760000  1.0 0.1211361525
H  H3  1  0.76250000  0.01250000  0.90760000  1.0 0.1211361525
H  H4  1  0.01250000  0.76250000  0.59240000  1.0 0.1211361525
H  H5  1  0.34620000  0.87600000  0.93750000  1.0 0.1211361525
H  H6  1  0.87600000  0.34620000  0.56250000  1.0 0.1211361525
H  H7  1  0.65380000  0.12400000  0.06250000  1.0 0.1211361525
H  H8  1  0.12400000  0.65380000  0.43750000  1.0 0.1211361525
H  H9  1  0.51780000  0.86680000  0.06770000  1.0 0.1211361525
H  H10  1  0.86680000  0.51780000  0.43230000  1.0 0.1211361525
H  H11  1  0.48220000  0.13320000  0.93230000  1.0 0.1211361525
H  H12  1  0.13320000  0.48220000  0.56770000  1.0 0.1211361525
H  H13  1  0.69980000  0.86400000  0.24610000  1.0 0.1258163358
H  H14  1  0.86400000  0.69980000  0.25390000  1.0 0.1258163358
H  H15  1  0.30020000  0.13600000  0.75390000  1.0 0.1258163358
H  H16  1  0.13600000  0.30020000  0.74610000  1.0 0.1258163358
H  H17  1  0.83110000  0.87530000  0.40610000  1.0 0.1211361525
H  H18  1  0.87530000  0.83110000  0.09390000  1.0 0.1211361525
H  H19  1  0.16890000  0.12470000  0.59390000  1.0 0.1211361525
H  H20  1  0.12470000  0.16890000  0.90610000  1.0 0.1211361525
H  H21  1  0.61540000  0.97820000  0.46360000  1.0 0.136993585
H  H22  1  0.97820000  0.61540000  0.03640000  1.0 0.136993585
H  H23  1  0.38460000  0.02180000  0.53640000  1.0 0.136993585
H  H24  1  0.02180000  0.38460000  0.96360000  1.0 0.136993585
H  H25  1  0.41550000  0.12310000  0.26810000  1.0 0.1110783244
H  H26  1  0.12310000  0.41550000  0.23190000  1.0 0.1110783244
H  H27  1  0.58450000  0.87690000  0.73190000  1.0 0.1110783244
H  H28  1  0.87690000  0.58450000  0.76810000  1.0 0.1110783244
H  H29  1  0.31020000  0.12360000  0.16790000  1.0 0.1110783244
H  H30  1  0.12360000  0.31020000  0.33210000  1.0 0.1110783244
H  H31  1  0.68980000  0.87640000  0.83210000  1.0 0.1110783244
H  H32  1  0.87640000  0.68980000  0.66790000  1.0 0.1110783244
H  H33  1  0.48000000  0.15340000  0.13970000  1.0 0.0871251746
H  H34  1  0.15340000  0.48000000  0.36030000  1.0 0.0871251746
H  H35  1  0.52000000  0.84660000  0.86030000  1.0 0.0871251746
H  H36  1  0.84660000  0.52000000  0.63970000  1.0 0.0871251746
H  H37  1  0.36940000  0.16240000  0.03790000  1.0 0.0871251746
H  H38  1  0.16240000  0.36940000  0.46210000  1.0 0.0871251746
H  H39  1  0.63060000  0.83760000  0.96210000  1.0 0.0871251746
H  H40  1  0.83760000  0.63060000  0.53790000  1.0 0.0871251746
H  H41  1  0.37900000  0.33260000  0.99820000  1.0 0.1211361525
H  H42  1  0.33260000  0.37900000  0.50180000  1.0 0.1211361525
H  H43  1  0.62100000  0.66740000  0.00180000  1.0 0.1211361525
H  H44  1  0.66740000  0.62100000  0.49820000  1.0 0.1211361525
H  H45  1  0.28900000  0.31020000  0.02630000  1.0 0.1110783244
H  H46  1  0.31020000  0.28900000  0.47370000  1.0 0.1110783244
H  H47  1  0.71100000  0.68980000  0.97370000  1.0 0.1110783244
H  H48  1  0.68980000  0.71100000  0.52630000  1.0 0.1110783244
H  H49  1  0.39850000  0.30050000  0.13000000  1.0 0.1211361525
H  H50  1  0.30050000  0.39850000  0.37000000  1.0 0.1211361525
H  H51  1  0.60150000  0.69950000  0.87000000  1.0 0.1211361525
H  H52  1  0.69950000  0.60150000  0.63000000  1.0 0.1211361525
H  H53  1  0.32640000  0.94600000  0.32110000  1.0 0.1258163358
H  H54  1  0.94600000  0.32640000  0.17890000  1.0 0.1258163358
H  H55  1  0.67360000  0.05400000  0.67890000  1.0 0.1258163358
H  H56  1  0.05400000  0.67360000  0.82110000  1.0 0.1258163358
H  H57  1  0.42870000  0.94850000  0.42250000  1.0 0.1110783244
H  H58  1  0.94850000  0.42870000  0.07750000  1.0 0.1110783244
H  H59  1  0.57130000  0.05150000  0.57750000  1.0 0.1110783244
H  H60  1  0.05150000  0.57130000  0.92250000  1.0 0.1110783244
H  H61  1  0.41580000  0.78840000  0.37340000  1.0 0.0871251746
H  H62  1  0.78840000  0.41580000  0.12660000  1.0 0.0871251746
H  H63  1  0.58420000  0.21160000  0.62660000  1.0 0.0871251746
H  H64  1  0.21160000  0.58420000  0.87340000  1.0 0.0871251746
H  H65  1  0.51930000  0.79090000  0.47370000  1.0 0.0871251746
H  H66  1  0.79090000  0.51930000  0.02630000  1.0 0.0871251746
H  H67  1  0.48070000  0.20910000  0.52630000  1.0 0.0871251746
H  H68  1  0.20910000  0.48070000  0.97370000  1.0 0.0871251746
H  H69  1  0.43710000  0.68350000  0.57470000  1.0 0.1211361525
H  H70  1  0.68350000  0.43710000  0.92530000  1.0 0.1211361525
H  H71  1  0.56290000  0.31650000  0.42530000  1.0 0.1211361525
H  H72  1  0.31650000  0.56290000  0.07470000  1.0 0.1211361525
H  H73  1  0.43790000  0.78130000  0.59060000  1.0 0.1110783244
H  H74  1  0.78130000  0.43790000  0.90940000  1.0 0.1110783244
H  H75  1  0.56210000  0.21870000  0.40940000  1.0 0.1110783244
H  H76  1  0.21870000  0.56210000  0.09060000  1.0 0.1110783244
H  H77  1  0.33380000  0.78000000  0.49000000  1.0 0.136993585
H  H78  1  0.78000000  0.33380000  0.01000000  1.0 0.136993585
H  H79  1  0.66620000  0.22000000  0.51000000  1.0 0.136993585
H  H80  1  0.22000000  0.66620000  0.99000000  1.0 0.136993585
C  C1  1  0.29330000  0.96250000  0.08820000  1.0 -0.1631594618
C  C2  1  0.96250000  0.29330000  0.41180000  1.0 -0.1631594618
C  C3  1  0.70670000  0.03750000  0.91180000  1.0 -0.1631594618
C  C4  1  0.03750000  0.70670000  0.58820000  1.0 -0.1631594618
C  C5  1  0.27540000  0.93300000  0.00130000  1.0 -0.0240322576
C  C6  1  0.93300000  0.27540000  0.49870000  1.0 -0.0240322576
C  C7  1  0.72460000  0.06700000  0.99870000  1.0 -0.0240322576
C  C8  1  0.06700000  0.72460000  0.50130000  1.0 -0.0240322576
C  C9  1  0.35920000  0.89620000  0.99500000  1.0 -0.1160593276
C  C10  1  0.89620000  0.35920000  0.50500000  1.0 -0.1160593276
C  C11  1  0.64080000  0.10380000  0.00500000  1.0 -0.1160593276
C  C12  1  0.10380000  0.64080000  0.49500000  1.0 -0.1160593276
C  C13  1  0.46230000  0.88930000  0.07370000  1.0 -0.1401332115
C  C14  1  0.88930000  0.46230000  0.42630000  1.0 -0.1401332115
C  C15  1  0.53770000  0.11070000  0.92630000  1.0 -0.1401332115
C  C16  1  0.11070000  0.53770000  0.57370000  1.0 -0.1401332115
C  C17  1  0.68310000  0.88710000  0.28930000  1.0 -0.1401332115
C  C18  1  0.88710000  0.68310000  0.21070000  1.0 -0.1401332115
C  C19  1  0.31690000  0.11290000  0.71070000  1.0 -0.1401332115
C  C20  1  0.11290000  0.31690000  0.78930000  1.0 -0.1401332115
C  C21  1  0.76140000  0.89320000  0.38550000  1.0 -0.127510788
C  C22  1  0.89320000  0.76140000  0.11450000  1.0 -0.127510788
C  C23  1  0.23860000  0.10680000  0.61450000  1.0 -0.127510788
C  C24  1  0.10680000  0.23860000  0.88550000  1.0 -0.127510788
C  C25  1  0.73730000  0.92610000  0.45270000  1.0 -0.0240322576
C  C26  1  0.92610000  0.73730000  0.04730000  1.0 -0.0240322576
C  C27  1  0.26270000  0.07390000  0.54730000  1.0 -0.0240322576
C  C28  1  0.07390000  0.26270000  0.95270000  1.0 -0.0240322576
C  C29  1  0.63220000  0.95560000  0.42010000  1.0 -0.1548749824
C  C30  1  0.95560000  0.63220000  0.07990000  1.0 -0.1548749824
C  C31  1  0.36780000  0.04440000  0.57990000  1.0 -0.1548749824
C  C32  1  0.04440000  0.36780000  0.92010000  1.0 -0.1548749824
C  C33  1  0.43320000  0.98200000  0.26730000  1.0 0.1024456302
C  C34  1  0.98200000  0.43320000  0.23270000  1.0 0.1024456302
C  C35  1  0.56680000  0.01800000  0.73270000  1.0 0.1024456302
C  C36  1  0.01800000  0.56680000  0.76730000  1.0 0.1024456302
C  C37  1  0.39670000  0.95370000  0.16850000  1.0 0.0112158124
C  C38  1  0.95370000  0.39670000  0.33150000  1.0 0.0112158124
C  C39  1  0.60330000  0.04630000  0.83150000  1.0 0.0112158124
C  C40  1  0.04630000  0.60330000  0.66850000  1.0 0.0112158124
C  C41  1  0.48030000  0.91710000  0.16210000  1.0 0.0157938077
C  C42  1  0.91710000  0.48030000  0.33790000  1.0 0.0157938077
C  C43  1  0.51970000  0.08290000  0.83790000  1.0 0.0157938077
C  C44  1  0.08290000  0.51970000  0.66210000  1.0 0.0157938077
C  C45  1  0.57840000  0.91580000  0.25750000  1.0 0.0157938077
C  C46  1  0.91580000  0.57840000  0.24250000  1.0 0.0157938077
C  C47  1  0.42160000  0.08420000  0.74250000  1.0 0.0157938077
C  C48  1  0.08420000  0.42160000  0.75750000  1.0 0.0157938077
C  C49  1  0.55320000  0.95080000  0.32230000  1.0 0.0112158124
C  C50  1  0.95080000  0.55320000  0.17770000  1.0 0.0112158124
C  C51  1  0.44680000  0.04920000  0.67770000  1.0 0.0112158124
C  C52  1  0.04920000  0.44680000  0.82230000  1.0 0.0112158124
C  C53  1  0.16490000  0.93990000  0.91520000  1.0 0.5684677343
C  C54  1  0.93990000  0.16490000  0.58480000  1.0 0.5684677343
C  C55  1  0.83510000  0.06010000  0.08480000  1.0 0.5684677343
C  C56  1  0.06010000  0.83510000  0.41520000  1.0 0.5684677343
C  C57  1  0.82100000  0.93440000  0.55680000  1.0 0.5512237976
C  C58  1  0.93440000  0.82100000  0.94320000  1.0 0.5512237976
C  C59  1  0.17900000  0.06560000  0.44320000  1.0 0.5512237976
C  C60  1  0.06560000  0.17900000  0.05680000  1.0 0.5512237976
C  C61  1  0.38610000  0.10630000  0.20330000  1.0 -0.2384685149
C  C62  1  0.10630000  0.38610000  0.29670000  1.0 -0.2384685149
C  C63  1  0.61390000  0.89370000  0.79670000  1.0 -0.2384685149
C  C64  1  0.89370000  0.61390000  0.70330000  1.0 -0.2384685149
C  C65  1  0.40470000  0.17290000  0.10750000  1.0 -0.1085989644
C  C66  1  0.17290000  0.40470000  0.39250000  1.0 -0.1085989644
C  C67  1  0.59530000  0.82710000  0.89250000  1.0 -0.1085989644
C  C68  1  0.82710000  0.59530000  0.60750000  1.0 -0.1085989644
C  C69  1  0.36400000  0.29000000  0.06120000  1.0 -0.3753328641
C  C70  1  0.29000000  0.36400000  0.43880000  1.0 -0.3753328641
C  C71  1  0.63600000  0.71000000  0.93880000  1.0 -0.3753328641
C  C72  1  0.71000000  0.63600000  0.56120000  1.0 -0.3753328641
C  C73  1  0.40300000  0.92520000  0.36350000  1.0 -0.2508376261
C  C74  1  0.92520000  0.40300000  0.13650000  1.0 -0.2508376261
C  C75  1  0.59700000  0.07480000  0.63650000  1.0 -0.2508376261
C  C76  1  0.07480000  0.59700000  0.86350000  1.0 -0.2508376261
C  C77  1  0.44270000  0.81270000  0.43140000  1.0 -0.1022855063
C  C78  1  0.81270000  0.44270000  0.06860000  1.0 -0.1022855063
C  C79  1  0.55730000  0.18730000  0.56860000  1.0 -0.1022855063
C  C80  1  0.18730000  0.55730000  0.93140000  1.0 -0.1022855063
C  C81  1  0.40950000  0.75910000  0.53160000  1.0 -0.3624908348
C  C82  1  0.75910000  0.40950000  0.96840000  1.0 -0.3624908348
C  C83  1  0.59050000  0.24090000  0.46840000  1.0 -0.3624908348
C  C84  1  0.24090000  0.59050000  0.03160000  1.0 -0.3624908348
O  O1  1  0.14970000  0.89470000  0.85540000  1.0 -0.5240260382
O  O2  1  0.89470000  0.14970000  0.64460000  1.0 -0.5240260382
O  O3  1  0.85030000  0.10530000  0.14460000  1.0 -0.5240260382
O  O4  1  0.10530000  0.85030000  0.35540000  1.0 -0.5240260382
O  O5  1  0.08751000  0.99311000  0.90390000  1.0 -0.6003215705
O  O6  1  0.99311000  0.08751000  0.59610000  1.0 -0.6003215705
O  O7  1  0.91249000  0.00689000  0.09610000  1.0 -0.6003215705
O  O8  1  0.00689000  0.91249000  0.40390000  1.0 -0.6003215705
O  O9  1  0.79420000  0.97060000  0.60800000  1.0 -0.4998654147
O  O10  1  0.97060000  0.79420000  0.89200000  1.0 -0.4998654147
O  O11  1  0.20580000  0.02940000  0.39200000  1.0 -0.4998654147
O  O12  1  0.02940000  0.20580000  0.10800000  1.0 -0.4998654147
O  O13  1  0.91805000  0.90365000  0.59130000  1.0 -0.6003215705
O  O14  1  0.90365000  0.91805000  0.90870000  1.0 -0.6003215705
O  O15  1  0.08195000  0.09635000  0.40870000  1.0 -0.6003215705
O  O16  1  0.09635000  0.08195000  0.09130000  1.0 -0.6003215705
