# DDEC6 charges by PACMAN v1.1 (https://github.com/mtap-research/PACMAN-charge/)
data_MOYTUR_ion_pacman
_symmetry_space_group_name_H-M   'P 1'
_cell_length_a   9.37250000
_cell_length_b   24.67300000
_cell_length_c   24.91100000
_cell_angle_alpha   90.00000000
_cell_angle_beta   90.00000000
_cell_angle_gamma   90.00000000
_symmetry_Int_Tables_number   1
_chemical_formula_structural   Zn8H108C112N8ClO25
_chemical_formula_sum   'Zn16 H216 C224 N16 Cl2 O50'
_cell_volume   5760.61126787
_cell_formula_units_Z   2
loop_
 _symmetry_equiv_pos_site_id
 _symmetry_equiv_pos_as_xyz
  1  'x, y, z'
loop_
 _atom_site_type_symbol
 _atom_site_label
 _atom_site_symmetry_multiplicity
 _atom_site_fract_x
 _atom_site_fract_y
 _atom_site_fract_z
 _atom_site_occupancy
 _atom_site_charge
Zn  Zn1  1  0.88880000  0.54174000  0.55232000  1.0 0.9315032401
Zn  Zn2  1  0.88880000  0.45826000  0.44768000  1.0 0.9315032401
Zn  Zn3  1  0.11120000  0.54174000  0.44768000  1.0 0.9315032401
Zn  Zn4  1  0.11120000  0.45826000  0.55232000  1.0 0.9315032401
Zn  Zn5  1  0.11120000  0.95826000  0.94768000  1.0 0.9315032401
Zn  Zn6  1  0.11120000  0.04174000  0.05232000  1.0 0.9315032401
Zn  Zn7  1  0.88880000  0.95826000  0.05232000  1.0 0.9315032401
Zn  Zn8  1  0.88880000  0.04174000  0.94768000  1.0 0.9315032401
Zn  Zn9  1  0.63272000  0.25932000  0.81104000  1.0 0.7051492009
Zn  Zn10  1  0.63272000  0.74068000  0.18896000  1.0 0.7051492009
Zn  Zn11  1  0.36728000  0.25932000  0.18896000  1.0 0.7051492009
Zn  Zn12  1  0.36728000  0.74068000  0.81104000  1.0 0.7051492009
Zn  Zn13  1  0.36728000  0.24068000  0.68896000  1.0 0.7044829913
Zn  Zn14  1  0.36728000  0.75932000  0.31104000  1.0 0.7051492009
Zn  Zn15  1  0.63272000  0.24068000  0.31104000  1.0 0.7051492009
Zn  Zn16  1  0.63272000  0.75932000  0.68896000  1.0 0.7051492009
H  H1  1  0.61110000  0.11700000  0.85990000  1.0 0.0953645744
H  H2  1  0.61110000  0.88300000  0.14010000  1.0 0.0953645744
H  H3  1  0.38890000  0.11700000  0.14010000  1.0 0.0953645744
H  H4  1  0.38890000  0.88300000  0.85990000  1.0 0.0953645744
H  H5  1  0.38890000  0.38300000  0.64010000  1.0 0.0953645744
H  H6  1  0.38890000  0.61700000  0.35990000  1.0 0.0953645744
H  H7  1  0.61110000  0.38300000  0.35990000  1.0 0.0953645744
H  H8  1  0.61110000  0.61700000  0.64010000  1.0 0.0953645744
H  H9  1  0.45310000  0.09970000  0.92810000  1.0 0.1208585986
H  H10  1  0.45310000  0.90030000  0.07190000  1.0 0.1208585986
H  H11  1  0.54690000  0.09970000  0.07190000  1.0 0.1208585986
H  H12  1  0.54690000  0.90030000  0.92810000  1.0 0.1208585986
H  H13  1  0.54690000  0.40030000  0.57190000  1.0 0.1208585986
H  H14  1  0.54690000  0.59970000  0.42810000  1.0 0.1208585986
H  H15  1  0.45310000  0.40030000  0.42810000  1.0 0.1208585986
H  H16  1  0.45310000  0.59970000  0.57190000  1.0 0.1208585986
H  H17  1  0.22290000  0.21580000  0.99830000  1.0 0.129048997
H  H18  1  0.22290000  0.78420000  0.00170000  1.0 0.129048997
H  H19  1  0.77710000  0.21580000  0.00170000  1.0 0.129048997
H  H20  1  0.77710000  0.78420000  0.99830000  1.0 0.129048997
H  H21  1  0.77710000  0.28420000  0.50170000  1.0 0.129048997
H  H22  1  0.77710000  0.71580000  0.49830000  1.0 0.129048997
H  H23  1  0.22290000  0.28420000  0.49830000  1.0 0.129048997
H  H24  1  0.22290000  0.71580000  0.50170000  1.0 0.129048997
H  H25  1  0.32460000  0.27860000  0.94490000  1.0 0.1417182033
H  H26  1  0.32460000  0.72140000  0.05510000  1.0 0.1417182033
H  H27  1  0.67540000  0.27860000  0.05510000  1.0 0.1417182033
H  H28  1  0.67540000  0.72140000  0.94490000  1.0 0.1417182033
H  H29  1  0.67540000  0.22140000  0.55510000  1.0 0.1417182033
H  H30  1  0.67540000  0.77860000  0.44490000  1.0 0.1417182033
H  H31  1  0.32460000  0.22140000  0.44490000  1.0 0.1417182033
H  H32  1  0.32460000  0.77860000  0.55510000  1.0 0.1417182033
H  H33  1  0.84320000  0.26740000  0.68580000  1.0 0.1089051702
H  H34  1  0.84320000  0.73260000  0.31420000  1.0 0.1089051702
H  H35  1  0.15680000  0.26740000  0.31420000  1.0 0.1089051702
H  H36  1  0.15680000  0.73260000  0.68580000  1.0 0.1089051702
H  H37  1  0.15680000  0.23260000  0.81420000  1.0 0.1089051702
H  H38  1  0.15680000  0.76740000  0.18580000  1.0 0.1089051702
H  H39  1  0.84320000  0.23260000  0.18580000  1.0 0.1089051702
H  H40  1  0.84320000  0.76740000  0.81420000  1.0 0.1089051702
H  H41  1  0.86670000  0.35380000  0.64690000  1.0 0.129048997
H  H42  1  0.86670000  0.64620000  0.35310000  1.0 0.129048997
H  H43  1  0.13330000  0.35380000  0.35310000  1.0 0.129048997
H  H44  1  0.13330000  0.64620000  0.64690000  1.0 0.129048997
H  H45  1  0.13330000  0.14620000  0.85310000  1.0 0.129048997
H  H46  1  0.13330000  0.85380000  0.14690000  1.0 0.129048997
H  H47  1  0.86670000  0.14620000  0.14690000  1.0 0.129048997
H  H48  1  0.86670000  0.85380000  0.85310000  1.0 0.129048997
H  H49  1  0.66610000  0.48300000  0.70110000  1.0 0.129048997
H  H50  1  0.66610000  0.51700000  0.29890000  1.0 0.129048997
H  H51  1  0.33390000  0.48300000  0.29890000  1.0 0.129048997
H  H52  1  0.33390000  0.51700000  0.70110000  1.0 0.129048997
H  H53  1  0.33390000  0.01700000  0.79890000  1.0 0.129048997
H  H54  1  0.33390000  0.98300000  0.20110000  1.0 0.129048997
H  H55  1  0.66610000  0.01700000  0.20110000  1.0 0.129048997
H  H56  1  0.66610000  0.98300000  0.79890000  1.0 0.129048997
H  H57  1  0.85950000  0.16970000  0.80310000  1.0 0.063467813
H  H58  1  0.85950000  0.83030000  0.19690000  1.0 0.063467813
H  H59  1  0.14050000  0.16970000  0.19690000  1.0 0.063467813
H  H60  1  0.14050000  0.83030000  0.80310000  1.0 0.063467813
H  H61  1  0.14050000  0.33030000  0.69690000  1.0 0.063467813
H  H62  1  0.14050000  0.66970000  0.30310000  1.0 0.063467813
H  H63  1  0.85950000  0.33030000  0.30310000  1.0 0.063467813
H  H64  1  0.85950000  0.66970000  0.69690000  1.0 0.063467813
H  H65  1  0.98640000  0.09020000  0.76050000  1.0 0.0710046701
H  H66  1  0.98640000  0.90980000  0.23950000  1.0 0.0710046701
H  H67  1  0.01360000  0.09020000  0.23950000  1.0 0.063467813
H  H68  1  0.01360000  0.90980000  0.76050000  1.0 0.063467813
H  H69  1  0.01360000  0.40980000  0.73950000  1.0 0.063467813
H  H70  1  0.01360000  0.59020000  0.26050000  1.0 0.063467813
H  H71  1  0.98640000  0.40980000  0.26050000  1.0 0.0710046701
H  H72  1  0.98640000  0.59020000  0.73950000  1.0 0.0710046701
H  H73  1  0.89870000  0.03930000  0.74090000  1.0 0.0875473768
H  H74  1  0.89870000  0.96070000  0.25910000  1.0 0.0875473768
H  H75  1  0.10130000  0.03930000  0.25910000  1.0 0.0875473768
H  H76  1  0.10130000  0.96070000  0.74090000  1.0 0.0875473768
H  H77  1  0.10130000  0.46070000  0.75910000  1.0 0.0875473768
H  H78  1  0.10130000  0.53930000  0.24090000  1.0 0.0875473768
H  H79  1  0.89870000  0.46070000  0.24090000  1.0 0.0875473768
H  H80  1  0.89870000  0.53930000  0.75910000  1.0 0.0875473768
H  H81  1  0.77030000  0.09740000  0.67940000  1.0 0.063467813
H  H82  1  0.77030000  0.90260000  0.32060000  1.0 0.063467813
H  H83  1  0.22970000  0.09740000  0.32060000  1.0 0.063467813
H  H84  1  0.22970000  0.90260000  0.67940000  1.0 0.063467813
H  H85  1  0.22970000  0.40260000  0.82060000  1.0 0.063467813
H  H86  1  0.22970000  0.59740000  0.17940000  1.0 0.063467813
H  H87  1  0.77030000  0.40260000  0.17940000  1.0 0.063467813
H  H88  1  0.77030000  0.59740000  0.82060000  1.0 0.063467813
H  H89  1  0.93280000  0.09460000  0.66480000  1.0 0.063467813
H  H90  1  0.93280000  0.90540000  0.33520000  1.0 0.063467813
H  H91  1  0.06720000  0.09460000  0.33520000  1.0 0.063467813
H  H92  1  0.06720000  0.90540000  0.66480000  1.0 0.063467813
H  H93  1  0.06720000  0.40540000  0.83520000  1.0 0.063467813
H  H94  1  0.06720000  0.59460000  0.16480000  1.0 0.063467813
H  H95  1  0.93280000  0.40540000  0.16480000  1.0 0.063467813
H  H96  1  0.93280000  0.59460000  0.83520000  1.0 0.063467813
H  H97  1  0.65730000  0.17370000  0.71650000  1.0 0.0710046701
H  H98  1  0.65730000  0.82630000  0.28350000  1.0 0.0710046701
H  H99  1  0.34270000  0.17370000  0.28350000  1.0 0.0710046701
H  H100  1  0.34270000  0.82630000  0.71650000  1.0 0.0710046701
H  H101  1  0.34270000  0.32630000  0.78350000  1.0 0.0710046701
H  H102  1  0.34270000  0.67370000  0.21650000  1.0 0.0710046701
H  H103  1  0.65730000  0.32630000  0.21650000  1.0 0.0710046701
H  H104  1  0.65730000  0.67370000  0.78350000  1.0 0.0710046701
H  H105  1  0.78110000  0.07840000  0.81750000  1.0 0.0953645744
H  H106  1  0.78110000  0.92160000  0.18250000  1.0 0.0953645744
H  H107  1  0.21890000  0.07840000  0.18250000  1.0 0.0953645744
H  H108  1  0.21890000  0.92160000  0.81750000  1.0 0.0953645744
H  H109  1  0.21890000  0.42160000  0.68250000  1.0 0.0953645744
H  H110  1  0.21890000  0.57840000  0.31750000  1.0 0.0953645744
H  H111  1  0.78110000  0.42160000  0.31750000  1.0 0.0953645744
H  H112  1  0.78110000  0.57840000  0.68250000  1.0 0.0953645744
H  H113  1  0.68080000  0.08270000  0.76710000  1.0 0.0763045886
H  H114  1  0.68080000  0.91730000  0.23290000  1.0 0.0763045886
H  H115  1  0.31920000  0.08270000  0.23290000  1.0 0.0763045886
H  H116  1  0.31920000  0.91730000  0.76710000  1.0 0.0763045886
H  H117  1  0.31920000  0.41730000  0.73290000  1.0 0.0763045886
H  H118  1  0.31920000  0.58270000  0.26710000  1.0 0.0763045886
H  H119  1  0.68080000  0.41730000  0.26710000  1.0 0.0763045886
H  H120  1  0.68080000  0.58270000  0.73290000  1.0 0.0763045886
H  H121  1  0.86460000  0.18680000  0.66030000  1.0 0.0710046701
H  H122  1  0.86460000  0.81320000  0.33970000  1.0 0.0710046701
H  H123  1  0.13540000  0.18680000  0.33970000  1.0 0.0710046701
H  H124  1  0.13540000  0.81320000  0.66030000  1.0 0.0710046701
H  H125  1  0.13540000  0.31320000  0.83970000  1.0 0.0710046701
H  H126  1  0.13540000  0.68680000  0.16030000  1.0 0.0710046701
H  H127  1  0.86460000  0.31320000  0.16030000  1.0 0.0710046701
H  H128  1  0.86460000  0.68680000  0.83970000  1.0 0.0710046701
H  H129  1  0.96520000  0.18130000  0.71090000  1.0 0.0875473768
H  H130  1  0.96520000  0.81870000  0.28910000  1.0 0.0875473768
H  H131  1  0.03480000  0.18130000  0.28910000  1.0 0.0875473768
H  H132  1  0.03480000  0.81870000  0.71090000  1.0 0.0875473768
H  H133  1  0.03480000  0.31870000  0.78910000  1.0 0.0875473768
H  H134  1  0.03480000  0.68130000  0.21090000  1.0 0.0875473768
H  H135  1  0.96520000  0.31870000  0.21090000  1.0 0.0875473768
H  H136  1  0.96520000  0.68130000  0.78910000  1.0 0.0875473768
H  H137  1  0.98830000  0.09870000  0.68350000  1.0 0.0710046701
H  H138  1  0.98830000  0.90130000  0.31650000  1.0 0.0710046701
H  H139  1  0.01170000  0.09870000  0.31650000  1.0 0.0710046701
H  H140  1  0.01170000  0.90130000  0.68350000  1.0 0.0710046701
H  H141  1  0.01170000  0.40130000  0.81650000  1.0 0.0710046701
H  H142  1  0.01170000  0.59870000  0.18350000  1.0 0.0710046701
H  H143  1  0.98830000  0.40130000  0.18350000  1.0 0.0710046701
H  H144  1  0.98830000  0.59870000  0.81650000  1.0 0.0710046701
H  H145  1  0.01300000  0.11950000  0.74290000  1.0 0.0710046701
H  H146  1  0.01300000  0.88050000  0.25710000  1.0 0.0710046701
H  H147  1  0.98700000  0.11950000  0.25710000  1.0 0.0710046701
H  H148  1  0.98700000  0.88050000  0.74290000  1.0 0.0710046701
H  H149  1  0.98700000  0.38050000  0.75710000  1.0 0.0710046701
H  H150  1  0.98700000  0.61950000  0.24290000  1.0 0.0710046701
H  H151  1  0.01300000  0.38050000  0.24290000  1.0 0.0710046701
H  H152  1  0.01300000  0.61950000  0.75710000  1.0 0.0710046701
H  H153  1  0.90660000  0.20980000  0.77300000  1.0 0.0710046701
H  H154  1  0.90660000  0.79020000  0.22700000  1.0 0.0710046701
H  H155  1  0.09340000  0.20980000  0.22700000  1.0 0.0710046701
H  H156  1  0.09340000  0.79020000  0.77300000  1.0 0.0710046701
H  H157  1  0.09340000  0.29020000  0.72700000  1.0 0.0710046701
H  H158  1  0.09340000  0.70980000  0.27300000  1.0 0.0710046701
H  H159  1  0.90660000  0.29020000  0.27300000  1.0 0.0710046701
H  H160  1  0.90660000  0.70980000  0.72700000  1.0 0.0710046701
H  H161  1  0.65500000  0.16000000  0.73890000  1.0 0.0875473768
H  H162  1  0.65500000  0.84000000  0.26110000  1.0 0.0875473768
H  H163  1  0.34500000  0.16000000  0.26110000  1.0 0.0875473768
H  H164  1  0.34500000  0.84000000  0.73890000  1.0 0.0875473768
H  H165  1  0.34500000  0.34000000  0.76110000  1.0 0.0875473768
H  H166  1  0.34500000  0.66000000  0.23890000  1.0 0.0875473768
H  H167  1  0.65500000  0.34000000  0.23890000  1.0 0.0875473768
H  H168  1  0.65500000  0.66000000  0.76110000  1.0 0.0875473768
H  H169  1  0.85780000  0.03770000  0.73930000  1.0 0.0875473768
H  H170  1  0.85780000  0.96230000  0.26070000  1.0 0.0875473768
H  H171  1  0.14220000  0.03770000  0.26070000  1.0 0.0875473768
H  H172  1  0.14220000  0.96230000  0.73930000  1.0 0.0875473768
H  H173  1  0.14220000  0.46230000  0.76070000  1.0 0.0875473768
H  H174  1  0.14220000  0.53770000  0.23930000  1.0 0.0875473768
H  H175  1  0.85780000  0.46230000  0.23930000  1.0 0.0875473768
H  H176  1  0.85780000  0.53770000  0.76070000  1.0 0.0875473768
H  H177  1  0.74070000  0.07550000  0.71250000  1.0 0.0710046701
H  H178  1  0.74070000  0.92450000  0.28750000  1.0 0.0710046701
H  H179  1  0.25930000  0.07550000  0.28750000  1.0 0.0710046701
H  H180  1  0.25930000  0.92450000  0.71250000  1.0 0.0710046701
H  H181  1  0.25930000  0.42450000  0.78750000  1.0 0.0710046701
H  H182  1  0.25930000  0.57550000  0.21250000  1.0 0.0710046701
H  H183  1  0.74070000  0.42450000  0.21250000  1.0 0.0710046701
H  H184  1  0.74070000  0.57550000  0.78750000  1.0 0.0710046701
H  H185  1  0.88650000  0.11370000  0.80660000  1.0 0.0710046701
H  H186  1  0.88650000  0.88630000  0.19340000  1.0 0.0710046701
H  H187  1  0.11350000  0.11370000  0.19340000  1.0 0.0710046701
H  H188  1  0.11350000  0.88630000  0.80660000  1.0 0.0710046701
H  H189  1  0.11350000  0.38630000  0.69340000  1.0 0.0710046701
H  H190  1  0.11350000  0.61370000  0.30660000  1.0 0.0710046701
H  H191  1  0.88650000  0.38630000  0.30660000  1.0 0.0710046701
H  H192  1  0.88650000  0.61370000  0.69340000  1.0 0.0710046701
H  H193  1  0.74580000  0.07890000  0.81420000  1.0 0.0953645744
H  H194  1  0.74580000  0.92110000  0.18580000  1.0 0.0953645744
H  H195  1  0.25420000  0.07890000  0.18580000  1.0 0.0953645744
H  H196  1  0.25420000  0.92110000  0.81420000  1.0 0.0953645744
H  H197  1  0.25420000  0.42110000  0.68580000  1.0 0.0953645744
H  H198  1  0.25420000  0.57890000  0.31420000  1.0 0.0953645744
H  H199  1  0.74580000  0.42110000  0.31420000  1.0 0.0953645744
H  H200  1  0.74580000  0.57890000  0.68580000  1.0 0.0953645744
H  H201  1  0.90780000  0.18810000  0.67930000  1.0 0.0710046701
H  H202  1  0.90780000  0.81190000  0.32070000  1.0 0.0710046701
H  H203  1  0.09220000  0.18810000  0.32070000  1.0 0.0710046701
H  H204  1  0.09220000  0.81190000  0.67930000  1.0 0.0710046701
H  H205  1  0.09220000  0.31190000  0.82070000  1.0 0.0710046701
H  H206  1  0.09220000  0.68810000  0.17930000  1.0 0.0710046701
H  H207  1  0.90780000  0.31190000  0.17930000  1.0 0.0710046701
H  H208  1  0.90780000  0.68810000  0.82070000  1.0 0.0710046701
H  H209  1  0.76550000  0.15460000  0.68530000  1.0 0.0441590197
H  H210  1  0.76550000  0.84540000  0.31470000  1.0 0.0441590197
H  H211  1  0.23450000  0.15460000  0.31470000  1.0 0.0441590197
H  H212  1  0.23450000  0.84540000  0.68530000  1.0 0.0441590197
H  H213  1  0.23450000  0.34540000  0.81470000  1.0 0.0441590197
H  H214  1  0.23450000  0.65460000  0.18530000  1.0 0.0441590197
H  H215  1  0.76550000  0.34540000  0.18530000  1.0 0.0441590197
H  H216  1  0.76550000  0.65460000  0.81470000  1.0 0.0441590197
C  C1  1  0.59150000  0.15390000  0.85880000  1.0 -0.0214673697
C  C2  1  0.59150000  0.84610000  0.14120000  1.0 -0.0214673697
C  C3  1  0.40850000  0.15390000  0.14120000  1.0 -0.0214673697
C  C4  1  0.40850000  0.84610000  0.85880000  1.0 -0.0214673697
C  C5  1  0.40850000  0.34610000  0.64120000  1.0 -0.0214673697
C  C6  1  0.40850000  0.65390000  0.35880000  1.0 -0.0214673697
C  C7  1  0.59150000  0.34610000  0.35880000  1.0 -0.0214673697
C  C8  1  0.59150000  0.65390000  0.64120000  1.0 -0.0214673697
C  C9  1  0.49630000  0.17400000  0.89670000  1.0 -0.0575106635
C  C10  1  0.49630000  0.82600000  0.10330000  1.0 -0.0575106635
C  C11  1  0.50370000  0.17400000  0.10330000  1.0 -0.0575106635
C  C12  1  0.50370000  0.82600000  0.89670000  1.0 -0.0575106635
C  C13  1  0.50370000  0.32600000  0.60330000  1.0 -0.0575106635
C  C14  1  0.50370000  0.67400000  0.39670000  1.0 -0.0575106635
C  C15  1  0.49630000  0.32600000  0.39670000  1.0 -0.0575106635
C  C16  1  0.49630000  0.67400000  0.60330000  1.0 -0.0575106635
C  C17  1  0.43010000  0.13620000  0.93150000  1.0 -0.121430002
C  C18  1  0.43010000  0.86380000  0.06850000  1.0 -0.121430002
C  C19  1  0.56990000  0.13620000  0.06850000  1.0 -0.121430002
C  C20  1  0.56990000  0.86380000  0.93150000  1.0 -0.121430002
C  C21  1  0.56990000  0.36380000  0.56850000  1.0 -0.121430002
C  C22  1  0.56990000  0.63620000  0.43150000  1.0 -0.121430002
C  C23  1  0.43010000  0.36380000  0.43150000  1.0 -0.121430002
C  C24  1  0.43010000  0.63620000  0.56850000  1.0 -0.121430002
C  C25  1  0.33290000  0.15150000  0.97010000  1.0 -0.0409232005
C  C26  1  0.33290000  0.84850000  0.02990000  1.0 -0.0409232005
C  C27  1  0.66710000  0.15150000  0.02990000  1.0 -0.0409232005
C  C28  1  0.66710000  0.84850000  0.97010000  1.0 -0.0409232005
C  C29  1  0.66710000  0.34850000  0.52990000  1.0 -0.0409232005
C  C30  1  0.66710000  0.65150000  0.47010000  1.0 -0.0409232005
C  C31  1  0.33290000  0.34850000  0.47010000  1.0 -0.0409232005
C  C32  1  0.33290000  0.65150000  0.52990000  1.0 -0.0409232005
C  C33  1  0.29180000  0.20530000  0.97350000  1.0 -0.0724700151
C  C34  1  0.29180000  0.79470000  0.02650000  1.0 -0.0724700151
C  C35  1  0.70820000  0.20530000  0.02650000  1.0 -0.0724700151
C  C36  1  0.70820000  0.79470000  0.97350000  1.0 -0.0724700151
C  C37  1  0.70820000  0.29470000  0.52650000  1.0 -0.0724700151
C  C38  1  0.70820000  0.70530000  0.47350000  1.0 -0.0724700151
C  C39  1  0.29180000  0.29470000  0.47350000  1.0 -0.0724700151
C  C40  1  0.29180000  0.70530000  0.52650000  1.0 -0.0724700151
C  C41  1  0.35210000  0.24260000  0.94070000  1.0 -0.2395876198
C  C42  1  0.35210000  0.75740000  0.05930000  1.0 -0.2395876198
C  C43  1  0.64790000  0.24260000  0.05930000  1.0 -0.2395876198
C  C44  1  0.64790000  0.75740000  0.94070000  1.0 -0.2395876198
C  C45  1  0.64790000  0.25740000  0.55930000  1.0 -0.2395876198
C  C46  1  0.64790000  0.74260000  0.44070000  1.0 -0.2395876198
C  C47  1  0.35210000  0.25740000  0.44070000  1.0 -0.2395876198
C  C48  1  0.35210000  0.74260000  0.55930000  1.0 -0.2395876198
C  C49  1  0.45440000  0.23060000  0.90050000  1.0 0.3427323551
C  C50  1  0.45440000  0.76940000  0.09950000  1.0 0.3427323551
C  C51  1  0.54560000  0.23060000  0.09950000  1.0 0.3427323551
C  C52  1  0.54560000  0.76940000  0.90050000  1.0 0.3427323551
C  C53  1  0.54560000  0.26940000  0.59950000  1.0 0.3427323551
C  C54  1  0.54560000  0.73060000  0.40050000  1.0 0.3427323551
C  C55  1  0.45440000  0.26940000  0.40050000  1.0 0.3427323551
C  C56  1  0.45440000  0.73060000  0.59950000  1.0 0.3427323551
C  C57  1  0.26720000  0.10690000  0.00320000  1.0 0.551426042
C  C58  1  0.26720000  0.89310000  0.99680000  1.0 0.551426042
C  C59  1  0.73280000  0.10690000  0.99680000  1.0 0.551426042
C  C60  1  0.73280000  0.89310000  0.00320000  1.0 0.551426042
C  C61  1  0.73280000  0.39310000  0.49680000  1.0 0.551426042
C  C62  1  0.73280000  0.60690000  0.50320000  1.0 0.551426042
C  C63  1  0.26720000  0.39310000  0.50320000  1.0 0.551426042
C  C64  1  0.26720000  0.60690000  0.49680000  1.0 0.551426042
C  C65  1  0.78440000  0.27970000  0.71330000  1.0 -0.0979730132
C  C66  1  0.78440000  0.72030000  0.28670000  1.0 -0.0979730132
C  C67  1  0.21560000  0.27970000  0.28670000  1.0 -0.0979730132
C  C68  1  0.21560000  0.72030000  0.71330000  1.0 -0.0979730132
C  C69  1  0.21560000  0.22030000  0.78670000  1.0 -0.0979730132
C  C70  1  0.21560000  0.77970000  0.21330000  1.0 -0.0979730132
C  C71  1  0.78440000  0.22030000  0.21330000  1.0 -0.0979730132
C  C72  1  0.78440000  0.77970000  0.78670000  1.0 -0.0979730132
C  C73  1  0.75210000  0.33570000  0.71280000  1.0 -0.1330508849
C  C74  1  0.75210000  0.66430000  0.28720000  1.0 -0.1330508849
C  C75  1  0.24790000  0.33570000  0.28720000  1.0 -0.1330508849
C  C76  1  0.24790000  0.66430000  0.71280000  1.0 -0.1330508849
C  C77  1  0.24790000  0.16430000  0.78720000  1.0 -0.1330508849
C  C78  1  0.24790000  0.83570000  0.21280000  1.0 -0.1330508849
C  C79  1  0.75210000  0.16430000  0.21280000  1.0 -0.1330508849
C  C80  1  0.75210000  0.83570000  0.78720000  1.0 -0.1330508849
C  C81  1  0.80590000  0.36930000  0.67210000  1.0 -0.149625013
C  C82  1  0.80590000  0.63070000  0.32790000  1.0 -0.149625013
C  C83  1  0.19410000  0.36930000  0.32790000  1.0 -0.149625013
C  C84  1  0.19410000  0.63070000  0.67210000  1.0 -0.149625013
C  C85  1  0.19410000  0.13070000  0.82790000  1.0 -0.149625013
C  C86  1  0.19410000  0.86930000  0.17210000  1.0 -0.149625013
C  C87  1  0.80590000  0.13070000  0.17210000  1.0 -0.149625013
C  C88  1  0.80590000  0.86930000  0.82790000  1.0 -0.149625013
C  C89  1  0.77550000  0.42270000  0.66690000  1.0 -0.0546982787
C  C90  1  0.77550000  0.57730000  0.33310000  1.0 -0.0546982787
C  C91  1  0.22450000  0.42270000  0.33310000  1.0 -0.0546982787
C  C92  1  0.22450000  0.57730000  0.66690000  1.0 -0.0546982787
C  C93  1  0.22450000  0.07730000  0.83310000  1.0 -0.0546982787
C  C94  1  0.22450000  0.92270000  0.16690000  1.0 -0.0575106635
C  C95  1  0.77550000  0.07730000  0.16690000  1.0 -0.0546982787
C  C96  1  0.77550000  0.92270000  0.83310000  1.0 -0.0546982787
C  C97  1  0.68740000  0.44630000  0.70440000  1.0 -0.1906165703
C  C98  1  0.68740000  0.55370000  0.29560000  1.0 -0.1906165703
C  C99  1  0.31260000  0.44630000  0.29560000  1.0 -0.1906165703
C  C100  1  0.31260000  0.55370000  0.70440000  1.0 -0.1906165703
C  C101  1  0.31260000  0.05370000  0.79560000  1.0 -0.1906165703
C  C102  1  0.31260000  0.94630000  0.20440000  1.0 -0.1906165703
C  C103  1  0.68740000  0.05370000  0.20440000  1.0 -0.1906165703
C  C104  1  0.68740000  0.94630000  0.79560000  1.0 -0.1906165703
C  C105  1  0.62760000  0.41690000  0.74790000  1.0 -0.1986322271
C  C106  1  0.62760000  0.58310000  0.25210000  1.0 -0.1986322271
C  C107  1  0.37240000  0.41690000  0.25210000  1.0 -0.1986322271
C  C108  1  0.37240000  0.58310000  0.74790000  1.0 -0.1986322271
C  C109  1  0.37240000  0.08310000  0.75210000  1.0 -0.1986322271
C  C110  1  0.37240000  0.91690000  0.24790000  1.0 -0.1986322271
C  C111  1  0.62760000  0.08310000  0.24790000  1.0 -0.1986322271
C  C112  1  0.62760000  0.91690000  0.75210000  1.0 -0.1986322271
C  C113  1  0.66150000  0.36020000  0.75180000  1.0 0.2465791443
C  C114  1  0.66150000  0.63980000  0.24820000  1.0 0.2465791443
C  C115  1  0.33850000  0.36020000  0.24820000  1.0 0.2465791443
C  C116  1  0.33850000  0.63980000  0.75180000  1.0 0.2465791443
C  C117  1  0.33850000  0.13980000  0.74820000  1.0 0.2465791443
C  C118  1  0.33850000  0.86020000  0.25180000  1.0 0.2465791443
C  C119  1  0.66150000  0.13980000  0.25180000  1.0 0.2465791443
C  C120  1  0.66150000  0.86020000  0.74820000  1.0 0.2465791443
C  C121  1  0.84550000  0.45400000  0.62270000  1.0 0.551426042
C  C122  1  0.84550000  0.54600000  0.37730000  1.0 0.551426042
C  C123  1  0.15450000  0.45400000  0.37730000  1.0 0.551426042
C  C124  1  0.15450000  0.54600000  0.62270000  1.0 0.551426042
C  C125  1  0.15450000  0.04600000  0.87730000  1.0 0.551426042
C  C126  1  0.15450000  0.95400000  0.12270000  1.0 0.551426042
C  C127  1  0.84550000  0.04600000  0.12270000  1.0 0.551426042
C  C128  1  0.84550000  0.95400000  0.87730000  1.0 0.551426042
C  C129  1  0.76700000  0.15820000  0.78870000  1.0 0.0441590197
C  C130  1  0.76700000  0.84180000  0.21130000  1.0 0.0441590197
C  C131  1  0.23300000  0.15820000  0.21130000  1.0 0.0441590197
C  C132  1  0.23300000  0.84180000  0.78870000  1.0 0.0441590197
C  C133  1  0.23300000  0.34180000  0.71130000  1.0 0.0441590197
C  C134  1  0.23300000  0.65820000  0.28870000  1.0 0.0441590197
C  C135  1  0.76700000  0.34180000  0.28870000  1.0 0.0441590197
C  C136  1  0.76700000  0.65820000  0.71130000  1.0 0.0441590197
C  C137  1  0.89610000  0.07830000  0.74560000  1.0 -0.0724700151
C  C138  1  0.89610000  0.92170000  0.25440000  1.0 -0.0724700151
C  C139  1  0.10390000  0.07830000  0.25440000  1.0 -0.0724700151
C  C140  1  0.10390000  0.92170000  0.74560000  1.0 -0.0724700151
C  C141  1  0.10390000  0.42170000  0.75440000  1.0 -0.0724700151
C  C142  1  0.10390000  0.57830000  0.24560000  1.0 -0.0724700151
C  C143  1  0.89610000  0.42170000  0.24560000  1.0 -0.0724700151
C  C144  1  0.89610000  0.57830000  0.75440000  1.0 -0.0724700151
C  C145  1  0.86520000  0.10730000  0.69150000  1.0 -0.0724700151
C  C146  1  0.86520000  0.89270000  0.30850000  1.0 -0.0724700151
C  C147  1  0.13480000  0.10730000  0.30850000  1.0 -0.0724700151
C  C148  1  0.13480000  0.89270000  0.69150000  1.0 -0.0724700151
C  C149  1  0.13480000  0.39270000  0.80850000  1.0 -0.0724700151
C  C150  1  0.13480000  0.60730000  0.19150000  1.0 -0.0724700151
C  C151  1  0.86520000  0.39270000  0.19150000  1.0 -0.0724700151
C  C152  1  0.86520000  0.60730000  0.80850000  1.0 -0.0724700151
C  C153  1  0.74770000  0.18510000  0.73270000  1.0 0.0117310507
C  C154  1  0.74770000  0.81490000  0.26730000  1.0 0.0117310507
C  C155  1  0.25230000  0.18510000  0.26730000  1.0 0.0117310507
C  C156  1  0.25230000  0.81490000  0.73270000  1.0 0.0117310507
C  C157  1  0.25230000  0.31490000  0.76730000  1.0 0.0117310507
C  C158  1  0.25230000  0.68510000  0.23270000  1.0 0.0117310507
C  C159  1  0.74770000  0.31490000  0.23270000  1.0 0.0117310507
C  C160  1  0.74770000  0.68510000  0.76730000  1.0 0.0117310507
C  C161  1  0.77010000  0.09510000  0.78250000  1.0 -0.149625013
C  C162  1  0.77010000  0.90490000  0.21750000  1.0 -0.149625013
C  C163  1  0.22990000  0.09510000  0.21750000  1.0 -0.149625013
C  C164  1  0.22990000  0.90490000  0.78250000  1.0 -0.149625013
C  C165  1  0.22990000  0.40490000  0.71750000  1.0 -0.149625013
C  C166  1  0.22990000  0.59510000  0.28250000  1.0 -0.149625013
C  C167  1  0.77010000  0.40490000  0.28250000  1.0 -0.149625013
C  C168  1  0.77010000  0.59510000  0.71750000  1.0 -0.149625013
C  C169  1  0.87500000  0.17010000  0.69530000  1.0 -0.149625013
C  C170  1  0.87500000  0.82990000  0.30470000  1.0 -0.149625013
C  C171  1  0.12500000  0.17010000  0.30470000  1.0 -0.149625013
C  C172  1  0.12500000  0.82990000  0.69530000  1.0 -0.149625013
C  C173  1  0.12500000  0.32990000  0.80470000  1.0 -0.149625013
C  C174  1  0.12500000  0.67010000  0.19530000  1.0 -0.149625013
C  C175  1  0.87500000  0.32990000  0.19530000  1.0 -0.149625013
C  C176  1  0.87500000  0.67010000  0.80470000  1.0 -0.149625013
C  C177  1  0.94190000  0.11280000  0.71540000  1.0 -0.0761732174
C  C178  1  0.94190000  0.88720000  0.28460000  1.0 -0.0761732174
C  C179  1  0.05810000  0.11280000  0.28460000  1.0 -0.0761732174
C  C180  1  0.05810000  0.88720000  0.71540000  1.0 -0.0761732174
C  C181  1  0.05810000  0.38720000  0.78460000  1.0 -0.0761732174
C  C182  1  0.05810000  0.61280000  0.21540000  1.0 -0.0761732174
C  C183  1  0.94190000  0.38720000  0.21540000  1.0 -0.0761732174
C  C184  1  0.94190000  0.61280000  0.78460000  1.0 -0.0761732174
C  C185  1  0.82510000  0.19210000  0.75700000  1.0 0.0278204771
C  C186  1  0.82510000  0.80790000  0.24300000  1.0 0.0278204771
C  C187  1  0.17490000  0.19210000  0.24300000  1.0 0.0278204771
C  C188  1  0.17490000  0.80790000  0.75700000  1.0 0.0278204771
C  C189  1  0.17490000  0.30790000  0.74300000  1.0 0.0278204771
C  C190  1  0.17490000  0.69210000  0.25700000  1.0 0.0278204771
C  C191  1  0.82510000  0.30790000  0.25700000  1.0 0.0278204771
C  C192  1  0.82510000  0.69210000  0.74300000  1.0 0.0278204771
C  C193  1  0.70750000  0.15080000  0.77070000  1.0 0.0278204771
C  C194  1  0.70750000  0.84920000  0.22930000  1.0 0.0278204771
C  C195  1  0.29250000  0.15080000  0.22930000  1.0 0.0278204771
C  C196  1  0.29250000  0.84920000  0.77070000  1.0 0.0278204771
C  C197  1  0.29250000  0.34920000  0.72930000  1.0 0.0278204771
C  C198  1  0.29250000  0.65080000  0.27070000  1.0 0.0278204771
C  C199  1  0.70750000  0.34920000  0.27070000  1.0 0.0278204771
C  C200  1  0.70750000  0.65080000  0.72930000  1.0 0.0278204771
C  C201  1  0.82450000  0.07470000  0.73540000  1.0 -0.0761732174
C  C202  1  0.82450000  0.92530000  0.26460000  1.0 -0.0761732174
C  C203  1  0.17550000  0.07470000  0.26460000  1.0 -0.0761732174
C  C204  1  0.17550000  0.92530000  0.73540000  1.0 -0.0761732174
C  C205  1  0.17550000  0.42530000  0.76460000  1.0 -0.0761732174
C  C206  1  0.17550000  0.57470000  0.23540000  1.0 -0.0761732174
C  C207  1  0.82450000  0.42530000  0.23540000  1.0 -0.0761732174
C  C208  1  0.82450000  0.57470000  0.76460000  1.0 -0.0761732174
C  C209  1  0.79800000  0.10220000  0.78980000  1.0 -0.149625013
C  C210  1  0.79800000  0.89780000  0.21020000  1.0 -0.149625013
C  C211  1  0.20200000  0.10220000  0.21020000  1.0 -0.149625013
C  C212  1  0.20200000  0.89780000  0.78980000  1.0 -0.149625013
C  C213  1  0.20200000  0.39780000  0.71020000  1.0 -0.149625013
C  C214  1  0.20200000  0.60220000  0.28980000  1.0 -0.149625013
C  C215  1  0.79800000  0.39780000  0.28980000  1.0 -0.149625013
C  C216  1  0.79800000  0.60220000  0.71020000  1.0 -0.149625013
C  C217  1  0.85400000  0.16420000  0.70280000  1.0 -0.1595378871
C  C218  1  0.85400000  0.83580000  0.29720000  1.0 -0.1595378871
C  C219  1  0.14600000  0.16420000  0.29720000  1.0 -0.1595378871
C  C220  1  0.14600000  0.83580000  0.70280000  1.0 -0.1595378871
C  C221  1  0.14600000  0.33580000  0.79720000  1.0 -0.1595378871
C  C222  1  0.14600000  0.66420000  0.20280000  1.0 -0.1595378871
C  C223  1  0.85400000  0.33580000  0.20280000  1.0 -0.1595378871
C  C224  1  0.85400000  0.66420000  0.79720000  1.0 -0.1595378871
N  N1  1  0.74240000  0.24410000  0.74680000  1.0 -0.2395876198
N  N2  1  0.74240000  0.75590000  0.25320000  1.0 -0.2395876198
N  N3  1  0.25760000  0.24410000  0.25320000  1.0 -0.2395876198
N  N4  1  0.25760000  0.75590000  0.74680000  1.0 -0.2395876198
N  N5  1  0.25760000  0.25590000  0.75320000  1.0 -0.2395876198
N  N6  1  0.25760000  0.74410000  0.24680000  1.0 -0.2395876198
N  N7  1  0.74240000  0.25590000  0.24680000  1.0 -0.2395876198
N  N8  1  0.74240000  0.74410000  0.75320000  1.0 -0.2395876198
N  N9  1  0.65500000  0.18220000  0.82240000  1.0 -0.2395876198
N  N10  1  0.65500000  0.81780000  0.17760000  1.0 -0.2395876198
N  N11  1  0.34500000  0.18220000  0.17760000  1.0 -0.2395876198
N  N12  1  0.34500000  0.81780000  0.82240000  1.0 -0.2395876198
N  N13  1  0.34500000  0.31780000  0.67760000  1.0 -0.2395876198
N  N14  1  0.34500000  0.68220000  0.32240000  1.0 -0.2395876198
N  N15  1  0.65500000  0.31780000  0.32240000  1.0 -0.2395876198
N  N16  1  0.65500000  0.68220000  0.67760000  1.0 -0.2395876198
Cl  Cl1  1  0.50000000  0.50000000  0.50000000  1.0 0.7412259766
Cl  Cl2  1  0.50000000  0.00000000  0.00000000  1.0 0.7412259766
O  O1  1  0.60410000  0.33390000  0.79210000  1.0 -0.4518851525
O  O2  1  0.60410000  0.66610000  0.20790000  1.0 -0.4518851525
O  O3  1  0.39590000  0.33390000  0.20790000  1.0 -0.4518851525
O  O4  1  0.39590000  0.66610000  0.79210000  1.0 -0.4518851525
O  O5  1  0.39590000  0.16610000  0.70790000  1.0 -0.4518851525
O  O6  1  0.39590000  0.83390000  0.29210000  1.0 -0.4518851525
O  O7  1  0.60410000  0.16610000  0.29210000  1.0 -0.4518851525
O  O8  1  0.60410000  0.83390000  0.70790000  1.0 -0.4518851525
O  O9  1  0.50130000  0.26780000  0.86920000  1.0 -0.470281463
O  O10  1  0.50130000  0.73220000  0.13080000  1.0 -0.470281463
O  O11  1  0.49870000  0.26780000  0.13080000  1.0 -0.470281463
O  O12  1  0.49870000  0.73220000  0.86920000  1.0 -0.470281463
O  O13  1  0.49870000  0.23220000  0.63080000  1.0 -0.470281463
O  O14  1  0.49870000  0.76780000  0.36920000  1.0 -0.470281463
O  O15  1  0.50130000  0.23220000  0.36920000  1.0 -0.470281463
O  O16  1  0.50130000  0.76780000  0.63080000  1.0 -0.470281463
O  O17  1  0.00000000  0.50000000  0.50000000  1.0 -1.0020023993
O  O18  1  0.00000000  0.00000000  0.00000000  1.0 -1.0020023993
O  O19  1  0.79400000  0.50030000  0.61150000  1.0 -0.5301878488
O  O20  1  0.79400000  0.49970000  0.38850000  1.0 -0.5301878488
O  O21  1  0.20600000  0.50030000  0.38850000  1.0 -0.5301878488
O  O22  1  0.20600000  0.49970000  0.61150000  1.0 -0.5301878488
O  O23  1  0.20600000  0.99970000  0.88850000  1.0 -0.5301878488
O  O24  1  0.20600000  0.00030000  0.11150000  1.0 -0.5301878488
O  O25  1  0.79400000  0.99970000  0.11150000  1.0 -0.5301878488
O  O26  1  0.79400000  0.00030000  0.88850000  1.0 -0.5301878488
O  O27  1  0.94860000  0.43160000  0.59880000  1.0 -0.523043733
O  O28  1  0.94860000  0.56840000  0.40120000  1.0 -0.523043733
O  O29  1  0.05140000  0.43160000  0.40120000  1.0 -0.523043733
O  O30  1  0.05140000  0.56840000  0.59880000  1.0 -0.523043733
O  O31  1  0.05140000  0.06840000  0.90120000  1.0 -0.523043733
O  O32  1  0.05140000  0.93160000  0.09880000  1.0 -0.523043733
O  O33  1  0.94860000  0.06840000  0.09880000  1.0 -0.523043733
O  O34  1  0.94860000  0.93160000  0.90120000  1.0 -0.523043733
O  O35  1  0.30670000  0.05940000  0.00100000  1.0 -0.4887566379
O  O36  1  0.30670000  0.94060000  0.99900000  1.0 -0.4887566379
O  O37  1  0.69330000  0.05940000  0.99900000  1.0 -0.4887566379
O  O38  1  0.69330000  0.94060000  0.00100000  1.0 -0.4887566379
O  O39  1  0.69330000  0.44060000  0.49900000  1.0 -0.4887566379
O  O40  1  0.69330000  0.55940000  0.50100000  1.0 -0.4887566379
O  O41  1  0.30670000  0.44060000  0.50100000  1.0 -0.4887566379
O  O42  1  0.30670000  0.55940000  0.49900000  1.0 -0.4887566379
O  O43  1  0.16940000  0.11990000  0.03520000  1.0 -0.4887566379
O  O44  1  0.16940000  0.88010000  0.96480000  1.0 -0.4887566379
O  O45  1  0.83060000  0.11990000  0.96480000  1.0 -0.4887566379
O  O46  1  0.83060000  0.88010000  0.03520000  1.0 -0.4887566379
O  O47  1  0.83060000  0.38010000  0.46480000  1.0 -0.4887566379
O  O48  1  0.83060000  0.61990000  0.53520000  1.0 -0.4887566379
O  O49  1  0.16940000  0.38010000  0.53520000  1.0 -0.4887566379
O  O50  1  0.16940000  0.61990000  0.46480000  1.0 -0.4887566379
