# DDEC6 charges by PACMAN v1.1 (https://github.com/mtap-research/PACMAN-charge/)
data_MUBZUG_FSR_pacman
_symmetry_space_group_name_H-M   'P 1'
_cell_length_a   21.98300000
_cell_length_b   21.98300000
_cell_length_c   21.98300000
_cell_angle_alpha   90.00000000
_cell_angle_beta   90.00000000
_cell_angle_gamma   90.00000000
_symmetry_Int_Tables_number   1
_chemical_formula_structural   Zr3H66(C75O8)2
_chemical_formula_sum   'Zr6 H132 C300 O32'
_cell_volume   10623.33506909
_cell_formula_units_Z   2
loop_
 _symmetry_equiv_pos_site_id
 _symmetry_equiv_pos_as_xyz
  1  'x, y, z'
loop_
 _atom_site_type_symbol
 _atom_site_label
 _atom_site_symmetry_multiplicity
 _atom_site_fract_x
 _atom_site_fract_y
 _atom_site_fract_z
 _atom_site_occupancy
 _atom_site_charge
Zr  Zr1  1  0.50002000  0.38774000  0.50003000  1.0 2.2529124571
Zr  Zr2  1  0.38774000  0.50003000  0.50002000  1.0 2.2529124571
Zr  Zr3  1  0.50003000  0.50002000  0.38774000  1.0 2.2529124571
Zr  Zr4  1  0.49998000  0.61226000  0.49997000  1.0 2.2529124571
Zr  Zr5  1  0.61226000  0.49997000  0.49998000  1.0 2.2529124571
Zr  Zr6  1  0.49997000  0.49998000  0.61226000  1.0 2.2529124571
H  H1  1  0.20230000  0.99860000  0.50130000  1.0 0.1336140511
H  H2  1  0.99860000  0.50130000  0.20230000  1.0 0.1336140511
H  H3  1  0.50130000  0.20230000  0.99860000  1.0 0.1336140511
H  H4  1  0.79770000  0.00140000  0.49870000  1.0 0.1336140511
H  H5  1  0.00140000  0.49870000  0.79770000  1.0 0.1336140511
H  H6  1  0.49870000  0.79770000  0.00140000  1.0 0.1336140511
H  H7  1  0.05130000  0.85190000  0.51640000  1.0 0.1001671787
H  H8  1  0.85190000  0.51640000  0.05130000  1.0 0.1001671787
H  H9  1  0.51640000  0.05130000  0.85190000  1.0 0.1001671787
H  H10  1  0.94870000  0.14810000  0.48360000  1.0 0.1001671787
H  H11  1  0.14810000  0.48360000  0.94870000  1.0 0.1001671787
H  H12  1  0.48360000  0.94870000  0.14810000  1.0 0.1001671787
H  H13  1  0.94800000  0.85080000  0.51860000  1.0 0.1001671787
H  H14  1  0.85080000  0.51860000  0.94800000  1.0 0.1001671787
H  H15  1  0.51860000  0.94800000  0.85080000  1.0 0.1001671787
H  H16  1  0.05200000  0.14920000  0.48140000  1.0 0.1001671787
H  H17  1  0.14920000  0.48140000  0.05200000  1.0 0.1001671787
H  H18  1  0.48140000  0.05200000  0.14920000  1.0 0.1001671787
H  H19  1  0.17440000  0.27130000  0.48900000  1.0 0.0908828774
H  H20  1  0.27130000  0.48900000  0.17440000  1.0 0.0803269348
H  H21  1  0.48900000  0.17440000  0.27130000  1.0 0.0803269348
H  H22  1  0.82560000  0.72870000  0.51100000  1.0 0.0803269348
H  H23  1  0.72870000  0.51100000  0.82560000  1.0 0.0803269348
H  H24  1  0.51100000  0.82560000  0.72870000  1.0 0.0803269348
H  H25  1  0.24330000  0.35110000  0.49950000  1.0 0.0803269348
H  H26  1  0.35110000  0.49950000  0.24330000  1.0 0.0803269348
H  H27  1  0.49950000  0.24330000  0.35110000  1.0 0.0803269348
H  H28  1  0.75670000  0.64890000  0.50050000  1.0 0.0803269348
H  H29  1  0.64890000  0.50050000  0.75670000  1.0 0.0803269348
H  H30  1  0.50050000  0.75670000  0.64890000  1.0 0.0803269348
H  H31  1  0.38430000  0.23150000  0.49560000  1.0 0.0908828774
H  H32  1  0.23150000  0.49560000  0.38430000  1.0 0.0908828774
H  H33  1  0.49560000  0.38430000  0.23150000  1.0 0.0908828774
H  H34  1  0.61570000  0.76850000  0.50440000  1.0 0.0908828774
H  H35  1  0.76850000  0.50440000  0.61570000  1.0 0.0908828774
H  H36  1  0.50440000  0.61570000  0.76850000  1.0 0.0908828774
H  H37  1  0.31110000  0.15160000  0.50240000  1.0 0.0908828774
H  H38  1  0.15160000  0.50240000  0.31110000  1.0 0.0908828774
H  H39  1  0.50240000  0.31110000  0.15160000  1.0 0.0908828774
H  H40  1  0.68890000  0.84840000  0.49760000  1.0 0.0908828774
H  H41  1  0.84840000  0.49760000  0.68890000  1.0 0.0908828774
H  H42  1  0.49760000  0.68890000  0.84840000  1.0 0.0908828774
H  H43  1  0.24540000  0.64990000  0.50250000  1.0 0.0803269348
H  H44  1  0.64990000  0.50250000  0.24540000  1.0 0.0803269348
H  H45  1  0.50250000  0.24540000  0.64990000  1.0 0.0803269348
H  H46  1  0.75460000  0.35010000  0.49750000  1.0 0.0803269348
H  H47  1  0.35010000  0.49750000  0.75460000  1.0 0.0803269348
H  H48  1  0.49750000  0.75460000  0.35010000  1.0 0.0803269348
H  H49  1  0.17640000  0.73110000  0.49640000  1.0 0.0908828774
H  H50  1  0.73110000  0.49640000  0.17640000  1.0 0.0908828774
H  H51  1  0.49640000  0.17640000  0.73110000  1.0 0.0908828774
H  H52  1  0.82360000  0.26890000  0.50360000  1.0 0.0908828774
H  H53  1  0.26890000  0.50360000  0.82360000  1.0 0.0908828774
H  H54  1  0.50360000  0.82360000  0.26890000  1.0 0.0908828774
H  H55  1  0.31450000  0.84720000  0.50110000  1.0 0.0908828774
H  H56  1  0.84720000  0.50110000  0.31450000  1.0 0.0908828774
H  H57  1  0.50110000  0.31450000  0.84720000  1.0 0.0908828774
H  H58  1  0.68550000  0.15280000  0.49890000  1.0 0.0908828774
H  H59  1  0.15280000  0.49890000  0.68550000  1.0 0.0908828774
H  H60  1  0.49890000  0.68550000  0.15280000  1.0 0.0908828774
H  H61  1  0.38340000  0.76650000  0.49910000  1.0 0.1001671787
H  H62  1  0.76650000  0.49910000  0.38340000  1.0 0.0908828774
H  H63  1  0.49910000  0.38340000  0.76650000  1.0 0.0908828774
H  H64  1  0.61660000  0.23350000  0.50090000  1.0 0.1001671787
H  H65  1  0.23350000  0.50090000  0.61660000  1.0 0.1001671787
H  H66  1  0.50090000  0.61660000  0.23350000  1.0 0.1001671787
H  H67  1  0.23270000  0.38280000  0.50340000  1.0 0.0908828774
H  H68  1  0.38280000  0.50340000  0.23270000  1.0 0.0908828774
H  H69  1  0.50340000  0.23270000  0.38280000  1.0 0.0908828774
H  H70  1  0.76730000  0.61720000  0.49660000  1.0 0.0908828774
H  H71  1  0.61720000  0.49660000  0.76730000  1.0 0.0908828774
H  H72  1  0.49660000  0.76730000  0.61720000  1.0 0.0908828774
H  H73  1  0.15300000  0.31140000  0.50110000  1.0 0.0908828774
H  H74  1  0.31140000  0.50110000  0.15300000  1.0 0.0908828774
H  H75  1  0.50110000  0.15300000  0.31140000  1.0 0.0908828774
H  H76  1  0.84700000  0.68860000  0.49890000  1.0 0.0908828774
H  H77  1  0.68860000  0.49890000  0.84700000  1.0 0.0908828774
H  H78  1  0.49890000  0.84700000  0.68860000  1.0 0.0908828774
H  H79  1  0.26860000  0.17480000  0.49460000  1.0 0.0908828774
H  H80  1  0.17480000  0.49460000  0.26860000  1.0 0.0908828774
H  H81  1  0.49460000  0.26860000  0.17480000  1.0 0.0908828774
H  H82  1  0.73140000  0.82520000  0.50540000  1.0 0.0908828774
H  H83  1  0.82520000  0.50540000  0.73140000  1.0 0.0908828774
H  H84  1  0.50540000  0.73140000  0.82520000  1.0 0.0908828774
H  H85  1  0.35120000  0.24110000  0.49940000  1.0 0.0803269348
H  H86  1  0.24110000  0.49940000  0.35120000  1.0 0.0803269348
H  H87  1  0.49940000  0.35120000  0.24110000  1.0 0.0803269348
H  H88  1  0.64880000  0.75890000  0.50060000  1.0 0.0803269348
H  H89  1  0.75890000  0.50060000  0.64880000  1.0 0.0803269348
H  H90  1  0.50060000  0.64880000  0.75890000  1.0 0.0803269348
H  H91  1  0.72810000  0.17590000  0.50560000  1.0 0.0908828774
H  H92  1  0.17590000  0.50560000  0.72810000  1.0 0.0908828774
H  H93  1  0.50560000  0.72810000  0.17590000  1.0 0.0908828774
H  H94  1  0.27190000  0.82410000  0.49440000  1.0 0.0908828774
H  H95  1  0.82410000  0.49440000  0.27190000  1.0 0.0908828774
H  H96  1  0.49440000  0.27190000  0.82410000  1.0 0.0908828774
H  H97  1  0.64870000  0.24260000  0.49200000  1.0 0.0803269348
H  H98  1  0.24260000  0.49200000  0.64870000  1.0 0.0803269348
H  H99  1  0.49200000  0.64870000  0.24260000  1.0 0.0803269348
H  H100  1  0.35130000  0.75740000  0.50800000  1.0 0.0803269348
H  H101  1  0.75740000  0.50800000  0.35130000  1.0 0.0803269348
H  H102  1  0.50800000  0.35130000  0.75740000  1.0 0.0803269348
H  H103  1  0.76790000  0.38150000  0.50040000  1.0 0.0908828774
H  H104  1  0.38150000  0.50040000  0.76790000  1.0 0.0908828774
H  H105  1  0.50040000  0.76790000  0.38150000  1.0 0.0908828774
H  H106  1  0.23210000  0.61850000  0.49960000  1.0 0.0908828774
H  H107  1  0.61850000  0.49960000  0.23210000  1.0 0.0908828774
H  H108  1  0.49960000  0.23210000  0.61850000  1.0 0.0908828774
H  H109  1  0.84790000  0.31060000  0.49860000  1.0 0.0908828774
H  H110  1  0.31060000  0.49860000  0.84790000  1.0 0.0908828774
H  H111  1  0.49860000  0.84790000  0.31060000  1.0 0.0908828774
H  H112  1  0.15210000  0.68940000  0.50140000  1.0 0.0908828774
H  H113  1  0.68940000  0.50140000  0.15210000  1.0 0.0908828774
H  H114  1  0.50140000  0.15210000  0.68940000  1.0 0.0908828774
H  H115  1  0.00080000  0.20170000  0.49430000  1.0 0.1366553856
H  H116  1  0.20170000  0.49430000  0.00080000  1.0 0.1366553856
H  H117  1  0.49430000  0.00080000  0.20170000  1.0 0.1366553856
H  H118  1  0.99920000  0.79830000  0.50570000  1.0 0.1366553856
H  H119  1  0.79830000  0.50570000  0.99920000  1.0 0.1366553856
H  H120  1  0.50570000  0.99920000  0.79830000  1.0 0.1366553856
H  H121  1  0.14830000  0.94710000  0.49650000  1.0 0.1001671787
H  H122  1  0.94710000  0.49650000  0.14830000  1.0 0.1001671787
H  H123  1  0.49650000  0.14830000  0.94710000  1.0 0.1001671787
H  H124  1  0.85170000  0.05290000  0.50350000  1.0 0.1001671787
H  H125  1  0.05290000  0.50350000  0.85170000  1.0 0.1001671787
H  H126  1  0.50350000  0.85170000  0.05290000  1.0 0.1001671787
H  H127  1  0.14930000  0.05160000  0.50330000  1.0 0.1001671787
H  H128  1  0.05160000  0.50330000  0.14930000  1.0 0.1001671787
H  H129  1  0.50330000  0.14930000  0.05160000  1.0 0.1001671787
H  H130  1  0.85070000  0.94840000  0.49670000  1.0 0.1001671787
H  H131  1  0.94840000  0.49670000  0.85070000  1.0 0.1001671787
H  H132  1  0.49670000  0.85070000  0.94840000  1.0 0.1001671787
C  C1  1  0.35750000  0.64350000  0.50030000  1.0 0.4358076406
C  C2  1  0.64350000  0.50030000  0.35750000  1.0 0.4358076406
C  C3  1  0.50030000  0.35750000  0.64350000  1.0 0.4358076406
C  C4  1  0.64250000  0.35650000  0.49970000  1.0 0.4358076406
C  C5  1  0.35650000  0.49970000  0.64250000  1.0 0.4358076406
C  C6  1  0.49970000  0.64250000  0.35650000  1.0 0.4358076406
C  C7  1  0.35620000  0.35800000  0.49980000  1.0 0.4342192365
C  C8  1  0.35800000  0.49980000  0.35620000  1.0 0.4342192365
C  C9  1  0.49980000  0.35620000  0.35800000  1.0 0.4342192365
C  C10  1  0.64380000  0.64200000  0.50020000  1.0 0.4342192365
C  C11  1  0.64200000  0.50020000  0.64380000  1.0 0.4342192365
C  C12  1  0.50020000  0.64380000  0.64200000  1.0 0.4342192365
C  C13  1  0.12950000  0.94650000  0.50640000  1.0 0.0191511714
C  C14  1  0.94650000  0.50640000  0.12950000  1.0 0.0191511714
C  C15  1  0.50640000  0.12950000  0.94650000  1.0 0.0191511714
C  C16  1  0.87050000  0.05350000  0.49360000  1.0 0.0191511714
C  C17  1  0.05350000  0.49360000  0.87050000  1.0 0.0191511714
C  C18  1  0.49360000  0.87050000  0.05350000  1.0 0.0191511714
C  C19  1  0.15950000  0.99900000  0.50100000  1.0 -0.1418616409
C  C20  1  0.99900000  0.50100000  0.15950000  1.0 -0.1418616409
C  C21  1  0.50100000  0.15950000  0.99900000  1.0 -0.1418616409
C  C22  1  0.84050000  0.00100000  0.49900000  1.0 -0.1418616409
C  C23  1  0.00100000  0.49900000  0.84050000  1.0 -0.1418616409
C  C24  1  0.49900000  0.84050000  0.00100000  1.0 -0.1418616409
C  C25  1  0.12950000  0.05410000  0.49500000  1.0 0.0191511714
C  C26  1  0.05410000  0.49500000  0.12950000  1.0 0.0191511714
C  C27  1  0.49500000  0.12950000  0.05410000  1.0 0.0191511714
C  C28  1  0.87050000  0.94590000  0.50500000  1.0 0.0191511714
C  C29  1  0.94590000  0.50500000  0.87050000  1.0 0.0191511714
C  C30  1  0.50500000  0.87050000  0.94590000  1.0 0.0191511714
C  C31  1  0.06330000  0.05730000  0.49610000  1.0 -0.0178833701
C  C32  1  0.05730000  0.49610000  0.06330000  1.0 -0.0178833701
C  C33  1  0.49610000  0.06330000  0.05730000  1.0 -0.0178833701
C  C34  1  0.93670000  0.94270000  0.50390000  1.0 -0.0075188675
C  C35  1  0.94270000  0.50390000  0.93670000  1.0 -0.0178833701
C  C36  1  0.50390000  0.93670000  0.94270000  1.0 -0.0178833701
C  C37  1  0.03240000  0.00020000  0.49880000  1.0 0.0383054418
C  C38  1  0.00020000  0.49880000  0.03240000  1.0 0.0383054418
C  C39  1  0.49880000  0.03240000  0.00020000  1.0 0.0383054418
C  C40  1  0.96760000  0.99980000  0.50120000  1.0 0.0383054418
C  C41  1  0.99980000  0.50120000  0.96760000  1.0 0.0383054418
C  C42  1  0.50120000  0.96760000  0.99980000  1.0 0.0383054418
C  C43  1  0.06530000  0.94190000  0.50650000  1.0 -0.0075188675
C  C44  1  0.94190000  0.50650000  0.06530000  1.0 -0.0029775644
C  C45  1  0.50650000  0.06530000  0.94190000  1.0 -0.0075188675
C  C46  1  0.93470000  0.05810000  0.49350000  1.0 -0.0075188675
C  C47  1  0.05810000  0.49350000  0.93470000  1.0 -0.0075188675
C  C48  1  0.49350000  0.93470000  0.05810000  1.0 -0.0029775644
C  C49  1  0.03050000  0.88910000  0.51240000  1.0 -0.0382621863
C  C50  1  0.88910000  0.51240000  0.03050000  1.0 -0.0382621863
C  C51  1  0.51240000  0.03050000  0.88910000  1.0 -0.0382621863
C  C52  1  0.96950000  0.11090000  0.48760000  1.0 -0.0382621863
C  C53  1  0.11090000  0.48760000  0.96950000  1.0 -0.0382621863
C  C54  1  0.48760000  0.96950000  0.11090000  1.0 -0.0382621863
C  C55  1  0.96890000  0.88770000  0.51270000  1.0 -0.0382621863
C  C56  1  0.88770000  0.51270000  0.96890000  1.0 -0.0382621863
C  C57  1  0.51270000  0.96890000  0.88770000  1.0 -0.0382621863
C  C58  1  0.03110000  0.11230000  0.48730000  1.0 -0.0382621863
C  C59  1  0.11230000  0.48730000  0.03110000  1.0 -0.0382621863
C  C60  1  0.48730000  0.03110000  0.11230000  1.0 -0.0382621863
C  C61  1  0.16240000  0.10980000  0.49820000  1.0 -0.1311764491
C  C62  1  0.10980000  0.49820000  0.16240000  1.0 -0.1311764491
C  C63  1  0.49820000  0.16240000  0.10980000  1.0 -0.1311764491
C  C64  1  0.83760000  0.89020000  0.50180000  1.0 -0.1311764491
C  C65  1  0.89020000  0.50180000  0.83760000  1.0 -0.1311764491
C  C66  1  0.50180000  0.83760000  0.89020000  1.0 -0.1311764491
C  C67  1  0.19410000  0.15560000  0.50190000  1.0 -0.1092190044
C  C68  1  0.15560000  0.50190000  0.19410000  1.0 -0.1092190044
C  C69  1  0.50190000  0.19410000  0.15560000  1.0 -0.1092190044
C  C70  1  0.80590000  0.84440000  0.49810000  1.0 -0.0990008088
C  C71  1  0.84440000  0.49810000  0.80590000  1.0 -0.0990008088
C  C72  1  0.49810000  0.80590000  0.84440000  1.0 -0.0990008088
C  C73  1  0.23530000  0.20410000  0.50190000  1.0 0.0283299638
C  C74  1  0.20410000  0.50190000  0.23530000  1.0 0.0283299638
C  C75  1  0.50190000  0.23530000  0.20410000  1.0 0.0283299638
C  C76  1  0.76470000  0.79590000  0.49810000  1.0 0.0283299638
C  C77  1  0.79590000  0.49810000  0.76470000  1.0 0.0283299638
C  C78  1  0.49810000  0.76470000  0.79590000  1.0 0.0283299638
C  C79  1  0.21590000  0.26310000  0.49540000  1.0 0.0126208266
C  C80  1  0.26310000  0.49540000  0.21590000  1.0 0.0126208266
C  C81  1  0.49540000  0.21590000  0.26310000  1.0 0.0126208266
C  C82  1  0.78410000  0.73690000  0.50460000  1.0 0.0126208266
C  C83  1  0.73690000  0.50460000  0.78410000  1.0 0.0126208266
C  C84  1  0.50460000  0.78410000  0.73690000  1.0 0.0126208266
C  C85  1  0.25700000  0.31060000  0.49810000  1.0 -0.0075188675
C  C86  1  0.31060000  0.49810000  0.25700000  1.0 -0.0075188675
C  C87  1  0.49810000  0.25700000  0.31060000  1.0 -0.0075188675
C  C88  1  0.74300000  0.68940000  0.50190000  1.0 -0.0075188675
C  C89  1  0.68940000  0.50190000  0.74300000  1.0 -0.0075188675
C  C90  1  0.50190000  0.74300000  0.68940000  1.0 -0.0075188675
C  C91  1  0.31840000  0.29760000  0.49880000  1.0 0.0191511714
C  C92  1  0.29760000  0.49880000  0.31840000  1.0 0.0191511714
C  C93  1  0.49880000  0.31840000  0.29760000  1.0 0.0191511714
C  C94  1  0.68160000  0.70240000  0.50120000  1.0 0.0191511714
C  C95  1  0.70240000  0.50120000  0.68160000  1.0 0.0191511714
C  C96  1  0.50120000  0.68160000  0.70240000  1.0 0.0191511714
C  C97  1  0.34230000  0.23940000  0.49790000  1.0 -0.0788851121
C  C98  1  0.23940000  0.49790000  0.34230000  1.0 -0.0788851121
C  C99  1  0.49790000  0.34230000  0.23940000  1.0 -0.0788851121
C  C100  1  0.65770000  0.76060000  0.50210000  1.0 -0.0788851121
C  C101  1  0.76060000  0.50210000  0.65770000  1.0 -0.0788851121
C  C102  1  0.50210000  0.65770000  0.76060000  1.0 -0.0788851121
C  C103  1  0.29780000  0.19230000  0.50100000  1.0 -0.0900149349
C  C104  1  0.19230000  0.50100000  0.29780000  1.0 -0.0900149349
C  C105  1  0.50100000  0.29780000  0.19230000  1.0 -0.0900149349
C  C106  1  0.70220000  0.80770000  0.49900000  1.0 -0.0900149349
C  C107  1  0.80770000  0.49900000  0.70220000  1.0 -0.0900149349
C  C108  1  0.49900000  0.70220000  0.80770000  1.0 -0.0900149349
C  C109  1  0.16540000  0.89150000  0.49930000  1.0 -0.1418616409
C  C110  1  0.89150000  0.49930000  0.16540000  1.0 -0.1418616409
C  C111  1  0.49930000  0.16540000  0.89150000  1.0 -0.1418616409
C  C112  1  0.83460000  0.10850000  0.50070000  1.0 -0.1418616409
C  C113  1  0.10850000  0.50070000  0.83460000  1.0 -0.1418616409
C  C114  1  0.50070000  0.83460000  0.10850000  1.0 -0.1418616409
C  C115  1  0.19450000  0.84640000  0.50070000  1.0 -0.1167604697
C  C116  1  0.84640000  0.50070000  0.19450000  1.0 -0.1167604697
C  C117  1  0.50070000  0.19450000  0.84640000  1.0 -0.1167604697
C  C118  1  0.80550000  0.15360000  0.49930000  1.0 -0.1167604697
C  C119  1  0.15360000  0.49930000  0.80550000  1.0 -0.1167604697
C  C120  1  0.49930000  0.80550000  0.15360000  1.0 -0.1167604697
C  C121  1  0.31980000  0.70260000  0.50110000  1.0 -0.0075188675
C  C122  1  0.70260000  0.50110000  0.31980000  1.0 -0.0075188675
C  C123  1  0.50110000  0.31980000  0.70260000  1.0 -0.0075188675
C  C124  1  0.68020000  0.29740000  0.49890000  1.0 -0.0075188675
C  C125  1  0.29740000  0.49890000  0.68020000  1.0 -0.0075188675
C  C126  1  0.49890000  0.68020000  0.29740000  1.0 -0.0075188675
C  C127  1  0.25940000  0.69030000  0.50130000  1.0 0.0035619388
C  C128  1  0.69030000  0.50130000  0.25940000  1.0 0.0035619388
C  C129  1  0.50130000  0.25940000  0.69030000  1.0 0.0035619388
C  C130  1  0.74060000  0.30970000  0.49870000  1.0 0.0035619388
C  C131  1  0.30970000  0.49870000  0.74060000  1.0 0.0035619388
C  C132  1  0.49870000  0.74060000  0.30970000  1.0 0.0035619388
C  C133  1  0.21840000  0.73860000  0.49970000  1.0 0.0126208266
C  C134  1  0.73860000  0.49970000  0.21840000  1.0 0.0126208266
C  C135  1  0.49970000  0.21840000  0.73860000  1.0 0.0126208266
C  C136  1  0.78160000  0.26140000  0.50030000  1.0 0.0126208266
C  C137  1  0.26140000  0.50030000  0.78160000  1.0 0.0126208266
C  C138  1  0.50030000  0.78160000  0.26140000  1.0 0.0126208266
C  C139  1  0.23910000  0.79590000  0.50290000  1.0 0.0191511714
C  C140  1  0.79590000  0.50290000  0.23910000  1.0 0.0191511714
C  C141  1  0.50290000  0.23910000  0.79590000  1.0 0.0191511714
C  C142  1  0.76090000  0.20410000  0.49710000  1.0 0.0191511714
C  C143  1  0.20410000  0.49710000  0.76090000  1.0 0.0191511714
C  C144  1  0.49710000  0.76090000  0.20410000  1.0 0.0191511714
C  C145  1  0.30020000  0.80690000  0.50140000  1.0 -0.0990008088
C  C146  1  0.80690000  0.50140000  0.30020000  1.0 -0.0990008088
C  C147  1  0.50140000  0.30020000  0.80690000  1.0 -0.0990008088
C  C148  1  0.69980000  0.19310000  0.49860000  1.0 -0.0990008088
C  C149  1  0.19310000  0.49860000  0.69980000  1.0 -0.0990008088
C  C150  1  0.49860000  0.69980000  0.19310000  1.0 -0.0990008088
C  C151  1  0.34130000  0.75910000  0.50040000  1.0 -0.0788851121
C  C152  1  0.75910000  0.50040000  0.34130000  1.0 -0.0788851121
C  C153  1  0.50040000  0.34130000  0.75910000  1.0 -0.0788851121
C  C154  1  0.65870000  0.24090000  0.49960000  1.0 -0.0788851121
C  C155  1  0.24090000  0.49960000  0.65870000  1.0 -0.0900149349
C  C156  1  0.49960000  0.65870000  0.24090000  1.0 -0.0788851121
C  C157  1  0.88860000  0.16500000  0.50140000  1.0 -0.0990008088
C  C158  1  0.16500000  0.50140000  0.88860000  1.0 -0.0990008088
C  C159  1  0.50140000  0.88860000  0.16500000  1.0 -0.0990008088
C  C160  1  0.11140000  0.83500000  0.49860000  1.0 -0.0990008088
C  C161  1  0.83500000  0.49860000  0.11140000  1.0 -0.0990008088
C  C162  1  0.49860000  0.11140000  0.83500000  1.0 -0.0990008088
C  C163  1  0.84480000  0.19570000  0.50170000  1.0 -0.1092190044
C  C164  1  0.19570000  0.50170000  0.84480000  1.0 -0.1092190044
C  C165  1  0.50170000  0.84480000  0.19570000  1.0 -0.1092190044
C  C166  1  0.15520000  0.80430000  0.49830000  1.0 -0.1092190044
C  C167  1  0.80430000  0.49830000  0.15520000  1.0 -0.1092190044
C  C168  1  0.49830000  0.15520000  0.80430000  1.0 -0.1092190044
C  C169  1  0.10970000  0.16430000  0.50090000  1.0 -0.1167604697
C  C170  1  0.16430000  0.50090000  0.10970000  1.0 -0.1167604697
C  C171  1  0.50090000  0.10970000  0.16430000  1.0 -0.1167604697
C  C172  1  0.89030000  0.83570000  0.49910000  1.0 -0.1167604697
C  C173  1  0.83570000  0.49910000  0.89030000  1.0 -0.1167604697
C  C174  1  0.49910000  0.89030000  0.83570000  1.0 -0.1167604697
C  C175  1  0.15570000  0.19450000  0.50100000  1.0 -0.1092190044
C  C176  1  0.19450000  0.50100000  0.15570000  1.0 -0.1092190044
C  C177  1  0.50100000  0.15570000  0.19450000  1.0 -0.1092190044
C  C178  1  0.84430000  0.80550000  0.49900000  1.0 -0.0990008088
C  C179  1  0.80550000  0.49900000  0.84430000  1.0 -0.0990008088
C  C180  1  0.49900000  0.84430000  0.80550000  1.0 -0.0990008088
C  C181  1  0.20430000  0.23730000  0.50140000  1.0 0.0126208266
C  C182  1  0.23730000  0.50140000  0.20430000  1.0 0.0126208266
C  C183  1  0.50140000  0.20430000  0.23730000  1.0 0.0126208266
C  C184  1  0.79570000  0.76270000  0.49860000  1.0 0.0126208266
C  C185  1  0.76270000  0.49860000  0.79570000  1.0 0.0126208266
C  C186  1  0.49860000  0.79570000  0.76270000  1.0 0.0126208266
C  C187  1  0.29940000  0.31850000  0.50020000  1.0 0.0126208266
C  C188  1  0.31850000  0.50020000  0.29940000  1.0 0.0126208266
C  C189  1  0.50020000  0.29940000  0.31850000  1.0 0.0126208266
C  C190  1  0.70060000  0.68150000  0.49980000  1.0 0.0126208266
C  C191  1  0.68150000  0.49980000  0.70060000  1.0 0.0126208266
C  C192  1  0.49980000  0.70060000  0.68150000  1.0 0.0126208266
C  C193  1  0.24070000  0.34080000  0.50190000  1.0 -0.0788851121
C  C194  1  0.34080000  0.50190000  0.24070000  1.0 -0.0788851121
C  C195  1  0.50190000  0.24070000  0.34080000  1.0 -0.0788851121
C  C196  1  0.75930000  0.65920000  0.49810000  1.0 -0.0788851121
C  C197  1  0.65920000  0.49810000  0.75930000  1.0 -0.0788851121
C  C198  1  0.49810000  0.75930000  0.65920000  1.0 -0.0788851121
C  C199  1  0.19350000  0.29760000  0.50140000  1.0 -0.0900149349
C  C200  1  0.29760000  0.50140000  0.19350000  1.0 -0.0900149349
C  C201  1  0.50140000  0.19350000  0.29760000  1.0 -0.0900149349
C  C202  1  0.80650000  0.70240000  0.49860000  1.0 -0.0900149349
C  C203  1  0.70240000  0.49860000  0.80650000  1.0 -0.0900149349
C  C204  1  0.49860000  0.80650000  0.70240000  1.0 -0.0900149349
C  C205  1  0.26170000  0.21680000  0.49800000  1.0 0.0035619388
C  C206  1  0.21680000  0.49800000  0.26170000  1.0 0.0035619388
C  C207  1  0.49800000  0.26170000  0.21680000  1.0 0.0035619388
C  C208  1  0.73830000  0.78320000  0.50200000  1.0 0.0035619388
C  C209  1  0.78320000  0.50200000  0.73830000  1.0 0.0035619388
C  C210  1  0.50200000  0.73830000  0.78320000  1.0 0.0035619388
C  C211  1  0.31110000  0.25600000  0.49920000  1.0 -0.0075188675
C  C212  1  0.25600000  0.49920000  0.31110000  1.0 -0.0075188675
C  C213  1  0.49920000  0.31110000  0.25600000  1.0 -0.0075188675
C  C214  1  0.68890000  0.74400000  0.50080000  1.0 -0.0075188675
C  C215  1  0.74400000  0.50080000  0.68890000  1.0 -0.0075188675
C  C216  1  0.50080000  0.68890000  0.74400000  1.0 -0.0075188675
C  C217  1  0.79390000  0.23640000  0.50090000  1.0 0.0126208266
C  C218  1  0.23640000  0.50090000  0.79390000  1.0 0.0126208266
C  C219  1  0.50090000  0.79390000  0.23640000  1.0 0.0126208266
C  C220  1  0.20610000  0.76360000  0.49910000  1.0 0.0191511714
C  C221  1  0.76360000  0.49910000  0.20610000  1.0 0.0191511714
C  C222  1  0.49910000  0.20610000  0.76360000  1.0 0.0191511714
C  C223  1  0.73630000  0.21770000  0.50170000  1.0 0.0035619388
C  C224  1  0.21770000  0.50170000  0.73630000  1.0 0.0035619388
C  C225  1  0.50170000  0.73630000  0.21770000  1.0 0.0035619388
C  C226  1  0.26370000  0.78230000  0.49830000  1.0 0.0035619388
C  C227  1  0.78230000  0.49830000  0.26370000  1.0 0.0035619388
C  C228  1  0.49830000  0.26370000  0.78230000  1.0 0.0035619388
C  C229  1  0.68850000  0.25730000  0.49710000  1.0 -0.0029775644
C  C230  1  0.25730000  0.49710000  0.68850000  1.0 -0.0029775644
C  C231  1  0.49710000  0.68850000  0.25730000  1.0 -0.0029775644
C  C232  1  0.31150000  0.74270000  0.50290000  1.0 -0.0029775644
C  C233  1  0.74270000  0.50290000  0.31150000  1.0 -0.0029775644
C  C234  1  0.50290000  0.31150000  0.74270000  1.0 -0.0029775644
C  C235  1  0.69930000  0.31790000  0.49990000  1.0 0.0126208266
C  C236  1  0.31790000  0.49990000  0.69930000  1.0 0.0126208266
C  C237  1  0.49990000  0.69930000  0.31790000  1.0 0.0126208266
C  C238  1  0.30070000  0.68210000  0.50010000  1.0 0.0126208266
C  C239  1  0.68210000  0.50010000  0.30070000  1.0 0.0126208266
C  C240  1  0.50010000  0.30070000  0.68210000  1.0 0.0126208266
C  C241  1  0.75980000  0.33950000  0.50000000  1.0 -0.0639786506
C  C242  1  0.33950000  0.50000000  0.75980000  1.0 -0.0662778328
C  C243  1  0.50000000  0.75980000  0.33950000  1.0 -0.0662778328
C  C244  1  0.24020000  0.66050000  0.50000000  1.0 -0.0662778328
C  C245  1  0.66050000  0.50000000  0.24020000  1.0 -0.0662778328
C  C246  1  0.50000000  0.24020000  0.66050000  1.0 -0.0662778328
C  C247  1  0.80720000  0.29740000  0.49970000  1.0 -0.0900149349
C  C248  1  0.29740000  0.49970000  0.80720000  1.0 -0.0900149349
C  C249  1  0.49970000  0.80720000  0.29740000  1.0 -0.0900149349
C  C250  1  0.19280000  0.70260000  0.50030000  1.0 -0.0900149349
C  C251  1  0.70260000  0.50030000  0.19280000  1.0 -0.0900149349
C  C252  1  0.50030000  0.19280000  0.70260000  1.0 -0.0900149349
C  C253  1  0.05540000  0.12980000  0.50310000  1.0 -0.0029775644
C  C254  1  0.12980000  0.50310000  0.05540000  1.0 -0.0029775644
C  C255  1  0.50310000  0.05540000  0.12980000  1.0 -0.0029775644
C  C256  1  0.94460000  0.87020000  0.49690000  1.0 0.0035619388
C  C257  1  0.87020000  0.49690000  0.94460000  1.0 0.0035619388
C  C258  1  0.49690000  0.94460000  0.87020000  1.0 0.0035619388
C  C259  1  0.00120000  0.15920000  0.49860000  1.0 -0.1467731145
C  C260  1  0.15920000  0.49860000  0.00120000  1.0 -0.1467731145
C  C261  1  0.49860000  0.00120000  0.15920000  1.0 -0.1467731145
C  C262  1  0.99880000  0.84080000  0.50140000  1.0 -0.1467731145
C  C263  1  0.84080000  0.50140000  0.99880000  1.0 -0.1467731145
C  C264  1  0.50140000  0.99880000  0.84080000  1.0 -0.1467731145
C  C265  1  0.94760000  0.12850000  0.50010000  1.0 0.0191511714
C  C266  1  0.12850000  0.50010000  0.94760000  1.0 0.0191511714
C  C267  1  0.50010000  0.94760000  0.12850000  1.0 0.0191511714
C  C268  1  0.05240000  0.87150000  0.49990000  1.0 0.0126208266
C  C269  1  0.87150000  0.49990000  0.05240000  1.0 0.0191511714
C  C270  1  0.49990000  0.05240000  0.87150000  1.0 0.0126208266
C  C271  1  0.94450000  0.06160000  0.50190000  1.0 -0.0313629669
C  C272  1  0.06160000  0.50190000  0.94450000  1.0 -0.0313629669
C  C273  1  0.50190000  0.94450000  0.06160000  1.0 -0.0313629669
C  C274  1  0.05550000  0.93840000  0.49810000  1.0 -0.0313629669
C  C275  1  0.93840000  0.49810000  0.05550000  1.0 -0.0313629669
C  C276  1  0.49810000  0.05550000  0.93840000  1.0 -0.0313629669
C  C277  1  0.00040000  0.03240000  0.50020000  1.0 0.0383054418
C  C278  1  0.03240000  0.50020000  0.00040000  1.0 0.0383054418
C  C279  1  0.50020000  0.00040000  0.03240000  1.0 0.0383054418
C  C280  1  0.99960000  0.96760000  0.49980000  1.0 0.0383054418
C  C281  1  0.96760000  0.49980000  0.99960000  1.0 0.0383054418
C  C282  1  0.49980000  0.99960000  0.96760000  1.0 0.0383054418
C  C283  1  0.05580000  0.06170000  0.50340000  1.0 -0.0178833701
C  C284  1  0.06170000  0.50340000  0.05580000  1.0 -0.0178833701
C  C285  1  0.50340000  0.05580000  0.06170000  1.0 -0.0178833701
C  C286  1  0.94420000  0.93830000  0.49660000  1.0 -0.0178833701
C  C287  1  0.93830000  0.49660000  0.94420000  1.0 -0.0178833701
C  C288  1  0.49660000  0.94420000  0.93830000  1.0 -0.0178833701
C  C289  1  0.11160000  0.96910000  0.49850000  1.0 -0.0313629669
C  C290  1  0.96910000  0.49850000  0.11160000  1.0 -0.0313629669
C  C291  1  0.49850000  0.11160000  0.96910000  1.0 -0.0313629669
C  C292  1  0.88840000  0.03090000  0.50150000  1.0 -0.0313629669
C  C293  1  0.03090000  0.50150000  0.88840000  1.0 -0.0313629669
C  C294  1  0.50150000  0.88840000  0.03090000  1.0 -0.0313629669
C  C295  1  0.11230000  0.03020000  0.50190000  1.0 -0.0313629669
C  C296  1  0.03020000  0.50190000  0.11230000  1.0 -0.0313629669
C  C297  1  0.50190000  0.11230000  0.03020000  1.0 -0.0313629669
C  C298  1  0.88770000  0.96980000  0.49810000  1.0 -0.0313629669
C  C299  1  0.96980000  0.49810000  0.88770000  1.0 -0.0313629669
C  C300  1  0.49810000  0.88770000  0.96980000  1.0 -0.0313629669
O  O1  1  0.44436000  0.44436000  0.44436000  1.0 -1.0254358696
O  O2  1  0.55564000  0.55564000  0.55564000  1.0 -1.0254358696
O  O3  1  0.55532000  0.44420000  0.44443000  1.0 -1.0238984274
O  O4  1  0.44420000  0.44443000  0.55532000  1.0 -1.0238984274
O  O5  1  0.44443000  0.55532000  0.44420000  1.0 -1.0238984274
O  O6  1  0.44468000  0.55580000  0.55557000  1.0 -1.0238984274
O  O7  1  0.55580000  0.55557000  0.44468000  1.0 -1.0238984274
O  O8  1  0.55557000  0.44468000  0.55580000  1.0 -1.0238984274
O  O9  1  0.33829000  0.58801000  0.50022000  1.0 -0.5101595916
O  O10  1  0.58801000  0.50022000  0.33829000  1.0 -0.5101595916
O  O11  1  0.50022000  0.33829000  0.58801000  1.0 -0.5101595916
O  O12  1  0.66171000  0.41199000  0.49978000  1.0 -0.5101595916
O  O13  1  0.41199000  0.49978000  0.66171000  1.0 -0.5101595916
O  O14  1  0.49978000  0.66171000  0.41199000  1.0 -0.5101595916
O  O15  1  0.33802000  0.41253000  0.49967000  1.0 -0.492177665
O  O16  1  0.41253000  0.49967000  0.33802000  1.0 -0.492177665
O  O17  1  0.49967000  0.33802000  0.41253000  1.0 -0.492177665
O  O18  1  0.66198000  0.58747000  0.50033000  1.0 -0.492177665
O  O19  1  0.58747000  0.50033000  0.66198000  1.0 -0.492177665
O  O20  1  0.50033000  0.66198000  0.58747000  1.0 -0.492177665
O  O21  1  0.41211000  0.66172000  0.50004000  1.0 -0.492177665
O  O22  1  0.66172000  0.50004000  0.41211000  1.0 -0.492177665
O  O23  1  0.50004000  0.41211000  0.66172000  1.0 -0.492177665
O  O24  1  0.58789000  0.33828000  0.49996000  1.0 -0.492177665
O  O25  1  0.33828000  0.49996000  0.58789000  1.0 -0.492177665
O  O26  1  0.49996000  0.58789000  0.33828000  1.0 -0.492177665
O  O27  1  0.41221000  0.33828000  0.49994000  1.0 -0.5101595916
O  O28  1  0.33828000  0.49994000  0.41221000  1.0 -0.5101595916
O  O29  1  0.49994000  0.41221000  0.33828000  1.0 -0.5101595916
O  O30  1  0.58779000  0.66172000  0.50006000  1.0 -0.5101595916
O  O31  1  0.66172000  0.50006000  0.58779000  1.0 -0.5101595916
O  O32  1  0.50006000  0.58779000  0.66172000  1.0 -0.5101595916
