# DDEC6 charges by PACMAN v1.1 (https://github.com/mtap-research/PACMAN-charge/)
data_MUDTEL_ASR_pacman
_symmetry_space_group_name_H-M   'P 1'
_cell_length_a   30.28750000
_cell_length_b   30.28750000
_cell_length_c   30.28750000
_cell_angle_alpha   60.00000000
_cell_angle_beta   60.00000000
_cell_angle_gamma   60.00000000
_symmetry_Int_Tables_number   1
_chemical_formula_structural   CuH4(C3O)4
_chemical_formula_sum   'Cu24 H96 C288 O96'
_cell_volume   19646.05174593
_cell_formula_units_Z   24
loop_
 _symmetry_equiv_pos_site_id
 _symmetry_equiv_pos_as_xyz
  1  'x, y, z'
loop_
 _atom_site_type_symbol
 _atom_site_label
 _atom_site_symmetry_multiplicity
 _atom_site_fract_x
 _atom_site_fract_y
 _atom_site_fract_z
 _atom_site_occupancy
 _atom_site_charge
Cu  Cu1  1  0.50000000  0.50000000  0.14962000  1.0 0.8715188279
Cu  Cu2  1  0.50000000  0.50000000  0.85038000  1.0 0.8715188279
Cu  Cu3  1  0.14962000  0.85038000  0.50000000  1.0 0.8715188279
Cu  Cu4  1  0.85038000  0.14962000  0.50000000  1.0 0.8715188279
Cu  Cu5  1  0.14962000  0.50000000  0.50000000  1.0 0.8715188279
Cu  Cu6  1  0.85038000  0.50000000  0.50000000  1.0 0.8715188279
Cu  Cu7  1  0.50000000  0.14962000  0.85038000  1.0 0.8715188279
Cu  Cu8  1  0.50000000  0.85038000  0.14962000  1.0 0.8715188279
Cu  Cu9  1  0.50000000  0.14962000  0.50000000  1.0 0.8715188279
Cu  Cu10  1  0.50000000  0.85038000  0.50000000  1.0 0.8715188279
Cu  Cu11  1  0.85038000  0.50000000  0.14962000  1.0 0.8715188279
Cu  Cu12  1  0.14962000  0.50000000  0.85038000  1.0 0.8715188279
Cu  Cu13  1  0.50000000  0.50000000  0.23756000  1.0 0.8802610412
Cu  Cu14  1  0.50000000  0.50000000  0.76244000  1.0 0.8802610412
Cu  Cu15  1  0.23756000  0.76244000  0.50000000  1.0 0.8802610412
Cu  Cu16  1  0.76244000  0.23756000  0.50000000  1.0 0.8802610412
Cu  Cu17  1  0.23756000  0.50000000  0.50000000  1.0 0.8802610412
Cu  Cu18  1  0.76244000  0.50000000  0.50000000  1.0 0.8802610412
Cu  Cu19  1  0.50000000  0.23756000  0.76244000  1.0 0.8802610412
Cu  Cu20  1  0.50000000  0.76244000  0.23756000  1.0 0.8802610412
Cu  Cu21  1  0.50000000  0.23756000  0.50000000  1.0 0.8802610412
Cu  Cu22  1  0.50000000  0.76244000  0.50000000  1.0 0.8802610412
Cu  Cu23  1  0.76244000  0.50000000  0.23756000  1.0 0.8802610412
Cu  Cu24  1  0.23756000  0.50000000  0.76244000  1.0 0.8802610412
H  H1  1  0.66981000  0.46879000  0.05861000  1.0 0.1371610537
H  H2  1  0.46879000  0.66981000  0.80279000  1.0 0.1371610537
H  H3  1  0.05861000  0.80279000  0.66981000  1.0 0.1371610537
H  H4  1  0.80279000  0.05861000  0.46879000  1.0 0.1371610537
H  H5  1  0.05861000  0.66981000  0.46879000  1.0 0.1371610537
H  H6  1  0.80279000  0.46879000  0.66981000  1.0 0.1371610537
H  H7  1  0.66981000  0.05861000  0.80279000  1.0 0.1371610537
H  H8  1  0.46879000  0.80279000  0.05861000  1.0 0.1371610537
H  H9  1  0.46879000  0.05861000  0.66981000  1.0 0.1371610537
H  H10  1  0.66981000  0.80279000  0.46879000  1.0 0.1371610537
H  H11  1  0.80279000  0.66981000  0.05861000  1.0 0.1371610537
H  H12  1  0.05861000  0.46879000  0.80279000  1.0 0.1371610537
H  H13  1  0.33019000  0.53121000  0.19721000  1.0 0.1371610537
H  H14  1  0.53121000  0.33019000  0.94139000  1.0 0.1371610537
H  H15  1  0.94139000  0.19721000  0.53121000  1.0 0.1371610537
H  H16  1  0.19721000  0.94139000  0.33019000  1.0 0.1371610537
H  H17  1  0.94139000  0.33019000  0.19721000  1.0 0.1371610537
H  H18  1  0.19721000  0.53121000  0.94139000  1.0 0.1371610537
H  H19  1  0.33019000  0.94139000  0.53121000  1.0 0.1371610537
H  H20  1  0.53121000  0.19721000  0.33019000  1.0 0.1371610537
H  H21  1  0.53121000  0.94139000  0.19721000  1.0 0.1371610537
H  H22  1  0.33019000  0.19721000  0.94139000  1.0 0.1371610537
H  H23  1  0.19721000  0.33019000  0.53121000  1.0 0.1371610537
H  H24  1  0.94139000  0.53121000  0.33019000  1.0 0.1371610537
H  H25  1  0.33019000  0.53121000  0.94139000  1.0 0.1371610537
H  H26  1  0.53121000  0.33019000  0.19721000  1.0 0.1371610537
H  H27  1  0.94139000  0.19721000  0.33019000  1.0 0.1371610537
H  H28  1  0.19721000  0.94139000  0.53121000  1.0 0.1371610537
H  H29  1  0.94139000  0.33019000  0.53121000  1.0 0.1371610537
H  H30  1  0.19721000  0.53121000  0.33019000  1.0 0.1371610537
H  H31  1  0.33019000  0.94139000  0.19721000  1.0 0.1371610537
H  H32  1  0.53121000  0.19721000  0.94139000  1.0 0.1371610537
H  H33  1  0.53121000  0.94139000  0.33019000  1.0 0.1371610537
H  H34  1  0.33019000  0.19721000  0.53121000  1.0 0.1371610537
H  H35  1  0.19721000  0.33019000  0.94139000  1.0 0.1371610537
H  H36  1  0.94139000  0.53121000  0.19721000  1.0 0.1371610537
H  H37  1  0.66981000  0.46879000  0.80279000  1.0 0.1371610537
H  H38  1  0.46879000  0.66981000  0.05861000  1.0 0.1371610537
H  H39  1  0.05861000  0.80279000  0.46879000  1.0 0.1371610537
H  H40  1  0.80279000  0.05861000  0.66981000  1.0 0.1371610537
H  H41  1  0.05861000  0.66981000  0.80279000  1.0 0.1371610537
H  H42  1  0.80279000  0.46879000  0.05861000  1.0 0.1371610537
H  H43  1  0.66981000  0.05861000  0.46879000  1.0 0.1371610537
H  H44  1  0.46879000  0.80279000  0.66981000  1.0 0.1371610537
H  H45  1  0.46879000  0.05861000  0.80279000  1.0 0.1371610537
H  H46  1  0.66981000  0.80279000  0.05861000  1.0 0.1371610537
H  H47  1  0.80279000  0.66981000  0.46879000  1.0 0.1371610537
H  H48  1  0.05861000  0.46879000  0.66981000  1.0 0.1371610537
H  H49  1  0.66510000  0.48369000  0.18611000  1.0 0.1371610537
H  H50  1  0.48369000  0.66510000  0.66510000  1.0 0.1371610537
H  H51  1  0.18611000  0.66510000  0.66510000  1.0 0.1371610537
H  H52  1  0.66510000  0.18611000  0.48369000  1.0 0.1371610537
H  H53  1  0.18611000  0.66510000  0.48369000  1.0 0.1371610537
H  H54  1  0.66510000  0.48369000  0.66510000  1.0 0.1371610537
H  H55  1  0.66510000  0.18611000  0.66510000  1.0 0.1371610537
H  H56  1  0.48369000  0.66510000  0.18611000  1.0 0.1371610537
H  H57  1  0.48369000  0.18611000  0.66510000  1.0 0.1371610537
H  H58  1  0.66510000  0.66510000  0.48369000  1.0 0.1371610537
H  H59  1  0.66510000  0.66510000  0.18611000  1.0 0.1371610537
H  H60  1  0.18611000  0.48369000  0.66510000  1.0 0.1371610537
H  H61  1  0.33490000  0.51631000  0.33490000  1.0 0.1371610537
H  H62  1  0.51631000  0.33490000  0.81389000  1.0 0.1371610537
H  H63  1  0.81389000  0.33490000  0.51631000  1.0 0.1371610537
H  H64  1  0.33490000  0.81389000  0.33490000  1.0 0.1371610537
H  H65  1  0.81389000  0.33490000  0.33490000  1.0 0.1371610537
H  H66  1  0.33490000  0.51631000  0.81389000  1.0 0.1371610537
H  H67  1  0.33490000  0.81389000  0.51631000  1.0 0.1371610537
H  H68  1  0.51631000  0.33490000  0.33490000  1.0 0.1371610537
H  H69  1  0.51631000  0.81389000  0.33490000  1.0 0.1371610537
H  H70  1  0.33490000  0.33490000  0.81389000  1.0 0.1371610537
H  H71  1  0.33490000  0.33490000  0.51631000  1.0 0.1371610537
H  H72  1  0.81389000  0.51631000  0.33490000  1.0 0.1371610537
H  H73  1  0.89461000  0.44939000  0.89461000  1.0 0.1262597516
H  H74  1  0.44939000  0.89461000  0.76139000  1.0 0.1262597516
H  H75  1  0.89461000  0.76139000  0.89461000  1.0 0.1262597516
H  H76  1  0.76139000  0.89461000  0.44939000  1.0 0.1262597516
H  H77  1  0.89461000  0.89461000  0.44939000  1.0 0.1262597516
H  H78  1  0.76139000  0.44939000  0.89461000  1.0 0.1262597516
H  H79  1  0.89461000  0.89461000  0.76139000  1.0 0.1262597516
H  H80  1  0.44939000  0.76139000  0.89461000  1.0 0.1262597516
H  H81  1  0.44939000  0.89461000  0.89461000  1.0 0.1262597516
H  H82  1  0.89461000  0.76139000  0.44939000  1.0 0.1262597516
H  H83  1  0.76139000  0.89461000  0.89461000  1.0 0.1262597516
H  H84  1  0.89461000  0.44939000  0.76139000  1.0 0.1262597516
H  H85  1  0.10539000  0.55061000  0.23861000  1.0 0.1262597516
H  H86  1  0.55061000  0.10539000  0.10539000  1.0 0.1262597516
H  H87  1  0.10539000  0.23861000  0.55061000  1.0 0.1262597516
H  H88  1  0.23861000  0.10539000  0.10539000  1.0 0.1262597516
H  H89  1  0.10539000  0.10539000  0.23861000  1.0 0.1262597516
H  H90  1  0.23861000  0.55061000  0.10539000  1.0 0.1262597516
H  H91  1  0.10539000  0.10539000  0.55061000  1.0 0.1262597516
H  H92  1  0.55061000  0.23861000  0.10539000  1.0 0.1262597516
H  H93  1  0.55061000  0.10539000  0.23861000  1.0 0.1262597516
H  H94  1  0.10539000  0.23861000  0.10539000  1.0 0.1262597516
H  H95  1  0.23861000  0.10539000  0.55061000  1.0 0.1262597516
H  H96  1  0.10539000  0.55061000  0.10539000  1.0 0.1262597516
C  C1  1  0.60025000  0.48413000  0.15161000  1.0 0.5845015396
C  C2  1  0.48413000  0.60025000  0.76401000  1.0 0.5845015396
C  C3  1  0.15161000  0.76401000  0.60025000  1.0 0.5845015396
C  C4  1  0.76401000  0.15161000  0.48413000  1.0 0.5845015396
C  C5  1  0.15161000  0.60025000  0.48413000  1.0 0.5845015396
C  C6  1  0.76401000  0.48413000  0.60025000  1.0 0.5845015396
C  C7  1  0.60025000  0.15161000  0.76401000  1.0 0.5845015396
C  C8  1  0.48413000  0.76401000  0.15161000  1.0 0.5845015396
C  C9  1  0.48413000  0.15161000  0.60025000  1.0 0.5845015396
C  C10  1  0.60025000  0.76401000  0.48413000  1.0 0.5845015396
C  C11  1  0.76401000  0.60025000  0.15161000  1.0 0.5845015396
C  C12  1  0.15161000  0.48413000  0.76401000  1.0 0.5845015396
C  C13  1  0.39975000  0.51587000  0.23599000  1.0 0.5845015396
C  C14  1  0.51587000  0.39975000  0.84839000  1.0 0.5845015396
C  C15  1  0.84839000  0.23599000  0.51587000  1.0 0.5845015396
C  C16  1  0.23599000  0.84839000  0.39975000  1.0 0.5845015396
C  C17  1  0.84839000  0.39975000  0.23599000  1.0 0.5845015396
C  C18  1  0.23599000  0.51587000  0.84839000  1.0 0.5845015396
C  C19  1  0.39975000  0.84839000  0.51587000  1.0 0.5845015396
C  C20  1  0.51587000  0.23599000  0.39975000  1.0 0.5845015396
C  C21  1  0.51587000  0.84839000  0.23599000  1.0 0.5845015396
C  C22  1  0.39975000  0.23599000  0.84839000  1.0 0.5845015396
C  C23  1  0.23599000  0.39975000  0.51587000  1.0 0.5845015396
C  C24  1  0.84839000  0.51587000  0.39975000  1.0 0.5845015396
C  C25  1  0.39975000  0.51587000  0.84839000  1.0 0.5845015396
C  C26  1  0.51587000  0.39975000  0.23599000  1.0 0.5845015396
C  C27  1  0.84839000  0.23599000  0.39975000  1.0 0.5845015396
C  C28  1  0.23599000  0.84839000  0.51587000  1.0 0.5845015396
C  C29  1  0.84839000  0.39975000  0.51587000  1.0 0.5845015396
C  C30  1  0.23599000  0.51587000  0.39975000  1.0 0.5845015396
C  C31  1  0.39975000  0.84839000  0.23599000  1.0 0.5845015396
C  C32  1  0.51587000  0.23599000  0.84839000  1.0 0.5845015396
C  C33  1  0.51587000  0.84839000  0.39975000  1.0 0.5845015396
C  C34  1  0.39975000  0.23599000  0.51587000  1.0 0.5845015396
C  C35  1  0.23599000  0.39975000  0.84839000  1.0 0.5845015396
C  C36  1  0.84839000  0.51587000  0.23599000  1.0 0.5845015396
C  C37  1  0.60025000  0.48413000  0.76401000  1.0 0.5845015396
C  C38  1  0.48413000  0.60025000  0.15161000  1.0 0.5845015396
C  C39  1  0.15161000  0.76401000  0.48413000  1.0 0.5845015396
C  C40  1  0.76401000  0.15161000  0.60025000  1.0 0.5845015396
C  C41  1  0.15161000  0.60025000  0.76401000  1.0 0.5845015396
C  C42  1  0.76401000  0.48413000  0.15161000  1.0 0.5845015396
C  C43  1  0.60025000  0.15161000  0.48413000  1.0 0.5845015396
C  C44  1  0.48413000  0.76401000  0.60025000  1.0 0.5845015396
C  C45  1  0.48413000  0.15161000  0.76401000  1.0 0.5845015396
C  C46  1  0.60025000  0.76401000  0.15161000  1.0 0.5845015396
C  C47  1  0.76401000  0.60025000  0.48413000  1.0 0.5845015396
C  C48  1  0.15161000  0.48413000  0.60025000  1.0 0.5845015396
C  C49  1  0.65841000  0.47705000  0.12647000  1.0 -0.0386394532
C  C50  1  0.47705000  0.65841000  0.73807000  1.0 -0.0386394532
C  C51  1  0.12647000  0.73807000  0.65841000  1.0 -0.0386394532
C  C52  1  0.73807000  0.12647000  0.47705000  1.0 -0.0386394532
C  C53  1  0.12647000  0.65841000  0.47705000  1.0 -0.0386394532
C  C54  1  0.73807000  0.47705000  0.65841000  1.0 -0.0386394532
C  C55  1  0.65841000  0.12647000  0.73807000  1.0 -0.0386394532
C  C56  1  0.47705000  0.73807000  0.12647000  1.0 -0.0386394532
C  C57  1  0.47705000  0.12647000  0.65841000  1.0 -0.0386394532
C  C58  1  0.65841000  0.73807000  0.47705000  1.0 -0.0386394532
C  C59  1  0.73807000  0.65841000  0.12647000  1.0 -0.0386394532
C  C60  1  0.12647000  0.47705000  0.73807000  1.0 -0.0386394532
C  C61  1  0.34159000  0.52295000  0.26193000  1.0 -0.0386394532
C  C62  1  0.52295000  0.34159000  0.87353000  1.0 -0.0386394532
C  C63  1  0.87353000  0.26193000  0.52295000  1.0 -0.0386394532
C  C64  1  0.26193000  0.87353000  0.34159000  1.0 -0.0386394532
C  C65  1  0.87353000  0.34159000  0.26193000  1.0 -0.0386394532
C  C66  1  0.26193000  0.52295000  0.87353000  1.0 -0.0386394532
C  C67  1  0.34159000  0.87353000  0.52295000  1.0 -0.0386394532
C  C68  1  0.52295000  0.26193000  0.34159000  1.0 -0.0386394532
C  C69  1  0.52295000  0.87353000  0.26193000  1.0 -0.0386394532
C  C70  1  0.34159000  0.26193000  0.87353000  1.0 -0.0386394532
C  C71  1  0.26193000  0.34159000  0.52295000  1.0 -0.0386394532
C  C72  1  0.87353000  0.52295000  0.34159000  1.0 -0.0386394532
C  C73  1  0.34159000  0.52295000  0.87353000  1.0 -0.0386394532
C  C74  1  0.52295000  0.34159000  0.26193000  1.0 -0.0386394532
C  C75  1  0.87353000  0.26193000  0.34159000  1.0 -0.0386394532
C  C76  1  0.26193000  0.87353000  0.52295000  1.0 -0.0386394532
C  C77  1  0.87353000  0.34159000  0.52295000  1.0 -0.0386394532
C  C78  1  0.26193000  0.52295000  0.34159000  1.0 -0.0386394532
C  C79  1  0.34159000  0.87353000  0.26193000  1.0 -0.0386394532
C  C80  1  0.52295000  0.26193000  0.87353000  1.0 -0.0386394532
C  C81  1  0.52295000  0.87353000  0.34159000  1.0 -0.0386394532
C  C82  1  0.34159000  0.26193000  0.52295000  1.0 -0.0386394532
C  C83  1  0.26193000  0.34159000  0.87353000  1.0 -0.0386394532
C  C84  1  0.87353000  0.52295000  0.26193000  1.0 -0.0386394532
C  C85  1  0.65841000  0.47705000  0.73807000  1.0 -0.0386394532
C  C86  1  0.47705000  0.65841000  0.12647000  1.0 -0.0386394532
C  C87  1  0.12647000  0.73807000  0.47705000  1.0 -0.0386394532
C  C88  1  0.73807000  0.12647000  0.65841000  1.0 -0.0386394532
C  C89  1  0.12647000  0.65841000  0.73807000  1.0 -0.0386394532
C  C90  1  0.73807000  0.47705000  0.12647000  1.0 -0.0386394532
C  C91  1  0.65841000  0.12647000  0.47705000  1.0 -0.0386394532
C  C92  1  0.47705000  0.73807000  0.65841000  1.0 -0.0386394532
C  C93  1  0.47705000  0.12647000  0.73807000  1.0 -0.0386394532
C  C94  1  0.65841000  0.73807000  0.12647000  1.0 -0.0386394532
C  C95  1  0.73807000  0.65841000  0.47705000  1.0 -0.0386394532
C  C96  1  0.12647000  0.47705000  0.65841000  1.0 -0.0386394532
C  C97  1  0.68728000  0.47038000  0.07622000  1.0 -0.1200273639
C  C98  1  0.47038000  0.68728000  0.76612000  1.0 -0.1200273639
C  C99  1  0.07622000  0.76612000  0.68728000  1.0 -0.1200273639
C  C100  1  0.76612000  0.07622000  0.47038000  1.0 -0.1200273639
C  C101  1  0.07622000  0.68728000  0.47038000  1.0 -0.1200273639
C  C102  1  0.76612000  0.47038000  0.68728000  1.0 -0.1200273639
C  C103  1  0.68728000  0.07622000  0.76612000  1.0 -0.1200273639
C  C104  1  0.47038000  0.76612000  0.07622000  1.0 -0.1200273639
C  C105  1  0.47038000  0.07622000  0.68728000  1.0 -0.1200273639
C  C106  1  0.68728000  0.76612000  0.47038000  1.0 -0.1200273639
C  C107  1  0.76612000  0.68728000  0.07622000  1.0 -0.1200273639
C  C108  1  0.07622000  0.47038000  0.76612000  1.0 -0.1200273639
C  C109  1  0.31272000  0.52962000  0.23388000  1.0 -0.1200273639
C  C110  1  0.52962000  0.31272000  0.92378000  1.0 -0.1200273639
C  C111  1  0.92378000  0.23388000  0.52962000  1.0 -0.1200273639
C  C112  1  0.23388000  0.92378000  0.31272000  1.0 -0.1200273639
C  C113  1  0.92378000  0.31272000  0.23388000  1.0 -0.1200273639
C  C114  1  0.23388000  0.52962000  0.92378000  1.0 -0.1200273639
C  C115  1  0.31272000  0.92378000  0.52962000  1.0 -0.1200273639
C  C116  1  0.52962000  0.23388000  0.31272000  1.0 -0.1200273639
C  C117  1  0.52962000  0.92378000  0.23388000  1.0 -0.1200273639
C  C118  1  0.31272000  0.23388000  0.92378000  1.0 -0.1200273639
C  C119  1  0.23388000  0.31272000  0.52962000  1.0 -0.1200273639
C  C120  1  0.92378000  0.52962000  0.31272000  1.0 -0.1200273639
C  C121  1  0.31272000  0.52962000  0.92378000  1.0 -0.1200273639
C  C122  1  0.52962000  0.31272000  0.23388000  1.0 -0.1200273639
C  C123  1  0.92378000  0.23388000  0.31272000  1.0 -0.1200273639
C  C124  1  0.23388000  0.92378000  0.52962000  1.0 -0.1200273639
C  C125  1  0.92378000  0.31272000  0.52962000  1.0 -0.1200273639
C  C126  1  0.23388000  0.52962000  0.31272000  1.0 -0.1200273639
C  C127  1  0.31272000  0.92378000  0.23388000  1.0 -0.1200273639
C  C128  1  0.52962000  0.23388000  0.92378000  1.0 -0.1200273639
C  C129  1  0.52962000  0.92378000  0.31272000  1.0 -0.1200273639
C  C130  1  0.31272000  0.23388000  0.52962000  1.0 -0.1200273639
C  C131  1  0.23388000  0.31272000  0.92378000  1.0 -0.1200273639
C  C132  1  0.92378000  0.52962000  0.23388000  1.0 -0.1200273639
C  C133  1  0.68728000  0.47038000  0.76612000  1.0 -0.1200273639
C  C134  1  0.47038000  0.68728000  0.07622000  1.0 -0.1200273639
C  C135  1  0.07622000  0.76612000  0.47038000  1.0 -0.1200273639
C  C136  1  0.76612000  0.07622000  0.68728000  1.0 -0.1200273639
C  C137  1  0.07622000  0.68728000  0.76612000  1.0 -0.1200273639
C  C138  1  0.76612000  0.47038000  0.07622000  1.0 -0.1200273639
C  C139  1  0.68728000  0.07622000  0.47038000  1.0 -0.1200273639
C  C140  1  0.47038000  0.76612000  0.68728000  1.0 -0.1200273639
C  C141  1  0.47038000  0.07622000  0.76612000  1.0 -0.1200273639
C  C142  1  0.68728000  0.76612000  0.07622000  1.0 -0.1200273639
C  C143  1  0.76612000  0.68728000  0.47038000  1.0 -0.1200273639
C  C144  1  0.07622000  0.47038000  0.68728000  1.0 -0.1200273639
C  C145  1  0.74130000  0.46605000  0.05135000  1.0 0.1107966416
C  C146  1  0.46605000  0.74130000  0.74130000  1.0 0.1107966416
C  C147  1  0.05135000  0.74130000  0.74130000  1.0 0.1107966416
C  C148  1  0.74130000  0.05135000  0.46605000  1.0 0.1107966416
C  C149  1  0.05135000  0.74130000  0.46605000  1.0 0.1107966416
C  C150  1  0.74130000  0.46605000  0.74130000  1.0 0.1107966416
C  C151  1  0.74130000  0.05135000  0.74130000  1.0 0.1107966416
C  C152  1  0.46605000  0.74130000  0.05135000  1.0 0.1107966416
C  C153  1  0.46605000  0.05135000  0.74130000  1.0 0.1107966416
C  C154  1  0.74130000  0.74130000  0.46605000  1.0 0.1107966416
C  C155  1  0.74130000  0.74130000  0.05135000  1.0 0.1107966416
C  C156  1  0.05135000  0.46605000  0.74130000  1.0 0.1107966416
C  C157  1  0.25870000  0.53395000  0.25870000  1.0 0.1107966416
C  C158  1  0.53395000  0.25870000  0.94865000  1.0 0.1107966416
C  C159  1  0.94865000  0.25870000  0.53395000  1.0 0.1107966416
C  C160  1  0.25870000  0.94865000  0.25870000  1.0 0.1107966416
C  C161  1  0.94865000  0.25870000  0.25870000  1.0 0.1107966416
C  C162  1  0.25870000  0.53395000  0.94865000  1.0 0.1107966416
C  C163  1  0.25870000  0.94865000  0.53395000  1.0 0.1107966416
C  C164  1  0.53395000  0.25870000  0.25870000  1.0 0.1107966416
C  C165  1  0.53395000  0.94865000  0.25870000  1.0 0.1107966416
C  C166  1  0.25870000  0.25870000  0.94865000  1.0 0.1107966416
C  C167  1  0.25870000  0.25870000  0.53395000  1.0 0.1107966416
C  C168  1  0.94865000  0.53395000  0.25870000  1.0 0.1107966416
C  C169  1  0.68439000  0.47982000  0.15140000  1.0 -0.0765287029
C  C170  1  0.47982000  0.68439000  0.68439000  1.0 -0.0765287029
C  C171  1  0.15140000  0.68439000  0.68439000  1.0 -0.0765287029
C  C172  1  0.68439000  0.15140000  0.47982000  1.0 -0.0765287029
C  C173  1  0.15140000  0.68439000  0.47982000  1.0 -0.0765287029
C  C174  1  0.68439000  0.47982000  0.68439000  1.0 -0.0765287029
C  C175  1  0.68439000  0.15140000  0.68439000  1.0 -0.0765287029
C  C176  1  0.47982000  0.68439000  0.15140000  1.0 -0.0765287029
C  C177  1  0.47982000  0.15140000  0.68439000  1.0 -0.0765287029
C  C178  1  0.68439000  0.68439000  0.47982000  1.0 -0.0765287029
C  C179  1  0.68439000  0.68439000  0.15140000  1.0 -0.0765287029
C  C180  1  0.15140000  0.47982000  0.68439000  1.0 -0.0765287029
C  C181  1  0.31561000  0.52018000  0.31561000  1.0 -0.0765287029
C  C182  1  0.52018000  0.31561000  0.84860000  1.0 -0.0765287029
C  C183  1  0.84860000  0.31561000  0.52018000  1.0 -0.0765287029
C  C184  1  0.31561000  0.84860000  0.31561000  1.0 -0.0765287029
C  C185  1  0.84860000  0.31561000  0.31561000  1.0 -0.0765287029
C  C186  1  0.31561000  0.52018000  0.84860000  1.0 -0.0765287029
C  C187  1  0.31561000  0.84860000  0.52018000  1.0 -0.0765287029
C  C188  1  0.52018000  0.31561000  0.31561000  1.0 -0.0765287029
C  C189  1  0.52018000  0.84860000  0.31561000  1.0 -0.0765287029
C  C190  1  0.31561000  0.31561000  0.84860000  1.0 -0.0765287029
C  C191  1  0.31561000  0.31561000  0.52018000  1.0 -0.0765287029
C  C192  1  0.84860000  0.52018000  0.31561000  1.0 -0.0765287029
C  C193  1  0.77210000  0.45689000  0.99891000  1.0 -0.0687325808
C  C194  1  0.45689000  0.77210000  0.77210000  1.0 -0.0687325808
C  C195  1  0.99891000  0.77210000  0.77210000  1.0 -0.0687325808
C  C196  1  0.77210000  0.99891000  0.45689000  1.0 -0.0687325808
C  C197  1  0.99891000  0.77210000  0.45689000  1.0 -0.0687325808
C  C198  1  0.77210000  0.45689000  0.77210000  1.0 -0.0687325808
C  C199  1  0.77210000  0.99891000  0.77210000  1.0 -0.0687325808
C  C200  1  0.45689000  0.77210000  0.99891000  1.0 -0.0687325808
C  C201  1  0.45689000  0.99891000  0.77210000  1.0 -0.0687325808
C  C202  1  0.77210000  0.77210000  0.45689000  1.0 -0.0687325808
C  C203  1  0.77210000  0.77210000  0.99891000  1.0 -0.0687325808
C  C204  1  0.99891000  0.45689000  0.77210000  1.0 -0.0687325808
C  C205  1  0.22790000  0.54311000  0.22790000  1.0 -0.0687325808
C  C206  1  0.54311000  0.22790000  0.00109000  1.0 -0.0687325808
C  C207  1  0.00109000  0.22790000  0.54311000  1.0 -0.0687325808
C  C208  1  0.22790000  0.00109000  0.22790000  1.0 -0.0687325808
C  C209  1  0.00109000  0.22790000  0.22790000  1.0 -0.0687325808
C  C210  1  0.22790000  0.54311000  0.00109000  1.0 -0.0687325808
C  C211  1  0.22790000  0.00109000  0.54311000  1.0 -0.0687325808
C  C212  1  0.54311000  0.22790000  0.22790000  1.0 -0.0687325808
C  C213  1  0.54311000  0.00109000  0.22790000  1.0 -0.0687325808
C  C214  1  0.22790000  0.22790000  0.00109000  1.0 -0.0687325808
C  C215  1  0.22790000  0.22790000  0.54311000  1.0 -0.0687325808
C  C216  1  0.00109000  0.54311000  0.22790000  1.0 -0.0687325808
C  C217  1  0.79460000  0.45519000  0.95561000  1.0 -0.0893043044
C  C218  1  0.45519000  0.79460000  0.79460000  1.0 -0.0893043044
C  C219  1  0.95561000  0.79460000  0.79460000  1.0 -0.0893043044
C  C220  1  0.79460000  0.95561000  0.45519000  1.0 -0.0893043044
C  C221  1  0.95561000  0.79460000  0.45519000  1.0 -0.0893043044
C  C222  1  0.79460000  0.45519000  0.79460000  1.0 -0.0893043044
C  C223  1  0.79460000  0.95561000  0.79460000  1.0 -0.0893043044
C  C224  1  0.45519000  0.79460000  0.95561000  1.0 -0.0893043044
C  C225  1  0.45519000  0.95561000  0.79460000  1.0 -0.0893043044
C  C226  1  0.79460000  0.79460000  0.45519000  1.0 -0.0893043044
C  C227  1  0.79460000  0.79460000  0.95561000  1.0 -0.0893043044
C  C228  1  0.95561000  0.45519000  0.79460000  1.0 -0.0893043044
C  C229  1  0.20540000  0.54481000  0.20540000  1.0 -0.0893043044
C  C230  1  0.54481000  0.20540000  0.04439000  1.0 -0.0893043044
C  C231  1  0.04439000  0.20540000  0.54481000  1.0 -0.0893043044
C  C232  1  0.20540000  0.04439000  0.20540000  1.0 -0.0893043044
C  C233  1  0.04439000  0.20540000  0.20540000  1.0 -0.0893043044
C  C234  1  0.20540000  0.54481000  0.04439000  1.0 -0.0893043044
C  C235  1  0.20540000  0.04439000  0.54481000  1.0 -0.0893043044
C  C236  1  0.54481000  0.20540000  0.20540000  1.0 -0.0893043044
C  C237  1  0.54481000  0.04439000  0.20540000  1.0 -0.0893043044
C  C238  1  0.20540000  0.20540000  0.04439000  1.0 -0.0893043044
C  C239  1  0.20540000  0.20540000  0.54481000  1.0 -0.0893043044
C  C240  1  0.04439000  0.54481000  0.20540000  1.0 -0.0893043044
C  C241  1  0.82240000  0.45339000  0.90181000  1.0 0.1461314912
C  C242  1  0.45339000  0.82240000  0.82240000  1.0 0.1461314912
C  C243  1  0.90181000  0.82240000  0.82240000  1.0 0.1461314912
C  C244  1  0.82240000  0.90181000  0.45339000  1.0 0.1461314912
C  C245  1  0.90181000  0.82240000  0.45339000  1.0 0.1461314912
C  C246  1  0.82240000  0.45339000  0.82240000  1.0 0.1461314912
C  C247  1  0.82240000  0.90181000  0.82240000  1.0 0.1461314912
C  C248  1  0.45339000  0.82240000  0.90181000  1.0 0.1461314912
C  C249  1  0.45339000  0.90181000  0.82240000  1.0 0.1461314912
C  C250  1  0.82240000  0.82240000  0.45339000  1.0 0.1461314912
C  C251  1  0.82240000  0.82240000  0.90181000  1.0 0.1461314912
C  C252  1  0.90181000  0.45339000  0.82240000  1.0 0.1461314912
C  C253  1  0.17760000  0.54661000  0.17760000  1.0 0.1461314912
C  C254  1  0.54661000  0.17760000  0.09819000  1.0 0.1461314912
C  C255  1  0.09819000  0.17760000  0.54661000  1.0 0.1461314912
C  C256  1  0.17760000  0.09819000  0.17760000  1.0 0.1461314912
C  C257  1  0.09819000  0.17760000  0.17760000  1.0 0.1461314912
C  C258  1  0.17760000  0.54661000  0.09819000  1.0 0.1461314912
C  C259  1  0.17760000  0.09819000  0.54661000  1.0 0.1461314912
C  C260  1  0.54661000  0.17760000  0.17760000  1.0 0.1461314912
C  C261  1  0.54661000  0.09819000  0.17760000  1.0 0.1461314912
C  C262  1  0.17760000  0.17760000  0.09819000  1.0 0.1461314912
C  C263  1  0.17760000  0.17760000  0.54661000  1.0 0.1461314912
C  C264  1  0.09819000  0.54661000  0.17760000  1.0 0.1461314912
C  C265  1  0.87571000  0.45169000  0.87571000  1.0 -0.2028191276
C  C266  1  0.45169000  0.87571000  0.79689000  1.0 -0.2028191276
C  C267  1  0.87571000  0.79689000  0.87571000  1.0 -0.2028191276
C  C268  1  0.79689000  0.87571000  0.45169000  1.0 -0.2028191276
C  C269  1  0.87571000  0.87571000  0.45169000  1.0 -0.2028191276
C  C270  1  0.79689000  0.45169000  0.87571000  1.0 -0.2028191276
C  C271  1  0.87571000  0.87571000  0.79689000  1.0 -0.2028191276
C  C272  1  0.45169000  0.79689000  0.87571000  1.0 -0.2028191276
C  C273  1  0.45169000  0.87571000  0.87571000  1.0 -0.2028191276
C  C274  1  0.87571000  0.79689000  0.45169000  1.0 -0.2028191276
C  C275  1  0.79689000  0.87571000  0.87571000  1.0 -0.2028191276
C  C276  1  0.87571000  0.45169000  0.79689000  1.0 -0.2028191276
C  C277  1  0.12429000  0.54831000  0.20311000  1.0 -0.2028191276
C  C278  1  0.54831000  0.12429000  0.12429000  1.0 -0.2028191276
C  C279  1  0.12429000  0.20311000  0.54831000  1.0 -0.2028191276
C  C280  1  0.20311000  0.12429000  0.12429000  1.0 -0.2028191276
C  C281  1  0.12429000  0.12429000  0.20311000  1.0 -0.2028191276
C  C282  1  0.20311000  0.54831000  0.12429000  1.0 -0.2028191276
C  C283  1  0.12429000  0.12429000  0.54831000  1.0 -0.2028191276
C  C284  1  0.54831000  0.20311000  0.12429000  1.0 -0.2028191276
C  C285  1  0.54831000  0.12429000  0.20311000  1.0 -0.2028191276
C  C286  1  0.12429000  0.20311000  0.12429000  1.0 -0.2028191276
C  C287  1  0.20311000  0.12429000  0.54831000  1.0 -0.2028191276
C  C288  1  0.12429000  0.54831000  0.12429000  1.0 -0.2028191276
O  O1  1  0.57729000  0.48689000  0.12451000  1.0 -0.5212114274
O  O2  1  0.48689000  0.57729000  0.81131000  1.0 -0.5212114274
O  O3  1  0.12451000  0.81131000  0.57729000  1.0 -0.5212114274
O  O4  1  0.81131000  0.12451000  0.48689000  1.0 -0.5212114274
O  O5  1  0.12451000  0.57729000  0.48689000  1.0 -0.5212114274
O  O6  1  0.81131000  0.48689000  0.57729000  1.0 -0.5212114274
O  O7  1  0.57729000  0.12451000  0.81131000  1.0 -0.5212114274
O  O8  1  0.48689000  0.81131000  0.12451000  1.0 -0.5212114274
O  O9  1  0.48689000  0.12451000  0.57729000  1.0 -0.5212114274
O  O10  1  0.57729000  0.81131000  0.48689000  1.0 -0.5212114274
O  O11  1  0.81131000  0.57729000  0.12451000  1.0 -0.5212114274
O  O12  1  0.12451000  0.48689000  0.81131000  1.0 -0.5212114274
O  O13  1  0.42271000  0.51311000  0.18869000  1.0 -0.5212114274
O  O14  1  0.51311000  0.42271000  0.87549000  1.0 -0.5212114274
O  O15  1  0.87549000  0.18869000  0.51311000  1.0 -0.5212114274
O  O16  1  0.18869000  0.87549000  0.42271000  1.0 -0.5212114274
O  O17  1  0.87549000  0.42271000  0.18869000  1.0 -0.5212114274
O  O18  1  0.18869000  0.51311000  0.87549000  1.0 -0.5212114274
O  O19  1  0.42271000  0.87549000  0.51311000  1.0 -0.5212114274
O  O20  1  0.51311000  0.18869000  0.42271000  1.0 -0.5212114274
O  O21  1  0.51311000  0.87549000  0.18869000  1.0 -0.5212114274
O  O22  1  0.42271000  0.18869000  0.87549000  1.0 -0.5212114274
O  O23  1  0.18869000  0.42271000  0.51311000  1.0 -0.5212114274
O  O24  1  0.87549000  0.51311000  0.42271000  1.0 -0.5212114274
O  O25  1  0.42271000  0.51311000  0.87549000  1.0 -0.5212114274
O  O26  1  0.51311000  0.42271000  0.18869000  1.0 -0.5212114274
O  O27  1  0.87549000  0.18869000  0.42271000  1.0 -0.5212114274
O  O28  1  0.18869000  0.87549000  0.51311000  1.0 -0.5212114274
O  O29  1  0.87549000  0.42271000  0.51311000  1.0 -0.5212114274
O  O30  1  0.18869000  0.51311000  0.42271000  1.0 -0.5212114274
O  O31  1  0.42271000  0.87549000  0.18869000  1.0 -0.5212114274
O  O32  1  0.51311000  0.18869000  0.87549000  1.0 -0.5212114274
O  O33  1  0.51311000  0.87549000  0.42271000  1.0 -0.5212114274
O  O34  1  0.42271000  0.18869000  0.51311000  1.0 -0.5212114274
O  O35  1  0.18869000  0.42271000  0.87549000  1.0 -0.5212114274
O  O36  1  0.87549000  0.51311000  0.18869000  1.0 -0.5212114274
O  O37  1  0.57729000  0.48689000  0.81131000  1.0 -0.5212114274
O  O38  1  0.48689000  0.57729000  0.12451000  1.0 -0.5212114274
O  O39  1  0.12451000  0.81131000  0.48689000  1.0 -0.5212114274
O  O40  1  0.81131000  0.12451000  0.57729000  1.0 -0.5212114274
O  O41  1  0.12451000  0.57729000  0.81131000  1.0 -0.5212114274
O  O42  1  0.81131000  0.48689000  0.12451000  1.0 -0.5212114274
O  O43  1  0.57729000  0.12451000  0.48689000  1.0 -0.5212114274
O  O44  1  0.48689000  0.81131000  0.57729000  1.0 -0.5212114274
O  O45  1  0.48689000  0.12451000  0.81131000  1.0 -0.5212114274
O  O46  1  0.57729000  0.81131000  0.12451000  1.0 -0.5212114274
O  O47  1  0.81131000  0.57729000  0.48689000  1.0 -0.5212114274
O  O48  1  0.12451000  0.48689000  0.57729000  1.0 -0.5212114274
O  O49  1  0.57687000  0.48713000  0.19915000  1.0 -0.5212114274
O  O50  1  0.48713000  0.57687000  0.73685000  1.0 -0.5212114274
O  O51  1  0.19915000  0.73685000  0.57687000  1.0 -0.5212114274
O  O52  1  0.73685000  0.19915000  0.48713000  1.0 -0.5212114274
O  O53  1  0.19915000  0.57687000  0.48713000  1.0 -0.5212114274
O  O54  1  0.73685000  0.48713000  0.57687000  1.0 -0.5212114274
O  O55  1  0.57687000  0.19915000  0.73685000  1.0 -0.5212114274
O  O56  1  0.48713000  0.73685000  0.19915000  1.0 -0.5212114274
O  O57  1  0.48713000  0.19915000  0.57687000  1.0 -0.5212114274
O  O58  1  0.57687000  0.73685000  0.48713000  1.0 -0.5212114274
O  O59  1  0.73685000  0.57687000  0.19915000  1.0 -0.5212114274
O  O60  1  0.19915000  0.48713000  0.73685000  1.0 -0.5212114274
O  O61  1  0.42313000  0.51287000  0.26315000  1.0 -0.5212114274
O  O62  1  0.51287000  0.42313000  0.80085000  1.0 -0.5212114274
O  O63  1  0.80085000  0.26315000  0.51287000  1.0 -0.5212114274
O  O64  1  0.26315000  0.80085000  0.42313000  1.0 -0.5212114274
O  O65  1  0.80085000  0.42313000  0.26315000  1.0 -0.5212114274
O  O66  1  0.26315000  0.51287000  0.80085000  1.0 -0.5212114274
O  O67  1  0.42313000  0.80085000  0.51287000  1.0 -0.5212114274
O  O68  1  0.51287000  0.26315000  0.42313000  1.0 -0.5212114274
O  O69  1  0.51287000  0.80085000  0.26315000  1.0 -0.5212114274
O  O70  1  0.42313000  0.26315000  0.80085000  1.0 -0.5212114274
O  O71  1  0.26315000  0.42313000  0.51287000  1.0 -0.5212114274
O  O72  1  0.80085000  0.51287000  0.42313000  1.0 -0.5212114274
O  O73  1  0.42313000  0.51287000  0.80085000  1.0 -0.5212114274
O  O74  1  0.51287000  0.42313000  0.26315000  1.0 -0.5212114274
O  O75  1  0.80085000  0.26315000  0.42313000  1.0 -0.5212114274
O  O76  1  0.26315000  0.80085000  0.51287000  1.0 -0.5212114274
O  O77  1  0.80085000  0.42313000  0.51287000  1.0 -0.5212114274
O  O78  1  0.26315000  0.51287000  0.42313000  1.0 -0.5212114274
O  O79  1  0.42313000  0.80085000  0.26315000  1.0 -0.5212114274
O  O80  1  0.51287000  0.26315000  0.80085000  1.0 -0.5212114274
O  O81  1  0.51287000  0.80085000  0.42313000  1.0 -0.5212114274
O  O82  1  0.42313000  0.26315000  0.51287000  1.0 -0.5212114274
O  O83  1  0.26315000  0.42313000  0.80085000  1.0 -0.5212114274
O  O84  1  0.80085000  0.51287000  0.26315000  1.0 -0.5212114274
O  O85  1  0.57687000  0.48713000  0.73685000  1.0 -0.5212114274
O  O86  1  0.48713000  0.57687000  0.19915000  1.0 -0.5212114274
O  O87  1  0.19915000  0.73685000  0.48713000  1.0 -0.5212114274
O  O88  1  0.73685000  0.19915000  0.57687000  1.0 -0.5212114274
O  O89  1  0.19915000  0.57687000  0.73685000  1.0 -0.5212114274
O  O90  1  0.73685000  0.48713000  0.19915000  1.0 -0.5212114274
O  O91  1  0.57687000  0.19915000  0.48713000  1.0 -0.5212114274
O  O92  1  0.48713000  0.73685000  0.57687000  1.0 -0.5212114274
O  O93  1  0.48713000  0.19915000  0.73685000  1.0 -0.5212114274
O  O94  1  0.57687000  0.73685000  0.19915000  1.0 -0.5212114274
O  O95  1  0.73685000  0.57687000  0.48713000  1.0 -0.5212114274
O  O96  1  0.19915000  0.48713000  0.57687000  1.0 -0.5212114274
