# DDEC6 charges by PACMAN v1.1 (https://github.com/mtap-research/PACMAN-charge/)
data_MUFYAP_ASR_pacman
_symmetry_space_group_name_H-M   'P 1'
_cell_length_a   8.56070000
_cell_length_b   14.10230000
_cell_length_c   20.29400000
_cell_angle_alpha   88.53920000
_cell_angle_beta   86.49980000
_cell_angle_gamma   81.25190000
_symmetry_Int_Tables_number   1
_chemical_formula_structural   Gd2C12(NO4)3
_chemical_formula_sum   'Gd8 C48 N12 O48'
_cell_volume   2416.65919843
_cell_formula_units_Z   4
loop_
 _symmetry_equiv_pos_site_id
 _symmetry_equiv_pos_as_xyz
  1  'x, y, z'
loop_
 _atom_site_type_symbol
 _atom_site_label
 _atom_site_symmetry_multiplicity
 _atom_site_fract_x
 _atom_site_fract_y
 _atom_site_fract_z
 _atom_site_occupancy
 _atom_site_charge
Gd  Gd1  1  0.27504000  0.76286000  0.98096000  1.0 1.8485581068
Gd  Gd2  1  0.72496000  0.23714000  0.01904000  1.0 1.8485581068
Gd  Gd3  1  0.23167000  0.48581000  0.24766000  1.0 2.0634839324
Gd  Gd4  1  0.76833000  0.51419000  0.75234000  1.0 2.0659050731
Gd  Gd5  1  0.11899000  0.75955000  0.51428000  1.0 1.8276481418
Gd  Gd6  1  0.88101000  0.24045000  0.48572000  1.0 1.8276481418
Gd  Gd7  1  0.21156000  0.03019000  0.24149000  1.0 1.9054550914
Gd  Gd8  1  0.78844000  0.96981000  0.75851000  1.0 1.9309857873
C  C1  1  0.25250000  0.58830000  0.09227000  1.0 0.6272686509
C  C2  1  0.74750000  0.41170000  0.90773000  1.0 0.6272686509
C  C3  1  0.38730000  0.53620000  0.04726000  1.0 0.0892438591
C  C4  1  0.61270000  0.46380000  0.95274000  1.0 0.0892438591
C  C5  1  0.49050000  0.45080000  0.05874000  1.0 0.0892438591
C  C6  1  0.50950000  0.54920000  0.94126000  1.0 0.0892438591
C  C7  1  0.50430000  0.38760000  0.12180000  1.0 0.643893638
C  C8  1  0.49570000  0.61240000  0.87820000  1.0 0.643893638
C  C9  1  0.12710000  0.93270000  0.09011000  1.0 0.6098835496
C  C10  1  0.87290000  0.06730000  0.90989000  1.0 0.6098835496
C  C11  1  0.97760000  0.91050000  0.06190000  1.0 0.059739401
C  C12  1  0.02240000  0.08950000  0.93810000  1.0 0.059739401
C  C13  1  0.82160000  0.95660000  0.07765000  1.0 0.0780281456
C  C14  1  0.17840000  0.04340000  0.92235000  1.0 0.0780281456
C  C15  1  0.72380000  0.84840000  0.01594000  1.0 0.0988262811
C  C16  1  0.27620000  0.15160000  0.98406000  1.0 0.0988262811
C  C17  1  0.87540000  0.80380000  0.99791000  1.0 0.0530743835
C  C18  1  0.12460000  0.19620000  0.00209000  1.0 0.0530743835
C  C19  1  0.91900000  0.72110000  0.95020000  1.0 0.5694153694
C  C20  1  0.08100000  0.27890000  0.04980000  1.0 0.57620863
C  C21  1  0.78230000  0.04550000  0.11890000  1.0 0.5890445498
C  C22  1  0.21770000  0.95450000  0.88110000  1.0 0.5890445498
C  C23  1  0.57560000  0.81250000  0.99720000  1.0 0.5569687275
C  C24  1  0.42440000  0.18750000  0.00280000  1.0 0.5569687275
C  C25  1  0.20630000  0.58220000  0.40344000  1.0 0.6204683371
C  C26  1  0.79370000  0.41780000  0.59656000  1.0 0.6204683371
C  C27  1  0.09150000  0.53530000  0.45065000  1.0 0.0988262811
C  C28  1  0.90850000  0.46470000  0.54935000  1.0 0.0988262811
C  C29  1  0.98250000  0.54520000  0.55902000  1.0 0.0892438591
C  C30  1  0.01750000  0.45480000  0.44098000  1.0 0.0892438591
C  C31  1  0.98990000  0.59990000  0.62193000  1.0 0.6486431149
C  C32  1  0.01010000  0.40010000  0.37807000  1.0 0.6486431149
C  C33  1  0.49270000  0.02150000  0.35210000  1.0 0.6098835496
C  C34  1  0.50730000  0.97850000  0.64790000  1.0 0.6098835496
C  C35  1  0.48130000  0.94520000  0.40640000  1.0 0.0780281456
C  C36  1  0.51870000  0.05480000  0.59360000  1.0 0.0780281456
C  C37  1  0.34500000  0.90540000  0.42695000  1.0 0.059739401
C  C38  1  0.65500000  0.09460000  0.57305000  1.0 0.059739401
C  C39  1  0.49570000  0.79910000  0.49636000  1.0 0.0660221329
C  C40  1  0.50430000  0.20090000  0.50364000  1.0 0.0660221329
C  C41  1  0.63100000  0.84060000  0.47433000  1.0 0.1081936
C  C42  1  0.36900000  0.15940000  0.52567000  1.0 0.1081936
C  C43  1  0.79520000  0.80440000  0.49700000  1.0 0.5481344847
C  C44  1  0.20480000  0.19560000  0.50300000  1.0 0.5481344847
C  C45  1  0.49650000  0.71730000  0.54468000  1.0 0.5694153694
C  C46  1  0.50350000  0.28270000  0.45532000  1.0 0.5694153694
C  C47  1  0.17760000  0.93310000  0.40563000  1.0 0.6204683371
C  C48  1  0.82240000  0.06690000  0.59437000  1.0 0.6098835496
N  N1  1  0.07140000  0.57770000  0.50935000  1.0 -0.3017021405
N  N2  1  0.92860000  0.42230000  0.49065000  1.0 -0.3017021405
N  N3  1  0.35650000  0.83350000  0.47182000  1.0 -0.3419860961
N  N4  1  0.64350000  0.16650000  0.52818000  1.0 -0.3419860961
N  N5  1  0.00060000  0.83580000  0.02209000  1.0 -0.3017021405
N  N6  1  0.99940000  0.16420000  0.97791000  1.0 -0.3017021405
N  N7  1  0.69640000  0.92360000  0.05561000  1.0 -0.2212012286
N  N8  1  0.30360000  0.07640000  0.94439000  1.0 -0.2212012286
N  N9  1  0.62160000  0.91370000  0.43163000  1.0 -0.2212012286
N  N10  1  0.37840000  0.08630000  0.56837000  1.0 -0.2212012286
N  N11  1  0.40060000  0.58260000  0.98907000  1.0 -0.3061683985
N  N12  1  0.59940000  0.41740000  0.01093000  1.0 -0.3061683985
O  O1  1  0.21560000  0.67570000  0.07924000  1.0 -0.5798520657
O  O2  1  0.78440000  0.32430000  0.92076000  1.0 -0.5798520657
O  O3  1  0.18570000  0.54260000  0.13631000  1.0 -0.6391368272
O  O4  1  0.81430000  0.45740000  0.86369000  1.0 -0.6477464847
O  O5  1  0.43830000  0.41980000  0.17464000  1.0 -0.6693644138
O  O6  1  0.56170000  0.58020000  0.82536000  1.0 -0.6693644138
O  O7  1  0.58680000  0.30670000  0.11474000  1.0 -0.5697050231
O  O8  1  0.41320000  0.69330000  0.88526000  1.0 -0.5697050231
O  O9  1  0.06500000  0.68820000  0.94271000  1.0 -0.602454132
O  O10  1  0.93500000  0.31180000  0.05729000  1.0 -0.602454132
O  O11  1  0.80890000  0.69510000  0.92119000  1.0 -0.5192238601
O  O12  1  0.19110000  0.30490000  0.07881000  1.0 -0.5192238601
O  O13  1  0.25490000  0.89120000  0.06385000  1.0 -0.5697050231
O  O14  1  0.74510000  0.10880000  0.93615000  1.0 -0.5697050231
O  O15  1  0.10980000  0.98930000  0.13775000  1.0 -0.6611237141
O  O16  1  0.89020000  0.01070000  0.86225000  1.0 -0.6611237141
O  O17  1  0.53060000  0.74430000  0.03041000  1.0 -0.5896939101
O  O18  1  0.46940000  0.25570000  0.96959000  1.0 -0.5896939101
O  O19  1  0.49750000  0.85570000  0.95153000  1.0 -0.5697050231
O  O20  1  0.50250000  0.14430000  0.04847000  1.0 -0.5697050231
O  O21  1  0.83010000  0.12100000  0.09551000  1.0 -0.6391368272
O  O22  1  0.16990000  0.87900000  0.90449000  1.0 -0.6391368272
O  O23  1  0.70210000  0.03900000  0.17163000  1.0 -0.4510182055
O  O24  1  0.29790000  0.96100000  0.82837000  1.0 -0.4510182055
O  O25  1  0.27850000  0.53620000  0.35698000  1.0 -0.6204586389
O  O26  1  0.72150000  0.46380000  0.64302000  1.0 -0.6204586389
O  O27  1  0.22460000  0.66600000  0.41849000  1.0 -0.5896939101
O  O28  1  0.77540000  0.33400000  0.58151000  1.0 -0.5896939101
O  O29  1  0.03320000  0.68110000  0.61352000  1.0 -0.5798520657
O  O30  1  0.96680000  0.31890000  0.38648000  1.0 -0.5798520657
O  O31  1  0.96210000  0.56030000  0.67619000  1.0 -0.6794689509
O  O32  1  0.03790000  0.43970000  0.32381000  1.0 -0.6794689509
O  O33  1  0.44550000  0.00390000  0.29744000  1.0 -0.6344535561
O  O34  1  0.55450000  0.99610000  0.70256000  1.0 -0.6391368272
O  O35  1  0.55760000  0.09200000  0.36598000  1.0 -0.4763491663
O  O36  1  0.44240000  0.90800000  0.63402000  1.0 -0.4763491663
O  O37  1  0.14930000  0.00050000  0.36364000  1.0 -0.6477464847
O  O38  1  0.85070000  0.99950000  0.63636000  1.0 -0.6477464847
O  O39  1  0.07670000  0.88650000  0.43284000  1.0 -0.5697050231
O  O40  1  0.92330000  0.11350000  0.56716000  1.0 -0.5697050231
O  O41  1  0.36180000  0.69060000  0.55860000  1.0 -0.6204586389
O  O42  1  0.63820000  0.30940000  0.44140000  1.0 -0.6204586389
O  O43  1  0.62440000  0.68120000  0.56684000  1.0 -0.502188957
O  O44  1  0.37560000  0.31880000  0.43316000  1.0 -0.502188957
O  O45  1  0.84570000  0.84050000  0.54451000  1.0 -0.5553662094
O  O46  1  0.15430000  0.15950000  0.45549000  1.0 -0.5553662094
O  O47  1  0.87610000  0.74110000  0.45989000  1.0 -0.602454132
O  O48  1  0.12390000  0.25890000  0.54011000  1.0 -0.602454132
