# DDEC6 charges by PACMAN v1.1 (https://github.com/mtap-research/PACMAN-charge/)
data_MUGXIX_ASR_pacman
_symmetry_space_group_name_H-M   'P 1'
_cell_length_a   8.04910000
_cell_length_b   16.70530000
_cell_length_c   27.17000000
_cell_angle_alpha   90.00000000
_cell_angle_beta   96.67500000
_cell_angle_gamma   90.00000000
_symmetry_Int_Tables_number   1
_chemical_formula_structural   TbH15C27O7
_chemical_formula_sum   'Tb4 H60 C108 O28'
_cell_volume   3628.58529458
_cell_formula_units_Z   4
loop_
 _symmetry_equiv_pos_site_id
 _symmetry_equiv_pos_as_xyz
  1  'x, y, z'
loop_
 _atom_site_type_symbol
 _atom_site_label
 _atom_site_symmetry_multiplicity
 _atom_site_fract_x
 _atom_site_fract_y
 _atom_site_fract_z
 _atom_site_occupancy
 _atom_site_charge
Tb  Tb1  1  0.73887000  0.48755000  0.48170000  1.0 1.9711892916
Tb  Tb2  1  0.26113000  0.98755000  0.01830000  1.0 1.9711892916
Tb  Tb3  1  0.26113000  0.51245000  0.51830000  1.0 1.9711892916
Tb  Tb4  1  0.73887000  0.01245000  0.98170000  1.0 1.9711892916
H  H1  1  0.35990000  0.77440000  0.99190000  1.0 0.1105002476
H  H2  1  0.64010000  0.27440000  0.50810000  1.0 0.1105002476
H  H3  1  0.64010000  0.22560000  0.00810000  1.0 0.1105002476
H  H4  1  0.35990000  0.72560000  0.49190000  1.0 0.1105002476
H  H5  1  0.26520000  0.27060000  0.00220000  1.0 0.1188901164
H  H6  1  0.73480000  0.77060000  0.49780000  1.0 0.1188901164
H  H7  1  0.73480000  0.72940000  0.99780000  1.0 0.1188901164
H  H8  1  0.26520000  0.22940000  0.50220000  1.0 0.1188901164
H  H9  1  0.49960000  0.81560000  0.85720000  1.0 0.1188901164
H  H10  1  0.50040000  0.31560000  0.64280000  1.0 0.1188901164
H  H11  1  0.50040000  0.18440000  0.14280000  1.0 0.1188901164
H  H12  1  0.49960000  0.68440000  0.35720000  1.0 0.1188901164
H  H13  1  0.38100000  0.69840000  0.82950000  1.0 0.1105002476
H  H14  1  0.61900000  0.19840000  0.67050000  1.0 0.1105002476
H  H15  1  0.61900000  0.30160000  0.17050000  1.0 0.1105002476
H  H16  1  0.38100000  0.80160000  0.32950000  1.0 0.1105002476
H  H17  1  0.80880000  0.23840000  0.92940000  1.0 0.1188901164
H  H18  1  0.19120000  0.73840000  0.57060000  1.0 0.1188901164
H  H19  1  0.19120000  0.76160000  0.07060000  1.0 0.1188901164
H  H20  1  0.80880000  0.26160000  0.42940000  1.0 0.1188901164
H  H21  1  0.29150000  0.38900000  0.96030000  1.0 0.1105002476
H  H22  1  0.70850000  0.88900000  0.53970000  1.0 0.1105002476
H  H23  1  0.70850000  0.61100000  0.03970000  1.0 0.1105002476
H  H24  1  0.29150000  0.11100000  0.46030000  1.0 0.1105002476
H  H25  1  0.21520000  0.52680000  0.93760000  1.0 0.1105002476
H  H26  1  0.78480000  0.02680000  0.56240000  1.0 0.1105002476
H  H27  1  0.78480000  0.47320000  0.06240000  1.0 0.1105002476
H  H28  1  0.21520000  0.97320000  0.43760000  1.0 0.1105002476
H  H29  1  0.24310000  0.65520000  0.96460000  1.0 0.1105002476
H  H30  1  0.75690000  0.15520000  0.53540000  1.0 0.1105002476
H  H31  1  0.75690000  0.34480000  0.03540000  1.0 0.1105002476
H  H32  1  0.24310000  0.84480000  0.46460000  1.0 0.1105002476
H  H33  1  0.25630000  0.53570000  0.73060000  1.0 0.1105002476
H  H34  1  0.74370000  0.03570000  0.76940000  1.0 0.1105002476
H  H35  1  0.74370000  0.46430000  0.26940000  1.0 0.1105002476
H  H36  1  0.25630000  0.96430000  0.23060000  1.0 0.1105002476
H  H37  1  0.78320000  0.48000000  0.74610000  1.0 0.1188901164
H  H38  1  0.21680000  0.98000000  0.75390000  1.0 0.1188901164
H  H39  1  0.21680000  0.52000000  0.25390000  1.0 0.1188901164
H  H40  1  0.78320000  0.02000000  0.24610000  1.0 0.1188901164
H  H41  1  0.83880000  0.35330000  0.88370000  1.0 0.1105002476
H  H42  1  0.16120000  0.85330000  0.61630000  1.0 0.1105002476
H  H43  1  0.16120000  0.64670000  0.11630000  1.0 0.1105002476
H  H44  1  0.83880000  0.14670000  0.38370000  1.0 0.1105002476
H  H45  1  0.19860000  0.52970000  0.64470000  1.0 0.1188901164
H  H46  1  0.80140000  0.02970000  0.85530000  1.0 0.1188901164
H  H47  1  0.80140000  0.47030000  0.35530000  1.0 0.1188901164
H  H48  1  0.19860000  0.97030000  0.14470000  1.0 0.1188901164
H  H49  1  0.71990000  0.47850000  0.66010000  1.0 0.1188901164
H  H50  1  0.28010000  0.97850000  0.83990000  1.0 0.1188901164
H  H51  1  0.28010000  0.52150000  0.33990000  1.0 0.1188901164
H  H52  1  0.71990000  0.02150000  0.16010000  1.0 0.1188901164
H  H53  1  0.17220000  0.62430000  0.80150000  1.0 0.1105002476
H  H54  1  0.82780000  0.12430000  0.69850000  1.0 0.1105002476
H  H55  1  0.82780000  0.37570000  0.19850000  1.0 0.1105002476
H  H56  1  0.17220000  0.87570000  0.30150000  1.0 0.1105002476
H  H57  1  0.98360000  0.40540000  0.82030000  1.0 0.1105002476
H  H58  1  0.01640000  0.90540000  0.67970000  1.0 0.1105002476
H  H59  1  0.01640000  0.59460000  0.17970000  1.0 0.1105002476
H  H60  1  0.98360000  0.09460000  0.32030000  1.0 0.1105002476
C  C1  1  0.51370000  0.88760000  0.94320000  1.0 0.5920628024
C  C2  1  0.48630000  0.38760000  0.55680000  1.0 0.5920628024
C  C3  1  0.48630000  0.11240000  0.05680000  1.0 0.5920628024
C  C4  1  0.51370000  0.61240000  0.44320000  1.0 0.5920628024
C  C5  1  0.03790000  0.24100000  0.96900000  1.0 -0.0265587909
C  C6  1  0.96210000  0.74100000  0.53100000  1.0 -0.0265587909
C  C7  1  0.96210000  0.75900000  0.03100000  1.0 -0.0265587909
C  C8  1  0.03790000  0.25900000  0.46900000  1.0 -0.0265587909
C  C9  1  0.36270000  0.75940000  0.95910000  1.0 -0.0791818486
C  C10  1  0.63730000  0.25940000  0.54090000  1.0 -0.0791818486
C  C11  1  0.63730000  0.24060000  0.04090000  1.0 -0.0791818486
C  C12  1  0.36270000  0.74060000  0.45910000  1.0 -0.0791818486
C  C13  1  0.17960000  0.28710000  0.97840000  1.0 -0.0976481117
C  C14  1  0.82040000  0.78710000  0.52160000  1.0 -0.0976481117
C  C15  1  0.82040000  0.71290000  0.02160000  1.0 -0.0976481117
C  C16  1  0.17960000  0.21290000  0.47840000  1.0 -0.0976481117
C  C17  1  0.44560000  0.78410000  0.87860000  1.0 -0.0929327612
C  C18  1  0.55440000  0.28410000  0.62140000  1.0 -0.0929327612
C  C19  1  0.55440000  0.21590000  0.12140000  1.0 -0.0929327612
C  C20  1  0.44560000  0.71590000  0.37860000  1.0 -0.0929327612
C  C21  1  0.37490000  0.71350000  0.86220000  1.0 -0.1610031127
C  C22  1  0.62510000  0.21350000  0.63780000  1.0 -0.1610031127
C  C23  1  0.62510000  0.28650000  0.13780000  1.0 -0.1610031127
C  C24  1  0.37490000  0.78650000  0.36220000  1.0 -0.1610031127
C  C25  1  0.91330000  0.50170000  0.58862000  1.0 0.5124614252
C  C26  1  0.08670000  0.00170000  0.91138000  1.0 0.5124614252
C  C27  1  0.08670000  0.49830000  0.41138000  1.0 0.5124614252
C  C28  1  0.91330000  0.99830000  0.08862000  1.0 0.5124614252
C  C29  1  0.02680000  0.15890000  0.99220000  1.0 0.6337610496
C  C30  1  0.97320000  0.65890000  0.50780000  1.0 0.6337610496
C  C31  1  0.97320000  0.84110000  0.00780000  1.0 0.6337610496
C  C32  1  0.02680000  0.34110000  0.49220000  1.0 0.6337610496
C  C33  1  0.95330000  0.50330000  0.64450000  1.0 -0.0245794455
C  C34  1  0.04670000  0.00330000  0.85550000  1.0 -0.0245794455
C  C35  1  0.04670000  0.49670000  0.35550000  1.0 -0.0245794455
C  C36  1  0.95330000  0.99670000  0.14450000  1.0 -0.0245794455
C  C37  1  0.43820000  0.80970000  0.92740000  1.0 -0.0369756711
C  C38  1  0.56180000  0.30970000  0.57260000  1.0 -0.0369756711
C  C39  1  0.56180000  0.19030000  0.07260000  1.0 -0.0369756711
C  C40  1  0.43820000  0.69030000  0.42740000  1.0 -0.0369756711
C  C41  1  0.90770000  0.26750000  0.93440000  1.0 -0.1140498636
C  C42  1  0.09230000  0.76750000  0.56560000  1.0 -0.1140498636
C  C43  1  0.09230000  0.73250000  0.06560000  1.0 -0.1140498636
C  C44  1  0.90770000  0.23250000  0.43440000  1.0 -0.1140498636
C  C45  1  0.02710000  0.50960000  0.74710000  1.0 0.0634119226
C  C46  1  0.97290000  0.00960000  0.75290000  1.0 0.0634119226
C  C47  1  0.97290000  0.49040000  0.25290000  1.0 0.0634119226
C  C48  1  0.02710000  0.99040000  0.24710000  1.0 0.0634119226
C  C49  1  0.07060000  0.38260000  0.91610000  1.0 0.0714368989
C  C50  1  0.92940000  0.88260000  0.58390000  1.0 0.0714368989
C  C51  1  0.92940000  0.61740000  0.08390000  1.0 0.0714368989
C  C52  1  0.07060000  0.11740000  0.41610000  1.0 0.0714368989
C  C53  1  0.29220000  0.66230000  0.89300000  1.0 0.0794598821
C  C54  1  0.70780000  0.16230000  0.60700000  1.0 0.0794598821
C  C55  1  0.70780000  0.33770000  0.10700000  1.0 0.0794598821
C  C56  1  0.29220000  0.83770000  0.39300000  1.0 0.0794598821
C  C57  1  0.09450000  0.45430000  0.88410000  1.0 0.0794598821
C  C58  1  0.90550000  0.95430000  0.61590000  1.0 0.0794598821
C  C59  1  0.90550000  0.54570000  0.11590000  1.0 0.0794598821
C  C60  1  0.09450000  0.04570000  0.38410000  1.0 0.0794598821
C  C61  1  0.19620000  0.35770000  0.95290000  1.0 -0.1501800032
C  C62  1  0.80380000  0.85770000  0.54710000  1.0 -0.1501800032
C  C63  1  0.80380000  0.64230000  0.04710000  1.0 -0.1501800032
C  C64  1  0.19620000  0.14230000  0.45290000  1.0 -0.1501800032
C  C65  1  0.07280000  0.51390000  0.80210000  1.0 0.0794598821
C  C66  1  0.92720000  0.01390000  0.69790000  1.0 0.0714368989
C  C67  1  0.92720000  0.48610000  0.19790000  1.0 0.0714368989
C  C68  1  0.07280000  0.98610000  0.30210000  1.0 0.0714368989
C  C69  1  0.20760000  0.58780000  0.87330000  1.0 0.0714368989
C  C70  1  0.79240000  0.08780000  0.62670000  1.0 0.0714368989
C  C71  1  0.79240000  0.41220000  0.12670000  1.0 0.0714368989
C  C72  1  0.20760000  0.91220000  0.37330000  1.0 0.0714368989
C  C73  1  0.17900000  0.52400000  0.90390000  1.0 -0.2098645369
C  C74  1  0.82100000  0.02400000  0.59610000  1.0 -0.2098645369
C  C75  1  0.82100000  0.47600000  0.09610000  1.0 -0.2098645369
C  C76  1  0.17900000  0.97600000  0.40390000  1.0 -0.2098645369
C  C77  1  0.29210000  0.68770000  0.94250000  1.0 -0.1610031127
C  C78  1  0.70790000  0.18770000  0.55750000  1.0 -0.1610031127
C  C79  1  0.70790000  0.31230000  0.05750000  1.0 -0.1610031127
C  C80  1  0.29210000  0.81230000  0.44250000  1.0 -0.1610031127
C  C81  1  0.14840000  0.52360000  0.71650000  1.0 -0.1501800032
C  C82  1  0.85160000  0.02360000  0.78350000  1.0 -0.1501800032
C  C83  1  0.85160000  0.47640000  0.28350000  1.0 -0.1501800032
C  C84  1  0.14840000  0.97640000  0.21650000  1.0 -0.1501800032
C  C85  1  0.86610000  0.49110000  0.72600000  1.0 -0.1501800032
C  C86  1  0.13390000  0.99110000  0.77400000  1.0 -0.1501800032
C  C87  1  0.13390000  0.50890000  0.27400000  1.0 -0.1501800032
C  C88  1  0.86610000  0.00890000  0.22600000  1.0 -0.1501800032
C  C89  1  0.92470000  0.33710000  0.90750000  1.0 -0.1610031127
C  C90  1  0.07530000  0.83710000  0.59250000  1.0 -0.1610031127
C  C91  1  0.07530000  0.66290000  0.09250000  1.0 -0.1610031127
C  C92  1  0.92470000  0.16290000  0.40750000  1.0 -0.1610031127
C  C93  1  0.11460000  0.52050000  0.66480000  1.0 -0.0976481117
C  C94  1  0.88540000  0.02050000  0.83520000  1.0 -0.0976481117
C  C95  1  0.88540000  0.47950000  0.33520000  1.0 -0.0976481117
C  C96  1  0.11460000  0.97950000  0.16480000  1.0 -0.0976481117
C  C97  1  0.82840000  0.48920000  0.67430000  1.0 -0.1202389574
C  C98  1  0.17160000  0.98920000  0.82570000  1.0 -0.1202389574
C  C99  1  0.17160000  0.51080000  0.32570000  1.0 -0.1202389574
C  C100  1  0.82840000  0.01080000  0.17430000  1.0 -0.1258419814
C  C101  1  0.15340000  0.58180000  0.82220000  1.0 -0.2001335272
C  C102  1  0.84660000  0.08180000  0.67780000  1.0 -0.2001335272
C  C103  1  0.84660000  0.41820000  0.17780000  1.0 -0.2001335272
C  C104  1  0.15340000  0.91820000  0.32220000  1.0 -0.2001335272
C  C105  1  0.04080000  0.45040000  0.83340000  1.0 -0.2098645369
C  C106  1  0.95920000  0.95040000  0.66666667  1.0 -0.2098645369
C  C107  1  0.95920000  0.54960000  0.16660000  1.0 -0.2098645369
C  C108  1  0.04080000  0.04960000  0.33340000  1.0 -0.2098645369
O  O1  1  0.60450000  0.92440000  0.91596000  1.0 -0.6172024744
O  O2  1  0.39550000  0.42440000  0.58404000  1.0 -0.6172024744
O  O3  1  0.39550000  0.07560000  0.08404000  1.0 -0.6172024744
O  O4  1  0.60450000  0.57560000  0.41596000  1.0 -0.6172024744
O  O5  1  0.16280000  0.12240000  0.00233000  1.0 -0.6300114827
O  O6  1  0.83720000  0.62240000  0.49767000  1.0 -0.6300114827
O  O7  1  0.83720000  0.87760000  0.99767000  1.0 -0.6300114827
O  O8  1  0.16280000  0.37760000  0.50233000  1.0 -0.6300114827
O  O9  1  0.49020000  0.91650000  0.98633000  1.0 -0.7665678249
O  O10  1  0.50980000  0.41650000  0.51367000  1.0 -0.7665678249
O  O11  1  0.50980000  0.08350000  0.01367000  1.0 -0.7665678249
O  O12  1  0.49020000  0.58350000  0.48633000  1.0 -0.7665678249
O  O13  1  0.88370000  0.13320000  0.99743000  1.0 -0.6799790399
O  O14  1  0.11630000  0.63320000  0.50257000  1.0 -0.6799790399
O  O15  1  0.11630000  0.86680000  0.00257000  1.0 -0.6799790399
O  O16  1  0.88370000  0.36680000  0.49743000  1.0 -0.6799790399
O  O17  1  0.03340000  0.50440000  0.56257000  1.0 -0.6564761685
O  O18  1  0.96660000  0.00440000  0.93743000  1.0 -0.6564761685
O  O19  1  0.96660000  0.49560000  0.43743000  1.0 -0.6564761685
O  O20  1  0.03340000  0.99560000  0.06257000  1.0 -0.6564761685
O  O21  1  0.76130000  0.49630000  0.57216000  1.0 -0.1202389574
O  O22  1  0.23870000  0.99630000  0.92784000  1.0 -0.1202389574
O  O23  1  0.23870000  0.50370000  0.42784000  1.0 -0.1202389574
O  O24  1  0.76130000  0.00370000  0.07216000  1.0 -0.1202389574
O  O25  1  0.78100000  0.53300000  0.55860000  1.0 -0.1408634098
O  O26  1  0.21900000  0.03300000  0.94140000  1.0 -0.1408634098
O  O27  1  0.21900000  0.46700000  0.44140000  1.0 -0.1408634098
O  O28  1  0.78100000  0.96700000  0.05860000  1.0 -0.1408634098
