# DDEC6 charges by PACMAN v1.1 (https://github.com/mtap-research/PACMAN-charge/)
data_MUJPUE_FSR_pacman
_symmetry_space_group_name_H-M   'P 1'
_cell_length_a   18.19800000
_cell_length_b   18.19800000
_cell_length_c   28.87200000
_cell_angle_alpha   90.00000000
_cell_angle_beta   90.00000000
_cell_angle_gamma   90.00000000
_symmetry_Int_Tables_number   1
_chemical_formula_structural   ZnH14C19Br(N3O)2
_chemical_formula_sum   'Zn16 H224 C304 Br16 N96 O32'
_cell_volume   9561.45951389
_cell_formula_units_Z   16
loop_
 _symmetry_equiv_pos_site_id
 _symmetry_equiv_pos_as_xyz
  1  'x, y, z'
loop_
 _atom_site_type_symbol
 _atom_site_label
 _atom_site_symmetry_multiplicity
 _atom_site_fract_x
 _atom_site_fract_y
 _atom_site_fract_z
 _atom_site_occupancy
 _atom_site_charge
Zn  Zn1  1  0.49231000  0.80531000  0.14258000  1.0 0.6933595426
Zn  Zn2  1  0.50769000  0.19469000  0.14258000  1.0 0.6933595426
Zn  Zn3  1  0.49231000  0.19469000  0.35742000  1.0 0.6933595426
Zn  Zn4  1  0.50769000  0.80531000  0.35742000  1.0 0.6933595426
Zn  Zn5  1  0.69469000  0.00769000  0.85742000  1.0 0.6933595426
Zn  Zn6  1  0.30531000  0.99231000  0.85742000  1.0 0.6933595426
Zn  Zn7  1  0.30531000  0.00769000  0.64258000  1.0 0.6933595426
Zn  Zn8  1  0.69469000  0.99231000  0.64258000  1.0 0.6933595426
Zn  Zn9  1  0.00769000  0.69469000  0.35742000  1.0 0.6933595426
Zn  Zn10  1  0.99231000  0.30531000  0.35742000  1.0 0.6933595426
Zn  Zn11  1  0.00769000  0.30531000  0.14258000  1.0 0.6933595426
Zn  Zn12  1  0.99231000  0.69469000  0.14258000  1.0 0.6933595426
Zn  Zn13  1  0.80531000  0.49231000  0.64258000  1.0 0.6933595426
Zn  Zn14  1  0.19469000  0.50769000  0.64258000  1.0 0.6933595426
Zn  Zn15  1  0.19469000  0.49231000  0.85742000  1.0 0.6933595426
Zn  Zn16  1  0.80531000  0.50769000  0.85742000  1.0 0.6933595426
H  H1  1  0.35200000  0.68320000  0.95100000  1.0 0.1225053183
H  H2  1  0.64800000  0.31680000  0.95100000  1.0 0.1225053183
H  H3  1  0.35200000  0.31680000  0.54900000  1.0 0.1225053183
H  H4  1  0.64800000  0.68320000  0.54900000  1.0 0.1225053183
H  H5  1  0.81680000  0.14800000  0.04900000  1.0 0.1225053183
H  H6  1  0.18320000  0.85200000  0.04900000  1.0 0.1225053183
H  H7  1  0.18320000  0.14800000  0.45100000  1.0 0.1225053183
H  H8  1  0.81680000  0.85200000  0.45100000  1.0 0.1225053183
H  H9  1  0.14800000  0.81680000  0.54900000  1.0 0.1225053183
H  H10  1  0.85200000  0.18320000  0.54900000  1.0 0.1225053183
H  H11  1  0.14800000  0.18320000  0.95100000  1.0 0.1225053183
H  H12  1  0.85200000  0.81680000  0.95100000  1.0 0.1225053183
H  H13  1  0.68320000  0.35200000  0.45100000  1.0 0.1225053183
H  H14  1  0.31680000  0.64800000  0.45100000  1.0 0.1225053183
H  H15  1  0.31680000  0.35200000  0.04900000  1.0 0.1225053183
H  H16  1  0.68320000  0.64800000  0.04900000  1.0 0.1225053183
H  H17  1  0.48060000  0.86280000  0.95370000  1.0 0.1225053183
H  H18  1  0.51940000  0.13720000  0.95370000  1.0 0.1225053183
H  H19  1  0.48060000  0.13720000  0.54630000  1.0 0.1225053183
H  H20  1  0.51940000  0.86280000  0.54630000  1.0 0.1225053183
H  H21  1  0.63720000  0.01940000  0.04630000  1.0 0.1225053183
H  H22  1  0.36280000  0.98060000  0.04630000  1.0 0.1225053183
H  H23  1  0.36280000  0.01940000  0.45370000  1.0 0.1225053183
H  H24  1  0.63720000  0.98060000  0.45370000  1.0 0.1225053183
H  H25  1  0.01940000  0.63720000  0.54630000  1.0 0.1225053183
H  H26  1  0.98060000  0.36280000  0.54630000  1.0 0.1225053183
H  H27  1  0.01940000  0.36280000  0.95370000  1.0 0.1225053183
H  H28  1  0.98060000  0.63720000  0.95370000  1.0 0.1225053183
H  H29  1  0.86280000  0.48060000  0.45370000  1.0 0.1225053183
H  H30  1  0.13720000  0.51940000  0.45370000  1.0 0.1225053183
H  H31  1  0.13720000  0.48060000  0.04630000  1.0 0.1225053183
H  H32  1  0.86280000  0.51940000  0.04630000  1.0 0.1225053183
H  H33  1  0.42810000  0.76840000  0.83220000  1.0 0.1400220953
H  H34  1  0.57190000  0.23160000  0.83220000  1.0 0.1400220953
H  H35  1  0.42810000  0.23160000  0.66780000  1.0 0.1400220953
H  H36  1  0.57190000  0.76840000  0.66780000  1.0 0.1400220953
H  H37  1  0.73160000  0.07190000  0.16780000  1.0 0.1400220953
H  H38  1  0.26840000  0.92810000  0.16780000  1.0 0.1400220953
H  H39  1  0.26840000  0.07190000  0.33220000  1.0 0.1400220953
H  H40  1  0.73160000  0.92810000  0.33220000  1.0 0.1400220953
H  H41  1  0.07190000  0.73160000  0.66780000  1.0 0.1400220953
H  H42  1  0.92810000  0.26840000  0.66780000  1.0 0.1400220953
H  H43  1  0.07190000  0.26840000  0.83220000  1.0 0.1400220953
H  H44  1  0.92810000  0.73160000  0.83220000  1.0 0.1400220953
H  H45  1  0.76840000  0.42810000  0.33220000  1.0 0.1400220953
H  H46  1  0.23160000  0.57190000  0.33220000  1.0 0.1400220953
H  H47  1  0.23160000  0.42810000  0.16780000  1.0 0.1400220953
H  H48  1  0.76840000  0.57190000  0.16780000  1.0 0.1400220953
H  H49  1  0.50510000  0.82310000  0.03050000  1.0 0.0981322728
H  H50  1  0.49490000  0.17690000  0.03050000  1.0 0.0981322728
H  H51  1  0.50510000  0.17690000  0.46950000  1.0 0.0981322728
H  H52  1  0.49490000  0.82310000  0.46950000  1.0 0.0981322728
H  H53  1  0.67690000  0.99490000  0.96950000  1.0 0.0981322728
H  H54  1  0.32310000  0.00510000  0.96950000  1.0 0.0981322728
H  H55  1  0.32310000  0.99490000  0.53050000  1.0 0.0981322728
H  H56  1  0.67690000  0.00510000  0.53050000  1.0 0.0981322728
H  H57  1  0.99490000  0.67690000  0.46950000  1.0 0.0981322728
H  H58  1  0.00510000  0.32310000  0.46950000  1.0 0.0981322728
H  H59  1  0.99490000  0.32310000  0.03050000  1.0 0.0981322728
H  H60  1  0.00510000  0.67690000  0.03050000  1.0 0.0981322728
H  H61  1  0.82310000  0.50510000  0.53050000  1.0 0.0981322728
H  H62  1  0.17690000  0.49490000  0.53050000  1.0 0.0981322728
H  H63  1  0.17690000  0.50510000  0.96950000  1.0 0.0981322728
H  H64  1  0.82310000  0.49490000  0.96950000  1.0 0.0981322728
H  H65  1  0.34290000  0.74360000  0.10420000  1.0 0.1104814484
H  H66  1  0.65710000  0.25640000  0.10420000  1.0 0.1104814484
H  H67  1  0.34290000  0.25640000  0.39580000  1.0 0.1104814484
H  H68  1  0.65710000  0.74360000  0.39580000  1.0 0.1104814484
H  H69  1  0.75640000  0.15710000  0.89580000  1.0 0.1104814484
H  H70  1  0.24360000  0.84290000  0.89580000  1.0 0.1104814484
H  H71  1  0.24360000  0.15710000  0.60420000  1.0 0.1104814484
H  H72  1  0.75640000  0.84290000  0.60420000  1.0 0.1104814484
H  H73  1  0.15710000  0.75640000  0.39580000  1.0 0.1104814484
H  H74  1  0.84290000  0.24360000  0.39580000  1.0 0.1104814484
H  H75  1  0.15710000  0.24360000  0.10420000  1.0 0.1104814484
H  H76  1  0.84290000  0.75640000  0.10420000  1.0 0.1104814484
H  H77  1  0.74360000  0.34290000  0.60420000  1.0 0.1104814484
H  H78  1  0.25640000  0.65710000  0.60420000  1.0 0.1104814484
H  H79  1  0.25640000  0.34290000  0.89580000  1.0 0.1104814484
H  H80  1  0.74360000  0.65710000  0.89580000  1.0 0.1104814484
H  H81  1  0.31200000  0.72270000  0.02390000  1.0 0.1225053183
H  H82  1  0.68800000  0.27730000  0.02390000  1.0 0.1225053183
H  H83  1  0.31200000  0.27730000  0.47610000  1.0 0.1225053183
H  H84  1  0.68800000  0.72270000  0.47610000  1.0 0.1225053183
H  H85  1  0.77730000  0.18800000  0.97610000  1.0 0.1225053183
H  H86  1  0.22270000  0.81200000  0.97610000  1.0 0.1225053183
H  H87  1  0.22270000  0.18800000  0.52390000  1.0 0.1225053183
H  H88  1  0.77730000  0.81200000  0.52390000  1.0 0.1225053183
H  H89  1  0.18800000  0.77730000  0.47610000  1.0 0.1225053183
H  H90  1  0.81200000  0.22270000  0.47610000  1.0 0.1225053183
H  H91  1  0.18800000  0.22270000  0.02390000  1.0 0.1225053183
H  H92  1  0.81200000  0.77730000  0.02390000  1.0 0.1225053183
H  H93  1  0.72270000  0.31200000  0.52390000  1.0 0.1225053183
H  H94  1  0.27730000  0.68800000  0.52390000  1.0 0.1225053183
H  H95  1  0.27730000  0.31200000  0.97610000  1.0 0.1225053183
H  H96  1  0.72270000  0.68800000  0.97610000  1.0 0.1225053183
H  H97  1  0.57680000  0.91170000  0.91520000  1.0 0.0981322728
H  H98  1  0.42320000  0.08830000  0.91520000  1.0 0.0981322728
H  H99  1  0.57680000  0.08830000  0.58480000  1.0 0.0981322728
H  H100  1  0.42320000  0.91170000  0.58480000  1.0 0.0981322728
H  H101  1  0.58830000  0.92320000  0.08480000  1.0 0.0981322728
H  H102  1  0.41170000  0.07680000  0.08480000  1.0 0.0981322728
H  H103  1  0.41170000  0.92320000  0.41520000  1.0 0.0981322728
H  H104  1  0.58830000  0.07680000  0.41520000  1.0 0.0981322728
H  H105  1  0.92320000  0.58830000  0.58480000  1.0 0.0981322728
H  H106  1  0.07680000  0.41170000  0.58480000  1.0 0.0981322728
H  H107  1  0.92320000  0.41170000  0.91520000  1.0 0.0981322728
H  H108  1  0.07680000  0.58830000  0.91520000  1.0 0.0981322728
H  H109  1  0.91170000  0.57680000  0.41520000  1.0 0.0981322728
H  H110  1  0.08830000  0.42320000  0.41520000  1.0 0.0981322728
H  H111  1  0.08830000  0.57680000  0.08480000  1.0 0.0981322728
H  H112  1  0.91170000  0.42320000  0.08480000  1.0 0.0981322728
H  H113  1  0.57590000  0.95650000  0.78330000  1.0 0.1225053183
H  H114  1  0.42410000  0.04350000  0.78330000  1.0 0.1225053183
H  H115  1  0.57590000  0.04350000  0.71670000  1.0 0.1225053183
H  H116  1  0.42410000  0.95650000  0.71670000  1.0 0.1225053183
H  H117  1  0.54350000  0.92410000  0.21670000  1.0 0.1225053183
H  H118  1  0.45650000  0.07590000  0.21670000  1.0 0.1225053183
H  H119  1  0.45650000  0.92410000  0.28330000  1.0 0.1225053183
H  H120  1  0.54350000  0.07590000  0.28330000  1.0 0.1225053183
H  H121  1  0.92410000  0.54350000  0.71670000  1.0 0.1225053183
H  H122  1  0.07590000  0.45650000  0.71670000  1.0 0.1225053183
H  H123  1  0.92410000  0.45650000  0.78330000  1.0 0.1225053183
H  H124  1  0.07590000  0.54350000  0.78330000  1.0 0.1225053183
H  H125  1  0.95650000  0.57590000  0.28330000  1.0 0.1225053183
H  H126  1  0.04350000  0.42410000  0.28330000  1.0 0.1225053183
H  H127  1  0.04350000  0.57590000  0.21670000  1.0 0.1225053183
H  H128  1  0.95650000  0.42410000  0.21670000  1.0 0.1225053183
H  H129  1  0.47730000  0.86890000  0.79660000  1.0 0.1311826138
H  H130  1  0.52270000  0.13110000  0.79660000  1.0 0.1311826138
H  H131  1  0.47730000  0.13110000  0.70340000  1.0 0.1311826138
H  H132  1  0.52270000  0.86890000  0.70340000  1.0 0.1311826138
H  H133  1  0.63110000  0.02270000  0.20340000  1.0 0.1311826138
H  H134  1  0.36890000  0.97730000  0.20340000  1.0 0.1311826138
H  H135  1  0.36890000  0.02270000  0.29660000  1.0 0.1311826138
H  H136  1  0.63110000  0.97730000  0.29660000  1.0 0.1311826138
H  H137  1  0.02270000  0.63110000  0.70340000  1.0 0.1311826138
H  H138  1  0.97730000  0.36890000  0.70340000  1.0 0.1311826138
H  H139  1  0.02270000  0.36890000  0.79660000  1.0 0.1311826138
H  H140  1  0.97730000  0.63110000  0.79660000  1.0 0.1311826138
H  H141  1  0.86890000  0.47730000  0.29660000  1.0 0.1311826138
H  H142  1  0.13110000  0.52270000  0.29660000  1.0 0.1311826138
H  H143  1  0.13110000  0.47730000  0.20340000  1.0 0.1311826138
H  H144  1  0.86890000  0.52270000  0.20340000  1.0 0.1311826138
H  H145  1  0.26130000  0.63400000  0.90420000  1.0 0.0981322728
H  H146  1  0.73870000  0.36600000  0.90420000  1.0 0.0981322728
H  H147  1  0.26130000  0.36600000  0.59580000  1.0 0.0981322728
H  H148  1  0.73870000  0.63400000  0.59580000  1.0 0.0981322728
H  H149  1  0.86600000  0.23870000  0.09580000  1.0 0.0981322728
H  H150  1  0.13400000  0.76130000  0.09580000  1.0 0.0981322728
H  H151  1  0.13400000  0.23870000  0.40420000  1.0 0.0981322728
H  H152  1  0.86600000  0.76130000  0.40420000  1.0 0.0981322728
H  H153  1  0.23870000  0.86600000  0.59580000  1.0 0.0981322728
H  H154  1  0.76130000  0.13400000  0.59580000  1.0 0.0981322728
H  H155  1  0.23870000  0.13400000  0.90420000  1.0 0.0981322728
H  H156  1  0.76130000  0.86600000  0.90420000  1.0 0.0981322728
H  H157  1  0.63400000  0.26130000  0.40420000  1.0 0.0981322728
H  H158  1  0.36600000  0.73870000  0.40420000  1.0 0.0981322728
H  H159  1  0.36600000  0.26130000  0.09580000  1.0 0.0981322728
H  H160  1  0.63400000  0.73870000  0.09580000  1.0 0.0981322728
H  H161  1  0.32570000  0.54340000  0.78770000  1.0 0.1311826138
H  H162  1  0.67430000  0.45660000  0.78770000  1.0 0.1311826138
H  H163  1  0.32570000  0.45660000  0.71230000  1.0 0.1311826138
H  H164  1  0.67430000  0.54340000  0.71230000  1.0 0.1311826138
H  H165  1  0.95660000  0.17430000  0.21230000  1.0 0.1311826138
H  H166  1  0.04340000  0.82570000  0.21230000  1.0 0.1311826138
H  H167  1  0.04340000  0.17430000  0.28770000  1.0 0.1311826138
H  H168  1  0.95660000  0.82570000  0.28770000  1.0 0.1311826138
H  H169  1  0.17430000  0.95660000  0.71230000  1.0 0.1311826138
H  H170  1  0.82570000  0.04340000  0.71230000  1.0 0.1311826138
H  H171  1  0.17430000  0.04340000  0.78770000  1.0 0.1311826138
H  H172  1  0.82570000  0.95660000  0.78770000  1.0 0.1311826138
H  H173  1  0.54340000  0.32570000  0.28770000  1.0 0.1311826138
H  H174  1  0.45660000  0.67430000  0.28770000  1.0 0.1311826138
H  H175  1  0.45660000  0.32570000  0.21230000  1.0 0.1311826138
H  H176  1  0.54340000  0.67430000  0.21230000  1.0 0.1311826138
H  H177  1  0.40960000  0.64440000  0.80370000  1.0 0.1311826138
H  H178  1  0.59040000  0.35560000  0.80370000  1.0 0.1311826138
H  H179  1  0.40960000  0.35560000  0.69630000  1.0 0.1311826138
H  H180  1  0.59040000  0.64440000  0.69630000  1.0 0.1311826138
H  H181  1  0.85560000  0.09040000  0.19630000  1.0 0.1311826138
H  H182  1  0.14440000  0.90960000  0.19630000  1.0 0.1311826138
H  H183  1  0.14440000  0.09040000  0.30370000  1.0 0.1311826138
H  H184  1  0.85560000  0.90960000  0.30370000  1.0 0.1311826138
H  H185  1  0.09040000  0.85560000  0.69630000  1.0 0.1311826138
H  H186  1  0.90960000  0.14440000  0.69630000  1.0 0.1311826138
H  H187  1  0.09040000  0.14440000  0.80370000  1.0 0.1311826138
H  H188  1  0.90960000  0.85560000  0.80370000  1.0 0.1311826138
H  H189  1  0.64440000  0.40960000  0.30370000  1.0 0.1311826138
H  H190  1  0.35560000  0.59040000  0.30370000  1.0 0.1311826138
H  H191  1  0.35560000  0.40960000  0.19630000  1.0 0.1311826138
H  H192  1  0.64440000  0.59040000  0.19630000  1.0 0.1311826138
H  H193  1  0.33800000  0.83690000  0.26770000  1.0 0.1104814484
H  H194  1  0.66200000  0.16310000  0.26770000  1.0 0.1104814484
H  H195  1  0.33800000  0.16310000  0.23230000  1.0 0.1104814484
H  H196  1  0.66200000  0.83690000  0.23230000  1.0 0.1104814484
H  H197  1  0.66310000  0.16200000  0.73230000  1.0 0.1104814484
H  H198  1  0.33690000  0.83800000  0.73230000  1.0 0.1104814484
H  H199  1  0.33690000  0.16200000  0.76770000  1.0 0.1104814484
H  H200  1  0.66310000  0.83800000  0.76770000  1.0 0.1104814484
H  H201  1  0.16200000  0.66310000  0.23230000  1.0 0.1104814484
H  H202  1  0.83800000  0.33690000  0.23230000  1.0 0.1104814484
H  H203  1  0.16200000  0.33690000  0.26770000  1.0 0.1104814484
H  H204  1  0.83800000  0.66310000  0.26770000  1.0 0.1104814484
H  H205  1  0.83690000  0.33800000  0.76770000  1.0 0.1104814484
H  H206  1  0.16310000  0.66200000  0.76770000  1.0 0.1104814484
H  H207  1  0.16310000  0.33800000  0.73230000  1.0 0.1104814484
H  H208  1  0.83690000  0.66200000  0.73230000  1.0 0.1104814484
H  H209  1  0.23500000  0.82650000  0.31420000  1.0 0.1482982281
H  H210  1  0.76500000  0.17350000  0.31420000  1.0 0.1482982281
H  H211  1  0.23500000  0.17350000  0.18580000  1.0 0.1482982281
H  H212  1  0.76500000  0.82650000  0.18580000  1.0 0.1482982281
H  H213  1  0.67350000  0.26500000  0.68580000  1.0 0.1482982281
H  H214  1  0.32650000  0.73500000  0.68580000  1.0 0.1482982281
H  H215  1  0.32650000  0.26500000  0.81420000  1.0 0.1482982281
H  H216  1  0.67350000  0.73500000  0.81420000  1.0 0.1482982281
H  H217  1  0.26500000  0.67350000  0.18580000  1.0 0.1482982281
H  H218  1  0.73500000  0.32650000  0.18580000  1.0 0.1482982281
H  H219  1  0.26500000  0.32650000  0.31420000  1.0 0.1482982281
H  H220  1  0.73500000  0.67350000  0.31420000  1.0 0.1482982281
H  H221  1  0.82650000  0.23500000  0.81420000  1.0 0.1482982281
H  H222  1  0.17350000  0.76500000  0.81420000  1.0 0.1482982281
H  H223  1  0.17350000  0.23500000  0.68580000  1.0 0.1482982281
H  H224  1  0.82650000  0.76500000  0.68580000  1.0 0.1482982281
C  C1  1  0.37910000  0.71880000  0.93540000  1.0 -0.2786522706
C  C2  1  0.62090000  0.28120000  0.93540000  1.0 -0.2786522706
C  C3  1  0.37910000  0.28120000  0.56460000  1.0 -0.2786522706
C  C4  1  0.62090000  0.71880000  0.56460000  1.0 -0.2786522706
C  C5  1  0.78120000  0.12090000  0.06460000  1.0 -0.2786522706
C  C6  1  0.21880000  0.87910000  0.06460000  1.0 -0.2786522706
C  C7  1  0.21880000  0.12090000  0.43540000  1.0 -0.2786522706
C  C8  1  0.78120000  0.87910000  0.43540000  1.0 -0.2786522706
C  C9  1  0.12090000  0.78120000  0.56460000  1.0 -0.2786522706
C  C10  1  0.87910000  0.21880000  0.56460000  1.0 -0.2786522706
C  C11  1  0.12090000  0.21880000  0.93540000  1.0 -0.2786522706
C  C12  1  0.87910000  0.78120000  0.93540000  1.0 -0.2786522706
C  C13  1  0.71880000  0.37910000  0.43540000  1.0 -0.2786522706
C  C14  1  0.28120000  0.62090000  0.43540000  1.0 -0.2786522706
C  C15  1  0.28120000  0.37910000  0.06460000  1.0 -0.2786522706
C  C16  1  0.71880000  0.62090000  0.06460000  1.0 -0.2786522706
C  C17  1  0.41550000  0.77360000  0.95947000  1.0 0.194924768
C  C18  1  0.58450000  0.22640000  0.95947000  1.0 0.194924768
C  C19  1  0.41550000  0.22640000  0.54053000  1.0 0.194924768
C  C20  1  0.58450000  0.77360000  0.54053000  1.0 0.194924768
C  C21  1  0.72640000  0.08450000  0.04053000  1.0 0.194924768
C  C22  1  0.27360000  0.91550000  0.04053000  1.0 0.1985750148
C  C23  1  0.27360000  0.08450000  0.45947000  1.0 0.194924768
C  C24  1  0.72640000  0.91550000  0.45947000  1.0 0.194924768
C  C25  1  0.08450000  0.72640000  0.54053000  1.0 0.1985750148
C  C26  1  0.91550000  0.27360000  0.54053000  1.0 0.194924768
C  C27  1  0.08450000  0.27360000  0.95947000  1.0 0.194924768
C  C28  1  0.91550000  0.72640000  0.95947000  1.0 0.194924768
C  C29  1  0.77360000  0.41550000  0.45947000  1.0 0.194924768
C  C30  1  0.22640000  0.58450000  0.45947000  1.0 0.194924768
C  C31  1  0.22640000  0.41550000  0.04053000  1.0 0.1985750148
C  C32  1  0.77360000  0.58450000  0.04053000  1.0 0.194924768
C  C33  1  0.45690000  0.82590000  0.93712000  1.0 -0.3054656797
C  C34  1  0.54310000  0.17410000  0.93712000  1.0 -0.3054656797
C  C35  1  0.45690000  0.17410000  0.56288000  1.0 -0.3054656797
C  C36  1  0.54310000  0.82590000  0.56288000  1.0 -0.3054656797
C  C37  1  0.67410000  0.04310000  0.06288000  1.0 -0.3054656797
C  C38  1  0.32590000  0.95690000  0.06288000  1.0 -0.3054656797
C  C39  1  0.32590000  0.04310000  0.43712000  1.0 -0.3054656797
C  C40  1  0.67410000  0.95690000  0.43712000  1.0 -0.3054656797
C  C41  1  0.04310000  0.67410000  0.56288000  1.0 -0.3054656797
C  C42  1  0.95690000  0.32590000  0.56288000  1.0 -0.3054656797
C  C43  1  0.04310000  0.32590000  0.93712000  1.0 -0.3054656797
C  C44  1  0.95690000  0.67410000  0.93712000  1.0 -0.3054656797
C  C45  1  0.82590000  0.45690000  0.43712000  1.0 -0.3054656797
C  C46  1  0.17410000  0.54310000  0.43712000  1.0 -0.3054656797
C  C47  1  0.17410000  0.45690000  0.06288000  1.0 -0.3054656797
C  C48  1  0.82590000  0.54310000  0.06288000  1.0 -0.3054656797
C  C49  1  0.46256000  0.82260000  0.88923000  1.0 0.1985750148
C  C50  1  0.53744000  0.17740000  0.88923000  1.0 0.1985750148
C  C51  1  0.46256000  0.17740000  0.61077000  1.0 0.1985750148
C  C52  1  0.53744000  0.82260000  0.61077000  1.0 0.1985750148
C  C53  1  0.67740000  0.03744000  0.11077000  1.0 0.1985750148
C  C54  1  0.32260000  0.96256000  0.11077000  1.0 0.1985750148
C  C55  1  0.32260000  0.03744000  0.38923000  1.0 0.1985750148
C  C56  1  0.67740000  0.96256000  0.38923000  1.0 0.1985750148
C  C57  1  0.03744000  0.67740000  0.61077000  1.0 0.1985750148
C  C58  1  0.96256000  0.32260000  0.61077000  1.0 0.1985750148
C  C59  1  0.03744000  0.32260000  0.88923000  1.0 0.1985750148
C  C60  1  0.96256000  0.67740000  0.88923000  1.0 0.1985750148
C  C61  1  0.82260000  0.46256000  0.38923000  1.0 0.1985750148
C  C62  1  0.17740000  0.53744000  0.38923000  1.0 0.1985750148
C  C63  1  0.17740000  0.46256000  0.11077000  1.0 0.1985750148
C  C64  1  0.82260000  0.53744000  0.11077000  1.0 0.1985750148
C  C65  1  0.42530000  0.76960000  0.86435000  1.0 -0.2665985981
C  C66  1  0.57470000  0.23040000  0.86435000  1.0 -0.2665985981
C  C67  1  0.42530000  0.23040000  0.63565000  1.0 -0.2665985981
C  C68  1  0.57470000  0.76960000  0.63565000  1.0 -0.2665985981
C  C69  1  0.73040000  0.07470000  0.13565000  1.0 -0.2665985981
C  C70  1  0.26960000  0.92530000  0.13565000  1.0 -0.2665985981
C  C71  1  0.26960000  0.07470000  0.36435000  1.0 -0.2665985981
C  C72  1  0.73040000  0.92530000  0.36435000  1.0 -0.2665985981
C  C73  1  0.07470000  0.73040000  0.63565000  1.0 -0.2665985981
C  C74  1  0.92530000  0.26960000  0.63565000  1.0 -0.2665985981
C  C75  1  0.07470000  0.26960000  0.86435000  1.0 -0.2665985981
C  C76  1  0.92530000  0.73040000  0.86435000  1.0 -0.2665985981
C  C77  1  0.76960000  0.42530000  0.36435000  1.0 -0.2665985981
C  C78  1  0.23040000  0.57470000  0.36435000  1.0 -0.2665985981
C  C79  1  0.23040000  0.42530000  0.13565000  1.0 -0.2665985981
C  C80  1  0.76960000  0.57470000  0.13565000  1.0 -0.2665985981
C  C81  1  0.38380000  0.71830000  0.88785000  1.0 0.1985750148
C  C82  1  0.61620000  0.28170000  0.88785000  1.0 0.1985750148
C  C83  1  0.38380000  0.28170000  0.61215000  1.0 0.1985750148
C  C84  1  0.61620000  0.71830000  0.61215000  1.0 0.1985750148
C  C85  1  0.78170000  0.11620000  0.11215000  1.0 0.1985750148
C  C86  1  0.21830000  0.88380000  0.11215000  1.0 0.1985750148
C  C87  1  0.21830000  0.11620000  0.38785000  1.0 0.1985750148
C  C88  1  0.78170000  0.88380000  0.38785000  1.0 0.1985750148
C  C89  1  0.11620000  0.78170000  0.61215000  1.0 0.1985750148
C  C90  1  0.88380000  0.21830000  0.61215000  1.0 0.1985750148
C  C91  1  0.11620000  0.21830000  0.88785000  1.0 0.1985750148
C  C92  1  0.88380000  0.78170000  0.88785000  1.0 0.1985750148
C  C93  1  0.71830000  0.38380000  0.38785000  1.0 0.1985750148
C  C94  1  0.28170000  0.61620000  0.38785000  1.0 0.1985750148
C  C95  1  0.28170000  0.38380000  0.11215000  1.0 0.1985750148
C  C96  1  0.71830000  0.61620000  0.11215000  1.0 0.1985750148
C  C97  1  0.46120000  0.80100000  0.03913000  1.0 0.0292940718
C  C98  1  0.53880000  0.19900000  0.03913000  1.0 0.0292940718
C  C99  1  0.46120000  0.19900000  0.46087000  1.0 0.0292940718
C  C100  1  0.53880000  0.80100000  0.46087000  1.0 0.0292940718
C  C101  1  0.69900000  0.03880000  0.96087000  1.0 0.0292940718
C  C102  1  0.30100000  0.96120000  0.96087000  1.0 0.0292940718
C  C103  1  0.30100000  0.03880000  0.53913000  1.0 0.0292940718
C  C104  1  0.69900000  0.96120000  0.53913000  1.0 0.0292940718
C  C105  1  0.03880000  0.69900000  0.46087000  1.0 0.0292940718
C  C106  1  0.96120000  0.30100000  0.46087000  1.0 0.0292940718
C  C107  1  0.03880000  0.30100000  0.03913000  1.0 0.0292940718
C  C108  1  0.96120000  0.69900000  0.03913000  1.0 0.0292940718
C  C109  1  0.80100000  0.46120000  0.53913000  1.0 0.0292940718
C  C110  1  0.19900000  0.53880000  0.53913000  1.0 0.0292940718
C  C111  1  0.19900000  0.46120000  0.96087000  1.0 0.0292940718
C  C112  1  0.80100000  0.53880000  0.96087000  1.0 0.0292940718
C  C113  1  0.37180000  0.75680000  0.07901000  1.0 -0.0498838672
C  C114  1  0.62820000  0.24320000  0.07901000  1.0 -0.0498838672
C  C115  1  0.37180000  0.24320000  0.42099000  1.0 -0.0498838672
C  C116  1  0.62820000  0.75680000  0.42099000  1.0 -0.0498838672
C  C117  1  0.74320000  0.12820000  0.92099000  1.0 -0.0498838672
C  C118  1  0.25680000  0.87180000  0.92099000  1.0 -0.0498838672
C  C119  1  0.25680000  0.12820000  0.57901000  1.0 -0.0498838672
C  C120  1  0.74320000  0.87180000  0.57901000  1.0 -0.0498838672
C  C121  1  0.12820000  0.74320000  0.42099000  1.0 -0.0498838672
C  C122  1  0.87180000  0.25680000  0.42099000  1.0 -0.0498838672
C  C123  1  0.12820000  0.25680000  0.07901000  1.0 -0.0498838672
C  C124  1  0.87180000  0.74320000  0.07901000  1.0 -0.0498838672
C  C125  1  0.75680000  0.37180000  0.57901000  1.0 -0.0498838672
C  C126  1  0.24320000  0.62820000  0.57901000  1.0 -0.0498838672
C  C127  1  0.24320000  0.37180000  0.92099000  1.0 -0.0498838672
C  C128  1  0.75680000  0.62820000  0.92099000  1.0 -0.0498838672
C  C129  1  0.35410000  0.74560000  0.03503000  1.0 -0.1200593002
C  C130  1  0.64590000  0.25440000  0.03503000  1.0 -0.1200593002
C  C131  1  0.35410000  0.25440000  0.46497000  1.0 -0.1200593002
C  C132  1  0.64590000  0.74560000  0.46497000  1.0 -0.1200593002
C  C133  1  0.75440000  0.14590000  0.96497000  1.0 -0.1200593002
C  C134  1  0.24560000  0.85410000  0.96497000  1.0 -0.1200593002
C  C135  1  0.24560000  0.14590000  0.53503000  1.0 -0.1200593002
C  C136  1  0.75440000  0.85410000  0.53503000  1.0 -0.1200593002
C  C137  1  0.14590000  0.75440000  0.46497000  1.0 -0.1200593002
C  C138  1  0.85410000  0.24560000  0.46497000  1.0 -0.1200593002
C  C139  1  0.14590000  0.24560000  0.03503000  1.0 -0.1200593002
C  C140  1  0.85410000  0.75440000  0.03503000  1.0 -0.1200593002
C  C141  1  0.74560000  0.35410000  0.53503000  1.0 -0.1200593002
C  C142  1  0.25440000  0.64590000  0.53503000  1.0 -0.1200593002
C  C143  1  0.25440000  0.35410000  0.96497000  1.0 -0.1200593002
C  C144  1  0.74560000  0.64590000  0.96497000  1.0 -0.1200593002
C  C145  1  0.56450000  0.91240000  0.88395000  1.0 0.0447540953
C  C146  1  0.43550000  0.08760000  0.88395000  1.0 0.0447540953
C  C147  1  0.56450000  0.08760000  0.61605000  1.0 0.0447540953
C  C148  1  0.43550000  0.91240000  0.61605000  1.0 0.0447540953
C  C149  1  0.58760000  0.93550000  0.11605000  1.0 0.045316521
C  C150  1  0.41240000  0.06450000  0.11605000  1.0 0.0447540953
C  C151  1  0.41240000  0.93550000  0.38395000  1.0 0.0447540953
C  C152  1  0.58760000  0.06450000  0.38395000  1.0 0.0447540953
C  C153  1  0.93550000  0.58760000  0.61605000  1.0 0.0447540953
C  C154  1  0.06450000  0.41240000  0.61605000  1.0 0.0447540953
C  C155  1  0.93550000  0.41240000  0.88395000  1.0 0.045316521
C  C156  1  0.06450000  0.58760000  0.88395000  1.0 0.0447540953
C  C157  1  0.91240000  0.56450000  0.38395000  1.0 0.045316521
C  C158  1  0.08760000  0.43550000  0.38395000  1.0 0.0447540953
C  C159  1  0.08760000  0.56450000  0.11605000  1.0 0.0447540953
C  C160  1  0.91240000  0.43550000  0.11605000  1.0 0.045316521
C  C161  1  0.56360000  0.93620000  0.81185000  1.0 -0.0498838672
C  C162  1  0.43640000  0.06380000  0.81185000  1.0 -0.0498838672
C  C163  1  0.56360000  0.06380000  0.68815000  1.0 -0.0498838672
C  C164  1  0.43640000  0.93620000  0.68815000  1.0 -0.0498838672
C  C165  1  0.56380000  0.93640000  0.18815000  1.0 -0.0498838672
C  C166  1  0.43620000  0.06360000  0.18815000  1.0 -0.0498838672
C  C167  1  0.43620000  0.93640000  0.31185000  1.0 -0.0498838672
C  C168  1  0.56380000  0.06360000  0.31185000  1.0 -0.0498838672
C  C169  1  0.93640000  0.56380000  0.68815000  1.0 -0.0498838672
C  C170  1  0.06360000  0.43620000  0.68815000  1.0 -0.0498838672
C  C171  1  0.93640000  0.43620000  0.81185000  1.0 -0.0498838672
C  C172  1  0.06360000  0.56380000  0.81185000  1.0 -0.0498838672
C  C173  1  0.93620000  0.56360000  0.31185000  1.0 -0.0498838672
C  C174  1  0.06380000  0.43640000  0.31185000  1.0 -0.0498838672
C  C175  1  0.06380000  0.56360000  0.18815000  1.0 -0.0498838672
C  C176  1  0.93620000  0.43640000  0.18815000  1.0 -0.0498838672
C  C177  1  0.50890000  0.88830000  0.81885000  1.0 -0.1014783974
C  C178  1  0.49110000  0.11170000  0.81885000  1.0 -0.1014783974
C  C179  1  0.50890000  0.11170000  0.68115000  1.0 -0.1014783974
C  C180  1  0.49110000  0.88830000  0.68115000  1.0 -0.1014783974
C  C181  1  0.61170000  0.99110000  0.18115000  1.0 -0.1014783974
C  C182  1  0.38830000  0.00890000  0.18115000  1.0 -0.1014783974
C  C183  1  0.38830000  0.99110000  0.31885000  1.0 -0.1014783974
C  C184  1  0.61170000  0.00890000  0.31885000  1.0 -0.1014783974
C  C185  1  0.99110000  0.61170000  0.68115000  1.0 -0.1014783974
C  C186  1  0.00890000  0.38830000  0.68115000  1.0 -0.1014783974
C  C187  1  0.99110000  0.38830000  0.81885000  1.0 -0.1014783974
C  C188  1  0.00890000  0.61170000  0.81885000  1.0 -0.1014783974
C  C189  1  0.88830000  0.50890000  0.31885000  1.0 -0.1014783974
C  C190  1  0.11170000  0.49110000  0.31885000  1.0 -0.1014783974
C  C191  1  0.11170000  0.50890000  0.18115000  1.0 -0.1014783974
C  C192  1  0.88830000  0.49110000  0.18115000  1.0 -0.1014783974
C  C193  1  0.28770000  0.62370000  0.87738000  1.0 0.0292940718
C  C194  1  0.71230000  0.37630000  0.87738000  1.0 0.0292940718
C  C195  1  0.28770000  0.37630000  0.62262000  1.0 0.0292940718
C  C196  1  0.71230000  0.62370000  0.62262000  1.0 0.0292940718
C  C197  1  0.87630000  0.21230000  0.12262000  1.0 0.0292940718
C  C198  1  0.12370000  0.78770000  0.12262000  1.0 0.0292940718
C  C199  1  0.12370000  0.21230000  0.37738000  1.0 0.0292940718
C  C200  1  0.87630000  0.78770000  0.37738000  1.0 0.0292940718
C  C201  1  0.21230000  0.87630000  0.62262000  1.0 0.0292940718
C  C202  1  0.78770000  0.12370000  0.62262000  1.0 0.0292940718
C  C203  1  0.21230000  0.12370000  0.87738000  1.0 0.0292940718
C  C204  1  0.78770000  0.87630000  0.87738000  1.0 0.0292940718
C  C205  1  0.62370000  0.28770000  0.37738000  1.0 0.0292940718
C  C206  1  0.37630000  0.71230000  0.37738000  1.0 0.0292940718
C  C207  1  0.37630000  0.28770000  0.12262000  1.0 0.0292940718
C  C208  1  0.62370000  0.71230000  0.12262000  1.0 0.0292940718
C  C209  1  0.32340000  0.57430000  0.81326000  1.0 -0.0150935296
C  C210  1  0.67660000  0.42570000  0.81326000  1.0 -0.0146790482
C  C211  1  0.32340000  0.42570000  0.68674000  1.0 -0.0150935296
C  C212  1  0.67660000  0.57430000  0.68674000  1.0 -0.0146790482
C  C213  1  0.92570000  0.17660000  0.18674000  1.0 -0.0150935296
C  C214  1  0.07430000  0.82340000  0.18674000  1.0 -0.0150935296
C  C215  1  0.07430000  0.17660000  0.31326000  1.0 -0.0150935296
C  C216  1  0.92570000  0.82340000  0.31326000  1.0 -0.0150935296
C  C217  1  0.17660000  0.92570000  0.68674000  1.0 -0.0150935296
C  C218  1  0.82340000  0.07430000  0.68674000  1.0 -0.0146790482
C  C219  1  0.17660000  0.07430000  0.81326000  1.0 -0.0146790482
C  C220  1  0.82340000  0.92570000  0.81326000  1.0 -0.0146790482
C  C221  1  0.57430000  0.32340000  0.31326000  1.0 -0.0150935296
C  C222  1  0.42570000  0.67660000  0.31326000  1.0 -0.0150935296
C  C223  1  0.42570000  0.32340000  0.18674000  1.0 -0.0150935296
C  C224  1  0.57430000  0.67660000  0.18674000  1.0 -0.0150935296
C  C225  1  0.37000000  0.62980000  0.82190000  1.0 -0.1014783974
C  C226  1  0.63000000  0.37020000  0.82190000  1.0 -0.1014783974
C  C227  1  0.37000000  0.37020000  0.67810000  1.0 -0.1014783974
C  C228  1  0.63000000  0.62980000  0.67810000  1.0 -0.1014783974
C  C229  1  0.87020000  0.13000000  0.17810000  1.0 -0.1014783974
C  C230  1  0.12980000  0.87000000  0.17810000  1.0 -0.1014783974
C  C231  1  0.12980000  0.13000000  0.32190000  1.0 -0.1014783974
C  C232  1  0.87020000  0.87000000  0.32190000  1.0 -0.1014783974
C  C233  1  0.13000000  0.87020000  0.67810000  1.0 -0.1014783974
C  C234  1  0.87000000  0.12980000  0.67810000  1.0 -0.1014783974
C  C235  1  0.13000000  0.12980000  0.82190000  1.0 -0.1014783974
C  C236  1  0.87000000  0.87020000  0.82190000  1.0 -0.1014783974
C  C237  1  0.62980000  0.37000000  0.32190000  1.0 -0.1014783974
C  C238  1  0.37020000  0.63000000  0.32190000  1.0 -0.1014783974
C  C239  1  0.37020000  0.37000000  0.17810000  1.0 -0.1014783974
C  C240  1  0.62980000  0.63000000  0.17810000  1.0 -0.1014783974
C  C241  1  0.38380000  0.75900000  0.19576000  1.0 0.5133102648
C  C242  1  0.61620000  0.24100000  0.19576000  1.0 0.5133102648
C  C243  1  0.38380000  0.24100000  0.30424000  1.0 0.5133102648
C  C244  1  0.61620000  0.75900000  0.30424000  1.0 0.5133102648
C  C245  1  0.74100000  0.11620000  0.80424000  1.0 0.5133102648
C  C246  1  0.25900000  0.88380000  0.80424000  1.0 0.5133102648
C  C247  1  0.25900000  0.11620000  0.69576000  1.0 0.5133102648
C  C248  1  0.74100000  0.88380000  0.69576000  1.0 0.5133102648
C  C249  1  0.11620000  0.74100000  0.30424000  1.0 0.5133102648
C  C250  1  0.88380000  0.25900000  0.30424000  1.0 0.5133102648
C  C251  1  0.11620000  0.25900000  0.19576000  1.0 0.5133102648
C  C252  1  0.88380000  0.74100000  0.19576000  1.0 0.5133102648
C  C253  1  0.75900000  0.38380000  0.69576000  1.0 0.5133102648
C  C254  1  0.24100000  0.61620000  0.69576000  1.0 0.5133102648
C  C255  1  0.24100000  0.38380000  0.80424000  1.0 0.5133102648
C  C256  1  0.75900000  0.61620000  0.80424000  1.0 0.5133102648
C  C257  1  0.31340000  0.75500000  0.22297000  1.0 -0.0343724806
C  C258  1  0.68660000  0.24500000  0.22297000  1.0 -0.0343724806
C  C259  1  0.31340000  0.24500000  0.27703000  1.0 -0.0343724806
C  C260  1  0.68660000  0.75500000  0.27703000  1.0 -0.0343724806
C  C261  1  0.74500000  0.18660000  0.77703000  1.0 -0.0343724806
C  C262  1  0.25500000  0.81340000  0.77703000  1.0 -0.0343724806
C  C263  1  0.25500000  0.18660000  0.72297000  1.0 -0.0343724806
C  C264  1  0.74500000  0.81340000  0.72297000  1.0 -0.0343724806
C  C265  1  0.18660000  0.74500000  0.27703000  1.0 -0.0343724806
C  C266  1  0.81340000  0.25500000  0.27703000  1.0 -0.0343724806
C  C267  1  0.18660000  0.25500000  0.22297000  1.0 -0.0343724806
C  C268  1  0.81340000  0.74500000  0.22297000  1.0 -0.0343724806
C  C269  1  0.75500000  0.31340000  0.72297000  1.0 -0.0343724806
C  C270  1  0.24500000  0.68660000  0.72297000  1.0 -0.0343724806
C  C271  1  0.24500000  0.31340000  0.77703000  1.0 -0.0343724806
C  C272  1  0.75500000  0.68660000  0.77703000  1.0 -0.0343724806
C  C273  1  0.30280000  0.80160000  0.26061000  1.0 -0.1703476142
C  C274  1  0.69720000  0.19840000  0.26061000  1.0 -0.1703476142
C  C275  1  0.30280000  0.19840000  0.23939000  1.0 -0.1703476142
C  C276  1  0.69720000  0.80160000  0.23939000  1.0 -0.1703476142
C  C277  1  0.69840000  0.19720000  0.73939000  1.0 -0.1703476142
C  C278  1  0.30160000  0.80280000  0.73939000  1.0 -0.1703476142
C  C279  1  0.30160000  0.19720000  0.76061000  1.0 -0.1703476142
C  C280  1  0.69840000  0.80280000  0.76061000  1.0 -0.1703476142
C  C281  1  0.19720000  0.69840000  0.23939000  1.0 -0.1703476142
C  C282  1  0.80280000  0.30160000  0.23939000  1.0 -0.1703476142
C  C283  1  0.19720000  0.30160000  0.26061000  1.0 -0.1703476142
C  C284  1  0.80280000  0.69840000  0.26061000  1.0 -0.1703476142
C  C285  1  0.80160000  0.30280000  0.76061000  1.0 -0.1703476142
C  C286  1  0.19840000  0.69720000  0.76061000  1.0 -0.1703476142
C  C287  1  0.19840000  0.30280000  0.73939000  1.0 -0.1703476142
C  C288  1  0.80160000  0.69720000  0.73939000  1.0 -0.1703476142
C  C289  1  0.24050000  0.79570000  0.28740000  1.0 -0.0851051472
C  C290  1  0.75950000  0.20430000  0.28740000  1.0 -0.0851051472
C  C291  1  0.24050000  0.20430000  0.21260000  1.0 -0.0851051472
C  C292  1  0.75950000  0.79570000  0.21260000  1.0 -0.0851051472
C  C293  1  0.70430000  0.25950000  0.71260000  1.0 -0.0851051472
C  C294  1  0.29570000  0.74050000  0.71260000  1.0 -0.0851051472
C  C295  1  0.29570000  0.25950000  0.78740000  1.0 -0.0851051472
C  C296  1  0.70430000  0.74050000  0.78740000  1.0 -0.0851051472
C  C297  1  0.25950000  0.70430000  0.21260000  1.0 -0.0851051472
C  C298  1  0.74050000  0.29570000  0.21260000  1.0 -0.0851051472
C  C299  1  0.25950000  0.29570000  0.28740000  1.0 -0.0851051472
C  C300  1  0.74050000  0.70430000  0.28740000  1.0 -0.0851051472
C  C301  1  0.79570000  0.24050000  0.78740000  1.0 -0.0851051472
C  C302  1  0.20430000  0.75950000  0.78740000  1.0 -0.0851051472
C  C303  1  0.20430000  0.24050000  0.71260000  1.0 -0.0851051472
C  C304  1  0.79570000  0.75950000  0.71260000  1.0 -0.0851051472
Br  Br1  1  0.24526000  0.85591000  0.34616000  1.0 -0.146013245
Br  Br2  1  0.75474000  0.14409000  0.34616000  1.0 -0.146013245
Br  Br3  1  0.24526000  0.14409000  0.15384000  1.0 -0.146013245
Br  Br4  1  0.75474000  0.85591000  0.15384000  1.0 -0.146013245
Br  Br5  1  0.64409000  0.25474000  0.65384000  1.0 -0.146013245
Br  Br6  1  0.35591000  0.74526000  0.65384000  1.0 -0.146013245
Br  Br7  1  0.35591000  0.25474000  0.84616000  1.0 -0.146013245
Br  Br8  1  0.64409000  0.74526000  0.84616000  1.0 -0.146013245
Br  Br9  1  0.25474000  0.64409000  0.15384000  1.0 -0.146013245
Br  Br10  1  0.74526000  0.35591000  0.15384000  1.0 -0.146013245
Br  Br11  1  0.25474000  0.35591000  0.34616000  1.0 -0.146013245
Br  Br12  1  0.74526000  0.64409000  0.34616000  1.0 -0.146013245
Br  Br13  1  0.85591000  0.24526000  0.84616000  1.0 -0.146013245
Br  Br14  1  0.14409000  0.75474000  0.84616000  1.0 -0.146013245
Br  Br15  1  0.14409000  0.24526000  0.65384000  1.0 -0.146013245
Br  Br16  1  0.85591000  0.75474000  0.65384000  1.0 -0.146013245
N  N1  1  0.43984000  0.79091000  0.08198000  1.0 -0.2786522706
N  N2  1  0.56016000  0.20909000  0.08198000  1.0 -0.2786522706
N  N3  1  0.43984000  0.20909000  0.41802000  1.0 -0.2786522706
N  N4  1  0.56016000  0.79091000  0.41802000  1.0 -0.2786522706
N  N5  1  0.70909000  0.06016000  0.91802000  1.0 -0.2786522706
N  N6  1  0.29091000  0.93984000  0.91802000  1.0 -0.2786522706
N  N7  1  0.29091000  0.06016000  0.58198000  1.0 -0.2786522706
N  N8  1  0.70909000  0.93984000  0.58198000  1.0 -0.2786522706
N  N9  1  0.06016000  0.70909000  0.41802000  1.0 -0.2786522706
N  N10  1  0.93984000  0.29091000  0.41802000  1.0 -0.2786522706
N  N11  1  0.06016000  0.29091000  0.08198000  1.0 -0.2786522706
N  N12  1  0.93984000  0.70909000  0.08198000  1.0 -0.2786522706
N  N13  1  0.79091000  0.43984000  0.58198000  1.0 -0.2786522706
N  N14  1  0.20909000  0.56016000  0.58198000  1.0 -0.2786522706
N  N15  1  0.20909000  0.43984000  0.91802000  1.0 -0.2786522706
N  N16  1  0.79091000  0.56016000  0.91802000  1.0 -0.2786522706
N  N17  1  0.41033000  0.77474000  0.00905000  1.0 0.0036730961
N  N18  1  0.58967000  0.22526000  0.00905000  1.0 0.0036730961
N  N19  1  0.41033000  0.22526000  0.49095000  1.0 0.0036730961
N  N20  1  0.58967000  0.77474000  0.49095000  1.0 0.0036730961
N  N21  1  0.72526000  0.08967000  0.99095000  1.0 0.0036730961
N  N22  1  0.27474000  0.91033000  0.99095000  1.0 0.0036730961
N  N23  1  0.27474000  0.08967000  0.50905000  1.0 0.0036730961
N  N24  1  0.72526000  0.91033000  0.50905000  1.0 0.0036730961
N  N25  1  0.08967000  0.72526000  0.49095000  1.0 0.0036730961
N  N26  1  0.91033000  0.27474000  0.49095000  1.0 0.0036730961
N  N27  1  0.08967000  0.27474000  0.00905000  1.0 0.0036730961
N  N28  1  0.91033000  0.72526000  0.00905000  1.0 0.0036730961
N  N29  1  0.77474000  0.41033000  0.50905000  1.0 0.0036730961
N  N30  1  0.22526000  0.58967000  0.50905000  1.0 0.0036730961
N  N31  1  0.22526000  0.41033000  0.99095000  1.0 0.0036730961
N  N32  1  0.77474000  0.58967000  0.99095000  1.0 0.0036730961
N  N33  1  0.59931000  0.95112000  0.85296000  1.0 -0.2786522706
N  N34  1  0.40069000  0.04888000  0.85296000  1.0 -0.2786522706
N  N35  1  0.59931000  0.04888000  0.64704000  1.0 -0.2786522706
N  N36  1  0.40069000  0.95112000  0.64704000  1.0 -0.2786522706
N  N37  1  0.54888000  0.90069000  0.14704000  1.0 -0.2786522706
N  N38  1  0.45112000  0.09931000  0.14704000  1.0 -0.2786522706
N  N39  1  0.45112000  0.90069000  0.35296000  1.0 -0.2786522706
N  N40  1  0.54888000  0.09931000  0.35296000  1.0 -0.2786522706
N  N41  1  0.90069000  0.54888000  0.64704000  1.0 -0.2786522706
N  N42  1  0.09931000  0.45112000  0.64704000  1.0 -0.2786522706
N  N43  1  0.90069000  0.45112000  0.85296000  1.0 -0.2786522706
N  N44  1  0.09931000  0.54888000  0.85296000  1.0 -0.2786522706
N  N45  1  0.95112000  0.59931000  0.35296000  1.0 -0.2786522706
N  N46  1  0.04888000  0.40069000  0.35296000  1.0 -0.2786522706
N  N47  1  0.04888000  0.59931000  0.14704000  1.0 -0.2786522706
N  N48  1  0.95112000  0.40069000  0.14704000  1.0 -0.2786522706
N  N49  1  0.50871000  0.87373000  0.86560000  1.0 0.0036730961
N  N50  1  0.49129000  0.12627000  0.86560000  1.0 0.0036730961
N  N51  1  0.50871000  0.12627000  0.63440000  1.0 0.0036730961
N  N52  1  0.49129000  0.87373000  0.63440000  1.0 0.0036730961
N  N53  1  0.62627000  0.99129000  0.13440000  1.0 0.0036730961
N  N54  1  0.37373000  0.00871000  0.13440000  1.0 0.0036730961
N  N55  1  0.37373000  0.99129000  0.36560000  1.0 0.0036730961
N  N56  1  0.62627000  0.00871000  0.36560000  1.0 0.0036730961
N  N57  1  0.99129000  0.62627000  0.63440000  1.0 0.0036730961
N  N58  1  0.00871000  0.37373000  0.63440000  1.0 0.0036730961
N  N59  1  0.99129000  0.37373000  0.86560000  1.0 0.0036730961
N  N60  1  0.00871000  0.62627000  0.86560000  1.0 0.0036730961
N  N61  1  0.87373000  0.50871000  0.36560000  1.0 0.0036730961
N  N62  1  0.12627000  0.49129000  0.36560000  1.0 0.0036730961
N  N63  1  0.12627000  0.50871000  0.13440000  1.0 0.0036730961
N  N64  1  0.87373000  0.49129000  0.13440000  1.0 0.0036730961
N  N65  1  0.27174000  0.57008000  0.84785000  1.0 -0.2665985981
N  N66  1  0.72826000  0.42992000  0.84785000  1.0 -0.2665985981
N  N67  1  0.27174000  0.42992000  0.65215000  1.0 -0.2665985981
N  N68  1  0.72826000  0.57008000  0.65215000  1.0 -0.2665985981
N  N69  1  0.92992000  0.22826000  0.15215000  1.0 -0.2665985981
N  N70  1  0.07008000  0.77174000  0.15215000  1.0 -0.2665985981
N  N71  1  0.07008000  0.22826000  0.34785000  1.0 -0.2665985981
N  N72  1  0.92992000  0.77174000  0.34785000  1.0 -0.2665985981
N  N73  1  0.22826000  0.92992000  0.65215000  1.0 -0.2665985981
N  N74  1  0.77174000  0.07008000  0.65215000  1.0 -0.2665985981
N  N75  1  0.22826000  0.07008000  0.84785000  1.0 -0.2665985981
N  N76  1  0.77174000  0.92992000  0.84785000  1.0 -0.2665985981
N  N77  1  0.57008000  0.27174000  0.34785000  1.0 -0.2665985981
N  N78  1  0.42992000  0.72826000  0.34785000  1.0 -0.2665985981
N  N79  1  0.42992000  0.27174000  0.15215000  1.0 -0.2665985981
N  N80  1  0.57008000  0.72826000  0.15215000  1.0 -0.2665985981
N  N81  1  0.34739000  0.66115000  0.86330000  1.0 0.0103237649
N  N82  1  0.65261000  0.33885000  0.86330000  1.0 0.0103237649
N  N83  1  0.34739000  0.33885000  0.63670000  1.0 0.0103237649
N  N84  1  0.65261000  0.66115000  0.63670000  1.0 0.0103237649
N  N85  1  0.83885000  0.15261000  0.13670000  1.0 0.0103237649
N  N86  1  0.16115000  0.84739000  0.13670000  1.0 0.0103237649
N  N87  1  0.16115000  0.15261000  0.36330000  1.0 0.0103237649
N  N88  1  0.83885000  0.84739000  0.36330000  1.0 0.0103237649
N  N89  1  0.15261000  0.83885000  0.63670000  1.0 0.0103237649
N  N90  1  0.84739000  0.16115000  0.63670000  1.0 0.0103237649
N  N91  1  0.15261000  0.16115000  0.86330000  1.0 0.0103237649
N  N92  1  0.84739000  0.83885000  0.86330000  1.0 0.0103237649
N  N93  1  0.66115000  0.34739000  0.36330000  1.0 0.0103237649
N  N94  1  0.33885000  0.65261000  0.36330000  1.0 0.0103237649
N  N95  1  0.33885000  0.34739000  0.13670000  1.0 0.0103237649
N  N96  1  0.66115000  0.65261000  0.13670000  1.0 0.0103237649
O  O1  1  0.41480000  0.81970000  0.19074000  1.0 -0.5298124869
O  O2  1  0.58520000  0.18030000  0.19074000  1.0 -0.5298124869
O  O3  1  0.41480000  0.18030000  0.30926000  1.0 -0.5298124869
O  O4  1  0.58520000  0.81970000  0.30926000  1.0 -0.5298124869
O  O5  1  0.68030000  0.08520000  0.80926000  1.0 -0.5298124869
O  O6  1  0.31970000  0.91480000  0.80926000  1.0 -0.5298124869
O  O7  1  0.31970000  0.08520000  0.69074000  1.0 -0.5298124869
O  O8  1  0.68030000  0.91480000  0.69074000  1.0 -0.5298124869
O  O9  1  0.08520000  0.68030000  0.30926000  1.0 -0.5298124869
O  O10  1  0.91480000  0.31970000  0.30926000  1.0 -0.5298124869
O  O11  1  0.08520000  0.31970000  0.19074000  1.0 -0.5298124869
O  O12  1  0.91480000  0.68030000  0.19074000  1.0 -0.5298124869
O  O13  1  0.81970000  0.41480000  0.69074000  1.0 -0.5298124869
O  O14  1  0.18030000  0.58520000  0.69074000  1.0 -0.5298124869
O  O15  1  0.18030000  0.41480000  0.80926000  1.0 -0.5298124869
O  O16  1  0.81970000  0.58520000  0.80926000  1.0 -0.5298124869
O  O17  1  0.40894000  0.70127000  0.17864000  1.0 -0.5298124869
O  O18  1  0.59106000  0.29873000  0.17864000  1.0 -0.5298124869
O  O19  1  0.40894000  0.29873000  0.32136000  1.0 -0.5298124869
O  O20  1  0.59106000  0.70127000  0.32136000  1.0 -0.5298124869
O  O21  1  0.79873000  0.09106000  0.82136000  1.0 -0.5298124869
O  O22  1  0.20127000  0.90894000  0.82136000  1.0 -0.5298124869
O  O23  1  0.20127000  0.09106000  0.67864000  1.0 -0.5298124869
O  O24  1  0.79873000  0.90894000  0.67864000  1.0 -0.5298124869
O  O25  1  0.09106000  0.79873000  0.32136000  1.0 -0.5298124869
O  O26  1  0.90894000  0.20127000  0.32136000  1.0 -0.5298124869
O  O27  1  0.09106000  0.20127000  0.17864000  1.0 -0.5298124869
O  O28  1  0.90894000  0.79873000  0.17864000  1.0 -0.5298124869
O  O29  1  0.70127000  0.40894000  0.67864000  1.0 -0.5298124869
O  O30  1  0.29873000  0.59106000  0.67864000  1.0 -0.5298124869
O  O31  1  0.29873000  0.40894000  0.82136000  1.0 -0.5298124869
O  O32  1  0.70127000  0.59106000  0.82136000  1.0 -0.5298124869
