# DDEC6 charges by PACMAN v1.1 (https://github.com/mtap-research/PACMAN-charge/)
data_MUKDUU_FSR_pacman
_chemical_formula_sum              "Fe24 O128 H240 C336 N16"
_cell_length_a       30.557
_cell_length_b       15.917
_cell_length_c       41.023
_cell_angle_alpha    90
_cell_angle_beta     90
_cell_angle_gamma    90

_symmetry_space_group_name_H-M    "P 1"
_symmetry_Int_Tables_number       1

loop_
  _symmetry_equiv_pos_as_xyz
  'x, y, z'

loop_
  _atom_site_type_symbol
  _atom_site_label
  _atom_site_symmetry_multiplicity
  _atom_site_fract_x
  _atom_site_fract_y
  _atom_site_fract_z
  _atom_site_occupancy
 _atom_site_charge
Fe  Fe1       1.0  0.55426  0.02920  0.52804  1.0000 1.1811436359
Fe  Fe2       1.0  0.30287  0.52235  0.35784  1.0000 1.1611387476
Fe  Fe3       1.0  0.52391  0.95802  0.60076  1.0000 1.1898399735
O   O1        1.0  0.51561  0.03010  0.56402  1.0000 -0.9017007009
O   O2        1.0  0.29100  0.35540  0.30818  1.0000 -0.5134896294
O   O3        1.0  0.10760  0.97990  0.55826  1.0000 -0.5618761048
O   O4        1.0  0.28770  0.41480  0.78186  1.0000 -0.4857630685
O   O5        1.0  0.42390  0.02830  0.58610  1.0000 -0.5312768141
O   O6        1.0  0.26462  0.52830  0.32117  1.0000 -0.86421832
O   O7        1.0  0.54430  0.85720  0.57421  1.0000 -0.5727642731
O   O8        1.0  0.25050  0.70670  0.33716  1.0000 -0.5036549226
O   O9        1.0  0.08400  0.00060  0.60830  1.0000 -0.5174048797
O   O10       1.0  0.34250  0.51560  0.39548  1.0000 -0.5727642731
H   H1        1.0  0.33565  0.51682  0.41557  1.0000 0.3507428405
H   H2        1.0  0.37015  0.51084  0.39538  1.0000 0.3507428405
O   O11       1.0  0.46185  0.91390  0.60051  1.0000 -0.5618761048
O   O12       1.0  0.75510  0.49650  0.39071  1.0000 -0.5618761048
O   O13       1.0  0.55200  0.90450  0.52423  1.0000 -0.5312768141
C   C1        1.0  0.42540  0.95450  0.59580  1.0000 0.564666365
O   O14       1.0  0.66235  0.50070  0.78110  1.0000 -0.5312768141
O   O15       1.0  0.27620  0.64590  0.77670  1.0000 -0.4775685475
O   O16       1.0  0.50680  0.04470  0.63480  1.0000 -0.5174048797
O   O17       1.0  0.53470  0.88390  0.63964  1.0000 -0.6000766598
H   H3        1.0  0.53284  0.89691  0.65970  1.0000 0.3566540845
H   H4        1.0  0.54231  0.83254  0.63970  1.0000 0.3566540845
O   O18       1.0  0.32350  0.51570  0.80580  1.0000 -0.5312768141
O   O19       1.0  0.30970  0.39970  0.35700  1.0000 -0.5312768141
O   O20       1.0  0.44630  0.07180  0.51988  1.0000 -0.5312768141
O   O21       1.0  0.48010  0.15360  0.60820  1.0000 -0.5513156311
O   O22       1.0  0.24120  0.54760  0.74943  1.0000 -0.5618761048
O   O23       1.0  0.59840  0.02360  0.48730  1.0000 -0.6000766598
H   H5        1.0  0.62615  0.02019  0.48789  1.0000 0.3393209174
H   H6        1.0  0.59219  0.02440  0.46714  1.0000 0.3393209174
O   O24       1.0  0.56280  0.15230  0.52980  1.0000 -0.5383892114
O   O25       1.0  0.69860  0.42680  0.36750  1.0000 -0.5174048797
O   O26       1.0  0.50720  0.03970  0.49402  1.0000 -0.5312768141
O   O27       1.0  0.30150  0.64700  0.36680  1.0000 -0.5312768141
O   O28       1.0  0.41500  0.18890  0.56450  1.0000 -0.6000766598
H   H7        1.0  0.40200  0.20916  0.58108  1.0000 0.3507428405
H   H8        1.0  0.40151  0.20992  0.54832  1.0000 0.3566540845
O   O29       1.0  0.16240  0.68240  0.32400  1.0000 -0.6077316061
H   H9        1.0  0.14962  0.70076  0.34098  1.0000 0.3566540845
H   H10       1.0  0.14792  0.70322  0.30826  1.0000 0.3507428405
O   O30       1.0  0.49930  0.20610  0.54520  1.0000 -0.5383892114
O   O31       1.0  0.64470  0.45830  0.83140  1.0000 -0.5618761048
C   C2        1.0  0.30570  0.34460  0.33500  1.0000 0.5783404096
C   C3        1.0  0.25920  0.67190  0.72330  1.0000 -0.0537101818
C   C4        1.0  0.43870  0.03540  0.46550  1.0000 -0.0314941257
N   N1        1.0  0.48500  0.31020  0.75120  1.0000 -0.1408434727
C   C5        1.0  0.55510  0.84580  0.54430  1.0000 0.5897719295
C   C6        1.0  0.11020  0.97200  0.58880  1.0000 0.5897719295
C   C7        1.0  0.49290  0.11600  0.63380  1.0000 0.5897719295
C   C8        1.0  0.71520  0.46720  0.39030  1.0000 0.5897719295
C   C9        1.0  0.32050  0.44850  0.78950  1.0000 0.5783404096
C   C10       1.0  0.34890  0.96340  0.60590  1.0000 -0.0714986802
H   H11       1.0  0.35021  0.01974  0.59993  1.0000 0.1111119396
C   C11       1.0  0.56870  0.69740  0.55390  1.0000 -0.0714986802
H   H12       1.0  0.55948  0.70489  0.57534  1.0000 0.1201301238
C   C12       1.0  0.28450  0.70880  0.35280  1.0000 0.5783404096
C   C13       1.0  0.38630  0.91830  0.60680  1.0000 -0.0997313007
C   C14       1.0  0.25830  0.61940  0.75340  1.0000 0.5783404096
C   C15       1.0  0.36510  0.33420  0.76540  1.0000 -0.0997313007
H   H13       1.0  0.33946  0.30469  0.76106  1.0000 0.1305099767
N   N2        1.0  0.36340  0.02050  0.37970  1.0000 -0.1608425123
C   C16       1.0  0.63790  0.46390  0.80030  1.0000 0.5719172254
C   C17       1.0  0.30850  0.92880  0.61360  1.0000 -0.1916072631
H   H14       1.0  0.28306  0.95954  0.60992  1.0000 0.1305099767
C   C18       1.0  0.59950  0.30440  0.52380  1.0000 -0.0897998693
H   H15       1.0  0.61820  0.25876  0.52640  1.0000 0.1305099767
C   C19       1.0  0.39680  0.01680  0.46680  1.0000 -0.0897998693
H   H16       1.0  0.38430  0.00991  0.48732  1.0000 0.1305099767
C   C20       1.0  0.68620  0.48830  0.41740  1.0000 -0.0798600998
C   C21       1.0  0.55710  0.29720  0.52960  1.0000 -0.0537101818
C   C22       1.0  0.15190  0.92860  0.60060  1.0000 -0.0314941257
C   C23       1.0  0.31850  0.25670  0.34720  1.0000 -0.0314941257
C   C24       1.0  0.36420  0.41180  0.77930  1.0000 -0.0314941257
C   C25       1.0  0.56900  0.38440  0.80750  1.0000 -0.0714986802
H   H17       1.0  0.57277  0.38481  0.83002  1.0000 0.1201301238
C   C26       1.0  0.44390  0.34500  0.75990  1.0000 0.160720241
C   C27       1.0  0.30420  0.78980  0.36040  1.0000 -0.0714986802
C   C28       1.0  0.60070  0.42210  0.78700  1.0000 -0.1095662787
C   C29       1.0  0.56850  0.76300  0.53420  1.0000 -0.0798600998
C   C30       1.0  0.49140  0.16490  0.66470  1.0000 -0.0537101818
C   C31       1.0  0.46710  0.04350  0.49660  1.0000 0.5897719295
C   C32       1.0  0.30590  0.85250  0.62590  1.0000 0.177195695
C   C33       1.0  0.19270  0.88080  0.64480  1.0000 -0.178298932
H   H18       1.0  0.19529  0.87092  0.66702  1.0000 0.1305099767
C   C34       1.0  0.53800  0.21340  0.53480  1.0000 0.5897719295
C   C35       1.0  0.34380  0.80450  0.62940  1.0000 -0.1916072631
H   H19       1.0  0.34247  0.75237  0.63957  1.0000 0.1305099767
C   C36       1.0  0.45740  0.04900  0.43430  1.0000 -0.1095662787
H   H20       1.0  0.48709  0.06122  0.43262  1.0000 0.1305099767
C   C37       1.0  0.15820  0.92300  0.63350  1.0000 -0.0897998693
H   H21       1.0  0.13862  0.94816  0.64790  1.0000 0.1305099767
C   C38       1.0  0.38250  0.83390  0.61800  1.0000 -0.0714986802
H   H22       1.0  0.40672  0.79869  0.61743  1.0000 0.1201301238
C   C39       1.0  0.59520  0.60670  0.51190  1.0000 0.2029387324
N   N3        1.0  0.26610  0.81880  0.63640  1.0000 -0.178298932
C   C40       1.0  0.48580  0.26130  0.72290  1.0000 0.177195695
C   C41       1.0  0.40550  0.30120  0.75790  1.0000 -0.1916072631
H   H23       1.0  0.40680  0.24548  0.75112  1.0000 0.1305099767
C   C42       1.0  0.23390  0.64830  0.69460  1.0000 -0.0897998693
H   H24       1.0  0.21589  0.60130  0.69502  1.0000 0.1201301238
C   C43       1.0  0.28670  0.74030  0.71990  1.0000 -0.0997313007
H   H25       1.0  0.30432  0.75543  0.73741  1.0000 0.1201301238
C   C44       1.0  0.34220  0.94440  0.37260  1.0000 0.1702898278
C   C45       1.0  0.64420  0.45990  0.41850  1.0000 -0.0798600998
H   H26       1.0  0.63143  0.43335  0.40069  1.0000 0.1111119396
C   C46       1.0  0.23730  0.69810  0.66620  1.0000 -0.1916072631
H   H27       1.0  0.22142  0.68475  0.64751  1.0000 0.1305099767
C   C47       1.0  0.52380  0.34430  0.76180  1.0000 0.160720241
C   C48       1.0  0.33540  0.11410  0.33610  1.0000 -0.178298932
H   H28       1.0  0.33712  0.06979  0.32141  1.0000 0.1305099767
C   C49       1.0  0.58990  0.67590  0.49020  1.0000 -0.2014079956
H   H29       1.0  0.59546  0.66753  0.46820  1.0000 0.1305099767
C   C50       1.0  0.34710  0.09860  0.36880  1.0000 0.160720241
N   N4        1.0  0.60680  0.52890  0.49940  1.0000 -0.1608425123
C   C51       1.0  0.37040  0.00690  0.44050  1.0000 -0.178298932
H   H30       1.0  0.34113  0.99224  0.44276  1.0000 0.1305099767
C   C52       1.0  0.54700  0.44230  0.52000  1.0000 -0.1916072631
H   H31       1.0  0.52780  0.48755  0.51885  1.0000 0.1305099767
C   C53       1.0  0.57700  0.75350  0.50020  1.0000 -0.0798600998
H   H32       1.0  0.57388  0.79792  0.48568  1.0000 0.1201301238
C   C54       1.0  0.46270  0.28920  0.69190  1.0000 -0.2089983218
H   H33       1.0  0.44743  0.33968  0.69108  1.0000 0.1305099767
C   C55       1.0  0.28200  0.86550  0.35320  1.0000 -0.0798600998
H   H34       1.0  0.25443  0.86361  0.34366  1.0000 0.1201301238
C   C56       1.0  0.58190  0.61780  0.54420  1.0000 -0.2089983218
H   H35       1.0  0.58200  0.57318  0.55885  1.0000 0.1305099767
C   C57       1.0  0.53120  0.36650  0.52960  1.0000 -0.0897998693
H   H36       1.0  0.50224  0.36203  0.53632  1.0000 0.1201301238
C   C58       1.0  0.21940  0.85570  0.59080  1.0000 -0.178298932
H   H37       1.0  0.23997  0.83341  0.57646  1.0000 0.1305099767
C   C59       1.0  0.34620  0.79310  0.37330  1.0000 -0.0798600998
H   H38       1.0  0.36143  0.74406  0.37814  1.0000 0.1201301238
C   C60       1.0  0.39000  0.02000  0.40890  1.0000 0.1507466703
C   C61       1.0  0.18220  0.89440  0.57930  1.0000 -0.0997313007
H   H39       1.0  0.17737  0.89752  0.55701  1.0000 0.1201301238
C   C62       1.0  0.51260  0.13970  0.69180  1.0000 -0.0897998693
H   H40       1.0  0.52798  0.08926  0.69162  1.0000 0.1201301238
C   C63       1.0  0.46520  0.23680  0.66470  1.0000 -0.0897998693
H   H41       1.0  0.44912  0.25010  0.64615  1.0000 0.1201301238
C   C64       1.0  0.53220  0.34670  0.79390  1.0000 -0.1916072631
H   H42       1.0  0.51211  0.32165  0.80788  1.0000 0.1305099767
C   C65       1.0  0.22540  0.85090  0.62330  1.0000 0.1702898278
C   C66       1.0  0.32170  0.18950  0.32500  1.0000 -0.1095662787
H   H43       1.0  0.31451  0.19690  0.30317  1.0000 0.1201301238
C   C67       1.0  0.62000  0.47290  0.44910  1.0000 -0.1608425123
H   H44       1.0  0.59471  0.44159  0.45268  1.0000 0.1201301238
C   C68       1.0  0.70140  0.54150  0.44180  1.0000 -0.0798600998
H   H45       1.0  0.72800  0.56905  0.43930  1.0000 0.1201301238
C   C69       1.0  0.26430  0.76580  0.66680  1.0000 0.1507466703
C   C70       1.0  0.67510  0.55440  0.47170  1.0000 -0.2304193557
H   H46       1.0  0.68598  0.58113  0.49017  1.0000 0.1305099767
C   C71       1.0  0.59200  0.41240  0.75330  1.0000 -0.0579943953
H   H47       1.0  0.61350  0.42817  0.73844  1.0000 0.1201301238
C   C72       1.0  0.61600  0.38380  0.51350  1.0000 -0.2014079956
H   H48       1.0  0.64527  0.38779  0.50760  1.0000 0.1305099767
C   C73       1.0  0.44160  0.42420  0.77430  1.0000 -0.178298932
H   H49       1.0  0.46737  0.45468  0.77690  1.0000 0.1305099767
C   C74       1.0  0.33310  0.24630  0.37910  1.0000 -0.0897998693
H   H50       1.0  0.33168  0.28993  0.39413  1.0000 0.1201301238
C   C75       1.0  0.30070  0.94210  0.36020  1.0000 -0.1916072631
H   H51       1.0  0.28533  0.99165  0.35663  1.0000 0.1201301238
C   C76       1.0  0.59030  0.45530  0.51190  1.0000 0.177195695
C   C77       1.0  0.34990  0.16740  0.38770  1.0000 -0.1916072631
H   H52       1.0  0.36386  0.16228  0.40774  1.0000 0.1305099767
C   C78       1.0  0.55240  0.38000  0.74120  1.0000 -0.2089983218
H   H53       1.0  0.54606  0.38339  0.71904  1.0000 0.1305099767
C   C79       1.0  0.43250  0.04420  0.40670  1.0000 -0.1658386395
H   H54       1.0  0.44462  0.05747  0.38654  1.0000 0.13821121
C   C80       1.0  0.28940  0.78880  0.69080  1.0000 -0.178298932
H   H55       1.0  0.30818  0.83453  0.68904  1.0000 0.1201301238
C   C81       1.0  0.36550  0.87370  0.37900  1.0000 -0.1916072631
H   H56       1.0  0.39389  0.87758  0.38708  1.0000 0.1305099767
C   C82       1.0  0.63130  0.52180  0.46950  1.0000 0.1507466703
C   C83       1.0  0.51190  0.18820  0.72020  1.0000 -0.2014079956
H   H57       1.0  0.52902  0.17199  0.73781  1.0000 0.1305099767
C   C84       1.0  0.40440  0.45790  0.78450  1.0000 -0.0897998693
H   H58       1.0  0.40416  0.50993  0.79482  1.0000 0.1201301238
O   O32       1.0  0.28600  0.38760  0.24339  1.0000 -0.6000766598
H   H59       1.0  0.29391  0.33648  0.24266  1.0000 0.3566540845
H   H60       1.0  0.28374  0.40219  0.22352  1.0000 0.3566540845
Fe  Fe4       1.0  0.27469  0.45957  0.28390  1.0000 1.1990935549
Fe  Fe5       1.0  0.46730  0.10714  0.56409  1.0000 1.1811436359
Fe  Fe6       1.0  0.21602  0.60415  0.32185  1.0000 1.0105916604
Fe  Fe7       1.0  0.44574  0.97080  0.02804  1.0000 1.1811436359
Fe  Fe8       1.0  0.69713  0.47765  0.85784  1.0000 1.1611387476
Fe  Fe9       1.0  0.47609  0.04198  0.10076  1.0000 1.1990935549
O   O33       1.0  0.48439  0.96990  0.06402  1.0000 -0.9017007009
O   O34       1.0  0.70900  0.64460  0.80818  1.0000 -0.5134896294
O   O35       1.0  0.89240  0.02010  0.05826  1.0000 -0.5618761048
O   O36       1.0  0.71230  0.58520  0.28186  1.0000 -0.4857630685
O   O37       1.0  0.57610  0.97170  0.08610  1.0000 -0.5383892114
O   O38       1.0  0.73538  0.47170  0.82117  1.0000 -0.86421832
O   O39       1.0  0.45570  0.14280  0.07421  1.0000 -0.5727642731
O   O40       1.0  0.74950  0.29330  0.83716  1.0000 -0.5036549226
O   O41       1.0  0.91600  0.99940  0.10830  1.0000 -0.5174048797
O   O42       1.0  0.65750  0.48440  0.89548  1.0000 -0.5727642731
H   H61       1.0  0.66435  0.48318  0.91557  1.0000 0.3566540845
H   H62       1.0  0.62985  0.48916  0.89538  1.0000 0.3507428405
O   O43       1.0  0.53815  0.08610  0.10051  1.0000 -0.5618761048
O   O44       1.0  0.24490  0.50350  0.89071  1.0000 -0.5618761048
O   O45       1.0  0.44800  0.09550  0.02423  1.0000 -0.5312768141
C   C85       1.0  0.57460  0.04550  0.09580  1.0000 0.5719172254
O   O46       1.0  0.33765  0.49930  0.28110  1.0000 -0.5312768141
O   O47       1.0  0.72380  0.35410  0.27670  1.0000 -0.4775685475
O   O48       1.0  0.49320  0.95530  0.13480  1.0000 -0.5174048797
O   O49       1.0  0.46530  0.11610  0.13964  1.0000 -0.6000766598
H   H63       1.0  0.46716  0.10309  0.15970  1.0000 0.3566540845
H   H64       1.0  0.45769  0.16746  0.13970  1.0000 0.3566540845
O   O50       1.0  0.67650  0.48430  0.30580  1.0000 -0.5383892114
O   O51       1.0  0.69030  0.60030  0.85700  1.0000 -0.5312768141
O   O52       1.0  0.55370  0.92820  0.01988  1.0000 -0.5312768141
O   O53       1.0  0.51990  0.84640  0.10820  1.0000 -0.5513156311
O   O54       1.0  0.75880  0.45240  0.24943  1.0000 -0.5618761048
O   O55       1.0  0.40160  0.97640  0.98730  1.0000 -0.6000766598
H   H65       1.0  0.37385  0.97981  0.98789  1.0000 0.3393209174
H   H66       1.0  0.40781  0.97560  0.96714  1.0000 0.3393209174
O   O56       1.0  0.43720  0.84770  0.02980  1.0000 -0.5383892114
O   O57       1.0  0.30140  0.57320  0.86750  1.0000 -0.5174048797
O   O58       1.0  0.49280  0.96030  0.99402  1.0000 -0.5312768141
O   O59       1.0  0.69850  0.35300  0.86680  1.0000 -0.5383892114
O   O60       1.0  0.58500  0.81110  0.06450  1.0000 -0.6000766598
H   H67       1.0  0.59800  0.79084  0.08108  1.0000 0.3507428405
H   H68       1.0  0.59849  0.79008  0.04832  1.0000 0.3566540845
O   O61       1.0  0.83760  0.31760  0.82400  1.0000 -0.6077316061
H   H69       1.0  0.85038  0.29924  0.84098  1.0000 0.3566540845
H   H70       1.0  0.85208  0.29678  0.80826  1.0000 0.3507428405
O   O62       1.0  0.50070  0.79390  0.04520  1.0000 -0.5383892114
O   O63       1.0  0.35530  0.54170  0.33140  1.0000 -0.5618761048
C   C86       1.0  0.69430  0.65540  0.83500  1.0000 0.5719172254
C   C87       1.0  0.74080  0.32810  0.22330  1.0000 -0.0537101818
C   C88       1.0  0.56130  0.96460  0.96550  1.0000 -0.0314941257
N   N5        1.0  0.51500  0.68980  0.25120  1.0000 -0.1408434727
C   C89       1.0  0.44490  0.15420  0.04430  1.0000 0.5897719295
C   C90       1.0  0.88980  0.02800  0.08880  1.0000 0.5897719295
C   C91       1.0  0.50710  0.88400  0.13380  1.0000 0.5897719295
C   C92       1.0  0.28480  0.53280  0.89030  1.0000 0.5897719295
C   C93       1.0  0.67950  0.55150  0.28950  1.0000 0.5783404096
C   C94       1.0  0.65110  0.03660  0.10590  1.0000 -0.0714986802
H   H71       1.0  0.64979  0.98026  0.09993  1.0000 0.1111119396
C   C95       1.0  0.43130  0.30260  0.05390  1.0000 -0.0714986802
H   H72       1.0  0.44052  0.29511  0.07534  1.0000 0.1201301238
C   C96       1.0  0.71550  0.29120  0.85280  1.0000 0.5783404096
C   C97       1.0  0.61370  0.08170  0.10680  1.0000 -0.0997313007
C   C98       1.0  0.74170  0.38060  0.25340  1.0000 0.5783404096
C   C99       1.0  0.63490  0.66580  0.26540  1.0000 -0.0997313007
H   H73       1.0  0.66054  0.69531  0.26106  1.0000 0.1305099767
N   N6        1.0  0.63660  0.97950  0.87970  1.0000 -0.1608425123
C   C100      1.0  0.36210  0.53610  0.30030  1.0000 0.5719172254
C   C101      1.0  0.69150  0.07120  0.11360  1.0000 -0.1916072631
H   H74       1.0  0.71694  0.04046  0.10992  1.0000 0.1305099767
C   C102      1.0  0.40050  0.69560  0.02380  1.0000 -0.0897998693
H   H75       1.0  0.38180  0.74124  0.02640  1.0000 0.1305099767
C   C103      1.0  0.60320  0.98320  0.96680  1.0000 -0.0897998693
H   H76       1.0  0.61570  0.99009  0.98732  1.0000 0.1305099767
C   C104      1.0  0.31380  0.51170  0.91740  1.0000 -0.0798600998
C   C105      1.0  0.44290  0.70280  0.02960  1.0000 -0.0579943953
C   C106      1.0  0.84810  0.07140  0.10060  1.0000 -0.0314941257
C   C107      1.0  0.68150  0.74330  0.84720  1.0000 -0.0314941257
C   C108      1.0  0.63580  0.58820  0.27930  1.0000 -0.0314941257
C   C109      1.0  0.43100  0.61560  0.30750  1.0000 -0.0714986802
H   H77       1.0  0.42723  0.61519  0.33002  1.0000 0.1201301238
C   C110      1.0  0.55610  0.65500  0.25990  1.0000 0.160720241
C   C111      1.0  0.69580  0.21020  0.86040  1.0000 -0.0714986802
C   C112      1.0  0.39930  0.57790  0.28700  1.0000 -0.1095662787
C   C113      1.0  0.43150  0.23700  0.03420  1.0000 -0.0798600998
C   C114      1.0  0.50860  0.83510  0.16470  1.0000 -0.0537101818
C   C115      1.0  0.53290  0.95650  0.99660  1.0000 0.5897719295
C   C116      1.0  0.69410  0.14750  0.12590  1.0000 0.1702898278
C   C117      1.0  0.80730  0.11920  0.14480  1.0000 -0.178298932
H   H78       1.0  0.80471  0.12908  0.16702  1.0000 0.1305099767
C   C118      1.0  0.46200  0.78660  0.03480  1.0000 0.5897719295
C   C119      1.0  0.65620  0.19550  0.12940  1.0000 -0.1916072631
H   H79       1.0  0.65753  0.24763  0.13957  1.0000 0.1305099767
C   C120      1.0  0.54260  0.95100  0.93430  1.0000 -0.1095662787
H   H80       1.0  0.51291  0.93878  0.93262  1.0000 0.1305099767
C   C121      1.0  0.84180  0.07700  0.13350  1.0000 -0.0897998693
H   H81       1.0  0.86138  0.05184  0.14790  1.0000 0.1305099767
C   C122      1.0  0.61750  0.16610  0.11800  1.0000 -0.0714986802
H   H82       1.0  0.59328  0.20131  0.11743  1.0000 0.1201301238
C   C123      1.0  0.40480  0.39330  0.01190  1.0000 0.2029387324
N   N7        1.0  0.73390  0.18120  0.13640  1.0000 -0.178298932
C   C124      1.0  0.51420  0.73870  0.22290  1.0000 0.1862231761
C   C125      1.0  0.59450  0.69880  0.25790  1.0000 -0.1916072631
H   H83       1.0  0.59320  0.75452  0.25112  1.0000 0.1305099767
C   C126      1.0  0.76610  0.35170  0.19460  1.0000 -0.0897998693
H   H84       1.0  0.78411  0.39870  0.19502  1.0000 0.1201301238
C   C127      1.0  0.71330  0.25970  0.21990  1.0000 -0.0997313007
H   H85       1.0  0.69568  0.24457  0.23741  1.0000 0.1201301238
C   C128      1.0  0.65780  0.05560  0.87260  1.0000 0.1702898278
C   C129      1.0  0.35580  0.54010  0.91850  1.0000 -0.0798600998
H   H86       1.0  0.36857  0.56665  0.90069  1.0000 0.1111119396
C   C130      1.0  0.76270  0.30190  0.16620  1.0000 -0.1916072631
H   H87       1.0  0.77858  0.31525  0.14751  1.0000 0.1305099767
C   C131      1.0  0.47620  0.65570  0.26180  1.0000 0.160720241
C   C132      1.0  0.66460  0.88590  0.83610  1.0000 -0.178298932
H   H88       1.0  0.66288  0.93021  0.82141  1.0000 0.1305099767
C   C133      1.0  0.41010  0.32410  0.99020  1.0000 -0.2014079956
H   H89       1.0  0.40454  0.33247  0.96820  1.0000 0.1305099767
C   C134      1.0  0.65290  0.90140  0.86880  1.0000 0.160720241
N   N8        1.0  0.39320  0.47110  0.99940  1.0000 -0.1608425123
C   C135      1.0  0.62960  0.99310  0.94050  1.0000 -0.178298932
H   H90       1.0  0.65887  0.00776  0.94276  1.0000 0.1305099767
C   C136      1.0  0.45300  0.55770  0.02000  1.0000 -0.1916072631
H   H91       1.0  0.47220  0.51245  0.01885  1.0000 0.1305099767
C   C137      1.0  0.42300  0.24650  0.00020  1.0000 -0.0798600998
H   H92       1.0  0.42612  0.20208  0.98568  1.0000 0.1201301238
C   C138      1.0  0.53730  0.71080  0.19190  1.0000 -0.2089983218
H   H93       1.0  0.55257  0.66032  0.19108  1.0000 0.1305099767
C   C139      1.0  0.71800  0.13450  0.85320  1.0000 -0.0798600998
H   H94       1.0  0.74557  0.13639  0.84366  1.0000 0.1201301238
C   C140      1.0  0.41810  0.38220  0.04420  1.0000 -0.2089983218
H   H95       1.0  0.41800  0.42682  0.05885  1.0000 0.1305099767
C   C141      1.0  0.46880  0.63350  0.02960  1.0000 -0.0897998693
H   H96       1.0  0.49776  0.63797  0.03632  1.0000 0.1201301238
C   C142      1.0  0.78060  0.14430  0.09080  1.0000 -0.178298932
H   H97       1.0  0.76003  0.16659  0.07646  1.0000 0.1305099767
C   C143      1.0  0.65380  0.20690  0.87330  1.0000 -0.0798600998
H   H98       1.0  0.63857  0.25594  0.87814  1.0000 0.1201301238
C   C144      1.0  0.61000  0.98000  0.90890  1.0000 0.1507466703
C   C145      1.0  0.81780  0.10560  0.07930  1.0000 -0.0997313007
H   H99       1.0  0.82263  0.10248  0.05701  1.0000 0.1201301238
C   C146      1.0  0.48740  0.86030  0.19180  1.0000 -0.0897998693
H   H100      1.0  0.47202  0.91074  0.19162  1.0000 0.1201301238
C   C147      1.0  0.53480  0.76320  0.16470  1.0000 -0.0897998693
H   H101      1.0  0.55088  0.74990  0.14615  1.0000 0.1201301238
C   C148      1.0  0.46780  0.65330  0.29390  1.0000 -0.1916072631
H   H102      1.0  0.48789  0.67835  0.30788  1.0000 0.1305099767
C   C149      1.0  0.77460  0.14910  0.12330  1.0000 0.1702898278
C   C150      1.0  0.67830  0.81050  0.82500  1.0000 -0.1095662787
H   H103      1.0  0.68549  0.80310  0.80317  1.0000 0.1201301238
C   C151      1.0  0.38000  0.52710  0.94910  1.0000 -0.1608425123
H   H104      1.0  0.40529  0.55841  0.95268  1.0000 0.1201301238
C   C152      1.0  0.29860  0.45850  0.94180  1.0000 -0.0798600998
H   H105      1.0  0.27200  0.43095  0.93930  1.0000 0.1201301238
C   C153      1.0  0.73570  0.23420  0.16680  1.0000 0.1507466703
C   C154      1.0  0.32490  0.44560  0.97170  1.0000 -0.2304193557
H   H106      1.0  0.31402  0.41887  0.99017  1.0000 0.1305099767
C   C155      1.0  0.40800  0.58760  0.25330  1.0000 -0.0579943953
H   H107      1.0  0.38650  0.57183  0.23844  1.0000 0.1201301238
C   C156      1.0  0.38400  0.61620  0.01350  1.0000 -0.2014079956
H   H108      1.0  0.35473  0.61221  0.00760  1.0000 0.1305099767
C   C157      1.0  0.55840  0.57580  0.27430  1.0000 -0.178298932
H   H109      1.0  0.53263  0.54532  0.27690  1.0000 0.1305099767
C   C158      1.0  0.66690  0.75370  0.87910  1.0000 -0.0897998693
H   H110      1.0  0.66832  0.71007  0.89413  1.0000 0.1201301238
C   C159      1.0  0.69930  0.05790  0.86020  1.0000 -0.1916072631
H   H111      1.0  0.71467  0.00835  0.85663  1.0000 0.1201301238
C   C160      1.0  0.40970  0.54470  0.01190  1.0000 0.177195695
C   C161      1.0  0.65010  0.83260  0.88770  1.0000 -0.1916072631
H   H112      1.0  0.63614  0.83772  0.90774  1.0000 0.1305099767
C   C162      1.0  0.44760  0.62000  0.24120  1.0000 -0.2089983218
H   H113      1.0  0.45394  0.61661  0.21904  1.0000 0.1305099767
C   C163      1.0  0.56750  0.95580  0.90670  1.0000 -0.1658386395
H   H114      1.0  0.55538  0.94253  0.88654  1.0000 0.13821121
C   C164      1.0  0.71060  0.21120  0.19080  1.0000 -0.178298932
H   H115      1.0  0.69182  0.16547  0.18904  1.0000 0.1201301238
C   C165      1.0  0.63450  0.12630  0.87900  1.0000 -0.1916072631
H   H116      1.0  0.60611  0.12242  0.88708  1.0000 0.1305099767
C   C166      1.0  0.36870  0.47820  0.96950  1.0000 0.1507466703
C   C167      1.0  0.48810  0.81180  0.22020  1.0000 -0.2014079956
H   H117      1.0  0.47098  0.82801  0.23781  1.0000 0.1305099767
C   C168      1.0  0.59560  0.54210  0.28450  1.0000 -0.0897998693
H   H118      1.0  0.59584  0.49007  0.29482  1.0000 0.1201301238
O   O64       1.0  0.71400  0.61240  0.74339  1.0000 -0.6000766598
H   H119      1.0  0.70609  0.66352  0.74266  1.0000 0.3566540845
H   H120      1.0  0.71626  0.59781  0.72352  1.0000 0.3566540845
Fe  Fe10      1.0  0.72531  0.54043  0.78390  1.0000 1.1898399735
Fe  Fe11      1.0  0.53270  0.89286  0.06409  1.0000 1.1898399735
Fe  Fe12      1.0  0.78398  0.39585  0.82185  1.0000 1.0105916604
Fe  Fe13      1.0  0.05426  0.97080  0.52804  1.0000 1.1811436359
Fe  Fe14      1.0  0.80287  0.47765  0.35784  1.0000 1.1611387476
Fe  Fe15      1.0  0.02391  0.04198  0.60076  1.0000 1.1990935549
O   O65       1.0  0.01561  0.96990  0.56402  1.0000 -0.9017007009
O   O66       1.0  0.79100  0.64460  0.30818  1.0000 -0.5134896294
O   O67       1.0  0.60760  0.02010  0.55826  1.0000 -0.5618761048
O   O68       1.0  0.78770  0.58520  0.78186  1.0000 -0.4857630685
O   O69       1.0  0.92390  0.97170  0.58610  1.0000 -0.5383892114
O   O70       1.0  0.76462  0.47170  0.32117  1.0000 -0.86421832
O   O71       1.0  0.04430  0.14280  0.57421  1.0000 -0.5727642731
O   O72       1.0  0.75050  0.29330  0.33716  1.0000 -0.5036549226
O   O73       1.0  0.58400  0.99940  0.60830  1.0000 -0.5174048797
O   O74       1.0  0.84250  0.48440  0.39548  1.0000 -0.5727642731
H   H121      1.0  0.83565  0.48318  0.41557  1.0000 0.3566540845
H   H122      1.0  0.87015  0.48916  0.39538  1.0000 0.3507428405
O   O75       1.0  0.96185  0.08610  0.60051  1.0000 -0.5618761048
O   O76       1.0  0.25510  0.50350  0.39071  1.0000 -0.5618761048
O   O77       1.0  0.05200  0.09550  0.52423  1.0000 -0.5312768141
C   C169      1.0  0.92540  0.04550  0.59580  1.0000 0.5719172254
O   O78       1.0  0.16235  0.49930  0.78110  1.0000 -0.5312768141
O   O79       1.0  0.77620  0.35410  0.77670  1.0000 -0.4775685475
O   O80       1.0  0.00680  0.95530  0.63480  1.0000 -0.5174048797
O   O81       1.0  0.03470  0.11610  0.63964  1.0000 -0.6000766598
H   H123      1.0  0.03284  0.10309  0.65970  1.0000 0.3566540845
H   H124      1.0  0.04231  0.16746  0.63970  1.0000 0.3566540845
O   O82       1.0  0.82350  0.48430  0.80580  1.0000 -0.5383892114
O   O83       1.0  0.80970  0.60030  0.35700  1.0000 -0.5312768141
O   O84       1.0  0.94630  0.92820  0.51988  1.0000 -0.5312768141
O   O85       1.0  0.98010  0.84640  0.60820  1.0000 -0.5513156311
O   O86       1.0  0.74120  0.45240  0.74943  1.0000 -0.5618761048
O   O87       1.0  0.09840  0.97640  0.48730  1.0000 -0.6000766598
H   H125      1.0  0.12615  0.97981  0.48789  1.0000 0.3393209174
H   H126      1.0  0.09219  0.97560  0.46714  1.0000 0.3393209174
O   O88       1.0  0.06280  0.84770  0.52980  1.0000 -0.5383892114
O   O89       1.0  0.19860  0.57320  0.36750  1.0000 -0.5174048797
O   O90       1.0  0.00720  0.96030  0.49402  1.0000 -0.5312768141
O   O91       1.0  0.80150  0.35300  0.36680  1.0000 -0.5383892114
O   O92       1.0  0.91500  0.81110  0.56450  1.0000 -0.6000766598
H   H127      1.0  0.90200  0.79084  0.58108  1.0000 0.3507428405
H   H128      1.0  0.90151  0.79008  0.54832  1.0000 0.3566540845
O   O93       1.0  0.66240  0.31760  0.32400  1.0000 -0.6077316061
H   H129      1.0  0.64962  0.29924  0.34098  1.0000 0.3566540845
H   H130      1.0  0.64792  0.29678  0.30826  1.0000 0.3507428405
O   O94       1.0  0.99930  0.79390  0.54520  1.0000 -0.5383892114
O   O95       1.0  0.14470  0.54170  0.83140  1.0000 -0.5618761048
C   C170      1.0  0.80570  0.65540  0.33500  1.0000 0.5719172254
C   C171      1.0  0.75920  0.32810  0.72330  1.0000 -0.0537101818
C   C172      1.0  0.93870  0.96460  0.46550  1.0000 -0.0314941257
N   N9        1.0  0.98500  0.68980  0.75120  1.0000 -0.1408434727
C   C173      1.0  0.05510  0.15420  0.54430  1.0000 0.5897719295
C   C174      1.0  0.61020  0.02800  0.58880  1.0000 0.5897719295
C   C175      1.0  0.99290  0.88400  0.63380  1.0000 0.5897719295
C   C176      1.0  0.21520  0.53280  0.39030  1.0000 0.5897719295
C   C177      1.0  0.82050  0.55150  0.78950  1.0000 0.5783404096
C   C178      1.0  0.84890  0.03660  0.60590  1.0000 -0.0714986802
H   H131      1.0  0.85021  0.98026  0.59993  1.0000 0.1111119396
C   C179      1.0  0.06870  0.30260  0.55390  1.0000 -0.0714986802
H   H132      1.0  0.05948  0.29511  0.57534  1.0000 0.1201301238
C   C180      1.0  0.78450  0.29120  0.35280  1.0000 0.5783404096
C   C181      1.0  0.88630  0.08170  0.60680  1.0000 -0.0997313007
C   C182      1.0  0.75830  0.38060  0.75340  1.0000 0.5783404096
C   C183      1.0  0.86510  0.66580  0.76540  1.0000 -0.0997313007
H   H133      1.0  0.83946  0.69531  0.76106  1.0000 0.1305099767
N   N10       1.0  0.86340  0.97950  0.37970  1.0000 -0.1608425123
C   C184      1.0  0.13790  0.53610  0.80030  1.0000 0.5719172254
C   C185      1.0  0.80850  0.07120  0.61360  1.0000 -0.1916072631
H   H134      1.0  0.78306  0.04046  0.60992  1.0000 0.1305099767
C   C186      1.0  0.09950  0.69560  0.52380  1.0000 -0.0897998693
H   H135      1.0  0.11820  0.74124  0.52640  1.0000 0.1305099767
C   C187      1.0  0.89680  0.98320  0.46680  1.0000 -0.0897998693
H   H136      1.0  0.88430  0.99009  0.48732  1.0000 0.1305099767
C   C188      1.0  0.18620  0.51170  0.41740  1.0000 -0.0714986802
C   C189      1.0  0.05710  0.70280  0.52960  1.0000 -0.0579943953
C   C190      1.0  0.65190  0.07140  0.60060  1.0000 -0.0314941257
C   C191      1.0  0.81850  0.74330  0.34720  1.0000 -0.0314941257
C   C192      1.0  0.86420  0.58820  0.77930  1.0000 -0.0314941257
C   C193      1.0  0.06900  0.61560  0.80750  1.0000 -0.0714986802
H   H137      1.0  0.07277  0.61519  0.83002  1.0000 0.1201301238
C   C194      1.0  0.94390  0.65500  0.75990  1.0000 0.160720241
C   C195      1.0  0.80420  0.21020  0.36040  1.0000 -0.0714986802
C   C196      1.0  0.10070  0.57790  0.78700  1.0000 -0.1095662787
C   C197      1.0  0.06850  0.23700  0.53420  1.0000 -0.0798600998
C   C198      1.0  0.99140  0.83510  0.66470  1.0000 -0.0537101818
C   C199      1.0  0.96710  0.95650  0.49660  1.0000 0.5897719295
C   C200      1.0  0.80590  0.14750  0.62590  1.0000 0.1702898278
C   C201      1.0  0.69270  0.11920  0.64480  1.0000 -0.178298932
H   H138      1.0  0.69529  0.12908  0.66702  1.0000 0.1305099767
C   C202      1.0  0.03800  0.78660  0.53480  1.0000 0.5897719295
C   C203      1.0  0.84380  0.19550  0.62940  1.0000 -0.1916072631
H   H139      1.0  0.84247  0.24763  0.63957  1.0000 0.1305099767
C   C204      1.0  0.95740  0.95100  0.43430  1.0000 -0.1095662787
H   H140      1.0  0.98709  0.93878  0.43262  1.0000 0.1305099767
C   C205      1.0  0.65820  0.07700  0.63350  1.0000 -0.0897998693
H   H141      1.0  0.63862  0.05184  0.64790  1.0000 0.1305099767
C   C206      1.0  0.88250  0.16610  0.61800  1.0000 -0.0714986802
H   H142      1.0  0.90672  0.20131  0.61743  1.0000 0.1201301238
C   C207      1.0  0.09520  0.39330  0.51190  1.0000 0.2029387324
N   N11       1.0  0.76610  0.18120  0.63640  1.0000 -0.178298932
C   C208      1.0  0.98580  0.73870  0.72290  1.0000 0.1862231761
C   C209      1.0  0.90550  0.69880  0.75790  1.0000 -0.1916072631
H   H143      1.0  0.90680  0.75452  0.75112  1.0000 0.1305099767
C   C210      1.0  0.73390  0.35170  0.69460  1.0000 -0.0897998693
H   H144      1.0  0.71589  0.39870  0.69502  1.0000 0.1201301238
C   C211      1.0  0.78670  0.25970  0.71990  1.0000 -0.0997313007
H   H145      1.0  0.80432  0.24457  0.73741  1.0000 0.1201301238
C   C212      1.0  0.84220  0.05560  0.37260  1.0000 0.1702898278
C   C213      1.0  0.14420  0.54010  0.41850  1.0000 -0.0798600998
H   H146      1.0  0.13143  0.56665  0.40069  1.0000 0.1111119396
C   C214      1.0  0.73730  0.30190  0.66620  1.0000 -0.1916072631
H   H147      1.0  0.72142  0.31525  0.64751  1.0000 0.1305099767
C   C215      1.0  0.02380  0.65570  0.76180  1.0000 0.160720241
C   C216      1.0  0.83540  0.88590  0.33610  1.0000 -0.178298932
H   H148      1.0  0.83712  0.93021  0.32141  1.0000 0.1305099767
C   C217      1.0  0.08990  0.32410  0.49020  1.0000 -0.2014079956
H   H149      1.0  0.09546  0.33247  0.46820  1.0000 0.1305099767
C   C218      1.0  0.84710  0.90140  0.36880  1.0000 0.160720241
N   N12       1.0  0.10680  0.47110  0.49940  1.0000 -0.1608425123
C   C219      1.0  0.87040  0.99310  0.44050  1.0000 -0.178298932
H   H150      1.0  0.84113  0.00776  0.44276  1.0000 0.1305099767
C   C220      1.0  0.04700  0.55770  0.52000  1.0000 -0.1916072631
H   H151      1.0  0.02780  0.51245  0.51885  1.0000 0.1305099767
C   C221      1.0  0.07700  0.24650  0.50020  1.0000 -0.0798600998
H   H152      1.0  0.07388  0.20208  0.48568  1.0000 0.1201301238
C   C222      1.0  0.96270  0.71080  0.69190  1.0000 -0.2089983218
H   H153      1.0  0.94743  0.66032  0.69108  1.0000 0.1305099767
C   C223      1.0  0.78200  0.13450  0.35320  1.0000 -0.0798600998
H   H154      1.0  0.75443  0.13639  0.34366  1.0000 0.1201301238
C   C224      1.0  0.08190  0.38220  0.54420  1.0000 -0.2089983218
H   H155      1.0  0.08200  0.42682  0.55885  1.0000 0.1305099767
C   C225      1.0  0.03120  0.63350  0.52960  1.0000 -0.0897998693
H   H156      1.0  0.00224  0.63797  0.53632  1.0000 0.1201301238
C   C226      1.0  0.71940  0.14430  0.59080  1.0000 -0.178298932
H   H157      1.0  0.73997  0.16659  0.57646  1.0000 0.1305099767
C   C227      1.0  0.84620  0.20690  0.37330  1.0000 -0.0798600998
H   H158      1.0  0.86143  0.25594  0.37814  1.0000 0.1201301238
C   C228      1.0  0.89000  0.98000  0.40890  1.0000 0.1507466703
C   C229      1.0  0.68220  0.10560  0.57930  1.0000 -0.0997313007
H   H159      1.0  0.67737  0.10248  0.55701  1.0000 0.1201301238
C   C230      1.0  0.01260  0.86030  0.69180  1.0000 -0.0897998693
H   H160      1.0  0.02798  0.91074  0.69162  1.0000 0.1201301238
C   C231      1.0  0.96520  0.76320  0.66470  1.0000 -0.0897998693
H   H161      1.0  0.94912  0.74990  0.64615  1.0000 0.1201301238
C   C232      1.0  0.03220  0.65330  0.79390  1.0000 -0.1916072631
H   H162      1.0  0.01211  0.67835  0.80788  1.0000 0.1305099767
C   C233      1.0  0.72540  0.14910  0.62330  1.0000 0.1702898278
C   C234      1.0  0.82170  0.81050  0.32500  1.0000 -0.1095662787
H   H163      1.0  0.81451  0.80310  0.30317  1.0000 0.1201301238
C   C235      1.0  0.12000  0.52710  0.44910  1.0000 -0.1608425123
H   H164      1.0  0.09471  0.55841  0.45268  1.0000 0.1201301238
C   C236      1.0  0.20140  0.45850  0.44180  1.0000 -0.0798600998
H   H165      1.0  0.22800  0.43095  0.43930  1.0000 0.1201301238
C   C237      1.0  0.76430  0.23420  0.66680  1.0000 0.1507466703
C   C238      1.0  0.17510  0.44560  0.47170  1.0000 -0.2304193557
H   H166      1.0  0.18598  0.41887  0.49017  1.0000 0.1305099767
C   C239      1.0  0.09200  0.58760  0.75330  1.0000 -0.0579943953
H   H167      1.0  0.11350  0.57183  0.73844  1.0000 0.1201301238
C   C240      1.0  0.11600  0.61620  0.51350  1.0000 -0.2014079956
H   H168      1.0  0.14527  0.61221  0.50760  1.0000 0.1305099767
C   C241      1.0  0.94160  0.57580  0.77430  1.0000 -0.178298932
H   H169      1.0  0.96737  0.54532  0.77690  1.0000 0.1305099767
C   C242      1.0  0.83310  0.75370  0.37910  1.0000 -0.0897998693
H   H170      1.0  0.83168  0.71007  0.39413  1.0000 0.1201301238
C   C243      1.0  0.80070  0.05790  0.36020  1.0000 -0.1916072631
H   H171      1.0  0.78533  0.00835  0.35663  1.0000 0.1201301238
C   C244      1.0  0.09030  0.54470  0.51190  1.0000 0.177195695
C   C245      1.0  0.84990  0.83260  0.38770  1.0000 -0.1916072631
H   H172      1.0  0.86386  0.83772  0.40774  1.0000 0.1305099767
C   C246      1.0  0.05240  0.62000  0.74120  1.0000 -0.2089983218
H   H173      1.0  0.04606  0.61661  0.71904  1.0000 0.1305099767
C   C247      1.0  0.93250  0.95580  0.40670  1.0000 -0.1658386395
H   H174      1.0  0.94462  0.94253  0.38654  1.0000 0.13821121
C   C248      1.0  0.78940  0.21120  0.69080  1.0000 -0.178298932
H   H175      1.0  0.80818  0.16547  0.68904  1.0000 0.1201301238
C   C249      1.0  0.86550  0.12630  0.37900  1.0000 -0.1916072631
H   H176      1.0  0.89389  0.12242  0.38708  1.0000 0.1305099767
C   C250      1.0  0.13130  0.47820  0.46950  1.0000 0.1507466703
C   C251      1.0  0.01190  0.81180  0.72020  1.0000 -0.2014079956
H   H177      1.0  0.02902  0.82801  0.73781  1.0000 0.1305099767
C   C252      1.0  0.90440  0.54210  0.78450  1.0000 -0.0897998693
H   H178      1.0  0.90416  0.49007  0.79482  1.0000 0.1201301238
O   O96       1.0  0.78600  0.61240  0.24339  1.0000 -0.6000766598
H   H179      1.0  0.79391  0.66352  0.24266  1.0000 0.3566540845
H   H180      1.0  0.78374  0.59781  0.22352  1.0000 0.3566540845
Fe  Fe16      1.0  0.77469  0.54043  0.28390  1.0000 1.1898399735
Fe  Fe17      1.0  0.96730  0.89286  0.56409  1.0000 1.1898399735
Fe  Fe18      1.0  0.71602  0.39585  0.32185  1.0000 1.0105916604
Fe  Fe19      1.0  0.94574  0.02920  0.02804  1.0000 1.1811436359
Fe  Fe20      1.0  0.19713  0.52235  0.85784  1.0000 1.1611387476
Fe  Fe21      1.0  0.97609  0.95802  0.10076  1.0000 1.1898399735
O   O97       1.0  0.98439  0.03010  0.06402  1.0000 -0.9017007009
O   O98       1.0  0.20900  0.35540  0.80818  1.0000 -0.5134896294
O   O99       1.0  0.39240  0.97990  0.05826  1.0000 -0.5618761048
O   O100      1.0  0.21230  0.41480  0.28186  1.0000 -0.4857630685
O   O101      1.0  0.07610  0.02830  0.08610  1.0000 -0.5383892114
O   O102      1.0  0.23538  0.52830  0.82117  1.0000 -0.86421832
O   O103      1.0  0.95570  0.85720  0.07421  1.0000 -0.5727642731
O   O104      1.0  0.24950  0.70670  0.83716  1.0000 -0.5036549226
O   O105      1.0  0.41600  0.00060  0.10830  1.0000 -0.5174048797
O   O106      1.0  0.15750  0.51560  0.89548  1.0000 -0.5727642731
H   H181      1.0  0.16435  0.51682  0.91557  1.0000 0.3507428405
H   H182      1.0  0.12985  0.51084  0.89538  1.0000 0.3507428405
O   O107      1.0  0.03815  0.91390  0.10051  1.0000 -0.5618761048
O   O108      1.0  0.74490  0.49650  0.89071  1.0000 -0.5618761048
O   O109      1.0  0.94800  0.90450  0.02423  1.0000 -0.5312768141
C   C253      1.0  0.07460  0.95450  0.09580  1.0000 0.564666365
O   O110      1.0  0.83765  0.50070  0.28110  1.0000 -0.5312768141
O   O111      1.0  0.22380  0.64590  0.27670  1.0000 -0.4775685475
O   O112      1.0  0.99320  0.04470  0.13480  1.0000 -0.5174048797
O   O113      1.0  0.96530  0.88390  0.13964  1.0000 -0.6000766598
H   H183      1.0  0.96716  0.89691  0.15970  1.0000 0.3566540845
H   H184      1.0  0.95769  0.83254  0.13970  1.0000 0.3566540845
O   O114      1.0  0.17650  0.51570  0.30580  1.0000 -0.5312768141
O   O115      1.0  0.19030  0.39970  0.85700  1.0000 -0.5312768141
O   O116      1.0  0.05370  0.07180  0.01988  1.0000 -0.5312768141
O   O117      1.0  0.01990  0.15360  0.10820  1.0000 -0.5513156311
O   O118      1.0  0.25880  0.54760  0.24943  1.0000 -0.5618761048
O   O119      1.0  0.90160  0.02360  0.98730  1.0000 -0.6000766598
H   H185      1.0  0.87385  0.02019  0.98789  1.0000 0.3393209174
H   H186      1.0  0.90781  0.02440  0.96714  1.0000 0.3393209174
O   O120      1.0  0.93720  0.15230  0.02980  1.0000 -0.5383892114
O   O121      1.0  0.80140  0.42680  0.86750  1.0000 -0.5174048797
O   O122      1.0  0.99280  0.03970  0.99402  1.0000 -0.5312768141
O   O123      1.0  0.19850  0.64700  0.86680  1.0000 -0.5312768141
O   O124      1.0  0.08500  0.18890  0.06450  1.0000 -0.6000766598
H   H187      1.0  0.09800  0.20916  0.08108  1.0000 0.3507428405
H   H188      1.0  0.09849  0.20992  0.04832  1.0000 0.3566540845
O   O125      1.0  0.33760  0.68240  0.82400  1.0000 -0.6077316061
H   H189      1.0  0.35038  0.70076  0.84098  1.0000 0.3566540845
H   H190      1.0  0.35208  0.70322  0.80826  1.0000 0.3507428405
O   O126      1.0  0.00070  0.20610  0.04520  1.0000 -0.5383892114
O   O127      1.0  0.85530  0.45830  0.33140  1.0000 -0.5618761048
C   C254      1.0  0.19430  0.34460  0.83500  1.0000 0.5783404096
C   C255      1.0  0.24080  0.67190  0.22330  1.0000 -0.0537101818
C   C256      1.0  0.06130  0.03540  0.96550  1.0000 -0.0314941257
N   N13       1.0  0.01500  0.31020  0.25120  1.0000 -0.1408434727
C   C257      1.0  0.94490  0.84580  0.04430  1.0000 0.5783404096
C   C258      1.0  0.38980  0.97200  0.08880  1.0000 0.5897719295
C   C259      1.0  0.00710  0.11600  0.13380  1.0000 0.5897719295
C   C260      1.0  0.78480  0.46720  0.89030  1.0000 0.5897719295
C   C261      1.0  0.17950  0.44850  0.28950  1.0000 0.5783404096
C   C262      1.0  0.15110  0.96340  0.10590  1.0000 -0.0714986802
H   H191      1.0  0.14979  0.01974  0.09993  1.0000 0.1111119396
C   C263      1.0  0.93130  0.69740  0.05390  1.0000 -0.0714986802
H   H192      1.0  0.94052  0.70489  0.07534  1.0000 0.1201301238
C   C264      1.0  0.21550  0.70880  0.85280  1.0000 0.5783404096
C   C265      1.0  0.11370  0.91830  0.10680  1.0000 -0.0997313007
C   C266      1.0  0.24170  0.61940  0.25340  1.0000 0.5783404096
C   C267      1.0  0.13490  0.33420  0.26540  1.0000 -0.0997313007
H   H193      1.0  0.16054  0.30469  0.26106  1.0000 0.1305099767
N   N14       1.0  0.13660  0.02050  0.87970  1.0000 -0.1608425123
C   C268      1.0  0.86210  0.46390  0.30030  1.0000 0.5719172254
C   C269      1.0  0.19150  0.92880  0.11360  1.0000 -0.1916072631
H   H194      1.0  0.21694  0.95954  0.10992  1.0000 0.1305099767
C   C270      1.0  0.90050  0.30440  0.02380  1.0000 -0.0897998693
H   H195      1.0  0.88180  0.25876  0.02640  1.0000 0.1305099767
C   C271      1.0  0.10320  0.01680  0.96680  1.0000 -0.0897998693
H   H196      1.0  0.11570  0.00991  0.98732  1.0000 0.1305099767
C   C272      1.0  0.81380  0.48830  0.91740  1.0000 -0.0798600998
C   C273      1.0  0.94290  0.29720  0.02960  1.0000 -0.0579943953
C   C274      1.0  0.34810  0.92860  0.10060  1.0000 -0.0314941257
C   C275      1.0  0.18150  0.25670  0.84720  1.0000 -0.0314941257
C   C276      1.0  0.13580  0.41180  0.27930  1.0000 -0.0314941257
C   C277      1.0  0.93100  0.38440  0.30750  1.0000 -0.0714986802
H   H197      1.0  0.92723  0.38481  0.33002  1.0000 0.1201301238
C   C278      1.0  0.05610  0.34500  0.25990  1.0000 0.160720241
C   C279      1.0  0.19580  0.78980  0.86040  1.0000 -0.0714986802
C   C280      1.0  0.89930  0.42210  0.28700  1.0000 -0.1095662787
C   C281      1.0  0.93150  0.76300  0.03420  1.0000 -0.0798600998
C   C282      1.0  0.00860  0.16490  0.16470  1.0000 -0.0537101818
C   C283      1.0  0.03290  0.04350  0.99660  1.0000 0.5897719295
C   C284      1.0  0.19410  0.85250  0.12590  1.0000 0.177195695
C   C285      1.0  0.30730  0.88080  0.14480  1.0000 -0.178298932
H   H198      1.0  0.30471  0.87092  0.16702  1.0000 0.1305099767
C   C286      1.0  0.96200  0.21340  0.03480  1.0000 0.5897719295
C   C287      1.0  0.15620  0.80450  0.12940  1.0000 -0.1916072631
H   H199      1.0  0.15753  0.75237  0.13957  1.0000 0.1305099767
C   C288      1.0  0.04260  0.04900  0.93430  1.0000 -0.1095662787
H   H200      1.0  0.01291  0.06122  0.93262  1.0000 0.1305099767
C   C289      1.0  0.34180  0.92300  0.13350  1.0000 -0.0897998693
H   H201      1.0  0.36138  0.94816  0.14790  1.0000 0.1305099767
C   C290      1.0  0.11750  0.83390  0.11800  1.0000 -0.0714986802
H   H202      1.0  0.09328  0.79869  0.11743  1.0000 0.1201301238
C   C291      1.0  0.90480  0.60670  0.01190  1.0000 0.2029387324
N   N15       1.0  0.23390  0.81880  0.13640  1.0000 -0.178298932
C   C292      1.0  0.01420  0.26130  0.22290  1.0000 0.177195695
C   C293      1.0  0.09450  0.30120  0.25790  1.0000 -0.1916072631
H   H203      1.0  0.09320  0.24548  0.25112  1.0000 0.1305099767
C   C294      1.0  0.26610  0.64830  0.19460  1.0000 -0.0897998693
H   H204      1.0  0.28411  0.60130  0.19502  1.0000 0.1201301238
C   C295      1.0  0.21330  0.74030  0.21990  1.0000 -0.0997313007
H   H205      1.0  0.19568  0.75543  0.23741  1.0000 0.1201301238
C   C296      1.0  0.15780  0.94440  0.87260  1.0000 0.1702898278
C   C297      1.0  0.85580  0.45990  0.91850  1.0000 -0.0798600998
H   H206      1.0  0.86857  0.43335  0.90069  1.0000 0.1111119396
C   C298      1.0  0.26270  0.69810  0.16620  1.0000 -0.1916072631
H   H207      1.0  0.27858  0.68475  0.14751  1.0000 0.1305099767
C   C299      1.0  0.97620  0.34430  0.26180  1.0000 0.160720241
C   C300      1.0  0.16460  0.11410  0.83610  1.0000 -0.178298932
H   H208      1.0  0.16288  0.06979  0.82141  1.0000 0.1305099767
C   C301      1.0  0.91010  0.67590  0.99020  1.0000 -0.2014079956
H   H209      1.0  0.90454  0.66753  0.96820  1.0000 0.1305099767
C   C302      1.0  0.15290  0.09860  0.86880  1.0000 0.160720241
N   N16       1.0  0.89320  0.52890  0.99940  1.0000 -0.1608425123
C   C303      1.0  0.12960  0.00690  0.94050  1.0000 -0.178298932
H   H210      1.0  0.15887  0.99224  0.94276  1.0000 0.1305099767
C   C304      1.0  0.95300  0.44230  0.02000  1.0000 -0.1916072631
H   H211      1.0  0.97220  0.48755  0.01885  1.0000 0.1305099767
C   C305      1.0  0.92300  0.75350  0.00020  1.0000 -0.0798600998
H   H212      1.0  0.92612  0.79792  0.98568  1.0000 0.1201301238
C   C306      1.0  0.03730  0.28920  0.19190  1.0000 -0.2089983218
H   H213      1.0  0.05257  0.33968  0.19108  1.0000 0.1305099767
C   C307      1.0  0.21800  0.86550  0.85320  1.0000 -0.0798600998
H   H214      1.0  0.24557  0.86361  0.84366  1.0000 0.1201301238
C   C308      1.0  0.91810  0.61780  0.04420  1.0000 -0.2089983218
H   H215      1.0  0.91800  0.57318  0.05885  1.0000 0.1305099767
C   C309      1.0  0.96880  0.36650  0.02960  1.0000 -0.0897998693
H   H216      1.0  0.99776  0.36203  0.03632  1.0000 0.1201301238
C   C310      1.0  0.28060  0.85570  0.09080  1.0000 -0.178298932
H   H217      1.0  0.26003  0.83341  0.07646  1.0000 0.1305099767
C   C311      1.0  0.15380  0.79310  0.87330  1.0000 -0.0798600998
H   H218      1.0  0.13857  0.74406  0.87814  1.0000 0.1201301238
C   C312      1.0  0.11000  0.02000  0.90890  1.0000 0.1507466703
C   C313      1.0  0.31780  0.89440  0.07930  1.0000 -0.0997313007
H   H219      1.0  0.32263  0.89752  0.05701  1.0000 0.1201301238
C   C314      1.0  0.98740  0.13970  0.19180  1.0000 -0.0897998693
H   H220      1.0  0.97202  0.08926  0.19162  1.0000 0.1201301238
C   C315      1.0  0.03480  0.23680  0.16470  1.0000 -0.0897998693
H   H221      1.0  0.05088  0.25010  0.14615  1.0000 0.1201301238
C   C316      1.0  0.96780  0.34670  0.29390  1.0000 -0.1916072631
H   H222      1.0  0.98789  0.32165  0.30788  1.0000 0.1305099767
C   C317      1.0  0.27460  0.85090  0.12330  1.0000 0.1702898278
C   C318      1.0  0.17830  0.18950  0.82500  1.0000 -0.1095662787
H   H223      1.0  0.18549  0.19690  0.80317  1.0000 0.1201301238
C   C319      1.0  0.88000  0.47290  0.94910  1.0000 -0.1608425123
H   H224      1.0  0.90529  0.44159  0.95268  1.0000 0.1201301238
C   C320      1.0  0.79860  0.54150  0.94180  1.0000 -0.0798600998
H   H225      1.0  0.77200  0.56905  0.93930  1.0000 0.1201301238
C   C321      1.0  0.23570  0.76580  0.16680  1.0000 0.1507466703
C   C322      1.0  0.82490  0.55440  0.97170  1.0000 -0.2304193557
H   H226      1.0  0.81402  0.58113  0.99017  1.0000 0.1305099767
C   C323      1.0  0.90800  0.41240  0.25330  1.0000 -0.0579943953
H   H227      1.0  0.88650  0.42817  0.23844  1.0000 0.1201301238
C   C324      1.0  0.88400  0.38380  0.01350  1.0000 -0.2014079956
H   H228      1.0  0.85473  0.38779  0.00760  1.0000 0.1305099767
C   C325      1.0  0.05840  0.42420  0.27430  1.0000 -0.178298932
H   H229      1.0  0.03263  0.45468  0.27690  1.0000 0.1305099767
C   C326      1.0  0.16690  0.24630  0.87910  1.0000 -0.0897998693
H   H230      1.0  0.16832  0.28993  0.89413  1.0000 0.1201301238
C   C327      1.0  0.19930  0.94210  0.86020  1.0000 -0.1916072631
H   H231      1.0  0.21467  0.99165  0.85663  1.0000 0.1201301238
C   C328      1.0  0.90970  0.45530  0.01190  1.0000 0.177195695
C   C329      1.0  0.15010  0.16740  0.88770  1.0000 -0.1916072631
H   H232      1.0  0.13614  0.16228  0.90774  1.0000 0.1305099767
C   C330      1.0  0.94760  0.38000  0.24120  1.0000 -0.2089983218
H   H233      1.0  0.95394  0.38339  0.21904  1.0000 0.1305099767
C   C331      1.0  0.06750  0.04420  0.90670  1.0000 -0.1658386395
H   H234      1.0  0.05538  0.05747  0.88654  1.0000 0.13821121
C   C332      1.0  0.21060  0.78880  0.19080  1.0000 -0.178298932
H   H235      1.0  0.19182  0.83453  0.18904  1.0000 0.1201301238
C   C333      1.0  0.13450  0.87370  0.87900  1.0000 -0.1916072631
H   H236      1.0  0.10611  0.87758  0.88708  1.0000 0.1305099767
C   C334      1.0  0.86870  0.52180  0.96950  1.0000 0.1507466703
C   C335      1.0  0.98810  0.18820  0.22020  1.0000 -0.2014079956
H   H237      1.0  0.97098  0.17199  0.23781  1.0000 0.1305099767
C   C336      1.0  0.09560  0.45790  0.28450  1.0000 -0.0897998693
H   H238      1.0  0.09584  0.50993  0.29482  1.0000 0.1201301238
O   O128      1.0  0.21400  0.38760  0.74339  1.0000 -0.6000766598
H   H239      1.0  0.20609  0.33648  0.74266  1.0000 0.3566540845
H   H240      1.0  0.21626  0.40219  0.72352  1.0000 0.3566540845
Fe  Fe22      1.0  0.22531  0.45957  0.78390  1.0000 1.1990935549
Fe  Fe23      1.0  0.03270  0.10714  0.06409  1.0000 1.1811436359
Fe  Fe24      1.0  0.28398  0.60415  0.82185  1.0000 1.0105916604
  Zn  Zn1       1.0  0.21602  0.60415  0.32185  1.0000
  Zn  Zn2       1.0  0.78398  0.39585  0.82185  1.0000
  Zn  Zn3       1.0  0.71602  0.39585  0.32185  1.0000
  Zn  Zn4       1.0  0.28398  0.60415  0.82185  1.0000
