# DDEC6 charges by PACMAN v1.1 (https://github.com/mtap-research/PACMAN-charge/)
data_MUKQUG_ASR_pacman
_symmetry_space_group_name_H-M   'P 1'
_cell_length_a   16.80020000
_cell_length_b   16.80020000
_cell_length_c   16.80020000
_cell_angle_alpha   66.89220000
_cell_angle_beta   66.89220000
_cell_angle_gamma   66.89220000
_symmetry_Int_Tables_number   1
_chemical_formula_structural   CuH9C15O4
_chemical_formula_sum   'Cu6 H54 C90 O24'
_cell_volume   3848.81033478
_cell_formula_units_Z   6
loop_
 _symmetry_equiv_pos_site_id
 _symmetry_equiv_pos_as_xyz
  1  'x, y, z'
loop_
 _atom_site_type_symbol
 _atom_site_label
 _atom_site_symmetry_multiplicity
 _atom_site_fract_x
 _atom_site_fract_y
 _atom_site_fract_z
 _atom_site_occupancy
 _atom_site_charge
Cu  Cu1  1  0.50365000  0.50365000  0.07562000  1.0 0.87169136
Cu  Cu2  1  0.50365000  0.07562000  0.50365000  1.0 0.87169136
Cu  Cu3  1  0.07562000  0.50365000  0.50365000  1.0 0.87169136
Cu  Cu4  1  0.49635000  0.92438000  0.49635000  1.0 0.87169136
Cu  Cu5  1  0.49635000  0.49635000  0.92438000  1.0 0.87169136
Cu  Cu6  1  0.92438000  0.49635000  0.49635000  1.0 0.87169136
H  H1  1  0.53080000  0.22620000  0.22620000  1.0 0.1378846058
H  H2  1  0.22620000  0.22620000  0.53080000  1.0 0.1378846058
H  H3  1  0.22620000  0.53080000  0.22620000  1.0 0.1378846058
H  H4  1  0.46920000  0.77380000  0.77380000  1.0 0.1378846058
H  H5  1  0.77380000  0.46920000  0.77380000  1.0 0.1378846058
H  H6  1  0.77380000  0.77380000  0.46920000  1.0 0.1378846058
H  H7  1  0.52340000  0.21260000  0.99670000  1.0 0.1378846058
H  H8  1  0.21260000  0.99670000  0.52340000  1.0 0.1378846058
H  H9  1  0.99670000  0.52340000  0.21260000  1.0 0.1378846058
H  H10  1  0.47660000  0.00330000  0.78740000  1.0 0.1378846058
H  H11  1  0.78740000  0.47660000  0.00330000  1.0 0.1378846058
H  H12  1  0.00330000  0.78740000  0.47660000  1.0 0.1378846058
H  H13  1  0.47660000  0.78740000  0.00330000  1.0 0.1378846058
H  H14  1  0.78740000  0.00330000  0.47660000  1.0 0.1378846058
H  H15  1  0.00330000  0.47660000  0.78740000  1.0 0.1378846058
H  H16  1  0.52340000  0.99670000  0.21260000  1.0 0.1378846058
H  H17  1  0.21260000  0.52340000  0.99670000  1.0 0.1378846058
H  H18  1  0.99670000  0.21260000  0.52340000  1.0 0.1378846058
H  H19  1  0.70470000  0.94690000  0.03310000  1.0 0.1106371384
H  H20  1  0.94690000  0.03310000  0.70470000  1.0 0.1106371384
H  H21  1  0.03310000  0.70470000  0.94690000  1.0 0.1106371384
H  H22  1  0.29530000  0.96690000  0.05310000  1.0 0.1106371384
H  H23  1  0.05310000  0.29530000  0.96690000  1.0 0.1106371384
H  H24  1  0.96690000  0.05310000  0.29530000  1.0 0.1106371384
H  H25  1  0.29530000  0.05310000  0.96690000  1.0 0.1106371384
H  H26  1  0.05310000  0.96690000  0.29530000  1.0 0.1106371384
H  H27  1  0.96690000  0.29530000  0.05310000  1.0 0.1106371384
H  H28  1  0.70470000  0.03310000  0.94690000  1.0 0.1106371384
H  H29  1  0.94690000  0.70470000  0.03310000  1.0 0.1106371384
H  H30  1  0.03310000  0.94690000  0.70470000  1.0 0.1106371384
H  H31  1  0.64380000  0.91180000  0.13000000  1.0 0.1165875607
H  H32  1  0.91180000  0.13000000  0.64380000  1.0 0.1165875607
H  H33  1  0.13000000  0.64380000  0.91180000  1.0 0.1165875607
H  H34  1  0.35620000  0.87000000  0.08820000  1.0 0.1165875607
H  H35  1  0.08820000  0.35620000  0.87000000  1.0 0.1165875607
H  H36  1  0.87000000  0.08820000  0.35620000  1.0 0.1165875607
H  H37  1  0.35620000  0.08820000  0.87000000  1.0 0.1165875607
H  H38  1  0.08820000  0.87000000  0.35620000  1.0 0.1165875607
H  H39  1  0.87000000  0.35620000  0.08820000  1.0 0.1165875607
H  H40  1  0.64380000  0.13000000  0.91180000  1.0 0.1165875607
H  H41  1  0.91180000  0.64380000  0.13000000  1.0 0.1165875607
H  H42  1  0.13000000  0.91180000  0.64380000  1.0 0.1165875607
H  H43  1  0.68500000  0.85410000  0.06160000  1.0 0.1309709538
H  H44  1  0.85410000  0.06160000  0.68500000  1.0 0.1309709538
H  H45  1  0.06160000  0.68500000  0.85410000  1.0 0.1309709538
H  H46  1  0.31500000  0.93840000  0.14590000  1.0 0.1309709538
H  H47  1  0.14590000  0.31500000  0.93840000  1.0 0.1309709538
H  H48  1  0.93840000  0.14590000  0.31500000  1.0 0.1309709538
H  H49  1  0.31500000  0.14590000  0.93840000  1.0 0.1309709538
H  H50  1  0.14590000  0.93840000  0.31500000  1.0 0.1309709538
H  H51  1  0.93840000  0.31500000  0.14590000  1.0 0.1309709538
H  H52  1  0.68500000  0.06160000  0.85410000  1.0 0.1309709538
H  H53  1  0.85410000  0.68500000  0.06160000  1.0 0.1309709538
H  H54  1  0.06160000  0.85410000  0.68500000  1.0 0.1309709538
C  C1  1  0.52075000  0.33256000  0.06392000  1.0 0.5840089657
C  C2  1  0.33256000  0.06392000  0.52075000  1.0 0.5840089657
C  C3  1  0.06392000  0.52075000  0.33256000  1.0 0.5840089657
C  C4  1  0.47925000  0.93608000  0.66744000  1.0 0.5840089657
C  C5  1  0.66744000  0.47925000  0.93608000  1.0 0.5840089657
C  C6  1  0.93608000  0.66744000  0.47925000  1.0 0.5840089657
C  C7  1  0.47925000  0.66744000  0.93608000  1.0 0.5840089657
C  C8  1  0.66744000  0.93608000  0.47925000  1.0 0.5840089657
C  C9  1  0.93608000  0.47925000  0.66744000  1.0 0.5840089657
C  C10  1  0.52075000  0.06392000  0.33256000  1.0 0.5840089657
C  C11  1  0.33256000  0.52075000  0.06392000  1.0 0.5840089657
C  C12  1  0.06392000  0.33256000  0.52075000  1.0 0.5840089657
C  C13  1  0.44125000  0.01265000  0.07945000  1.0 -0.0436041639
C  C14  1  0.01265000  0.07945000  0.44125000  1.0 -0.0436041639
C  C15  1  0.07945000  0.44125000  0.01265000  1.0 -0.0436041639
C  C16  1  0.55875000  0.92055000  0.98735000  1.0 -0.0436041639
C  C17  1  0.98735000  0.55875000  0.92055000  1.0 -0.0436041639
C  C18  1  0.92055000  0.98735000  0.55875000  1.0 -0.0436041639
C  C19  1  0.55875000  0.98735000  0.92055000  1.0 -0.0436041639
C  C20  1  0.98735000  0.92055000  0.55875000  1.0 -0.0436041639
C  C21  1  0.92055000  0.55875000  0.98735000  1.0 -0.0436041639
C  C22  1  0.44125000  0.07945000  0.01265000  1.0 -0.0436041639
C  C23  1  0.01265000  0.44125000  0.07945000  1.0 -0.0436041639
C  C24  1  0.07945000  0.01265000  0.44125000  1.0 -0.0436041639
C  C25  1  0.52620000  0.23468000  0.10541000  1.0 -0.0145037803
C  C26  1  0.23468000  0.10541000  0.52620000  1.0 -0.0145037803
C  C27  1  0.10541000  0.52620000  0.23468000  1.0 -0.0145037803
C  C28  1  0.47380000  0.89459000  0.76532000  1.0 -0.0145037803
C  C29  1  0.76532000  0.47380000  0.89459000  1.0 -0.0145037803
C  C30  1  0.89459000  0.76532000  0.47380000  1.0 -0.0145037803
C  C31  1  0.47380000  0.76532000  0.89459000  1.0 -0.0145037803
C  C32  1  0.76532000  0.89459000  0.47380000  1.0 -0.0145037803
C  C33  1  0.89459000  0.47380000  0.76532000  1.0 -0.0145037803
C  C34  1  0.52620000  0.10541000  0.23468000  1.0 -0.0145037803
C  C35  1  0.23468000  0.52620000  0.10541000  1.0 -0.0145037803
C  C36  1  0.10541000  0.23468000  0.52620000  1.0 -0.0145037803
C  C37  1  0.52822000  0.19383000  0.19383000  1.0 -0.1049570378
C  C38  1  0.19383000  0.19383000  0.52822000  1.0 -0.1049570378
C  C39  1  0.19383000  0.52822000  0.19383000  1.0 -0.1049570378
C  C40  1  0.47178000  0.80617000  0.80617000  1.0 -0.105822311
C  C41  1  0.80617000  0.47178000  0.80617000  1.0 -0.1049570378
C  C42  1  0.80617000  0.80617000  0.47178000  1.0 -0.1049570378
C  C43  1  0.52233000  0.09617000  0.09617000  1.0 0.0933180117
C  C44  1  0.09617000  0.09617000  0.52233000  1.0 0.0933180117
C  C45  1  0.09617000  0.52233000  0.09617000  1.0 0.0933180117
C  C46  1  0.47767000  0.90383000  0.90383000  1.0 0.0933180117
C  C47  1  0.90383000  0.47767000  0.90383000  1.0 0.0933180117
C  C48  1  0.90383000  0.90383000  0.47767000  1.0 0.0933180117
C  C49  1  0.52391000  0.18529000  0.05668000  1.0 -0.1339989018
C  C50  1  0.18529000  0.05668000  0.52391000  1.0 -0.1339989018
C  C51  1  0.05668000  0.52391000  0.18529000  1.0 -0.1339989018
C  C52  1  0.47609000  0.94332000  0.81471000  1.0 -0.1339989018
C  C53  1  0.81471000  0.47609000  0.94332000  1.0 -0.1339989018
C  C54  1  0.94332000  0.81471000  0.47609000  1.0 -0.1339989018
C  C55  1  0.47609000  0.81471000  0.94332000  1.0 -0.1339989018
C  C56  1  0.81471000  0.94332000  0.47609000  1.0 -0.1339989018
C  C57  1  0.94332000  0.47609000  0.81471000  1.0 -0.1339989018
C  C58  1  0.52391000  0.05668000  0.18529000  1.0 -0.1339989018
C  C59  1  0.18529000  0.52391000  0.05668000  1.0 -0.1339989018
C  C60  1  0.05668000  0.18529000  0.52391000  1.0 -0.1339989018
C  C61  1  0.51366000  0.04514000  0.04514000  1.0 0.0121030731
C  C62  1  0.04514000  0.04514000  0.51366000  1.0 0.0121030731
C  C63  1  0.04514000  0.51366000  0.04514000  1.0 0.0121030731
C  C64  1  0.48634000  0.95486000  0.95486000  1.0 0.0121030731
C  C65  1  0.95486000  0.48634000  0.95486000  1.0 0.0121030731
C  C66  1  0.95486000  0.95486000  0.48634000  1.0 0.0121030731
C  C67  1  0.66040000  0.91430000  0.06770000  1.0 -0.4162492217
C  C68  1  0.91430000  0.06770000  0.66040000  1.0 -0.4162492217
C  C69  1  0.06770000  0.66040000  0.91430000  1.0 -0.4162492217
C  C70  1  0.33960000  0.93230000  0.08570000  1.0 -0.4162492217
C  C71  1  0.08570000  0.33960000  0.93230000  1.0 -0.4162492217
C  C72  1  0.93230000  0.08570000  0.33960000  1.0 -0.4162492217
C  C73  1  0.33960000  0.08570000  0.93230000  1.0 -0.4162492217
C  C74  1  0.08570000  0.93230000  0.33960000  1.0 -0.4162492217
C  C75  1  0.93230000  0.33960000  0.08570000  1.0 -0.4162492217
C  C76  1  0.66040000  0.06770000  0.91430000  1.0 -0.4162492217
C  C77  1  0.91430000  0.66040000  0.06770000  1.0 -0.4162492217
C  C78  1  0.06770000  0.91430000  0.66040000  1.0 -0.4162492217
C  C79  1  0.57661000  0.96241000  0.03291000  1.0 0.0524725605
C  C80  1  0.96241000  0.03291000  0.57661000  1.0 0.0524725605
C  C81  1  0.03291000  0.57661000  0.96241000  1.0 0.0524725605
C  C82  1  0.42339000  0.96709000  0.03759000  1.0 0.0524725605
C  C83  1  0.03759000  0.42339000  0.96709000  1.0 0.0524725605
C  C84  1  0.96709000  0.03759000  0.42339000  1.0 0.0524725605
C  C85  1  0.42339000  0.03759000  0.96709000  1.0 0.0524725605
C  C86  1  0.03759000  0.96709000  0.42339000  1.0 0.0524725605
C  C87  1  0.96709000  0.42339000  0.03759000  1.0 0.0524725605
C  C88  1  0.57661000  0.03291000  0.96241000  1.0 0.0524725605
C  C89  1  0.96241000  0.57661000  0.03291000  1.0 0.0524725605
C  C90  1  0.03291000  0.96241000  0.57661000  1.0 0.0524725605
O  O1  1  0.52140000  0.37358000  0.11216000  1.0 -0.5170904161
O  O2  1  0.37358000  0.11216000  0.52140000  1.0 -0.5170904161
O  O3  1  0.11216000  0.52140000  0.37358000  1.0 -0.5170904161
O  O4  1  0.47860000  0.88784000  0.62642000  1.0 -0.5170904161
O  O5  1  0.62642000  0.47860000  0.88784000  1.0 -0.5170904161
O  O6  1  0.88784000  0.62642000  0.47860000  1.0 -0.5170904161
O  O7  1  0.47860000  0.62642000  0.88784000  1.0 -0.5170904161
O  O8  1  0.62642000  0.88784000  0.47860000  1.0 -0.5170904161
O  O9  1  0.88784000  0.47860000  0.62642000  1.0 -0.5170904161
O  O10  1  0.52140000  0.11216000  0.37358000  1.0 -0.5170904161
O  O11  1  0.37358000  0.52140000  0.11216000  1.0 -0.5170904161
O  O12  1  0.11216000  0.37358000  0.52140000  1.0 -0.5170904161
O  O13  1  0.51496000  0.36714000  0.98449000  1.0 -0.5120632014
O  O14  1  0.36714000  0.98449000  0.51496000  1.0 -0.5120632014
O  O15  1  0.98449000  0.51496000  0.36714000  1.0 -0.5120632014
O  O16  1  0.48504000  0.01551000  0.63286000  1.0 -0.5120632014
O  O17  1  0.63286000  0.48504000  0.01551000  1.0 -0.5120632014
O  O18  1  0.01551000  0.63286000  0.48504000  1.0 -0.5120632014
O  O19  1  0.48504000  0.63286000  0.01551000  1.0 -0.5120632014
O  O20  1  0.63286000  0.01551000  0.48504000  1.0 -0.5120632014
O  O21  1  0.01551000  0.48504000  0.63286000  1.0 -0.5120632014
O  O22  1  0.51496000  0.98449000  0.36714000  1.0 -0.5120632014
O  O23  1  0.36714000  0.51496000  0.98449000  1.0 -0.5120632014
O  O24  1  0.98449000  0.36714000  0.51496000  1.0 -0.5120632014
