# DDEC6 charges by PACMAN v1.1 (https://github.com/mtap-research/PACMAN-charge/)
data_MULXUO_FSR_pacman
_symmetry_space_group_name_H-M   'P 1'
_cell_length_a   11.34200000
_cell_length_b   23.00700000
_cell_length_c   29.52400000
_cell_angle_alpha   90.00000000
_cell_angle_beta   90.00000000
_cell_angle_gamma   90.00000000
_symmetry_Int_Tables_number   1
_chemical_formula_structural   Cd2H18C27NO13
_chemical_formula_sum   'Cd16 H144 C216 N8 O104'
_cell_volume   7704.15181246
_cell_formula_units_Z   8
loop_
 _symmetry_equiv_pos_site_id
 _symmetry_equiv_pos_as_xyz
  1  'x, y, z'
loop_
 _atom_site_type_symbol
 _atom_site_label
 _atom_site_symmetry_multiplicity
 _atom_site_fract_x
 _atom_site_fract_y
 _atom_site_fract_z
 _atom_site_occupancy
 _atom_site_charge
Cd  Cd1  1  0.55651000  0.68950000  0.11325000  1.0 0.9737399951
Cd  Cd2  1  0.94349000  0.68950000  0.38675000  1.0 0.9737399951
Cd  Cd3  1  0.05651000  0.81050000  0.88675000  1.0 0.9737399951
Cd  Cd4  1  0.44349000  0.81050000  0.61325000  1.0 0.9737399951
Cd  Cd5  1  0.44349000  0.31050000  0.88675000  1.0 0.9737399951
Cd  Cd6  1  0.05651000  0.31050000  0.61325000  1.0 0.9737399951
Cd  Cd7  1  0.94349000  0.18950000  0.11325000  1.0 0.9737399951
Cd  Cd8  1  0.55651000  0.18950000  0.38675000  1.0 0.9737399951
Cd  Cd9  1  0.73467000  0.09132000  0.06162000  1.0 1.020527123
Cd  Cd10  1  0.76533000  0.09132000  0.43838000  1.0 1.020527123
Cd  Cd11  1  0.23467000  0.40868000  0.93838000  1.0 1.020527123
Cd  Cd12  1  0.26533000  0.40868000  0.56162000  1.0 1.020527123
Cd  Cd13  1  0.26533000  0.90868000  0.93838000  1.0 1.020527123
Cd  Cd14  1  0.23467000  0.90868000  0.56162000  1.0 1.020527123
Cd  Cd15  1  0.76533000  0.59132000  0.06162000  1.0 1.020527123
Cd  Cd16  1  0.73467000  0.59132000  0.43838000  1.0 1.020527123
H  H1  1  0.25500000  0.60980000  0.96300000  1.0 0.1299230825
H  H2  1  0.24500000  0.60980000  0.53700000  1.0 0.1299230825
H  H3  1  0.75500000  0.89020000  0.03700000  1.0 0.1299230825
H  H4  1  0.74500000  0.89020000  0.46300000  1.0 0.1299230825
H  H5  1  0.74500000  0.39020000  0.03700000  1.0 0.1299230825
H  H6  1  0.75500000  0.39020000  0.46300000  1.0 0.1299230825
H  H7  1  0.24500000  0.10980000  0.96300000  1.0 0.1299230825
H  H8  1  0.25500000  0.10980000  0.53700000  1.0 0.1299230825
H  H9  1  0.14860000  0.60020000  0.99610000  1.0 0.1485242233
H  H10  1  0.35140000  0.60020000  0.50390000  1.0 0.1485242233
H  H11  1  0.64860000  0.89980000  0.00390000  1.0 0.1485242233
H  H12  1  0.85140000  0.89980000  0.49610000  1.0 0.1485242233
H  H13  1  0.85140000  0.39980000  0.00390000  1.0 0.1485242233
H  H14  1  0.64860000  0.39980000  0.49610000  1.0 0.1485242233
H  H15  1  0.35140000  0.10020000  0.99610000  1.0 0.1485242233
H  H16  1  0.14860000  0.10020000  0.50390000  1.0 0.1485242233
H  H17  1  0.19410000  0.66330000  0.98610000  1.0 0.1243728609
H  H18  1  0.30590000  0.66330000  0.51390000  1.0 0.1243728609
H  H19  1  0.69410000  0.83670000  0.01390000  1.0 0.1243728609
H  H20  1  0.80590000  0.83670000  0.48610000  1.0 0.1243728609
H  H21  1  0.80590000  0.33670000  0.01390000  1.0 0.1243728609
H  H22  1  0.69410000  0.33670000  0.48610000  1.0 0.1243728609
H  H23  1  0.30590000  0.16330000  0.98610000  1.0 0.1243728609
H  H24  1  0.19410000  0.16330000  0.51390000  1.0 0.1243728609
H  H25  1  0.31580000  0.54180000  0.06020000  1.0 0.1392206722
H  H26  1  0.18420000  0.54180000  0.43980000  1.0 0.1392206722
H  H27  1  0.81580000  0.95820000  0.93980000  1.0 0.1392206722
H  H28  1  0.68420000  0.95820000  0.56020000  1.0 0.1392206722
H  H29  1  0.68420000  0.45820000  0.93980000  1.0 0.1392206722
H  H30  1  0.81580000  0.45820000  0.56020000  1.0 0.1392206722
H  H31  1  0.18420000  0.04180000  0.06020000  1.0 0.1392206722
H  H32  1  0.31580000  0.04180000  0.43980000  1.0 0.1392206722
H  H33  1  0.36600000  0.54140000  0.01070000  1.0 0.1392206722
H  H34  1  0.13400000  0.54140000  0.48930000  1.0 0.1392206722
H  H35  1  0.86600000  0.95860000  0.98930000  1.0 0.1392206722
H  H36  1  0.63400000  0.95860000  0.51070000  1.0 0.1392206722
H  H37  1  0.63400000  0.45860000  0.98930000  1.0 0.1392206722
H  H38  1  0.86600000  0.45860000  0.51070000  1.0 0.1392206722
H  H39  1  0.13400000  0.04140000  0.01070000  1.0 0.1392206722
H  H40  1  0.36600000  0.04140000  0.48930000  1.0 0.1392206722
H  H41  1  0.43790000  0.57080000  0.04980000  1.0 0.1299230825
H  H42  1  0.06210000  0.57080000  0.45020000  1.0 0.1299230825
H  H43  1  0.93790000  0.92920000  0.95020000  1.0 0.1299230825
H  H44  1  0.56210000  0.92920000  0.54980000  1.0 0.1299230825
H  H45  1  0.56210000  0.42920000  0.95020000  1.0 0.1299230825
H  H46  1  0.93790000  0.42920000  0.54980000  1.0 0.1299230825
H  H47  1  0.06210000  0.07080000  0.04980000  1.0 0.1299230825
H  H48  1  0.43790000  0.07080000  0.45020000  1.0 0.1299230825
H  H49  1  0.52850000  0.25340000  0.02230000  1.0 0.1299230825
H  H50  1  0.97150000  0.25340000  0.47770000  1.0 0.1299230825
H  H51  1  0.02850000  0.24660000  0.97770000  1.0 0.1299230825
H  H52  1  0.47150000  0.24660000  0.52230000  1.0 0.1299230825
H  H53  1  0.47150000  0.74660000  0.97770000  1.0 0.1299230825
H  H54  1  0.02850000  0.74660000  0.52230000  1.0 0.1299230825
H  H55  1  0.97150000  0.75340000  0.02230000  1.0 0.1299230825
H  H56  1  0.52850000  0.75340000  0.47770000  1.0 0.1299230825
H  H57  1  0.66390000  0.30720000  0.14170000  1.0 0.1299230825
H  H58  1  0.83610000  0.30720000  0.35830000  1.0 0.1299230825
H  H59  1  0.16390000  0.19280000  0.85830000  1.0 0.1299230825
H  H60  1  0.33610000  0.19280000  0.64170000  1.0 0.1299230825
H  H61  1  0.33610000  0.69280000  0.85830000  1.0 0.1299230825
H  H62  1  0.16390000  0.69280000  0.64170000  1.0 0.1299230825
H  H63  1  0.83610000  0.80720000  0.14170000  1.0 0.1299230825
H  H64  1  0.66390000  0.80720000  0.35830000  1.0 0.1299230825
H  H65  1  0.45630000  0.41320000  0.06800000  1.0 0.1299230825
H  H66  1  0.04370000  0.41320000  0.43200000  1.0 0.1299230825
H  H67  1  0.95630000  0.08680000  0.93200000  1.0 0.1299230825
H  H68  1  0.54370000  0.08680000  0.56800000  1.0 0.1299230825
H  H69  1  0.54370000  0.58680000  0.93200000  1.0 0.1299230825
H  H70  1  0.95630000  0.58680000  0.56800000  1.0 0.1299230825
H  H71  1  0.04370000  0.91320000  0.06800000  1.0 0.1299230825
H  H72  1  0.45630000  0.91320000  0.43200000  1.0 0.1299230825
H  H73  1  0.57860000  0.36260000  0.20020000  1.0 0.1243728609
H  H74  1  0.92140000  0.36260000  0.29980000  1.0 0.1243728609
H  H75  1  0.07860000  0.13740000  0.79980000  1.0 0.1243728609
H  H76  1  0.42140000  0.13740000  0.70020000  1.0 0.1243728609
H  H77  1  0.42140000  0.63740000  0.79980000  1.0 0.1243728609
H  H78  1  0.07860000  0.63740000  0.70020000  1.0 0.1243728609
H  H79  1  0.92140000  0.86260000  0.20020000  1.0 0.1243728609
H  H80  1  0.57860000  0.86260000  0.29980000  1.0 0.1243728609
H  H81  1  0.62720000  0.50970000  0.29640000  1.0 0.1299230825
H  H82  1  0.87280000  0.50970000  0.20360000  1.0 0.1299230825
H  H83  1  0.12720000  0.99030000  0.70360000  1.0 0.1299230825
H  H84  1  0.37280000  0.99030000  0.79640000  1.0 0.1299230825
H  H85  1  0.37280000  0.49030000  0.70360000  1.0 0.1299230825
H  H86  1  0.12720000  0.49030000  0.79640000  1.0 0.1299230825
H  H87  1  0.87280000  0.00970000  0.29640000  1.0 0.1299230825
H  H88  1  0.62720000  0.00970000  0.20360000  1.0 0.1299230825
H  H89  1  0.57180000  0.53250000  0.23230000  1.0 0.1299230825
H  H90  1  0.92820000  0.53250000  0.26770000  1.0 0.1299230825
H  H91  1  0.07180000  0.96750000  0.76770000  1.0 0.1299230825
H  H92  1  0.42820000  0.96750000  0.73230000  1.0 0.1299230825
H  H93  1  0.42820000  0.46750000  0.76770000  1.0 0.1299230825
H  H94  1  0.07180000  0.46750000  0.73230000  1.0 0.1299230825
H  H95  1  0.92820000  0.03250000  0.23230000  1.0 0.1299230825
H  H96  1  0.57180000  0.03250000  0.26770000  1.0 0.1299230825
H  H97  1  0.56130000  0.48250000  0.10190000  1.0 0.1299230825
H  H98  1  0.93870000  0.48250000  0.39810000  1.0 0.1299230825
H  H99  1  0.06130000  0.01750000  0.89810000  1.0 0.1299230825
H  H100  1  0.43870000  0.01750000  0.60190000  1.0 0.1299230825
H  H101  1  0.43870000  0.51750000  0.89810000  1.0 0.1299230825
H  H102  1  0.06130000  0.51750000  0.60190000  1.0 0.1299230825
H  H103  1  0.93870000  0.98250000  0.10190000  1.0 0.1299230825
H  H104  1  0.56130000  0.98250000  0.39810000  1.0 0.1299230825
H  H105  1  0.54390000  0.34410000  0.26940000  1.0 0.1243728609
H  H106  1  0.95610000  0.34410000  0.23060000  1.0 0.1243728609
H  H107  1  0.04390000  0.15590000  0.73060000  1.0 0.1243728609
H  H108  1  0.45610000  0.15590000  0.76940000  1.0 0.1243728609
H  H109  1  0.45610000  0.65590000  0.73060000  1.0 0.1243728609
H  H110  1  0.04390000  0.65590000  0.76940000  1.0 0.1243728609
H  H111  1  0.95610000  0.84410000  0.26940000  1.0 0.1243728609
H  H112  1  0.54390000  0.84410000  0.23060000  1.0 0.1243728609
H  H113  1  0.61480000  0.39320000  0.39730000  1.0 0.1299230825
H  H114  1  0.88520000  0.39320000  0.10270000  1.0 0.1299230825
H  H115  1  0.11480000  0.10680000  0.60270000  1.0 0.1299230825
H  H116  1  0.38520000  0.10680000  0.89730000  1.0 0.1299230825
H  H117  1  0.38520000  0.60680000  0.60270000  1.0 0.1299230825
H  H118  1  0.11480000  0.60680000  0.89730000  1.0 0.1299230825
H  H119  1  0.88520000  0.89320000  0.39730000  1.0 0.1299230825
H  H120  1  0.61480000  0.89320000  0.10270000  1.0 0.1299230825
H  H121  1  0.33270000  0.75480000  0.04320000  1.0 0.1690286458
H  H122  1  0.16730000  0.75480000  0.45680000  1.0 0.1690286458
H  H123  1  0.83270000  0.74520000  0.95680000  1.0 0.1690286458
H  H124  1  0.66730000  0.74520000  0.54320000  1.0 0.1690286458
H  H125  1  0.66730000  0.24520000  0.95680000  1.0 0.1690286458
H  H126  1  0.83270000  0.24520000  0.54320000  1.0 0.1690286458
H  H127  1  0.16730000  0.25480000  0.04320000  1.0 0.1690286458
H  H128  1  0.33270000  0.25480000  0.45680000  1.0 0.1690286458
H  H129  1  0.20690000  0.73110000  0.03130000  1.0 0.1594045037
H  H130  1  0.29310000  0.73110000  0.46870000  1.0 0.1594045037
H  H131  1  0.70690000  0.76890000  0.96870000  1.0 0.1594045037
H  H132  1  0.79310000  0.76890000  0.53130000  1.0 0.1594045037
H  H133  1  0.79310000  0.26890000  0.96870000  1.0 0.1594045037
H  H134  1  0.70690000  0.26890000  0.53130000  1.0 0.1594045037
H  H135  1  0.29310000  0.23110000  0.03130000  1.0 0.1594045037
H  H136  1  0.20690000  0.23110000  0.46870000  1.0 0.1594045037
H  H137  1  0.23910000  0.74570000  0.08160000  1.0 0.1594045037
H  H138  1  0.26090000  0.74570000  0.41840000  1.0 0.1594045037
H  H139  1  0.73910000  0.75430000  0.91840000  1.0 0.1594045037
H  H140  1  0.76090000  0.75430000  0.58160000  1.0 0.1594045037
H  H141  1  0.76090000  0.25430000  0.91840000  1.0 0.1594045037
H  H142  1  0.73910000  0.25430000  0.58160000  1.0 0.1594045037
H  H143  1  0.26090000  0.24570000  0.08160000  1.0 0.1594045037
H  H144  1  0.23910000  0.24570000  0.41840000  1.0 0.1594045037
C  C1  1  0.21710000  0.62350000  0.99010000  1.0 -0.3455554814
C  C2  1  0.28290000  0.62350000  0.50990000  1.0 -0.3455554814
C  C3  1  0.71710000  0.87650000  0.00990000  1.0 -0.3455554814
C  C4  1  0.78290000  0.87650000  0.49010000  1.0 -0.3455554814
C  C5  1  0.78290000  0.37650000  0.00990000  1.0 -0.3455554814
C  C6  1  0.71710000  0.37650000  0.49010000  1.0 -0.3455554814
C  C7  1  0.28290000  0.12350000  0.99010000  1.0 -0.3455554814
C  C8  1  0.21710000  0.12350000  0.50990000  1.0 -0.3455554814
C  C9  1  0.36030000  0.56340000  0.03820000  1.0 -0.3455554814
C  C10  1  0.13970000  0.56340000  0.46180000  1.0 -0.3455554814
C  C11  1  0.86030000  0.93660000  0.96180000  1.0 -0.344649212
C  C12  1  0.63970000  0.93660000  0.53820000  1.0 -0.3455554814
C  C13  1  0.63970000  0.43660000  0.96180000  1.0 -0.3455554814
C  C14  1  0.86030000  0.43660000  0.53820000  1.0 -0.344649212
C  C15  1  0.13970000  0.06340000  0.03820000  1.0 -0.3455554814
C  C16  1  0.36030000  0.06340000  0.46180000  1.0 -0.3455554814
C  C17  1  0.53770000  0.28240000  0.04402000  1.0 -0.1171942032
C  C18  1  0.96230000  0.28240000  0.45598000  1.0 -0.1171942032
C  C19  1  0.03770000  0.21760000  0.95598000  1.0 -0.1171942032
C  C20  1  0.46230000  0.21760000  0.54402000  1.0 -0.1171942032
C  C21  1  0.46230000  0.71760000  0.95598000  1.0 -0.1171942032
C  C22  1  0.03770000  0.71760000  0.54402000  1.0 -0.1171942032
C  C23  1  0.96230000  0.78240000  0.04402000  1.0 -0.1171942032
C  C24  1  0.53770000  0.78240000  0.45598000  1.0 -0.1171942032
C  C25  1  0.60610000  0.27160000  0.08295000  1.0 -0.0035087177
C  C26  1  0.89390000  0.27160000  0.41705000  1.0 -0.0035087177
C  C27  1  0.10610000  0.22840000  0.91705000  1.0 -0.0035087177
C  C28  1  0.39390000  0.22840000  0.58295000  1.0 -0.0035087177
C  C29  1  0.39390000  0.72840000  0.91705000  1.0 -0.0035087177
C  C30  1  0.10610000  0.72840000  0.58295000  1.0 -0.0035087177
C  C31  1  0.89390000  0.77160000  0.08295000  1.0 -0.0035087177
C  C32  1  0.60610000  0.77160000  0.41705000  1.0 -0.0035087177
C  C33  1  0.61780000  0.31410000  0.11621000  1.0 -0.1410184102
C  C34  1  0.88220000  0.31410000  0.38379000  1.0 -0.1410184102
C  C35  1  0.11780000  0.18590000  0.88379000  1.0 -0.1410184102
C  C36  1  0.38220000  0.18590000  0.61621000  1.0 -0.1410184102
C  C37  1  0.38220000  0.68590000  0.88379000  1.0 -0.1410184102
C  C38  1  0.11780000  0.68590000  0.61621000  1.0 -0.1410184102
C  C39  1  0.88220000  0.81410000  0.11621000  1.0 -0.1410184102
C  C40  1  0.61780000  0.81410000  0.38379000  1.0 -0.1410184102
C  C41  1  0.55960000  0.36750000  0.11102000  1.0 0.0803496476
C  C42  1  0.94040000  0.36750000  0.38898000  1.0 0.0803496476
C  C43  1  0.05960000  0.13250000  0.88898000  1.0 0.0803496476
C  C44  1  0.44040000  0.13250000  0.61102000  1.0 0.0803496476
C  C45  1  0.44040000  0.63250000  0.88898000  1.0 0.0803496476
C  C46  1  0.05960000  0.63250000  0.61102000  1.0 0.0803496476
C  C47  1  0.94040000  0.86750000  0.11102000  1.0 0.0803496476
C  C48  1  0.55960000  0.86750000  0.38898000  1.0 0.0803496476
C  C49  1  0.49410000  0.37770000  0.07166000  1.0 -0.1410184102
C  C50  1  0.00590000  0.37770000  0.42834000  1.0 -0.1410184102
C  C51  1  0.99410000  0.12230000  0.92834000  1.0 -0.1410184102
C  C52  1  0.50590000  0.12230000  0.57166000  1.0 -0.1410184102
C  C53  1  0.50590000  0.62230000  0.92834000  1.0 -0.1410184102
C  C54  1  0.99410000  0.62230000  0.57166000  1.0 -0.1410184102
C  C55  1  0.00590000  0.87770000  0.07166000  1.0 -0.1410184102
C  C56  1  0.49410000  0.87770000  0.42834000  1.0 -0.1410184102
C  C57  1  0.48420000  0.33570000  0.03784000  1.0 -0.0403749398
C  C58  1  0.01580000  0.33570000  0.46216000  1.0 -0.0403749398
C  C59  1  0.98420000  0.16430000  0.96216000  1.0 -0.0403749398
C  C60  1  0.51580000  0.16430000  0.53784000  1.0 -0.0403749398
C  C61  1  0.51580000  0.66430000  0.96216000  1.0 -0.0403749398
C  C62  1  0.98420000  0.66430000  0.53784000  1.0 -0.0403749398
C  C63  1  0.01580000  0.83570000  0.03784000  1.0 -0.0403749398
C  C64  1  0.48420000  0.83570000  0.46216000  1.0 -0.0403749398
C  C65  1  0.56610000  0.41440000  0.14537000  1.0 0.0803496476
C  C66  1  0.93390000  0.41440000  0.35463000  1.0 0.0803496476
C  C67  1  0.06610000  0.08560000  0.85463000  1.0 0.0803496476
C  C68  1  0.43390000  0.08560000  0.64537000  1.0 0.0803496476
C  C69  1  0.43390000  0.58560000  0.85463000  1.0 0.0803496476
C  C70  1  0.06610000  0.58560000  0.64537000  1.0 0.0803496476
C  C71  1  0.93390000  0.91440000  0.14537000  1.0 0.0803496476
C  C72  1  0.56610000  0.91440000  0.35463000  1.0 0.0803496476
C  C73  1  0.57460000  0.40140000  0.19148000  1.0 -0.1771404124
C  C74  1  0.92540000  0.40140000  0.30852000  1.0 -0.1771404124
C  C75  1  0.07460000  0.09860000  0.80852000  1.0 -0.1771404124
C  C76  1  0.42540000  0.09860000  0.69148000  1.0 -0.1771404124
C  C77  1  0.42540000  0.59860000  0.80852000  1.0 -0.1771404124
C  C78  1  0.07460000  0.59860000  0.69148000  1.0 -0.1771404124
C  C79  1  0.92540000  0.90140000  0.19148000  1.0 -0.1771404124
C  C80  1  0.57460000  0.90140000  0.30852000  1.0 -0.1771404124
C  C81  1  0.57730000  0.44420000  0.22503000  1.0 0.0803496476
C  C82  1  0.92270000  0.44420000  0.27497000  1.0 0.0803496476
C  C83  1  0.07730000  0.05580000  0.77497000  1.0 0.0803496476
C  C84  1  0.42270000  0.05580000  0.72503000  1.0 0.0803496476
C  C85  1  0.42270000  0.55580000  0.77497000  1.0 0.0803496476
C  C86  1  0.07730000  0.55580000  0.72503000  1.0 0.0803496476
C  C87  1  0.92270000  0.94420000  0.22503000  1.0 0.0803496476
C  C88  1  0.57730000  0.94420000  0.27497000  1.0 0.0803496476
C  C89  1  0.58440000  0.42950000  0.27411000  1.0 0.0655474704
C  C90  1  0.91560000  0.42950000  0.22589000  1.0 0.0643822909
C  C91  1  0.08440000  0.07050000  0.72589000  1.0 0.0655474704
C  C92  1  0.41560000  0.07050000  0.77411000  1.0 0.0643822909
C  C93  1  0.41560000  0.57050000  0.72589000  1.0 0.0643822909
C  C94  1  0.08440000  0.57050000  0.77411000  1.0 0.0655474704
C  C95  1  0.91560000  0.92950000  0.27411000  1.0 0.0643822909
C  C96  1  0.58440000  0.92950000  0.22589000  1.0 0.0655474704
C  C97  1  0.62580000  0.45870000  0.35140000  1.0 -0.0102567878
C  C98  1  0.87420000  0.45870000  0.14860000  1.0 -0.0102567878
C  C99  1  0.12580000  0.04130000  0.64860000  1.0 -0.0102567878
C  C100  1  0.37420000  0.04130000  0.85140000  1.0 -0.0102567878
C  C101  1  0.37420000  0.54130000  0.64860000  1.0 -0.0102567878
C  C102  1  0.12580000  0.54130000  0.85140000  1.0 -0.0102567878
C  C103  1  0.87420000  0.95870000  0.35140000  1.0 -0.0102567878
C  C104  1  0.62580000  0.95870000  0.14860000  1.0 -0.0102567878
C  C105  1  0.61450000  0.47180000  0.30601000  1.0 -0.1410184102
C  C106  1  0.88550000  0.47180000  0.19399000  1.0 -0.1410184102
C  C107  1  0.11450000  0.02820000  0.69399000  1.0 -0.1410184102
C  C108  1  0.38550000  0.02820000  0.80601000  1.0 -0.1410184102
C  C109  1  0.38550000  0.52820000  0.69399000  1.0 -0.1410184102
C  C110  1  0.11450000  0.52820000  0.80601000  1.0 -0.1410184102
C  C111  1  0.88550000  0.97180000  0.30601000  1.0 -0.1410184102
C  C112  1  0.61450000  0.97180000  0.19399000  1.0 -0.1410184102
C  C113  1  0.55250000  0.29840000  0.35200000  1.0 0.5456287623
C  C114  1  0.94750000  0.29840000  0.14800000  1.0 0.5456287623
C  C115  1  0.05250000  0.20160000  0.64800000  1.0 0.5456287623
C  C116  1  0.44750000  0.20160000  0.85200000  1.0 0.5456287623
C  C117  1  0.44750000  0.70160000  0.64800000  1.0 0.5456287623
C  C118  1  0.05250000  0.70160000  0.85200000  1.0 0.5456287623
C  C119  1  0.94750000  0.79840000  0.35200000  1.0 0.5456287623
C  C120  1  0.55250000  0.79840000  0.14800000  1.0 0.5456287623
C  C121  1  0.56980000  0.51630000  0.16418000  1.0 -0.0102567878
C  C122  1  0.93020000  0.51630000  0.33582000  1.0 -0.0102567878
C  C123  1  0.06980000  0.98370000  0.83582000  1.0 -0.0102567878
C  C124  1  0.43020000  0.98370000  0.66418000  1.0 -0.0102567878
C  C125  1  0.43020000  0.48370000  0.83582000  1.0 -0.0102567878
C  C126  1  0.06980000  0.48370000  0.66418000  1.0 -0.0102567878
C  C127  1  0.93020000  0.01630000  0.16418000  1.0 -0.0102567878
C  C128  1  0.56980000  0.01630000  0.33582000  1.0 -0.0102567878
C  C129  1  0.57280000  0.50280000  0.21093000  1.0 -0.151534993
C  C130  1  0.92720000  0.50280000  0.28907000  1.0 -0.151534993
C  C131  1  0.07280000  0.99720000  0.78907000  1.0 -0.1551881149
C  C132  1  0.42720000  0.99720000  0.71093000  1.0 -0.151534993
C  C133  1  0.42720000  0.49720000  0.78907000  1.0 -0.151534993
C  C134  1  0.07280000  0.49720000  0.71093000  1.0 -0.1551881149
C  C135  1  0.92720000  0.00280000  0.21093000  1.0 -0.151534993
C  C136  1  0.57280000  0.00280000  0.28907000  1.0 -0.151534993
C  C137  1  0.56510000  0.47290000  0.13249000  1.0 -0.1410184102
C  C138  1  0.93490000  0.47290000  0.36751000  1.0 -0.1410184102
C  C139  1  0.06510000  0.02710000  0.86751000  1.0 -0.1410184102
C  C140  1  0.43490000  0.02710000  0.63249000  1.0 -0.1410184102
C  C141  1  0.43490000  0.52710000  0.86751000  1.0 -0.1410184102
C  C142  1  0.06510000  0.52710000  0.63249000  1.0 -0.1410184102
C  C143  1  0.93490000  0.97290000  0.13249000  1.0 -0.1410184102
C  C144  1  0.56510000  0.97290000  0.36751000  1.0 -0.1410184102
C  C145  1  0.56990000  0.57870000  0.14964000  1.0 0.5719346268
C  C146  1  0.93010000  0.57870000  0.35036000  1.0 0.5719346268
C  C147  1  0.06990000  0.92130000  0.85036000  1.0 0.5719346268
C  C148  1  0.43010000  0.92130000  0.64964000  1.0 0.5719346268
C  C149  1  0.43010000  0.42130000  0.85036000  1.0 0.5719346268
C  C150  1  0.06990000  0.42130000  0.64964000  1.0 0.5719346268
C  C151  1  0.93010000  0.07870000  0.14964000  1.0 0.5719346268
C  C152  1  0.56990000  0.07870000  0.35036000  1.0 0.5719346268
C  C153  1  0.66190000  0.50540000  0.38455000  1.0 0.5329310433
C  C154  1  0.83810000  0.50540000  0.11545000  1.0 0.5329310433
C  C155  1  0.16190000  0.99460000  0.61545000  1.0 0.5329310433
C  C156  1  0.33810000  0.99460000  0.88455000  1.0 0.5329310433
C  C157  1  0.33810000  0.49460000  0.61545000  1.0 0.5329310433
C  C158  1  0.16190000  0.49460000  0.88455000  1.0 0.5329310433
C  C159  1  0.83810000  0.00540000  0.38455000  1.0 0.5329310433
C  C160  1  0.66190000  0.00540000  0.11545000  1.0 0.5329310433
C  C161  1  0.66600000  0.21300000  0.08820000  1.0 0.5791197004
C  C162  1  0.83400000  0.21300000  0.41180000  1.0 0.5791197004
C  C163  1  0.16600000  0.28700000  0.91180000  1.0 0.5791197004
C  C164  1  0.33400000  0.28700000  0.58820000  1.0 0.5791197004
C  C165  1  0.33400000  0.78700000  0.91180000  1.0 0.5791197004
C  C166  1  0.16600000  0.78700000  0.58820000  1.0 0.5791197004
C  C167  1  0.83400000  0.71300000  0.08820000  1.0 0.5791197004
C  C168  1  0.66600000  0.71300000  0.41180000  1.0 0.5791197004
C  C169  1  0.41570000  0.34780000  0.99581000  1.0 0.5791197004
C  C170  1  0.08430000  0.34780000  0.50419000  1.0 0.5791197004
C  C171  1  0.91570000  0.15220000  0.00419000  1.0 0.5719346268
C  C172  1  0.58430000  0.15220000  0.49581000  1.0 0.5719346268
C  C173  1  0.58430000  0.65220000  0.00419000  1.0 0.5719346268
C  C174  1  0.91570000  0.65220000  0.49581000  1.0 0.5791197004
C  C175  1  0.08430000  0.84780000  0.99581000  1.0 0.5791197004
C  C176  1  0.41570000  0.84780000  0.50419000  1.0 0.5791197004
C  C177  1  0.56400000  0.37310000  0.28994000  1.0 -0.151534993
C  C178  1  0.93600000  0.37310000  0.21006000  1.0 -0.151534993
C  C179  1  0.06400000  0.12690000  0.71006000  1.0 -0.151534993
C  C180  1  0.43600000  0.12690000  0.78994000  1.0 -0.151534993
C  C181  1  0.43600000  0.62690000  0.71006000  1.0 -0.151534993
C  C182  1  0.06400000  0.62690000  0.78994000  1.0 -0.151534993
C  C183  1  0.93600000  0.87310000  0.28994000  1.0 -0.151534993
C  C184  1  0.56400000  0.87310000  0.21006000  1.0 -0.151534993
C  C185  1  0.60610000  0.40210000  0.36678000  1.0 -0.1021912662
C  C186  1  0.89390000  0.40210000  0.13322000  1.0 -0.1021912662
C  C187  1  0.10610000  0.09790000  0.63322000  1.0 -0.1021912662
C  C188  1  0.39390000  0.09790000  0.86678000  1.0 -0.1021912662
C  C189  1  0.39390000  0.59790000  0.63322000  1.0 -0.1021912662
C  C190  1  0.10610000  0.59790000  0.86678000  1.0 -0.1021912662
C  C191  1  0.89390000  0.90210000  0.36678000  1.0 -0.1021912662
C  C192  1  0.60610000  0.90210000  0.13322000  1.0 -0.1021912662
C  C193  1  0.57330000  0.35940000  0.33601000  1.0 -0.0102567878
C  C194  1  0.92670000  0.35940000  0.16399000  1.0 -0.0102567878
C  C195  1  0.07330000  0.14060000  0.66399000  1.0 -0.0102567878
C  C196  1  0.42670000  0.14060000  0.83601000  1.0 -0.0102567878
C  C197  1  0.42670000  0.64060000  0.66399000  1.0 -0.0102567878
C  C198  1  0.07330000  0.64060000  0.83601000  1.0 -0.0102567878
C  C199  1  0.92670000  0.85940000  0.33601000  1.0 -0.0102567878
C  C200  1  0.57330000  0.85940000  0.16399000  1.0 -0.0102567878
C  C201  1  0.31260000  0.66870000  0.06020000  1.0 0.4630553112
C  C202  1  0.18740000  0.66870000  0.43980000  1.0 0.4630553112
C  C203  1  0.81260000  0.83130000  0.93980000  1.0 0.4630553112
C  C204  1  0.68740000  0.83130000  0.56020000  1.0 0.4630553112
C  C205  1  0.68740000  0.33130000  0.93980000  1.0 0.4630553112
C  C206  1  0.81260000  0.33130000  0.56020000  1.0 0.4630553112
C  C207  1  0.18740000  0.16870000  0.06020000  1.0 0.4630553112
C  C208  1  0.31260000  0.16870000  0.43980000  1.0 0.4630553112
C  C209  1  0.26870000  0.73080000  0.05350000  1.0 -0.5815083175
C  C210  1  0.23130000  0.73080000  0.44650000  1.0 -0.5815083175
C  C211  1  0.76870000  0.76920000  0.94650000  1.0 -0.5815083175
C  C212  1  0.73130000  0.76920000  0.55350000  1.0 -0.5815083175
C  C213  1  0.73130000  0.26920000  0.94650000  1.0 -0.5815083175
C  C214  1  0.76870000  0.26920000  0.55350000  1.0 -0.5815083175
C  C215  1  0.23130000  0.23080000  0.05350000  1.0 -0.5815083175
C  C216  1  0.26870000  0.23080000  0.44650000  1.0 -0.5815083175
N  N1  1  0.30080000  0.61900000  0.02900000  1.0 -0.0672466611
N  N2  1  0.19920000  0.61900000  0.47100000  1.0 -0.0672466611
N  N3  1  0.80080000  0.88100000  0.97100000  1.0 -0.0672466611
N  N4  1  0.69920000  0.88100000  0.52900000  1.0 -0.0672466611
N  N5  1  0.69920000  0.38100000  0.97100000  1.0 -0.0672466611
N  N6  1  0.80080000  0.38100000  0.52900000  1.0 -0.0672466611
N  N7  1  0.19920000  0.11900000  0.02900000  1.0 -0.0672466611
N  N8  1  0.30080000  0.11900000  0.47100000  1.0 -0.0672466611
O  O1  1  0.54590000  0.25797000  0.32381000  1.0 -0.5185142596
O  O2  1  0.95410000  0.25797000  0.17619000  1.0 -0.5185142596
O  O3  1  0.04590000  0.24203000  0.67619000  1.0 -0.5185142596
O  O4  1  0.45410000  0.24203000  0.82381000  1.0 -0.5185142596
O  O5  1  0.45410000  0.74203000  0.67619000  1.0 -0.5185142596
O  O6  1  0.04590000  0.74203000  0.82381000  1.0 -0.5185142596
O  O7  1  0.95410000  0.75797000  0.32381000  1.0 -0.5185142596
O  O8  1  0.54590000  0.75797000  0.17619000  1.0 -0.5185142596
O  O9  1  0.54620000  0.28959000  0.39376000  1.0 -0.5378650143
O  O10  1  0.95380000  0.28959000  0.10624000  1.0 -0.5378650143
O  O11  1  0.04620000  0.21041000  0.60624000  1.0 -0.5378650143
O  O12  1  0.45380000  0.21041000  0.89376000  1.0 -0.5378650143
O  O13  1  0.45380000  0.71041000  0.60624000  1.0 -0.5378650143
O  O14  1  0.04620000  0.71041000  0.89376000  1.0 -0.5378650143
O  O15  1  0.95380000  0.78959000  0.39376000  1.0 -0.5378650143
O  O16  1  0.54620000  0.78959000  0.10624000  1.0 -0.5378650143
O  O17  1  0.55310000  0.61852000  0.17691000  1.0 -0.4790305137
O  O18  1  0.94690000  0.61852000  0.32309000  1.0 -0.4790305137
O  O19  1  0.05310000  0.88148000  0.82309000  1.0 -0.4790305137
O  O20  1  0.44690000  0.88148000  0.67691000  1.0 -0.4790305137
O  O21  1  0.44690000  0.38148000  0.82309000  1.0 -0.4790305137
O  O22  1  0.05310000  0.38148000  0.67691000  1.0 -0.4790305137
O  O23  1  0.94690000  0.11852000  0.17691000  1.0 -0.4790305137
O  O24  1  0.55310000  0.11852000  0.32309000  1.0 -0.4790305137
O  O25  1  0.58870000  0.58954000  0.10774000  1.0 -0.6173230871
O  O26  1  0.91130000  0.58954000  0.39226000  1.0 -0.6173230871
O  O27  1  0.08870000  0.91046000  0.89226000  1.0 -0.6173230871
O  O28  1  0.41130000  0.91046000  0.60774000  1.0 -0.6173230871
O  O29  1  0.41130000  0.41046000  0.89226000  1.0 -0.6173230871
O  O30  1  0.08870000  0.41046000  0.60774000  1.0 -0.6173230871
O  O31  1  0.91130000  0.08954000  0.10774000  1.0 -0.6173230871
O  O32  1  0.58870000  0.08954000  0.39226000  1.0 -0.6173230871
O  O33  1  0.65290000  0.55717000  0.37193000  1.0 -0.5185142596
O  O34  1  0.84710000  0.55717000  0.12807000  1.0 -0.5185142596
O  O35  1  0.15290000  0.94283000  0.62807000  1.0 -0.5185142596
O  O36  1  0.34710000  0.94283000  0.87193000  1.0 -0.5185142596
O  O37  1  0.34710000  0.44283000  0.62807000  1.0 -0.5185142596
O  O38  1  0.15290000  0.44283000  0.87193000  1.0 -0.5185142596
O  O39  1  0.84710000  0.05717000  0.37193000  1.0 -0.5185142596
O  O40  1  0.65290000  0.05717000  0.12807000  1.0 -0.5185142596
O  O41  1  0.69810000  0.49155000  0.42285000  1.0 -0.5185142596
O  O42  1  0.80190000  0.49155000  0.07715000  1.0 -0.5185142596
O  O43  1  0.19810000  0.00845000  0.57715000  1.0 -0.5185142596
O  O44  1  0.30190000  0.00845000  0.92285000  1.0 -0.5185142596
O  O45  1  0.30190000  0.50845000  0.57715000  1.0 -0.5185142596
O  O46  1  0.19810000  0.50845000  0.92285000  1.0 -0.5185142596
O  O47  1  0.80190000  0.99155000  0.42285000  1.0 -0.5185142596
O  O48  1  0.69810000  0.99155000  0.07715000  1.0 -0.5185142596
O  O49  1  0.35940000  0.39516000  0.99400000  1.0 -0.5378650143
O  O50  1  0.14060000  0.39516000  0.50600000  1.0 -0.5378650143
O  O51  1  0.85940000  0.10484000  0.00600000  1.0 -0.5378650143
O  O52  1  0.64060000  0.10484000  0.49400000  1.0 -0.5378650143
O  O53  1  0.64060000  0.60484000  0.00600000  1.0 -0.5378650143
O  O54  1  0.85940000  0.60484000  0.49400000  1.0 -0.5378650143
O  O55  1  0.14060000  0.89516000  0.99400000  1.0 -0.5378650143
O  O56  1  0.35940000  0.89516000  0.50600000  1.0 -0.5378650143
O  O57  1  0.41910000  0.31086000  0.96448000  1.0 -0.5815083175
O  O58  1  0.08090000  0.31086000  0.53552000  1.0 -0.5815083175
O  O59  1  0.91910000  0.18914000  0.03552000  1.0 -0.5815083175
O  O60  1  0.58090000  0.18914000  0.46448000  1.0 -0.5815083175
O  O61  1  0.58090000  0.68914000  0.03552000  1.0 -0.5815083175
O  O62  1  0.91910000  0.68914000  0.46448000  1.0 -0.5815083175
O  O63  1  0.08090000  0.81086000  0.96448000  1.0 -0.5815083175
O  O64  1  0.41910000  0.81086000  0.53552000  1.0 -0.5815083175
O  O65  1  0.73970000  0.20676000  0.11996000  1.0 -0.5564693077
O  O66  1  0.76030000  0.20676000  0.38004000  1.0 -0.5564693077
O  O67  1  0.23970000  0.29324000  0.88004000  1.0 -0.5564693077
O  O68  1  0.26030000  0.29324000  0.61996000  1.0 -0.5564693077
O  O69  1  0.26030000  0.79324000  0.88004000  1.0 -0.5564693077
O  O70  1  0.23970000  0.79324000  0.61996000  1.0 -0.5564693077
O  O71  1  0.76030000  0.70676000  0.11996000  1.0 -0.5564693077
O  O72  1  0.73970000  0.70676000  0.38004000  1.0 -0.5564693077
O  O73  1  0.64070000  0.17556000  0.05938000  1.0 -0.5284654289
O  O74  1  0.85930000  0.17556000  0.44062000  1.0 -0.5284654289
O  O75  1  0.14070000  0.32444000  0.94062000  1.0 -0.5284654289
O  O76  1  0.35930000  0.32444000  0.55938000  1.0 -0.5284654289
O  O77  1  0.35930000  0.82444000  0.94062000  1.0 -0.5284654289
O  O78  1  0.14070000  0.82444000  0.55938000  1.0 -0.5284654289
O  O79  1  0.85930000  0.67556000  0.05938000  1.0 -0.5284654289
O  O80  1  0.64070000  0.67556000  0.44062000  1.0 -0.5284654289
O  O81  1  0.58430000  0.06590000  0.00700000  1.0 -0.0595942326
O  O82  1  0.91570000  0.06590000  0.49300000  1.0 -0.0595942326
O  O83  1  0.08430000  0.43410000  0.99300000  1.0 -0.0595942326
O  O84  1  0.41570000  0.43410000  0.50700000  1.0 -0.0595942326
O  O85  1  0.41570000  0.93410000  0.99300000  1.0 -0.0595942326
O  O86  1  0.08430000  0.93410000  0.50700000  1.0 -0.0595942326
O  O87  1  0.91570000  0.56590000  0.00700000  1.0 -0.0595942326
O  O88  1  0.58430000  0.56590000  0.49300000  1.0 -0.0595942326
O  O89  1  0.35060000  0.67890000  0.10870000  1.0 0.0969268051
O  O90  1  0.14940000  0.67890000  0.39130000  1.0 0.0969268051
O  O91  1  0.85060000  0.82110000  0.89130000  1.0 0.0969268051
O  O92  1  0.64940000  0.82110000  0.60870000  1.0 0.0969268051
O  O93  1  0.64940000  0.32110000  0.89130000  1.0 0.0969268051
O  O94  1  0.85060000  0.32110000  0.60870000  1.0 0.0969268051
O  O95  1  0.14940000  0.17890000  0.10870000  1.0 0.0969268051
O  O96  1  0.35060000  0.17890000  0.39130000  1.0 0.0969268051
O  O97  1  0.37750000  0.66100000  0.09280000  1.0 0.0090078447
O  O98  1  0.12250000  0.66100000  0.40720000  1.0 0.0090078447
O  O99  1  0.87750000  0.83900000  0.90720000  1.0 0.0090078447
O  O100  1  0.62250000  0.83900000  0.59280000  1.0 0.0090078447
O  O101  1  0.62250000  0.33900000  0.90720000  1.0 0.0090078447
O  O102  1  0.87750000  0.33900000  0.59280000  1.0 0.0090078447
O  O103  1  0.12250000  0.16100000  0.09280000  1.0 0.0090078447
O  O104  1  0.37750000  0.16100000  0.40720000  1.0 0.0090078447
