# DDEC6 charges by PACMAN v1.1 (https://github.com/mtap-research/PACMAN-charge/)
data_MUNDOQ_ASR_pacman
_symmetry_space_group_name_H-M   'P 1'
_cell_length_a   28.13500000
_cell_length_b   28.13500000
_cell_length_c   19.20000000
_cell_angle_alpha   90.00000000
_cell_angle_beta   90.00000000
_cell_angle_gamma   120.00000000
_symmetry_Int_Tables_number   1
_chemical_formula_structural   Cu14H42C78I8N6O25
_chemical_formula_sum   'Cu28 H84 C156 I16 N12 O50'
_cell_volume   13162.11555711
_cell_formula_units_Z   2
loop_
 _symmetry_equiv_pos_site_id
 _symmetry_equiv_pos_as_xyz
  1  'x, y, z'
loop_
 _atom_site_type_symbol
 _atom_site_label
 _atom_site_symmetry_multiplicity
 _atom_site_fract_x
 _atom_site_fract_y
 _atom_site_fract_z
 _atom_site_occupancy
 _atom_site_charge
Cu  Cu1  1  0.29146000  0.68693000  0.49809000  1.0 0.1699433891
Cu  Cu2  1  0.31307000  0.60453000  0.49809000  1.0 0.1699433891
Cu  Cu3  1  0.39547000  0.70854000  0.49809000  1.0 0.1699433891
Cu  Cu4  1  0.70854000  0.31307000  0.99809000  1.0 0.1782064009
Cu  Cu5  1  0.68693000  0.39547000  0.99809000  1.0 0.1782064009
Cu  Cu6  1  0.60453000  0.29146000  0.99809000  1.0 0.1782064009
Cu  Cu7  1  0.70854000  0.31307000  0.50191000  1.0 0.1699433891
Cu  Cu8  1  0.68693000  0.39547000  0.50191000  1.0 0.1699433891
Cu  Cu9  1  0.60453000  0.29146000  0.50191000  1.0 0.1699433891
Cu  Cu10  1  0.29146000  0.68693000  0.00191000  1.0 0.1699433891
Cu  Cu11  1  0.31307000  0.60453000  0.00191000  1.0 0.1699433891
Cu  Cu12  1  0.39547000  0.70854000  0.00191000  1.0 0.1699433891
Cu  Cu13  1  0.33333333  0.66666667  0.37955000  1.0 0.4163433481
Cu  Cu14  1  0.66666667  0.33333333  0.87955000  1.0 0.4269346017
Cu  Cu15  1  0.66666667  0.33333333  0.62045000  1.0 0.4269346017
Cu  Cu16  1  0.33333333  0.66666667  0.12045000  1.0 0.4163433481
Cu  Cu17  1  0.23797000  0.89432000  0.75000000  1.0 0.8330435026
Cu  Cu18  1  0.10568000  0.34365000  0.75000000  1.0 0.8330435026
Cu  Cu19  1  0.65635000  0.76203000  0.75000000  1.0 0.8330435026
Cu  Cu20  1  0.76203000  0.10568000  0.25000000  1.0 0.8330435026
Cu  Cu21  1  0.89432000  0.65635000  0.25000000  1.0 0.8330435026
Cu  Cu22  1  0.34365000  0.23797000  0.25000000  1.0 0.8330435026
Cu  Cu23  1  0.32995000  0.89004000  0.75000000  1.0 0.8588651388
Cu  Cu24  1  0.10996000  0.43991000  0.75000000  1.0 0.8588651388
Cu  Cu25  1  0.56009000  0.67005000  0.75000000  1.0 0.8588651388
Cu  Cu26  1  0.67005000  0.10996000  0.25000000  1.0 0.8588651388
Cu  Cu27  1  0.89004000  0.56009000  0.25000000  1.0 0.8588651388
Cu  Cu28  1  0.43991000  0.32995000  0.25000000  1.0 0.8588651388
H  H1  1  0.28840000  0.76210000  0.60700000  1.0 0.1286148292
H  H2  1  0.23790000  0.52630000  0.60700000  1.0 0.1286148292
H  H3  1  0.47370000  0.71160000  0.60700000  1.0 0.1286148292
H  H4  1  0.71160000  0.23790000  0.10700000  1.0 0.1286148292
H  H5  1  0.76210000  0.47370000  0.10700000  1.0 0.1286148292
H  H6  1  0.52630000  0.28840000  0.10700000  1.0 0.1286148292
H  H7  1  0.71160000  0.23790000  0.39300000  1.0 0.1286148292
H  H8  1  0.76210000  0.47370000  0.39300000  1.0 0.1286148292
H  H9  1  0.52630000  0.28840000  0.39300000  1.0 0.1286148292
H  H10  1  0.28840000  0.76210000  0.89300000  1.0 0.1286148292
H  H11  1  0.23790000  0.52630000  0.89300000  1.0 0.1286148292
H  H12  1  0.47370000  0.71160000  0.89300000  1.0 0.1286148292
H  H13  1  0.15520000  0.77710000  0.57420000  1.0 0.1286148292
H  H14  1  0.22290000  0.37810000  0.57420000  1.0 0.1286148292
H  H15  1  0.62190000  0.84480000  0.57420000  1.0 0.1286148292
H  H16  1  0.84480000  0.22290000  0.07420000  1.0 0.1286148292
H  H17  1  0.77710000  0.62190000  0.07420000  1.0 0.1286148292
H  H18  1  0.37810000  0.15520000  0.07420000  1.0 0.1286148292
H  H19  1  0.84480000  0.22290000  0.42580000  1.0 0.1286148292
H  H20  1  0.77710000  0.62190000  0.42580000  1.0 0.1286148292
H  H21  1  0.37810000  0.15520000  0.42580000  1.0 0.1286148292
H  H22  1  0.15520000  0.77710000  0.92580000  1.0 0.1286148292
H  H23  1  0.22290000  0.37810000  0.92580000  1.0 0.1286148292
H  H24  1  0.62190000  0.84480000  0.92580000  1.0 0.1286148292
H  H25  1  0.18450000  0.67960000  0.45640000  1.0 0.1045363489
H  H26  1  0.32040000  0.50490000  0.45640000  1.0 0.1045363489
H  H27  1  0.49510000  0.81550000  0.45640000  1.0 0.1045363489
H  H28  1  0.81550000  0.32040000  0.95640000  1.0 0.1045363489
H  H29  1  0.67960000  0.49510000  0.95640000  1.0 0.1045363489
H  H30  1  0.50490000  0.18450000  0.95640000  1.0 0.1045363489
H  H31  1  0.81550000  0.32040000  0.54360000  1.0 0.105114134
H  H32  1  0.67960000  0.49510000  0.54360000  1.0 0.1045363489
H  H33  1  0.50490000  0.18450000  0.54360000  1.0 0.105114134
H  H34  1  0.18450000  0.67960000  0.04360000  1.0 0.1045363489
H  H35  1  0.32040000  0.50490000  0.04360000  1.0 0.1045363489
H  H36  1  0.49510000  0.81550000  0.04360000  1.0 0.1045363489
H  H37  1  0.10680000  0.77240000  0.46760000  1.0 0.1191174726
H  H38  1  0.22760000  0.33440000  0.46760000  1.0 0.1191174726
H  H39  1  0.66560000  0.89320000  0.46760000  1.0 0.1191174726
H  H40  1  0.89320000  0.22760000  0.96760000  1.0 0.1191174726
H  H41  1  0.77240000  0.66560000  0.96760000  1.0 0.1191174726
H  H42  1  0.33440000  0.10680000  0.96760000  1.0 0.1191174726
H  H43  1  0.89320000  0.22760000  0.53240000  1.0 0.1191174726
H  H44  1  0.77240000  0.66560000  0.53240000  1.0 0.1191174726
H  H45  1  0.33440000  0.10680000  0.53240000  1.0 0.1191174726
H  H46  1  0.10680000  0.77240000  0.03240000  1.0 0.1191174726
H  H47  1  0.22760000  0.33440000  0.03240000  1.0 0.1191174726
H  H48  1  0.66560000  0.89320000  0.03240000  1.0 0.1191174726
H  H49  1  0.03050000  0.74040000  0.39610000  1.0 0.138477806
H  H50  1  0.25960000  0.29010000  0.39610000  1.0 0.138477806
H  H51  1  0.70990000  0.96950000  0.39610000  1.0 0.138477806
H  H52  1  0.96950000  0.25960000  0.89610000  1.0 0.138477806
H  H53  1  0.74040000  0.70990000  0.89610000  1.0 0.138477806
H  H54  1  0.29010000  0.03050000  0.89610000  1.0 0.138477806
H  H55  1  0.96950000  0.25960000  0.60390000  1.0 0.138477806
H  H56  1  0.74040000  0.70990000  0.60390000  1.0 0.138477806
H  H57  1  0.29010000  0.03050000  0.60390000  1.0 0.138477806
H  H58  1  0.03050000  0.74040000  0.10390000  1.0 0.138477806
H  H59  1  0.25960000  0.29010000  0.10390000  1.0 0.138477806
H  H60  1  0.70990000  0.96950000  0.10390000  1.0 0.138477806
H  H61  1  0.01270000  0.59260000  0.39530000  1.0 0.138477806
H  H62  1  0.40740000  0.42010000  0.39530000  1.0 0.138477806
H  H63  1  0.57990000  0.98730000  0.39530000  1.0 0.138477806
H  H64  1  0.98730000  0.40740000  0.89530000  1.0 0.138477806
H  H65  1  0.59260000  0.57990000  0.89530000  1.0 0.138477806
H  H66  1  0.42010000  0.01270000  0.89530000  1.0 0.138477806
H  H67  1  0.98730000  0.40740000  0.60470000  1.0 0.138477806
H  H68  1  0.59260000  0.57990000  0.60470000  1.0 0.138477806
H  H69  1  0.42010000  0.01270000  0.60470000  1.0 0.138477806
H  H70  1  0.01270000  0.59260000  0.10470000  1.0 0.138477806
H  H71  1  0.40740000  0.42010000  0.10470000  1.0 0.138477806
H  H72  1  0.57990000  0.98730000  0.10470000  1.0 0.138477806
H  H73  1  0.09160000  0.62320000  0.46090000  1.0 0.1191174726
H  H74  1  0.37680000  0.46840000  0.46090000  1.0 0.1191174726
H  H75  1  0.53160000  0.90840000  0.46090000  1.0 0.1191174726
H  H76  1  0.90840000  0.37680000  0.96090000  1.0 0.1191174726
H  H77  1  0.62320000  0.53160000  0.96090000  1.0 0.1191174726
H  H78  1  0.46840000  0.09160000  0.96090000  1.0 0.1191174726
H  H79  1  0.90840000  0.37680000  0.53910000  1.0 0.1191174726
H  H80  1  0.62320000  0.53160000  0.53910000  1.0 0.1191174726
H  H81  1  0.46840000  0.09160000  0.53910000  1.0 0.1191174726
H  H82  1  0.09160000  0.62320000  0.03910000  1.0 0.1191174726
H  H83  1  0.37680000  0.46840000  0.03910000  1.0 0.1191174726
H  H84  1  0.53160000  0.90840000  0.03910000  1.0 0.1191174726
C  C1  1  0.25670000  0.75300000  0.58170000  1.0 0.0617079858
C  C2  1  0.24700000  0.50370000  0.58170000  1.0 0.0617079858
C  C3  1  0.49630000  0.74330000  0.58170000  1.0 0.0617079858
C  C4  1  0.74330000  0.24700000  0.08170000  1.0 0.0617079858
C  C5  1  0.75300000  0.49630000  0.08170000  1.0 0.0617079858
C  C6  1  0.50370000  0.25670000  0.08170000  1.0 0.0617079858
C  C7  1  0.74330000  0.24700000  0.41830000  1.0 0.0617079858
C  C8  1  0.75300000  0.49630000  0.41830000  1.0 0.0617079858
C  C9  1  0.50370000  0.25670000  0.41830000  1.0 0.0617079858
C  C10  1  0.25670000  0.75300000  0.91830000  1.0 0.0617079858
C  C11  1  0.24700000  0.50370000  0.91830000  1.0 0.0617079858
C  C12  1  0.49630000  0.74330000  0.91830000  1.0 0.0617079858
C  C13  1  0.22640000  0.77780000  0.59950000  1.0 -0.0560295514
C  C14  1  0.22220000  0.44860000  0.59950000  1.0 -0.0560295514
C  C15  1  0.55140000  0.77360000  0.59950000  1.0 -0.0560295514
C  C16  1  0.77360000  0.22220000  0.09950000  1.0 -0.0560295514
C  C17  1  0.77780000  0.55140000  0.09950000  1.0 -0.0560295514
C  C18  1  0.44860000  0.22640000  0.09950000  1.0 -0.0560295514
C  C19  1  0.77360000  0.22220000  0.40050000  1.0 -0.0560295514
C  C20  1  0.77780000  0.55140000  0.40050000  1.0 -0.0560295514
C  C21  1  0.44860000  0.22640000  0.40050000  1.0 -0.0560295514
C  C22  1  0.22640000  0.77780000  0.90050000  1.0 -0.0560295514
C  C23  1  0.22220000  0.44860000  0.90050000  1.0 -0.0560295514
C  C24  1  0.55140000  0.77360000  0.90050000  1.0 -0.0560295514
C  C25  1  0.17650000  0.76120000  0.56380000  1.0 -0.1061034944
C  C26  1  0.23880000  0.41530000  0.56380000  1.0 -0.1061034944
C  C27  1  0.58470000  0.82350000  0.56380000  1.0 -0.1061034944
C  C28  1  0.82350000  0.23880000  0.06380000  1.0 -0.1061034944
C  C29  1  0.76120000  0.58470000  0.06380000  1.0 -0.1048509013
C  C30  1  0.41530000  0.17650000  0.06380000  1.0 -0.1061034944
C  C31  1  0.82350000  0.23880000  0.43620000  1.0 -0.1061034944
C  C32  1  0.76120000  0.58470000  0.43620000  1.0 -0.1048509013
C  C33  1  0.41530000  0.17650000  0.43620000  1.0 -0.1061034944
C  C34  1  0.17650000  0.76120000  0.93620000  1.0 -0.1061034944
C  C35  1  0.23880000  0.41530000  0.93620000  1.0 -0.1061034944
C  C36  1  0.58470000  0.82350000  0.93620000  1.0 -0.1061034944
C  C37  1  0.16080000  0.72300000  0.51580000  1.0 0.0267144957
C  C38  1  0.27700000  0.43780000  0.51580000  1.0 0.0267144957
C  C39  1  0.56220000  0.83920000  0.51580000  1.0 0.0267144957
C  C40  1  0.83920000  0.27700000  0.01580000  1.0 0.0267144957
C  C41  1  0.72300000  0.56220000  0.01580000  1.0 0.0267144957
C  C42  1  0.43780000  0.16080000  0.01580000  1.0 0.0267144957
C  C43  1  0.83920000  0.27700000  0.48420000  1.0 0.0267144957
C  C44  1  0.72300000  0.56220000  0.48420000  1.0 0.0267144957
C  C45  1  0.43780000  0.16080000  0.48420000  1.0 0.0267144957
C  C46  1  0.16080000  0.72300000  0.98420000  1.0 0.0267144957
C  C47  1  0.27700000  0.43780000  0.98420000  1.0 0.0267144957
C  C48  1  0.56220000  0.83920000  0.98420000  1.0 0.0267144957
C  C49  1  0.19460000  0.70280000  0.49480000  1.0 0.0267144957
C  C50  1  0.29720000  0.49180000  0.49480000  1.0 0.0267144957
C  C51  1  0.50820000  0.80540000  0.49480000  1.0 0.0267144957
C  C52  1  0.80540000  0.29720000  0.99480000  1.0 0.0267144957
C  C53  1  0.70280000  0.50820000  0.99480000  1.0 0.0267144957
C  C54  1  0.49180000  0.19460000  0.99480000  1.0 0.0267144957
C  C55  1  0.80540000  0.29720000  0.50520000  1.0 0.0267144957
C  C56  1  0.70280000  0.50820000  0.50520000  1.0 0.0267144957
C  C57  1  0.49180000  0.19460000  0.50520000  1.0 0.0267144957
C  C58  1  0.19460000  0.70280000  0.00520000  1.0 0.0267144957
C  C59  1  0.29720000  0.49180000  0.00520000  1.0 0.0267144957
C  C60  1  0.50820000  0.80540000  0.00520000  1.0 0.0267144957
C  C61  1  0.24560000  0.82020000  0.65580000  1.0 0.5724999774
C  C62  1  0.17980000  0.42540000  0.65580000  1.0 0.5724999774
C  C63  1  0.57460000  0.75440000  0.65580000  1.0 0.5724999774
C  C64  1  0.75440000  0.17980000  0.15580000  1.0 0.5724999774
C  C65  1  0.82020000  0.57460000  0.15580000  1.0 0.5724999774
C  C66  1  0.42540000  0.24560000  0.15580000  1.0 0.5724999774
C  C67  1  0.75440000  0.17980000  0.34420000  1.0 0.5724999774
C  C68  1  0.82020000  0.57460000  0.34420000  1.0 0.5724999774
C  C69  1  0.42540000  0.24560000  0.34420000  1.0 0.5724999774
C  C70  1  0.24560000  0.82020000  0.84420000  1.0 0.5724999774
C  C71  1  0.17980000  0.42540000  0.84420000  1.0 0.5724999774
C  C72  1  0.57460000  0.75440000  0.84420000  1.0 0.5724999774
C  C73  1  0.10900000  0.70200000  0.47160000  1.0 0.0847419742
C  C74  1  0.29800000  0.40700000  0.47160000  1.0 0.0853871498
C  C75  1  0.59300000  0.89100000  0.47160000  1.0 0.0853871498
C  C76  1  0.89100000  0.29800000  0.97160000  1.0 0.0847419742
C  C77  1  0.70200000  0.59300000  0.97160000  1.0 0.0847419742
C  C78  1  0.40700000  0.10900000  0.97160000  1.0 0.0847419742
C  C79  1  0.89100000  0.29800000  0.52840000  1.0 0.0847419742
C  C80  1  0.70200000  0.59300000  0.52840000  1.0 0.0847419742
C  C81  1  0.40700000  0.10900000  0.52840000  1.0 0.0847419742
C  C82  1  0.10900000  0.70200000  0.02840000  1.0 0.0847419742
C  C83  1  0.29800000  0.40700000  0.02840000  1.0 0.0847419742
C  C84  1  0.59300000  0.89100000  0.02840000  1.0 0.0853871498
C  C85  1  0.08920000  0.73620000  0.45220000  1.0 -0.1483239171
C  C86  1  0.26380000  0.35300000  0.45220000  1.0 -0.1445735228
C  C87  1  0.64700000  0.91080000  0.45220000  1.0 -0.1445735228
C  C88  1  0.91080000  0.26380000  0.95220000  1.0 -0.1445735228
C  C89  1  0.73620000  0.64700000  0.95220000  1.0 -0.1445735228
C  C90  1  0.35300000  0.08920000  0.95220000  1.0 -0.1445735228
C  C91  1  0.91080000  0.26380000  0.54780000  1.0 -0.1445735228
C  C92  1  0.73620000  0.64700000  0.54780000  1.0 -0.1445735228
C  C93  1  0.35300000  0.08920000  0.54780000  1.0 -0.1483239171
C  C94  1  0.08920000  0.73620000  0.04780000  1.0 -0.1483239171
C  C95  1  0.26380000  0.35300000  0.04780000  1.0 -0.1483239171
C  C96  1  0.64700000  0.91080000  0.04780000  1.0 -0.1483239171
C  C97  1  0.04290000  0.71670000  0.40970000  1.0 -0.0912576029
C  C98  1  0.28330000  0.32620000  0.40970000  1.0 -0.0912576029
C  C99  1  0.67380000  0.95710000  0.40970000  1.0 -0.0912576029
C  C100  1  0.95710000  0.28330000  0.90970000  1.0 -0.0912576029
C  C101  1  0.71670000  0.67380000  0.90970000  1.0 -0.0912576029
C  C102  1  0.32620000  0.04290000  0.90970000  1.0 -0.0912576029
C  C103  1  0.95710000  0.28330000  0.59030000  1.0 -0.0912576029
C  C104  1  0.71670000  0.67380000  0.59030000  1.0 -0.0912576029
C  C105  1  0.32620000  0.04290000  0.59030000  1.0 -0.0912576029
C  C106  1  0.04290000  0.71670000  0.09030000  1.0 -0.0912576029
C  C107  1  0.28330000  0.32620000  0.09030000  1.0 -0.0912576029
C  C108  1  0.67380000  0.95710000  0.09030000  1.0 -0.0912576029
C  C109  1  0.01530000  0.66330000  0.38770000  1.0 -0.0198062084
C  C110  1  0.33670000  0.35200000  0.38770000  1.0 -0.0198062084
C  C111  1  0.64800000  0.98470000  0.38770000  1.0 -0.0198062084
C  C112  1  0.98470000  0.33670000  0.88770000  1.0 -0.0198062084
C  C113  1  0.66330000  0.64800000  0.88770000  1.0 -0.0198062084
C  C114  1  0.35200000  0.01530000  0.88770000  1.0 -0.0198062084
C  C115  1  0.98470000  0.33670000  0.61230000  1.0 -0.0198062084
C  C116  1  0.66330000  0.64800000  0.61230000  1.0 -0.0198062084
C  C117  1  0.35200000  0.01530000  0.61230000  1.0 -0.0198062084
C  C118  1  0.01530000  0.66330000  0.11230000  1.0 -0.0198062084
C  C119  1  0.33670000  0.35200000  0.11230000  1.0 -0.0198062084
C  C120  1  0.64800000  0.98470000  0.11230000  1.0 -0.0198062084
C  C121  1  0.03250000  0.62930000  0.40820000  1.0 -0.0912576029
C  C122  1  0.37070000  0.40320000  0.40820000  1.0 -0.0912576029
C  C123  1  0.59680000  0.96750000  0.40820000  1.0 -0.0912576029
C  C124  1  0.96750000  0.37070000  0.90820000  1.0 -0.0912576029
C  C125  1  0.62930000  0.59680000  0.90820000  1.0 -0.0912576029
C  C126  1  0.40320000  0.03250000  0.90820000  1.0 -0.0912576029
C  C127  1  0.96750000  0.37070000  0.59180000  1.0 -0.0912576029
C  C128  1  0.62930000  0.59680000  0.59180000  1.0 -0.0912576029
C  C129  1  0.40320000  0.03250000  0.59180000  1.0 -0.0912576029
C  C130  1  0.03250000  0.62930000  0.09180000  1.0 -0.0912576029
C  C131  1  0.37070000  0.40320000  0.09180000  1.0 -0.0912576029
C  C132  1  0.59680000  0.96750000  0.09180000  1.0 -0.0912576029
C  C133  1  0.07960000  0.64750000  0.44880000  1.0 -0.1615555765
C  C134  1  0.35250000  0.43210000  0.44880000  1.0 -0.1615555765
C  C135  1  0.56790000  0.92040000  0.44880000  1.0 -0.1615555765
C  C136  1  0.92040000  0.35250000  0.94880000  1.0 -0.1615555765
C  C137  1  0.64750000  0.56790000  0.94880000  1.0 -0.1615555765
C  C138  1  0.43210000  0.07960000  0.94880000  1.0 -0.1615555765
C  C139  1  0.92040000  0.35250000  0.55120000  1.0 -0.1615555765
C  C140  1  0.64750000  0.56790000  0.55120000  1.0 -0.1615555765
C  C141  1  0.43210000  0.07960000  0.55120000  1.0 -0.1615555765
C  C142  1  0.07960000  0.64750000  0.05120000  1.0 -0.1615555765
C  C143  1  0.35250000  0.43210000  0.05120000  1.0 -0.1615555765
C  C144  1  0.56790000  0.92040000  0.05120000  1.0 -0.1615555765
C  C145  1  0.96570000  0.64260000  0.33840000  1.0 0.5724999774
C  C146  1  0.35740000  0.32310000  0.33840000  1.0 0.5724999774
C  C147  1  0.67690000  0.03430000  0.33840000  1.0 0.5724999774
C  C148  1  0.03430000  0.35740000  0.83840000  1.0 0.5724999774
C  C149  1  0.64260000  0.67690000  0.83840000  1.0 0.5724999774
C  C150  1  0.32310000  0.96570000  0.83840000  1.0 0.5724999774
C  C151  1  0.03430000  0.35740000  0.66160000  1.0 0.5724999774
C  C152  1  0.64260000  0.67690000  0.66160000  1.0 0.5724999774
C  C153  1  0.32310000  0.96570000  0.66160000  1.0 0.5724999774
C  C154  1  0.96570000  0.64260000  0.16160000  1.0 0.5724999774
C  C155  1  0.35740000  0.32310000  0.16160000  1.0 0.5724999774
C  C156  1  0.67690000  0.03430000  0.16160000  1.0 0.5724999774
I  I1  1  0.22853000  0.59748000  0.42381000  1.0 -0.3301526936
I  I2  1  0.40252000  0.63105000  0.42381000  1.0 -0.3301526936
I  I3  1  0.36895000  0.77147000  0.42381000  1.0 -0.3301526936
I  I4  1  0.77147000  0.40252000  0.92381000  1.0 -0.3380750449
I  I5  1  0.59748000  0.36895000  0.92381000  1.0 -0.3380750449
I  I6  1  0.63105000  0.22853000  0.92381000  1.0 -0.3380750449
I  I7  1  0.77147000  0.40252000  0.57619000  1.0 -0.3301526936
I  I8  1  0.59748000  0.36895000  0.57619000  1.0 -0.3301526936
I  I9  1  0.63105000  0.22853000  0.57619000  1.0 -0.3301526936
I  I10  1  0.22853000  0.59748000  0.07619000  1.0 -0.3301526936
I  I11  1  0.40252000  0.63105000  0.07619000  1.0 -0.3301526936
I  I12  1  0.36895000  0.77147000  0.07619000  1.0 -0.3301526936
I  I13  1  0.33333333  0.66666667  0.61259000  1.0 -0.2806530204
I  I14  1  0.66666667  0.33333333  0.11259000  1.0 -0.2806530204
I  I15  1  0.66666667  0.33333333  0.38741000  1.0 -0.2806530204
I  I16  1  0.33333333  0.66666667  0.88741000  1.0 -0.2806530204
N  N1  1  0.24230000  0.71600000  0.52900000  1.0 -0.1483239171
N  N2  1  0.28400000  0.52630000  0.52900000  1.0 -0.1483239171
N  N3  1  0.47370000  0.75770000  0.52900000  1.0 -0.1483239171
N  N4  1  0.75770000  0.28400000  0.02900000  1.0 -0.1483239171
N  N5  1  0.71600000  0.47370000  0.02900000  1.0 -0.1483239171
N  N6  1  0.52630000  0.24230000  0.02900000  1.0 -0.1483239171
N  N7  1  0.75770000  0.28400000  0.47100000  1.0 -0.1483239171
N  N8  1  0.71600000  0.47370000  0.47100000  1.0 -0.1483239171
N  N9  1  0.52630000  0.24230000  0.47100000  1.0 -0.1483239171
N  N10  1  0.24230000  0.71600000  0.97100000  1.0 -0.1483239171
N  N11  1  0.28400000  0.52630000  0.97100000  1.0 -0.1483239171
N  N12  1  0.47370000  0.75770000  0.97100000  1.0 -0.1483239171
O  O1  1  0.21510000  0.83650000  0.67600000  1.0 -0.487238599
O  O2  1  0.16350000  0.37860000  0.67600000  1.0 -0.487238599
O  O3  1  0.62140000  0.78490000  0.67600000  1.0 -0.487238599
O  O4  1  0.78490000  0.16350000  0.17600000  1.0 -0.487238599
O  O5  1  0.83650000  0.62140000  0.17600000  1.0 -0.487238599
O  O6  1  0.37860000  0.21510000  0.17600000  1.0 -0.487238599
O  O7  1  0.78490000  0.16350000  0.32400000  1.0 -0.487238599
O  O8  1  0.83650000  0.62140000  0.32400000  1.0 -0.487238599
O  O9  1  0.37860000  0.21510000  0.32400000  1.0 -0.487238599
O  O10  1  0.21510000  0.83650000  0.82400000  1.0 -0.487238599
O  O11  1  0.16350000  0.37860000  0.82400000  1.0 -0.487238599
O  O12  1  0.62140000  0.78490000  0.82400000  1.0 -0.487238599
O  O13  1  0.29420000  0.83420000  0.67910000  1.0 -0.5452678632
O  O14  1  0.16580000  0.46000000  0.67910000  1.0 -0.5452678632
O  O15  1  0.54000000  0.70580000  0.67910000  1.0 -0.5452678632
O  O16  1  0.70580000  0.16580000  0.17910000  1.0 -0.5452678632
O  O17  1  0.83420000  0.54000000  0.17910000  1.0 -0.5452678632
O  O18  1  0.46000000  0.29420000  0.17910000  1.0 -0.5452678632
O  O19  1  0.70580000  0.16580000  0.32090000  1.0 -0.5452678632
O  O20  1  0.83420000  0.54000000  0.32090000  1.0 -0.5452678632
O  O21  1  0.46000000  0.29420000  0.32090000  1.0 -0.5452678632
O  O22  1  0.29420000  0.83420000  0.82090000  1.0 -0.5452678632
O  O23  1  0.16580000  0.46000000  0.82090000  1.0 -0.5452678632
O  O24  1  0.54000000  0.70580000  0.82090000  1.0 -0.5452678632
O  O25  1  0.95180000  0.67700000  0.32040000  1.0 -0.5136142404
O  O26  1  0.32300000  0.27480000  0.32040000  1.0 -0.5136142404
O  O27  1  0.72520000  0.04820000  0.32040000  1.0 -0.5136142404
O  O28  1  0.04820000  0.32300000  0.82040000  1.0 -0.5152396392
O  O29  1  0.67700000  0.72520000  0.82040000  1.0 -0.5152396392
O  O30  1  0.27480000  0.95180000  0.82040000  1.0 -0.5152396392
O  O31  1  0.04820000  0.32300000  0.67960000  1.0 -0.5152396392
O  O32  1  0.67700000  0.72520000  0.67960000  1.0 -0.5152396392
O  O33  1  0.27480000  0.95180000  0.67960000  1.0 -0.5152396392
O  O34  1  0.95180000  0.67700000  0.17960000  1.0 -0.5136142404
O  O35  1  0.32300000  0.27480000  0.17960000  1.0 -0.5152396392
O  O36  1  0.72520000  0.04820000  0.17960000  1.0 -0.5136142404
O  O37  1  0.94690000  0.59440000  0.31970000  1.0 -0.5006761309
O  O38  1  0.40560000  0.35250000  0.31970000  1.0 -0.5006761309
O  O39  1  0.64750000  0.05310000  0.31970000  1.0 -0.5006761309
O  O40  1  0.05310000  0.40560000  0.81970000  1.0 -0.5006761309
O  O41  1  0.59440000  0.64750000  0.81970000  1.0 -0.5006761309
O  O42  1  0.35250000  0.94690000  0.81970000  1.0 -0.5006761309
O  O43  1  0.05310000  0.40560000  0.68030000  1.0 -0.5006761309
O  O44  1  0.59440000  0.64750000  0.68030000  1.0 -0.5006761309
O  O45  1  0.35250000  0.94690000  0.68030000  1.0 -0.5006761309
O  O46  1  0.94690000  0.59440000  0.18030000  1.0 -0.5006761309
O  O47  1  0.40560000  0.35250000  0.18030000  1.0 -0.5006761309
O  O48  1  0.64750000  0.05310000  0.18030000  1.0 -0.5006761309
O  O49  1  0.33333333  0.66666667  0.25000000  1.0 -0.5136142404
O  O50  1  0.66666667  0.33333333  0.75000000  1.0 -0.5293322038
