# DDEC6 charges by PACMAN v1.1 (https://github.com/mtap-research/PACMAN-charge/)
data_MUNPER_FSR_pacman
_symmetry_space_group_name_H-M   'P 1'
_cell_length_a   12.97200000
_cell_length_b   22.29600000
_cell_length_c   12.98800000
_cell_angle_alpha   90.00000000
_cell_angle_beta   109.37600000
_cell_angle_gamma   90.00000000
_symmetry_Int_Tables_number   1
_chemical_formula_structural   ZnH12C24(NO3)2
_chemical_formula_sum   'Zn4 H48 C96 N8 O24'
_cell_volume   3543.67937289
_cell_formula_units_Z   4
loop_
 _symmetry_equiv_pos_site_id
 _symmetry_equiv_pos_as_xyz
  1  'x, y, z'
loop_
 _atom_site_type_symbol
 _atom_site_label
 _atom_site_symmetry_multiplicity
 _atom_site_fract_x
 _atom_site_fract_y
 _atom_site_fract_z
 _atom_site_occupancy
 _atom_site_charge
Zn  Zn1  1  0.85318000  0.28668000  0.75248000  1.0 0.8482632316
Zn  Zn2  1  0.86644000  0.41750000  0.73759000  1.0 0.8200761355
Zn  Zn3  1  0.14682000  0.78668000  0.24752000  1.0 0.8482632316
Zn  Zn4  1  0.13356000  0.91750000  0.26241000  1.0 0.8200761355
H  H1  1  0.69640000  0.18830000  0.65940000  1.0 0.1222896447
H  H2  1  0.70470000  0.08090000  0.65210000  1.0 0.1373440228
H  H3  1  0.00260000  0.08210000  0.89040000  1.0 0.1498328201
H  H4  1  0.99660000  0.18860000  0.88150000  1.0 0.1222896447
H  H5  1  0.86330000  0.89780000  0.01430000  1.0 0.1306967516
H  H6  1  0.85010000  0.79570000  0.99560000  1.0 0.1222896447
H  H7  1  0.87490000  0.80630000  0.50520000  1.0 0.1306967516
H  H8  1  0.84030000  0.91340000  0.51650000  1.0 0.1306967516
H  H9  1  0.52690000  0.45980000  0.68400000  1.0 0.1306967516
H  H10  1  0.36020000  0.47170000  0.70810000  1.0 0.1306967516
H  H11  1  0.18310000  0.42230000  0.71740000  1.0 0.1306967516
H  H12  1  0.17700000  0.24580000  0.75450000  1.0 0.1373440228
H  H13  1  0.34420000  0.23870000  0.74910000  1.0 0.1306967516
H  H14  1  0.51300000  0.27740000  0.72790000  1.0 0.1306967516
H  H15  1  0.88340000  0.46100000  0.06550000  1.0 0.1222896447
H  H16  1  0.86200000  0.47090000  0.23170000  1.0 0.1222896447
H  H17  1  0.84760000  0.42320000  0.39840000  1.0 0.1306967516
H  H18  1  0.85320000  0.24660000  0.43280000  1.0 0.1373440228
H  H19  1  0.83850000  0.23380000  0.25130000  1.0 0.1222896447
H  H20  1  0.85580000  0.28010000  0.08250000  1.0 0.1222896447
H  H21  1  0.72100000  0.52000000  0.63600000  1.0 0.1306967516
H  H22  1  0.72320000  0.62370000  0.64030000  1.0 0.1498328201
H  H23  1  0.02420000  0.61540000  0.86070000  1.0 0.1498328201
H  H24  1  0.00270000  0.51150000  0.83060000  1.0 0.1306967516
H  H25  1  0.30360000  0.68830000  0.34060000  1.0 0.1222896447
H  H26  1  0.29530000  0.58090000  0.34790000  1.0 0.1373440228
H  H27  1  0.99740000  0.58210000  0.10960000  1.0 0.1498328201
H  H28  1  0.00340000  0.68860000  0.11850000  1.0 0.1222896447
H  H29  1  0.13670000  0.39780000  0.98570000  1.0 0.1306967516
H  H30  1  0.14990000  0.29570000  0.00440000  1.0 0.1222896447
H  H31  1  0.12510000  0.30630000  0.49480000  1.0 0.1306967516
H  H32  1  0.15970000  0.41340000  0.48350000  1.0 0.1306967516
H  H33  1  0.47310000  0.95980000  0.31600000  1.0 0.1306967516
H  H34  1  0.63980000  0.97170000  0.29190000  1.0 0.1306967516
H  H35  1  0.81690000  0.92230000  0.28260000  1.0 0.1306967516
H  H36  1  0.82300000  0.74580000  0.24550000  1.0 0.1373440228
H  H37  1  0.65580000  0.73870000  0.25090000  1.0 0.1306967516
H  H38  1  0.48700000  0.77740000  0.27210000  1.0 0.1306967516
H  H39  1  0.11660000  0.96100000  0.93450000  1.0 0.1222896447
H  H40  1  0.13800000  0.97090000  0.76830000  1.0 0.1222896447
H  H41  1  0.15240000  0.92320000  0.60160000  1.0 0.1306967516
H  H42  1  0.14680000  0.74660000  0.56720000  1.0 0.1373440228
H  H43  1  0.16150000  0.73380000  0.74870000  1.0 0.1222896447
H  H44  1  0.14420000  0.78010000  0.91750000  1.0 0.1222896447
H  H45  1  0.27900000  0.02000000  0.36400000  1.0 0.1306967516
H  H46  1  0.27680000  0.12370000  0.35970000  1.0 0.1498328201
H  H47  1  0.97580000  0.11540000  0.13930000  1.0 0.1498328201
H  H48  1  0.99730000  0.01150000  0.16940000  1.0 0.1306967516
C  C1  1  0.65270000  0.36070000  0.70470000  1.0 0.588412074
C  C2  1  0.87720000  0.36380000  0.95050000  1.0 0.5626275815
C  C3  1  0.06650000  0.34670000  0.77230000  1.0 0.5658012904
C  C4  1  0.84890000  0.34240000  0.54810000  1.0 0.5837160624
C  C5  1  0.76000000  0.16710000  0.70130000  1.0 0.1009594776
C  C6  1  0.76410000  0.10270000  0.70040000  1.0 -0.2179224712
C  C7  1  0.85370000  0.07180000  0.76890000  1.0 0.2443312831
C  C8  1  0.94230000  0.10250000  0.84050000  1.0 -0.2305292733
C  C9  1  0.93700000  0.16640000  0.83430000  1.0 0.1373440228
C  C10  1  0.85940000  0.97780000  0.86450000  1.0 0.4315020569
C  C11  1  0.85710000  0.91210000  0.86070000  1.0 -0.0701201646
C  C12  1  0.85970000  0.87940000  0.94730000  1.0 -0.0701201646
C  C13  1  0.85710000  0.81830000  0.93630000  1.0 -0.0894119389
C  C14  1  0.86390000  0.78450000  0.84330000  1.0 -0.0701201646
C  C15  1  0.86480000  0.72190000  0.83710000  1.0 0.3807000793
C  C16  1  0.86880000  0.72220000  0.65730000  1.0 0.438767267
C  C17  1  0.85870000  0.79260000  0.66090000  1.0 -0.0581691474
C  C18  1  0.86440000  0.82460000  0.56710000  1.0 -0.0830440618
C  C19  1  0.85200000  0.88940000  0.57980000  1.0 -0.0701201646
C  C20  1  0.85510000  0.91570000  0.66360000  1.0 -0.0466242306
C  C21  1  0.84800000  0.98390000  0.66300000  1.0 0.438767267
C  C22  1  0.85360000  0.88130000  0.75600000  1.0 0.0152675673
C  C23  1  0.85670000  0.81670000  0.75940000  1.0 0.0371729318
C  C24  1  0.53670000  0.36400000  0.70800000  1.0 -0.0137784373
C  C25  1  0.48860000  0.42620000  0.69810000  1.0 -0.0995969844
C  C26  1  0.39090000  0.43290000  0.70960000  1.0 -0.1509993
C  C27  1  0.33080000  0.37880000  0.72480000  1.0 0.0798405349
C  C28  1  0.21960000  0.38470000  0.73200000  1.0 -0.1509993
C  C29  1  0.17050000  0.33790000  0.75860000  1.0 -0.0581691474
C  C30  1  0.21660000  0.28140000  0.75230000  1.0 -0.0894119389
C  C31  1  0.31390000  0.27790000  0.74330000  1.0 -0.1201945044
C  C32  1  0.37590000  0.32160000  0.72730000  1.0 0.0528075076
C  C33  1  0.48060000  0.31600000  0.72180000  1.0 -0.1339030512
C  C34  1  0.86990000  0.36950000  0.05520000  1.0 -0.0894119389
C  C35  1  0.87400000  0.42620000  0.10360000  1.0 -0.0995969844
C  C36  1  0.86490000  0.43170000  0.20380000  1.0 -0.1509993
C  C37  1  0.85940000  0.38200000  0.26860000  1.0 0.0903167851
C  C38  1  0.85230000  0.38450000  0.36980000  1.0 -0.1509993
C  C39  1  0.85110000  0.33660000  0.43510000  1.0 -0.0300815948
C  C40  1  0.85090000  0.28110000  0.38920000  1.0 -0.0995969844
C  C41  1  0.84740000  0.27290000  0.28210000  1.0 -0.139562475
C  C42  1  0.85730000  0.32330000  0.21830000  1.0 0.0798405349
C  C43  1  0.86030000  0.31860000  0.11500000  1.0 -0.1339030512
C  C44  1  0.78450000  0.54050000  0.68020000  1.0 0.0371729318
C  C45  1  0.78540000  0.60140000  0.68220000  1.0 -0.1955394469
C  C46  1  0.87490000  0.62890000  0.74390000  1.0 0.1921849676
C  C47  1  0.96090000  0.59810000  0.80970000  1.0 -0.2305292733
C  C48  1  0.94200000  0.53540000  0.79070000  1.0 0.1498328201
C  C49  1  0.34730000  0.86070000  0.29530000  1.0 0.588412074
C  C50  1  0.12280000  0.86380000  0.04950000  1.0 0.5626275815
C  C51  1  0.93350000  0.84670000  0.22770000  1.0 0.5658012904
C  C52  1  0.15110000  0.84240000  0.45190000  1.0 0.5837160624
C  C53  1  0.24000000  0.66710000  0.29870000  1.0 0.1009594776
C  C54  1  0.23590000  0.60270000  0.29960000  1.0 -0.2179224712
C  C55  1  0.14630000  0.57180000  0.23110000  1.0 0.2443312831
C  C56  1  0.05770000  0.60250000  0.15950000  1.0 -0.2305292733
C  C57  1  0.06300000  0.66640000  0.16570000  1.0 0.1373440228
C  C58  1  0.14060000  0.47780000  0.13550000  1.0 0.4315020569
C  C59  1  0.14290000  0.41210000  0.13930000  1.0 -0.0701201646
C  C60  1  0.14030000  0.37940000  0.05270000  1.0 -0.0701201646
C  C61  1  0.14290000  0.31830000  0.06370000  1.0 -0.0894119389
C  C62  1  0.13610000  0.28450000  0.15670000  1.0 -0.0701201646
C  C63  1  0.13520000  0.22190000  0.16290000  1.0 0.3807000793
C  C64  1  0.13120000  0.22220000  0.34270000  1.0 0.438767267
C  C65  1  0.14130000  0.29260000  0.33910000  1.0 -0.0581691474
C  C66  1  0.13560000  0.32460000  0.43290000  1.0 -0.0830440618
C  C67  1  0.14800000  0.38940000  0.42020000  1.0 -0.0701201646
C  C68  1  0.14490000  0.41570000  0.33640000  1.0 -0.0466242306
C  C69  1  0.15200000  0.48390000  0.33700000  1.0 0.438767267
C  C70  1  0.14640000  0.38130000  0.24400000  1.0 0.0152675673
C  C71  1  0.14330000  0.31670000  0.24060000  1.0 0.0371729318
C  C72  1  0.46330000  0.86400000  0.29200000  1.0 -0.0137784373
C  C73  1  0.51140000  0.92620000  0.30190000  1.0 -0.0995969844
C  C74  1  0.60910000  0.93290000  0.29040000  1.0 -0.1509993
C  C75  1  0.66920000  0.87880000  0.27520000  1.0 0.0798405349
C  C76  1  0.78040000  0.88470000  0.26800000  1.0 -0.1509993
C  C77  1  0.82950000  0.83790000  0.24140000  1.0 -0.0581691474
C  C78  1  0.78340000  0.78140000  0.24770000  1.0 -0.0894119389
C  C79  1  0.68610000  0.77790000  0.25670000  1.0 -0.1201945044
C  C80  1  0.62410000  0.82160000  0.27270000  1.0 0.0528075076
C  C81  1  0.51940000  0.81600000  0.27820000  1.0 -0.1339030512
C  C82  1  0.13010000  0.86950000  0.94480000  1.0 -0.0894119389
C  C83  1  0.12600000  0.92620000  0.89640000  1.0 -0.0995969844
C  C84  1  0.13510000  0.93170000  0.79620000  1.0 -0.1509993
C  C85  1  0.14060000  0.88200000  0.73140000  1.0 0.0903167851
C  C86  1  0.14770000  0.88450000  0.63020000  1.0 -0.1509993
C  C87  1  0.14890000  0.83660000  0.56490000  1.0 -0.0300815948
C  C88  1  0.14910000  0.78110000  0.61080000  1.0 -0.0995969844
C  C89  1  0.15260000  0.77290000  0.71790000  1.0 -0.139562475
C  C90  1  0.14270000  0.82330000  0.78170000  1.0 0.0798405349
C  C91  1  0.13970000  0.81860000  0.88500000  1.0 -0.1339030512
C  C92  1  0.21550000  0.04050000  0.31980000  1.0 0.0371729318
C  C93  1  0.21460000  0.10140000  0.31780000  1.0 -0.1955394469
C  C94  1  0.12510000  0.12890000  0.25610000  1.0 0.1921849676
C  C95  1  0.03910000  0.09810000  0.19030000  1.0 -0.2305292733
C  C96  1  0.05800000  0.03540000  0.20930000  1.0 0.1498328201
N  N1  1  0.85330000  0.19710000  0.76620000  1.0 -0.2365224384
N  N2  1  0.85440000  0.01040000  0.76480000  1.0 -0.2179224712
N  N3  1  0.87290000  0.69800000  0.74890000  1.0 -0.2500779725
N  N4  1  0.87210000  0.50870000  0.73970000  1.0 -0.1509993
N  N5  1  0.14670000  0.69710000  0.23380000  1.0 -0.2365224384
N  N6  1  0.14560000  0.51040000  0.23520000  1.0 -0.2147511564
N  N7  1  0.12710000  0.19800000  0.25110000  1.0 -0.2500779725
N  N8  1  0.12790000  0.00870000  0.26030000  1.0 -0.155124443
O  O1  1  0.69410000  0.30570000  0.71960000  1.0 -0.5747221731
O  O2  1  0.70150000  0.40850000  0.70400000  1.0 -0.537498983
O  O3  1  0.87460000  0.31070000  0.90930000  1.0 -0.5485009077
O  O4  1  0.88390000  0.40990000  0.89520000  1.0 -0.5485009077
O  O5  1  0.02070000  0.29900000  0.78710000  1.0 -0.5204020016
O  O6  1  0.02810000  0.39600000  0.77170000  1.0 -0.4928142153
O  O7  1  0.84070000  0.29280000  0.59670000  1.0 -0.5485009077
O  O8  1  0.85160000  0.39300000  0.58510000  1.0 -0.5124320708
O  O9  1  0.85010000  0.00450000  0.94870000  1.0 -0.4580145501
O  O10  1  0.87190000  0.68890000  0.92540000  1.0 -0.5204020016
O  O11  1  0.86380000  0.70040000  0.57390000  1.0 -0.4094461821
O  O12  1  0.85240000  0.01250000  0.59410000  1.0 -0.3602379285
O  O13  1  0.30590000  0.80570000  0.28040000  1.0 -0.5747221731
O  O14  1  0.29850000  0.90850000  0.29600000  1.0 -0.537498983
O  O15  1  0.12540000  0.81070000  0.09070000  1.0 -0.5485009077
O  O16  1  0.11610000  0.90990000  0.10480000  1.0 -0.5485009077
O  O17  1  0.97930000  0.79900000  0.21290000  1.0 -0.5204020016
O  O18  1  0.97190000  0.89600000  0.22830000  1.0 -0.4928142153
O  O19  1  0.15930000  0.79280000  0.40330000  1.0 -0.5485009077
O  O20  1  0.14840000  0.89300000  0.41490000  1.0 -0.5124320708
O  O21  1  0.14990000  0.50450000  0.05130000  1.0 -0.4580145501
O  O22  1  0.12810000  0.18890000  0.07460000  1.0 -0.5204020016
O  O23  1  0.13620000  0.20040000  0.42610000  1.0 -0.4094461821
O  O24  1  0.14760000  0.51250000  0.40590000  1.0 -0.3602379285
