# DDEC6 charges by PACMAN v1.1 (https://github.com/mtap-research/PACMAN-charge/)
data_MUQMUJ_ASR_pacman
_symmetry_space_group_name_H-M   'P 1'
_cell_length_a   10.90900000
_cell_length_b   28.58200000
_cell_length_c   23.02240000
_cell_angle_alpha   90.00000000
_cell_angle_beta   109.18700000
_cell_angle_gamma   90.00000000
_symmetry_Int_Tables_number   1
_chemical_formula_structural   Co6H30C45O22
_chemical_formula_sum   'Co24 H120 C180 O88'
_cell_volume   6779.65455649
_cell_formula_units_Z   4
loop_
 _symmetry_equiv_pos_site_id
 _symmetry_equiv_pos_as_xyz
  1  'x, y, z'
loop_
 _atom_site_type_symbol
 _atom_site_label
 _atom_site_symmetry_multiplicity
 _atom_site_fract_x
 _atom_site_fract_y
 _atom_site_fract_z
 _atom_site_occupancy
 _atom_site_charge
Co  Co1  1  0.40730000  0.45485000  0.96491000  1.0 1.1312179663
Co  Co2  1  0.32919000  0.36506000  0.04688000  1.0 1.1078078845
Co  Co3  1  0.63755000  0.41207000  0.08889000  1.0 1.0598886707
Co  Co4  1  0.49915000  0.08748000  0.91343000  1.0 1.019934515
Co  Co5  1  0.25758000  0.13504000  0.95939000  1.0 1.0919574895
Co  Co6  1  0.45036000  0.45639000  0.53738000  1.0 1.0919574895
Co  Co7  1  0.59270000  0.95485000  0.53509000  1.0 1.1312179663
Co  Co8  1  0.67081000  0.86506000  0.45312000  1.0 1.1078078845
Co  Co9  1  0.36245000  0.91207000  0.41111000  1.0 1.0598886707
Co  Co10  1  0.50085000  0.58748000  0.58657000  1.0 1.019934515
Co  Co11  1  0.74242000  0.63504000  0.54061000  1.0 1.0919574895
Co  Co12  1  0.54964000  0.95639000  0.96262000  1.0 1.0919574895
Co  Co13  1  0.59270000  0.54515000  0.03509000  1.0 1.1312179663
Co  Co14  1  0.67081000  0.63494000  0.95312000  1.0 1.1078078845
Co  Co15  1  0.36245000  0.58793000  0.91111000  1.0 1.0598886707
Co  Co16  1  0.50085000  0.91252000  0.08657000  1.0 1.019934515
Co  Co17  1  0.74242000  0.86496000  0.04061000  1.0 1.0919574895
Co  Co18  1  0.54964000  0.54361000  0.46262000  1.0 1.0919574895
Co  Co19  1  0.40730000  0.04515000  0.46491000  1.0 1.1312179663
Co  Co20  1  0.32919000  0.13494000  0.54688000  1.0 1.1078078845
Co  Co21  1  0.63755000  0.08793000  0.58889000  1.0 1.0598886707
Co  Co22  1  0.49915000  0.41252000  0.41343000  1.0 1.019934515
Co  Co23  1  0.25758000  0.36496000  0.45939000  1.0 1.0919574895
Co  Co24  1  0.45036000  0.04361000  0.03738000  1.0 1.0919574895
H  H1  1  0.94260000  0.42430000  0.00850000  1.0 0.130844583
H  H2  1  0.01350000  0.48130000  0.86490000  1.0 0.130844583
H  H3  1  0.38910000  0.26560000  0.93720000  1.0 0.1391769928
H  H4  1  0.60020000  0.35780000  0.87410000  1.0 0.130844583
H  H5  1  0.43400000  0.54550000  0.74880000  1.0 0.130844583
H  H6  1  0.34430000  0.42460000  0.81430000  1.0 0.130844583
H  H7  1  0.66180000  0.49970000  0.88070000  1.0 0.130844583
H  H8  1  0.80470000  0.55270000  0.81390000  1.0 0.1495810237
H  H9  1  0.83780000  0.50910000  0.78060000  1.0 0.1391769928
H  H10  1  0.69850000  0.51460000  0.78540000  1.0 0.130844583
H  H11  1  0.47900000  0.23400000  0.07010000  1.0 0.1391769928
H  H12  1  0.82600000  0.27620000  0.17670000  1.0 0.130844583
H  H13  1  0.61500000  0.21660000  0.84510000  1.0 0.130844583
H  H14  1  0.66190000  0.30340000  0.77550000  1.0 0.1391769928
H  H15  1  0.76340000  0.26810000  0.81680000  1.0 0.1391769928
H  H16  1  0.77110000  0.32130000  0.83450000  1.0 0.1391769928
H  H17  1  0.47280000  0.42370000  0.66950000  1.0 0.130844583
H  H18  1  0.29130000  0.35930000  0.69560000  1.0 0.1495810237
H  H19  1  0.36520000  0.34780000  0.76490000  1.0 0.1391769928
H  H20  1  0.43960000  0.34710000  0.71710000  1.0 0.1391769928
H  H21  1  0.75050000  0.14130000  0.14920000  1.0 0.1391769928
H  H22  1  0.97810000  0.20830000  0.24130000  1.0 0.1391769928
H  H23  1  0.97480000  0.16170000  0.20500000  1.0 0.1391769928
H  H24  1  0.02040000  0.20820000  0.18250000  1.0 0.1391769928
H  H25  1  0.92060000  0.07420000  0.99340000  1.0 0.130844583
H  H26  1  0.80280000  0.00740000  0.11750000  1.0 0.1391769928
H  H27  1  0.18750000  0.02010000  0.14400000  1.0 0.1203049892
H  H28  1  0.03140000  0.01070000  0.23540000  1.0 0.1391769928
H  H29  1  0.11310000  0.97200000  0.21660000  1.0 0.1391769928
H  H30  1  0.96420000  0.96450000  0.20370000  1.0 0.1495810237
H  H31  1  0.05740000  0.92430000  0.49150000  1.0 0.130844583
H  H32  1  0.98650000  0.98130000  0.63510000  1.0 0.130844583
H  H33  1  0.61090000  0.76560000  0.56280000  1.0 0.1391769928
H  H34  1  0.39980000  0.85780000  0.62590000  1.0 0.130844583
H  H35  1  0.56600000  0.04550000  0.75120000  1.0 0.130844583
H  H36  1  0.65570000  0.92460000  0.68570000  1.0 0.130844583
H  H37  1  0.33820000  0.99970000  0.61930000  1.0 0.130844583
H  H38  1  0.19530000  0.05270000  0.68610000  1.0 0.1495810237
H  H39  1  0.16220000  0.00910000  0.71940000  1.0 0.1391769928
H  H40  1  0.30150000  0.01460000  0.71460000  1.0 0.130844583
H  H41  1  0.52100000  0.73400000  0.42990000  1.0 0.1391769928
H  H42  1  0.17400000  0.77620000  0.32330000  1.0 0.130844583
H  H43  1  0.38500000  0.71660000  0.65490000  1.0 0.130844583
H  H44  1  0.33810000  0.80340000  0.72450000  1.0 0.1391769928
H  H45  1  0.23660000  0.76810000  0.68320000  1.0 0.1391769928
H  H46  1  0.22890000  0.82130000  0.66550000  1.0 0.1391769928
H  H47  1  0.52720000  0.92370000  0.83050000  1.0 0.130844583
H  H48  1  0.70870000  0.85930000  0.80440000  1.0 0.1495810237
H  H49  1  0.63480000  0.84780000  0.73510000  1.0 0.1391769928
H  H50  1  0.56040000  0.84710000  0.78290000  1.0 0.1391769928
H  H51  1  0.24950000  0.64130000  0.35080000  1.0 0.1391769928
H  H52  1  0.02190000  0.70830000  0.25870000  1.0 0.1391769928
H  H53  1  0.02520000  0.66170000  0.29500000  1.0 0.1391769928
H  H54  1  0.97960000  0.70820000  0.31750000  1.0 0.1391769928
H  H55  1  0.07940000  0.57420000  0.50660000  1.0 0.130844583
H  H56  1  0.19720000  0.50740000  0.38250000  1.0 0.1391769928
H  H57  1  0.81250000  0.52010000  0.35600000  1.0 0.1203049892
H  H58  1  0.96860000  0.51070000  0.26460000  1.0 0.1391769928
H  H59  1  0.88690000  0.47200000  0.28340000  1.0 0.1391769928
H  H60  1  0.03580000  0.46450000  0.29630000  1.0 0.1495810237
H  H61  1  0.05740000  0.57570000  0.99150000  1.0 0.130844583
H  H62  1  0.98650000  0.51870000  0.13510000  1.0 0.130844583
H  H63  1  0.61090000  0.73440000  0.06280000  1.0 0.1391769928
H  H64  1  0.39980000  0.64220000  0.12590000  1.0 0.130844583
H  H65  1  0.56600000  0.45450000  0.25120000  1.0 0.130844583
H  H66  1  0.65570000  0.57540000  0.18570000  1.0 0.130844583
H  H67  1  0.33820000  0.50030000  0.11930000  1.0 0.130844583
H  H68  1  0.19530000  0.44730000  0.18610000  1.0 0.1495810237
H  H69  1  0.16220000  0.49090000  0.21940000  1.0 0.1391769928
H  H70  1  0.30150000  0.48540000  0.21460000  1.0 0.130844583
H  H71  1  0.52100000  0.76600000  0.92990000  1.0 0.1391769928
H  H72  1  0.17400000  0.72380000  0.82330000  1.0 0.130844583
H  H73  1  0.38500000  0.78340000  0.15490000  1.0 0.130844583
H  H74  1  0.33810000  0.69660000  0.22450000  1.0 0.1391769928
H  H75  1  0.23660000  0.73190000  0.18320000  1.0 0.1391769928
H  H76  1  0.22890000  0.67870000  0.16550000  1.0 0.1391769928
H  H77  1  0.52720000  0.57630000  0.33050000  1.0 0.130844583
H  H78  1  0.70870000  0.64070000  0.30440000  1.0 0.1495810237
H  H79  1  0.63480000  0.65220000  0.23510000  1.0 0.1391769928
H  H80  1  0.56040000  0.65290000  0.28290000  1.0 0.1391769928
H  H81  1  0.24950000  0.85870000  0.85080000  1.0 0.130844583
H  H82  1  0.02190000  0.79170000  0.75870000  1.0 0.1391769928
H  H83  1  0.02520000  0.83830000  0.79500000  1.0 0.1391769928
H  H84  1  0.97960000  0.79180000  0.81750000  1.0 0.1391769928
H  H85  1  0.07940000  0.92580000  0.00660000  1.0 0.130844583
H  H86  1  0.19720000  0.99260000  0.88250000  1.0 0.1391769928
H  H87  1  0.81250000  0.97990000  0.85600000  1.0 0.1203049892
H  H88  1  0.96860000  0.98930000  0.76460000  1.0 0.1391769928
H  H89  1  0.88690000  0.02800000  0.78340000  1.0 0.1391769928
H  H90  1  0.03580000  0.03550000  0.79630000  1.0 0.1495810237
H  H91  1  0.94260000  0.07570000  0.50850000  1.0 0.130844583
H  H92  1  0.01350000  0.01870000  0.36490000  1.0 0.130844583
H  H93  1  0.38910000  0.23440000  0.43720000  1.0 0.1391769928
H  H94  1  0.60020000  0.14220000  0.37410000  1.0 0.130844583
H  H95  1  0.43400000  0.95450000  0.24880000  1.0 0.130844583
H  H96  1  0.34430000  0.07540000  0.31430000  1.0 0.130844583
H  H97  1  0.66180000  0.00030000  0.38070000  1.0 0.130844583
H  H98  1  0.80470000  0.94730000  0.31390000  1.0 0.1495810237
H  H99  1  0.83780000  0.99090000  0.28060000  1.0 0.1391769928
H  H100  1  0.69850000  0.98540000  0.28540000  1.0 0.130844583
H  H101  1  0.47900000  0.26600000  0.57010000  1.0 0.1391769928
H  H102  1  0.82600000  0.22380000  0.67670000  1.0 0.130844583
H  H103  1  0.61500000  0.28340000  0.34510000  1.0 0.130844583
H  H104  1  0.66190000  0.19660000  0.27550000  1.0 0.1391769928
H  H105  1  0.76340000  0.23190000  0.31680000  1.0 0.1391769928
H  H106  1  0.77110000  0.17870000  0.33450000  1.0 0.1391769928
H  H107  1  0.47280000  0.07630000  0.16950000  1.0 0.130844583
H  H108  1  0.29130000  0.14070000  0.19560000  1.0 0.1495810237
H  H109  1  0.36520000  0.15220000  0.26490000  1.0 0.1391769928
H  H110  1  0.43960000  0.15290000  0.21710000  1.0 0.1391769928
H  H111  1  0.75050000  0.35870000  0.64920000  1.0 0.1391769928
H  H112  1  0.97810000  0.29170000  0.74130000  1.0 0.1391769928
H  H113  1  0.97480000  0.33830000  0.70500000  1.0 0.1391769928
H  H114  1  0.02040000  0.29180000  0.68250000  1.0 0.1391769928
H  H115  1  0.92060000  0.42580000  0.49340000  1.0 0.130844583
H  H116  1  0.80280000  0.49260000  0.61750000  1.0 0.1391769928
H  H117  1  0.18750000  0.47990000  0.64400000  1.0 0.1203049892
H  H118  1  0.03140000  0.48930000  0.73540000  1.0 0.1391769928
H  H119  1  0.11310000  0.52800000  0.71660000  1.0 0.1391769928
H  H120  1  0.96420000  0.53550000  0.70370000  1.0 0.1495810237
C  C1  1  0.13210000  0.43200000  0.96440000  1.0 0.6083057173
C  C2  1  0.43070000  0.35420000  0.93790000  1.0 0.6049969592
C  C3  1  0.35430000  0.51570000  0.83710000  1.0 0.5817419289
C  C4  1  0.99740000  0.45110000  0.94640000  1.0 -0.0209170581
C  C5  1  0.49010000  0.31600000  0.91000000  1.0 -0.0121347601
C  C6  1  0.38360000  0.48910000  0.78900000  1.0 -0.041594977
C  C7  1  0.91600000  0.44310000  0.97360000  1.0 -0.0866619735
C  C8  1  0.95710000  0.47670000  0.88710000  1.0 -0.1409020177
C  C9  1  0.60100000  0.31310000  0.10240000  1.0 0.6083057173
C  C10  1  0.44770000  0.27040000  0.91620000  1.0 -0.1214991231
C  C11  1  0.57640000  0.32710000  0.87880000  1.0 -0.179773409
C  C12  1  0.42720000  0.51310000  0.74700000  1.0 -0.1034302353
C  C13  1  0.37350000  0.44060000  0.78620000  1.0 -0.1541088126
C  C14  1  0.78760000  0.46040000  0.95490000  1.0 -0.075501503
C  C15  1  0.83260000  0.49310000  0.86710000  1.0 0.1621380584
C  C16  1  0.64650000  0.26420000  0.11570000  1.0 -0.0209170581
C  C17  1  0.49060000  0.23370000  0.89220000  1.0 -0.0209170581
C  C18  1  0.62660000  0.28720000  0.85420000  1.0 0.1836670139
C  C19  1  0.46060000  0.48860000  0.70220000  1.0 -0.0546439909
C  C20  1  0.40680000  0.41613000  0.74140000  1.0 0.1910503977
C  C21  1  0.70170000  0.45540000  0.98750000  1.0 0.5658140579
C  C22  1  0.74510000  0.48740000  0.89640000  1.0 -0.1214991231
C  C23  1  0.78930000  0.51990000  0.80600000  1.0 -0.4318497493
C  C24  1  0.56530000  0.22770000  0.09230000  1.0 -0.1214991231
C  C25  1  0.77140000  0.25280000  0.15430000  1.0 -0.1603577672
C  C26  1  0.45770000  0.18400000  0.90070000  1.0 0.5890224748
C  C27  1  0.58310000  0.24190000  0.86110000  1.0 -0.179773409
C  C28  1  0.71350000  0.29580000  0.81690000  1.0 -0.4527882372
C  C29  1  0.50650000  0.51460000  0.65990000  1.0 0.5556248972
C  C30  1  0.45040000  0.44010000  0.69940000  1.0 -0.1603577672
C  C31  1  0.37230000  0.36220000  0.72850000  1.0 -0.4392845495
C  C32  1  0.60420000  0.18270000  0.09980000  1.0 0.0001046882
C  C33  1  0.81490000  0.20570000  0.15930000  1.0 0.1621380584
C  C34  1  0.50990000  0.14370000  0.06960000  1.0 0.5890224748
C  C35  1  0.72800000  0.17220000  0.13810000  1.0 -0.179773409
C  C36  1  0.96180000  0.19490000  0.20120000  1.0 -0.4392845495
C  C37  1  0.71050000  0.04600000  0.00700000  1.0 0.5817419289
C  C38  1  0.84130000  0.03990000  0.04520000  1.0 -0.0637676245
C  C39  1  0.94200000  0.05570000  0.02850000  1.0 -0.0726428456
C  C40  1  0.86950000  0.01750000  0.10370000  1.0 -0.1409020177
C  C41  1  0.07490000  0.04730000  0.05800000  1.0 -0.0866619735
C  C42  1  0.99990000  0.01120000  0.13970000  1.0 0.1910503977
C  C43  1  0.17770000  0.06250000  0.03900000  1.0 0.5817419289
C  C44  1  0.10210000  0.02500000  0.11910000  1.0 -0.1541088126
C  C45  1  0.03020000  0.98720000  0.20540000  1.0 -0.4527882372
C  C46  1  0.86790000  0.93200000  0.53560000  1.0 0.6083057173
C  C47  1  0.56930000  0.85420000  0.56210000  1.0 0.6049969592
C  C48  1  0.64570000  0.01570000  0.66290000  1.0 0.5817419289
C  C49  1  0.00260000  0.95110000  0.55360000  1.0 -0.0209170581
C  C50  1  0.50990000  0.81600000  0.59000000  1.0 -0.0121347601
C  C51  1  0.61640000  0.98910000  0.71100000  1.0 -0.041594977
C  C52  1  0.08400000  0.94310000  0.52640000  1.0 -0.0866619735
C  C53  1  0.04290000  0.97670000  0.61290000  1.0 -0.1409020177
C  C54  1  0.39900000  0.81310000  0.39760000  1.0 0.6083057173
C  C55  1  0.55230000  0.77040000  0.58380000  1.0 -0.1214991231
C  C56  1  0.42360000  0.82710000  0.62120000  1.0 -0.179773409
C  C57  1  0.57280000  0.01310000  0.75300000  1.0 -0.1034302353
C  C58  1  0.62650000  0.94060000  0.71380000  1.0 -0.1541088126
C  C59  1  0.21240000  0.96040000  0.54510000  1.0 -0.075501503
C  C60  1  0.16740000  0.99310000  0.63290000  1.0 0.1621380584
C  C61  1  0.35350000  0.76420000  0.38430000  1.0 -0.0209170581
C  C62  1  0.50940000  0.73370000  0.60780000  1.0 -0.0209170581
C  C63  1  0.37340000  0.78720000  0.64580000  1.0 0.1836670139
C  C64  1  0.53940000  0.98860000  0.79780000  1.0 -0.0546439909
C  C65  1  0.59320000  0.91613000  0.75860000  1.0 0.1910503977
C  C66  1  0.29830000  0.95540000  0.51250000  1.0 0.5658140579
C  C67  1  0.25490000  0.98740000  0.60360000  1.0 -0.1214991231
C  C68  1  0.21070000  0.01990000  0.69400000  1.0 -0.4318497493
C  C69  1  0.43470000  0.72770000  0.40770000  1.0 -0.1214991231
C  C70  1  0.22860000  0.75280000  0.34570000  1.0 -0.1603577672
C  C71  1  0.54230000  0.68400000  0.59930000  1.0 0.5890224748
C  C72  1  0.41690000  0.74190000  0.63890000  1.0 -0.179773409
C  C73  1  0.28650000  0.79580000  0.68310000  1.0 -0.4527882372
C  C74  1  0.49350000  0.01460000  0.84010000  1.0 0.5556248972
C  C75  1  0.54960000  0.94010000  0.80060000  1.0 -0.1603577672
C  C76  1  0.62770000  0.86220000  0.77150000  1.0 -0.4392845495
C  C77  1  0.39580000  0.68270000  0.40020000  1.0 -6.11771e-05
C  C78  1  0.18510000  0.70570000  0.34070000  1.0 0.1621380584
C  C79  1  0.49010000  0.64370000  0.43040000  1.0 0.5890224748
C  C80  1  0.27200000  0.67220000  0.36190000  1.0 -0.179773409
C  C81  1  0.03820000  0.69490000  0.29880000  1.0 -0.4392845495
C  C82  1  0.28950000  0.54600000  0.49300000  1.0 0.5817419289
C  C83  1  0.15870000  0.53990000  0.45480000  1.0 -0.0637676245
C  C84  1  0.05800000  0.55570000  0.47150000  1.0 -0.0726428456
C  C85  1  0.13050000  0.51750000  0.39630000  1.0 -0.1409020177
C  C86  1  0.92510000  0.54730000  0.44200000  1.0 -0.0866619735
C  C87  1  0.00010000  0.51120000  0.36030000  1.0 0.1910503977
C  C88  1  0.82230000  0.56250000  0.46100000  1.0 0.5817419289
C  C89  1  0.89790000  0.52500000  0.38090000  1.0 -0.1541088126
C  C90  1  0.96980000  0.48720000  0.29460000  1.0 -0.4527882372
C  C91  1  0.86790000  0.56800000  0.03560000  1.0 0.6083057173
C  C92  1  0.56930000  0.64580000  0.06210000  1.0 0.6049969592
C  C93  1  0.64570000  0.48430000  0.16290000  1.0 0.5817419289
C  C94  1  0.00260000  0.54890000  0.05360000  1.0 -0.0209170581
C  C95  1  0.50990000  0.68400000  0.09000000  1.0 -0.0121347601
C  C96  1  0.61640000  0.51090000  0.21100000  1.0 -0.041594977
C  C97  1  0.08400000  0.55690000  0.02640000  1.0 -0.0866619735
C  C98  1  0.04290000  0.52330000  0.11290000  1.0 -0.1409020177
C  C99  1  0.39900000  0.68690000  0.89760000  1.0 0.6083057173
C  C100  1  0.55230000  0.72960000  0.08380000  1.0 -0.1214991231
C  C101  1  0.42360000  0.67290000  0.12120000  1.0 -0.179773409
C  C102  1  0.57280000  0.48690000  0.25300000  1.0 -0.1034302353
C  C103  1  0.62650000  0.55940000  0.21380000  1.0 -0.1541088126
C  C104  1  0.21240000  0.53960000  0.04510000  1.0 -0.075501503
C  C105  1  0.16740000  0.50690000  0.13290000  1.0 0.1621380584
C  C106  1  0.35350000  0.73580000  0.88430000  1.0 -0.0209170581
C  C107  1  0.50940000  0.76630000  0.10780000  1.0 -0.0209170581
C  C108  1  0.37340000  0.71280000  0.14580000  1.0 0.1836670139
C  C109  1  0.53940000  0.51140000  0.29780000  1.0 -0.0546439909
C  C110  1  0.59320000  0.58387000  0.25860000  1.0 0.1910503977
C  C111  1  0.29830000  0.54460000  0.01250000  1.0 0.5658140579
C  C112  1  0.25490000  0.51260000  0.10360000  1.0 -0.1214991231
C  C113  1  0.21070000  0.48010000  0.19400000  1.0 -0.4318497493
C  C114  1  0.43470000  0.77230000  0.90770000  1.0 -0.1214991231
C  C115  1  0.22860000  0.74720000  0.84570000  1.0 -0.1603577672
C  C116  1  0.54230000  0.81600000  0.09930000  1.0 0.5890224748
C  C117  1  0.41690000  0.75810000  0.13890000  1.0 -0.179773409
C  C118  1  0.28650000  0.70420000  0.18310000  1.0 -0.4527882372
C  C119  1  0.49350000  0.48540000  0.34010000  1.0 0.5556248972
C  C120  1  0.54960000  0.55990000  0.30060000  1.0 -0.1603577672
C  C121  1  0.62770000  0.63780000  0.27150000  1.0 -0.4392845495
C  C122  1  0.39580000  0.81730000  0.90020000  1.0 -6.11771e-05
C  C123  1  0.18510000  0.79430000  0.84070000  1.0 0.1621380584
C  C124  1  0.49010000  0.85630000  0.93040000  1.0 0.5890224748
C  C125  1  0.27200000  0.82780000  0.86190000  1.0 -0.179773409
C  C126  1  0.03820000  0.80510000  0.79880000  1.0 -0.4392845495
C  C127  1  0.28950000  0.95400000  0.99300000  1.0 0.5817419289
C  C128  1  0.15870000  0.96010000  0.95480000  1.0 -0.0637676245
C  C129  1  0.05800000  0.94430000  0.97150000  1.0 -0.0726428456
C  C130  1  0.13050000  0.98250000  0.89630000  1.0 -0.1409020177
C  C131  1  0.92510000  0.95270000  0.94200000  1.0 -0.0866619735
C  C132  1  0.00010000  0.98880000  0.86030000  1.0 0.1910503977
C  C133  1  0.82230000  0.93750000  0.96100000  1.0 0.5817419289
C  C134  1  0.89790000  0.97500000  0.88090000  1.0 -0.1541088126
C  C135  1  0.96980000  0.01280000  0.79460000  1.0 -0.4527882372
C  C136  1  0.13210000  0.06800000  0.46440000  1.0 0.6083057173
C  C137  1  0.43070000  0.14580000  0.43790000  1.0 0.6049969592
C  C138  1  0.35430000  0.98430000  0.33710000  1.0 0.5817419289
C  C139  1  0.99740000  0.04890000  0.44640000  1.0 -0.0209170581
C  C140  1  0.49010000  0.18400000  0.41000000  1.0 -0.0121347601
C  C141  1  0.38360000  0.01090000  0.28900000  1.0 -0.041594977
C  C142  1  0.91600000  0.05690000  0.47360000  1.0 -0.0866619735
C  C143  1  0.95710000  0.02330000  0.38710000  1.0 -0.1409020177
C  C144  1  0.60100000  0.18690000  0.60240000  1.0 0.6083057173
C  C145  1  0.44770000  0.22960000  0.41620000  1.0 -0.1214991231
C  C146  1  0.57640000  0.17290000  0.37880000  1.0 -0.179773409
C  C147  1  0.42720000  0.98690000  0.24700000  1.0 -0.1034302353
C  C148  1  0.37350000  0.05940000  0.28620000  1.0 -0.1541088126
C  C149  1  0.78760000  0.03960000  0.45490000  1.0 -0.075501503
C  C150  1  0.83260000  0.00690000  0.36710000  1.0 0.1621380584
C  C151  1  0.64650000  0.23580000  0.61570000  1.0 -0.0209170581
C  C152  1  0.49060000  0.26630000  0.39220000  1.0 -0.0209170581
C  C153  1  0.62660000  0.21280000  0.35420000  1.0 0.1836670139
C  C154  1  0.46060000  0.01140000  0.20220000  1.0 -0.0546439909
C  C155  1  0.40680000  0.08387000  0.24140000  1.0 0.1910503977
C  C156  1  0.70170000  0.04460000  0.48750000  1.0 0.5658140579
C  C157  1  0.74510000  0.01260000  0.39640000  1.0 -0.1214991231
C  C158  1  0.78930000  0.98010000  0.30600000  1.0 -0.4318497493
C  C159  1  0.56530000  0.27230000  0.59230000  1.0 -0.1214991231
C  C160  1  0.77140000  0.24720000  0.65430000  1.0 -0.1603577672
C  C161  1  0.45770000  0.31600000  0.40070000  1.0 0.5890224748
C  C162  1  0.58310000  0.25810000  0.36110000  1.0 -0.179773409
C  C163  1  0.71350000  0.20420000  0.31690000  1.0 -0.4527882372
C  C164  1  0.50650000  0.98540000  0.15990000  1.0 0.5556248972
C  C165  1  0.45040000  0.05990000  0.19940000  1.0 -0.1603577672
C  C166  1  0.37230000  0.13780000  0.22850000  1.0 -0.4392845495
C  C167  1  0.60420000  0.31730000  0.59980000  1.0 0.0001046882
C  C168  1  0.81490000  0.29430000  0.65930000  1.0 0.1621380584
C  C169  1  0.50990000  0.35630000  0.56960000  1.0 0.5890224748
C  C170  1  0.72800000  0.32780000  0.63810000  1.0 -0.179773409
C  C171  1  0.96180000  0.30510000  0.70120000  1.0 -0.4392845495
C  C172  1  0.71050000  0.45400000  0.50700000  1.0 0.5817419289
C  C173  1  0.84130000  0.46010000  0.54520000  1.0 -0.0637676245
C  C174  1  0.94200000  0.44430000  0.52850000  1.0 -0.0726428456
C  C175  1  0.86950000  0.48250000  0.60370000  1.0 -0.1409020177
C  C176  1  0.07490000  0.45270000  0.55800000  1.0 -0.0866619735
C  C177  1  0.99990000  0.48880000  0.63970000  1.0 0.1910503977
C  C178  1  0.17770000  0.43750000  0.53900000  1.0 0.5817419289
C  C179  1  0.10210000  0.47500000  0.61910000  1.0 -0.1541088126
C  C180  1  0.03020000  0.51280000  0.70540000  1.0 -0.4527882372
O  O1  1  0.21320000  0.44940000  0.94380000  1.0 -0.5096930465
O  O2  1  0.44810000  0.42230000  0.04900000  1.0 -0.8938710889
O  O3  1  0.46560000  0.39760000  0.93080000  1.0 -0.5727015934
O  O4  1  0.35590000  0.49830000  0.88710000  1.0 -0.5295221807
O  O5  1  0.60030000  0.48080000  0.98010000  1.0 -0.5860779485
O  O6  1  0.15570000  0.40000000  0.00480000  1.0 -0.5620284951
O  O7  1  0.34340000  0.34510000  0.96300000  1.0 -0.5999920568
O  O8  1  0.48210000  0.32180000  0.09710000  1.0 -0.611722996
O  O9  1  0.68140000  0.34490000  0.10320000  1.0 -0.5219806931
O  O10  1  0.73580000  0.42450000  0.03280000  1.0 -0.5465020142
O  O11  1  0.33070000  0.56020000  0.82800000  1.0 -0.5295221807
O  O12  1  0.52930000  0.15390000  0.90260000  1.0 -0.4318497493
O  O13  1  0.34000000  0.17790000  0.90370000  1.0 -0.6235696725
O  O14  1  0.51860000  0.56180000  0.66860000  1.0 -0.5364499292
O  O15  1  0.52820000  0.49920000  0.61570000  1.0 -0.455765476
O  O16  1  0.55310000  0.10430000  0.07370000  1.0 -0.5039325556
O  O17  1  0.39500000  0.15630000  0.04220000  1.0 -0.5620284951
O  O18  1  0.36870000  0.07710000  0.95260000  1.0 -0.842215409
O  O19  1  0.68250000  0.07570000  0.96230000  1.0 -0.5219806931
O  O20  1  0.14920000  0.09920000  0.00270000  1.0 -0.5808097324
O  O21  1  0.61800000  0.02100000  0.01810000  1.0 -0.611722996
O  O22  1  0.28770000  0.04450000  0.05870000  1.0 -0.5295221807
O  O23  1  0.78680000  0.94940000  0.55620000  1.0 -0.5096930465
O  O24  1  0.55190000  0.92230000  0.45100000  1.0 -0.8938710889
O  O25  1  0.53440000  0.89760000  0.56920000  1.0 -0.5727015934
O  O26  1  0.64410000  0.99830000  0.61290000  1.0 -0.5295221807
O  O27  1  0.39970000  0.98080000  0.51990000  1.0 -0.5860779485
O  O28  1  0.84430000  0.90000000  0.49520000  1.0 -0.5620284951
O  O29  1  0.65660000  0.84510000  0.53700000  1.0 -0.5999920568
O  O30  1  0.51790000  0.82180000  0.40290000  1.0 -0.611722996
O  O31  1  0.31860000  0.84490000  0.39680000  1.0 -0.5219806931
O  O32  1  0.26420000  0.92450000  0.46720000  1.0 -0.5465020142
O  O33  1  0.66930000  0.06020000  0.67200000  1.0 -0.5295221807
O  O34  1  0.47070000  0.65390000  0.59740000  1.0 -0.4318497493
O  O35  1  0.66000000  0.67790000  0.59630000  1.0 -0.6235696725
O  O36  1  0.48140000  0.06180000  0.83140000  1.0 -0.5364499292
O  O37  1  0.47180000  0.99920000  0.88430000  1.0 -0.455765476
O  O38  1  0.44690000  0.60430000  0.42630000  1.0 -0.5039325556
O  O39  1  0.60500000  0.65630000  0.45780000  1.0 -0.5620284951
O  O40  1  0.63130000  0.57710000  0.54740000  1.0 -0.842215409
O  O41  1  0.31750000  0.57570000  0.53770000  1.0 -0.5219806931
O  O42  1  0.85080000  0.59920000  0.49730000  1.0 -0.5808097324
O  O43  1  0.38200000  0.52100000  0.48190000  1.0 -0.611722996
O  O44  1  0.71230000  0.54450000  0.44130000  1.0 -0.5295221807
O  O45  1  0.78680000  0.55060000  0.05620000  1.0 -0.5096930465
O  O46  1  0.55190000  0.57770000  0.95100000  1.0 -0.8938710889
O  O47  1  0.53440000  0.60240000  0.06920000  1.0 -0.5727015934
O  O48  1  0.64410000  0.50170000  0.11290000  1.0 -0.5295221807
O  O49  1  0.39970000  0.51920000  0.01990000  1.0 -0.5860779485
O  O50  1  0.84430000  0.60000000  0.99520000  1.0 -0.5620284951
O  O51  1  0.65660000  0.65490000  0.03700000  1.0 -0.5999920568
O  O52  1  0.51790000  0.67820000  0.90290000  1.0 -0.611722996
O  O53  1  0.31860000  0.65510000  0.89680000  1.0 -0.5219806931
O  O54  1  0.26420000  0.57550000  0.96720000  1.0 -0.5465020142
O  O55  1  0.66930000  0.43980000  0.17200000  1.0 -0.5295221807
O  O56  1  0.47070000  0.84610000  0.09740000  1.0 -0.4318497493
O  O57  1  0.66000000  0.82210000  0.09630000  1.0 -0.6235696725
O  O58  1  0.48140000  0.43820000  0.33140000  1.0 -0.5364499292
O  O59  1  0.47180000  0.50080000  0.38430000  1.0 -0.455765476
O  O60  1  0.44690000  0.89570000  0.92630000  1.0 -0.5039325556
O  O61  1  0.60500000  0.84370000  0.95780000  1.0 -0.5620284951
O  O62  1  0.63130000  0.92290000  0.04740000  1.0 -0.842215409
O  O63  1  0.31750000  0.92430000  0.03770000  1.0 -0.5219806931
O  O64  1  0.85080000  0.90080000  0.99730000  1.0 -0.5808097324
O  O65  1  0.38200000  0.97900000  0.98190000  1.0 -0.611722996
O  O66  1  0.71230000  0.95550000  0.94130000  1.0 -0.5295221807
O  O67  1  0.21320000  0.05060000  0.44380000  1.0 -0.5096930465
O  O68  1  0.44810000  0.07770000  0.54900000  1.0 -0.8938710889
O  O69  1  0.46560000  0.10240000  0.43080000  1.0 -0.5727015934
O  O70  1  0.35590000  0.00170000  0.38710000  1.0 -0.5295221807
O  O71  1  0.60030000  0.01920000  0.48010000  1.0 -0.5860779485
O  O72  1  0.15570000  0.10000000  0.50480000  1.0 -0.5620284951
O  O73  1  0.34340000  0.15490000  0.46300000  1.0 -0.5999920568
O  O74  1  0.48210000  0.17820000  0.59710000  1.0 -0.611722996
O  O75  1  0.68140000  0.15510000  0.60320000  1.0 -0.5219806931
O  O76  1  0.73580000  0.07550000  0.53280000  1.0 -0.5465020142
O  O77  1  0.33070000  0.93980000  0.32800000  1.0 -0.5295221807
O  O78  1  0.52930000  0.34610000  0.40260000  1.0 -0.4318497493
O  O79  1  0.34000000  0.32210000  0.40370000  1.0 -0.6235696725
O  O80  1  0.51860000  0.93820000  0.16860000  1.0 -0.5364499292
O  O81  1  0.52820000  0.00080000  0.11570000  1.0 -0.4527882372
O  O82  1  0.55310000  0.39570000  0.57370000  1.0 -0.5039325556
O  O83  1  0.39500000  0.34370000  0.54220000  1.0 -0.5620284951
O  O84  1  0.36870000  0.42290000  0.45260000  1.0 -0.842215409
O  O85  1  0.68250000  0.42430000  0.46230000  1.0 -0.5219806931
O  O86  1  0.14920000  0.40080000  0.50270000  1.0 -0.5808097324
O  O87  1  0.61800000  0.47900000  0.51810000  1.0 -0.611722996
O  O88  1  0.28770000  0.45550000  0.55870000  1.0 -0.5295221807
