# DDEC6 charges by PACMAN v1.1 (https://github.com/mtap-research/PACMAN-charge/)
data_MURCIL_ASR_pacman
_symmetry_space_group_name_H-M   'P 1'
_cell_length_a   14.62420000
_cell_length_b   14.62420000
_cell_length_c   15.18700000
_cell_angle_alpha   90.00000000
_cell_angle_beta   90.00000000
_cell_angle_gamma   120.00000000
_symmetry_Int_Tables_number   1
_chemical_formula_structural   Dy2Cu3H24(C4O5)6
_chemical_formula_sum   'Dy4 Cu6 H48 C48 O60'
_cell_volume   2812.85185885
_cell_formula_units_Z   2
loop_
 _symmetry_equiv_pos_site_id
 _symmetry_equiv_pos_as_xyz
  1  'x, y, z'
loop_
 _atom_site_type_symbol
 _atom_site_label
 _atom_site_symmetry_multiplicity
 _atom_site_fract_x
 _atom_site_fract_y
 _atom_site_fract_z
 _atom_site_occupancy
 _atom_site_charge
Dy  Dy1  1  0.66666667  0.33333333  0.25000000  1.0 1.9243221208
Dy  Dy2  1  0.33333333  0.66666667  0.25000000  1.0 1.9243221208
Dy  Dy3  1  0.33333333  0.66666667  0.75000000  1.0 1.9243221208
Dy  Dy4  1  0.66666667  0.33333333  0.75000000  1.0 1.927006714
Cu  Cu1  1  0.00000000  0.50000000  0.50000000  1.0 0.883709006
Cu  Cu2  1  0.50000000  0.50000000  0.50000000  1.0 0.883709006
Cu  Cu3  1  0.50000000  0.00000000  0.50000000  1.0 0.883709006
Cu  Cu4  1  0.50000000  0.00000000  0.00000000  1.0 0.887447767
Cu  Cu5  1  0.50000000  0.50000000  0.00000000  1.0 0.887447767
Cu  Cu6  1  0.00000000  0.50000000  0.00000000  1.0 0.887447767
H  H1  1  0.83770000  0.63400000  0.34040000  1.0 0.1406972781
H  H2  1  0.36600000  0.20370000  0.34040000  1.0 0.1406972781
H  H3  1  0.79630000  0.16230000  0.34040000  1.0 0.1406972781
H  H4  1  0.63400000  0.79630000  0.34040000  1.0 0.1406972781
H  H5  1  0.20370000  0.83770000  0.34040000  1.0 0.1406972781
H  H6  1  0.63400000  0.83770000  0.15960000  1.0 0.1406972781
H  H7  1  0.20370000  0.36600000  0.15960000  1.0 0.1406972781
H  H8  1  0.16230000  0.79630000  0.15960000  1.0 0.1406972781
H  H9  1  0.36600000  0.16230000  0.15960000  1.0 0.1406972781
H  H10  1  0.79630000  0.63400000  0.15960000  1.0 0.1406972781
H  H11  1  0.83770000  0.20370000  0.15960000  1.0 0.1406972781
H  H12  1  0.16230000  0.36600000  0.34040000  1.0 0.1406972781
H  H13  1  0.16230000  0.36600000  0.65960000  1.0 0.1406972781
H  H14  1  0.63400000  0.79630000  0.65960000  1.0 0.1406972781
H  H15  1  0.20370000  0.83770000  0.65960000  1.0 0.1406972781
H  H16  1  0.36600000  0.20370000  0.65960000  1.0 0.1406972781
H  H17  1  0.79630000  0.16230000  0.65960000  1.0 0.1406972781
H  H18  1  0.36600000  0.16230000  0.84040000  1.0 0.1406972781
H  H19  1  0.79630000  0.63400000  0.84040000  1.0 0.1406972781
H  H20  1  0.83770000  0.20370000  0.84040000  1.0 0.1406972781
H  H21  1  0.63400000  0.83770000  0.84040000  1.0 0.1406972781
H  H22  1  0.20370000  0.36600000  0.84040000  1.0 0.1406972781
H  H23  1  0.16230000  0.79630000  0.84040000  1.0 0.1406972781
H  H24  1  0.83770000  0.63400000  0.65960000  1.0 0.1406972781
H  H25  1  0.91250000  0.63010000  0.26800000  1.0 0.1235749274
H  H26  1  0.36990000  0.28240000  0.26800000  1.0 0.1235749274
H  H27  1  0.71760000  0.08750000  0.26800000  1.0 0.1235749274
H  H28  1  0.63010000  0.71760000  0.26800000  1.0 0.1235749274
H  H29  1  0.28240000  0.91250000  0.26800000  1.0 0.1235749274
H  H30  1  0.63010000  0.91250000  0.23200000  1.0 0.1235749274
H  H31  1  0.28240000  0.36990000  0.23200000  1.0 0.1235749274
H  H32  1  0.08750000  0.71760000  0.23200000  1.0 0.1235749274
H  H33  1  0.36990000  0.08750000  0.23200000  1.0 0.1235749274
H  H34  1  0.71760000  0.63010000  0.23200000  1.0 0.1235749274
H  H35  1  0.91250000  0.28240000  0.23200000  1.0 0.1235749274
H  H36  1  0.08750000  0.36990000  0.26800000  1.0 0.1235749274
H  H37  1  0.08750000  0.36990000  0.73200000  1.0 0.1235749274
H  H38  1  0.63010000  0.71760000  0.73200000  1.0 0.1235749274
H  H39  1  0.28240000  0.91250000  0.73200000  1.0 0.1235749274
H  H40  1  0.36990000  0.28240000  0.73200000  1.0 0.1235749274
H  H41  1  0.71760000  0.08750000  0.73200000  1.0 0.1235749274
H  H42  1  0.36990000  0.08750000  0.76800000  1.0 0.1235749274
H  H43  1  0.71760000  0.63010000  0.76800000  1.0 0.1235749274
H  H44  1  0.91250000  0.28240000  0.76800000  1.0 0.1235749274
H  H45  1  0.63010000  0.91250000  0.76800000  1.0 0.1235749274
H  H46  1  0.28240000  0.36990000  0.76800000  1.0 0.1235749274
H  H47  1  0.08750000  0.71760000  0.76800000  1.0 0.1235749274
H  H48  1  0.91250000  0.63010000  0.73200000  1.0 0.1235749274
C  C1  1  0.86940000  0.51440000  0.36090000  1.0 0.6321751028
C  C2  1  0.48560000  0.35500000  0.36090000  1.0 0.6321751028
C  C3  1  0.64500000  0.13060000  0.36090000  1.0 0.6321751028
C  C4  1  0.51440000  0.64500000  0.36090000  1.0 0.6321751028
C  C5  1  0.35500000  0.86940000  0.36090000  1.0 0.6321751028
C  C6  1  0.51440000  0.86940000  0.13910000  1.0 0.6321751028
C  C7  1  0.35500000  0.48560000  0.13910000  1.0 0.6321751028
C  C8  1  0.13060000  0.64500000  0.13910000  1.0 0.6321751028
C  C9  1  0.48560000  0.13060000  0.13910000  1.0 0.6321751028
C  C10  1  0.64500000  0.51440000  0.13910000  1.0 0.6321751028
C  C11  1  0.86940000  0.35500000  0.13910000  1.0 0.6321751028
C  C12  1  0.13060000  0.48560000  0.36090000  1.0 0.6321751028
C  C13  1  0.13060000  0.48560000  0.63910000  1.0 0.6321751028
C  C14  1  0.51440000  0.64500000  0.63910000  1.0 0.6321751028
C  C15  1  0.35500000  0.86940000  0.63910000  1.0 0.6321751028
C  C16  1  0.48560000  0.35500000  0.63910000  1.0 0.6321751028
C  C17  1  0.64500000  0.13060000  0.63910000  1.0 0.6321751028
C  C18  1  0.48560000  0.13060000  0.86090000  1.0 0.6321751028
C  C19  1  0.64500000  0.51440000  0.86090000  1.0 0.6321751028
C  C20  1  0.86940000  0.35500000  0.86090000  1.0 0.6321751028
C  C21  1  0.51440000  0.86940000  0.86090000  1.0 0.6321751028
C  C22  1  0.35500000  0.48560000  0.86090000  1.0 0.6321751028
C  C23  1  0.13060000  0.64500000  0.86090000  1.0 0.6321751028
C  C24  1  0.86940000  0.51440000  0.63910000  1.0 0.6321751028
C  C25  1  0.85060000  0.58730000  0.30380000  1.0 -0.1670795089
C  C26  1  0.41270000  0.26330000  0.30380000  1.0 -0.1670795089
C  C27  1  0.73670000  0.14940000  0.30380000  1.0 -0.1670795089
C  C28  1  0.58730000  0.73670000  0.30380000  1.0 -0.1670795089
C  C29  1  0.26330000  0.85060000  0.30380000  1.0 -0.1670795089
C  C30  1  0.58730000  0.85060000  0.19620000  1.0 -0.1670795089
C  C31  1  0.26330000  0.41270000  0.19620000  1.0 -0.1670795089
C  C32  1  0.14940000  0.73670000  0.19620000  1.0 -0.1670795089
C  C33  1  0.41270000  0.14940000  0.19620000  1.0 -0.1670795089
C  C34  1  0.73670000  0.58730000  0.19620000  1.0 -0.1670795089
C  C35  1  0.85060000  0.26330000  0.19620000  1.0 -0.1670795089
C  C36  1  0.14940000  0.41270000  0.30380000  1.0 -0.1670795089
C  C37  1  0.14940000  0.41270000  0.69620000  1.0 -0.1670795089
C  C38  1  0.58730000  0.73670000  0.69620000  1.0 -0.1670795089
C  C39  1  0.26330000  0.85060000  0.69620000  1.0 -0.1670795089
C  C40  1  0.41270000  0.26330000  0.69620000  1.0 -0.1670795089
C  C41  1  0.73670000  0.14940000  0.69620000  1.0 -0.1670795089
C  C42  1  0.41270000  0.14940000  0.80380000  1.0 -0.1670795089
C  C43  1  0.73670000  0.58730000  0.80380000  1.0 -0.1670795089
C  C44  1  0.85060000  0.26330000  0.80380000  1.0 -0.1670795089
C  C45  1  0.58730000  0.85060000  0.80380000  1.0 -0.1670795089
C  C46  1  0.26330000  0.41270000  0.80380000  1.0 -0.1670795089
C  C47  1  0.14940000  0.73670000  0.80380000  1.0 -0.1670795089
C  C48  1  0.85060000  0.58730000  0.69620000  1.0 -0.1670795089
O  O1  1  0.80450000  0.41700000  0.35560000  1.0 -0.6229091461
O  O2  1  0.58300000  0.38750000  0.35560000  1.0 -0.6229091461
O  O3  1  0.61250000  0.19550000  0.35560000  1.0 -0.6229091461
O  O4  1  0.41700000  0.61250000  0.35560000  1.0 -0.6229091461
O  O5  1  0.38750000  0.80450000  0.35560000  1.0 -0.6229091461
O  O6  1  0.41700000  0.80450000  0.14440000  1.0 -0.6229091461
O  O7  1  0.38750000  0.58300000  0.14440000  1.0 -0.6229091461
O  O8  1  0.19550000  0.61250000  0.14440000  1.0 -0.6229091461
O  O9  1  0.58300000  0.19550000  0.14440000  1.0 -0.6229091461
O  O10  1  0.61250000  0.41700000  0.14440000  1.0 -0.6229091461
O  O11  1  0.80450000  0.38750000  0.14440000  1.0 -0.6229091461
O  O12  1  0.19550000  0.58300000  0.35560000  1.0 -0.6229091461
O  O13  1  0.19550000  0.58300000  0.64440000  1.0 -0.6229091461
O  O14  1  0.41700000  0.61250000  0.64440000  1.0 -0.6229091461
O  O15  1  0.38750000  0.80450000  0.64440000  1.0 -0.6229091461
O  O16  1  0.58300000  0.38750000  0.64440000  1.0 -0.6229091461
O  O17  1  0.61250000  0.19550000  0.64440000  1.0 -0.6229091461
O  O18  1  0.58300000  0.19550000  0.85560000  1.0 -0.6229091461
O  O19  1  0.61250000  0.41700000  0.85560000  1.0 -0.6229091461
O  O20  1  0.80450000  0.38750000  0.85560000  1.0 -0.6229091461
O  O21  1  0.41700000  0.80450000  0.85560000  1.0 -0.6229091461
O  O22  1  0.38750000  0.58300000  0.85560000  1.0 -0.6229091461
O  O23  1  0.19550000  0.61250000  0.85560000  1.0 -0.6229091461
O  O24  1  0.80450000  0.41700000  0.64440000  1.0 -0.6229091461
O  O25  1  0.94710000  0.55740000  0.41060000  1.0 -0.5420969203
O  O26  1  0.44260000  0.38970000  0.41060000  1.0 -0.5420969203
O  O27  1  0.61030000  0.05290000  0.41060000  1.0 -0.5420969203
O  O28  1  0.55740000  0.61030000  0.41060000  1.0 -0.5420969203
O  O29  1  0.38970000  0.94710000  0.41060000  1.0 -0.5420969203
O  O30  1  0.55740000  0.94710000  0.08940000  1.0 -0.5420969203
O  O31  1  0.38970000  0.44260000  0.08940000  1.0 -0.5420969203
O  O32  1  0.05290000  0.61030000  0.08940000  1.0 -0.5420969203
O  O33  1  0.44260000  0.05290000  0.08940000  1.0 -0.5420969203
O  O34  1  0.61030000  0.55740000  0.08940000  1.0 -0.5420969203
O  O35  1  0.94710000  0.38970000  0.08940000  1.0 -0.5420969203
O  O36  1  0.05290000  0.44260000  0.41060000  1.0 -0.5420969203
O  O37  1  0.05290000  0.44260000  0.58940000  1.0 -0.5420969203
O  O38  1  0.55740000  0.61030000  0.58940000  1.0 -0.5420969203
O  O39  1  0.38970000  0.94710000  0.58940000  1.0 -0.5420969203
O  O40  1  0.44260000  0.38970000  0.58940000  1.0 -0.5420969203
O  O41  1  0.61030000  0.05290000  0.58940000  1.0 -0.5420969203
O  O42  1  0.44260000  0.05290000  0.91060000  1.0 -0.5420969203
O  O43  1  0.61030000  0.55740000  0.91060000  1.0 -0.5420969203
O  O44  1  0.94710000  0.38970000  0.91060000  1.0 -0.5420969203
O  O45  1  0.55740000  0.94710000  0.91060000  1.0 -0.5420969203
O  O46  1  0.38970000  0.44260000  0.91060000  1.0 -0.5420969203
O  O47  1  0.05290000  0.61030000  0.91060000  1.0 -0.5420969203
O  O48  1  0.94710000  0.55740000  0.58940000  1.0 -0.5420969203
O  O49  1  0.76385000  0.52770000  0.25000000  1.0 -0.2131770824
O  O50  1  0.47230000  0.23615000  0.25000000  1.0 -0.2131770824
O  O51  1  0.76385000  0.23615000  0.25000000  1.0 -0.2131770824
O  O52  1  0.52770000  0.76385000  0.25000000  1.0 -0.2131770824
O  O53  1  0.23615000  0.76385000  0.25000000  1.0 -0.2131770824
O  O54  1  0.23615000  0.47230000  0.25000000  1.0 -0.2131770824
O  O55  1  0.23615000  0.47230000  0.75000000  1.0 -0.2131770824
O  O56  1  0.52770000  0.76385000  0.75000000  1.0 -0.2131770824
O  O57  1  0.23615000  0.76385000  0.75000000  1.0 -0.2131770824
O  O58  1  0.47230000  0.23615000  0.75000000  1.0 -0.2131770824
O  O59  1  0.76385000  0.23615000  0.75000000  1.0 -0.2131770824
O  O60  1  0.76385000  0.52770000  0.75000000  1.0 -0.2131770824
