# DDEC6 charges by PACMAN v1.1 (https://github.com/mtap-research/PACMAN-charge/)
data_MURQEY_ASR_pacman
_symmetry_space_group_name_H-M   'P 1'
_cell_length_a   7.42780000
_cell_length_b   12.15100000
_cell_length_c   14.29530000
_cell_angle_alpha   90.00000000
_cell_angle_beta   90.00000000
_cell_angle_gamma   90.00000000
_symmetry_Int_Tables_number   1
_chemical_formula_structural   FePd(CN)4
_chemical_formula_sum   'Fe4 Pd4 C16 N16'
_cell_volume   1290.22512911
_cell_formula_units_Z   4
loop_
 _symmetry_equiv_pos_site_id
 _symmetry_equiv_pos_as_xyz
  1  'x, y, z'
loop_
 _atom_site_type_symbol
 _atom_site_label
 _atom_site_symmetry_multiplicity
 _atom_site_fract_x
 _atom_site_fract_y
 _atom_site_fract_z
 _atom_site_occupancy
 _atom_site_charge
Fe  Fe1  1  0.50000000  0.00000000  0.00000000  1.0 0.8801334668
Fe  Fe2  1  0.50000000  0.00000000  0.50000000  1.0 0.8801334668
Fe  Fe3  1  0.00000000  0.50000000  0.00000000  1.0 0.8950576056
Fe  Fe4  1  0.00000000  0.50000000  0.50000000  1.0 0.8930080999
Pd  Pd1  1  0.98997000  0.93733000  0.75000000  1.0 0.0592171866
Pd  Pd2  1  0.01003000  0.06267000  0.25000000  1.0 0.0592171866
Pd  Pd3  1  0.48997000  0.56267000  0.25000000  1.0 0.0592171866
Pd  Pd4  1  0.51003000  0.43733000  0.75000000  1.0 0.0592171866
C  C1  1  0.80060000  0.92940000  0.84870000  1.0 0.0794310966
C  C2  1  0.82160000  0.04330000  0.15260000  1.0 0.0794310966
C  C3  1  0.19940000  0.07060000  0.34870000  1.0 0.0794310966
C  C4  1  0.17840000  0.95670000  0.65260000  1.0 0.0794310966
C  C5  1  0.19940000  0.07060000  0.15130000  1.0 0.0794310966
C  C6  1  0.17840000  0.95670000  0.84740000  1.0 0.0794310966
C  C7  1  0.80060000  0.92940000  0.65130000  1.0 0.0794310966
C  C8  1  0.82160000  0.04330000  0.34740000  1.0 0.0794310966
C  C9  1  0.30060000  0.57060000  0.15130000  1.0 0.0794310966
C  C10  1  0.32160000  0.45670000  0.84740000  1.0 0.0853240024
C  C11  1  0.69940000  0.42940000  0.65130000  1.0 0.0794310966
C  C12  1  0.67840000  0.54330000  0.34740000  1.0 0.0794310966
C  C13  1  0.69940000  0.42940000  0.84870000  1.0 0.0794310966
C  C14  1  0.67840000  0.54330000  0.15260000  1.0 0.0794310966
C  C15  1  0.30060000  0.57060000  0.34870000  1.0 0.0794310966
C  C16  1  0.32160000  0.45670000  0.65260000  1.0 0.0853240024
N  N1  1  0.69300000  0.93230000  0.90470000  1.0 -0.3133595455
N  N2  1  0.71330000  0.02870000  0.09780000  1.0 -0.3201260474
N  N3  1  0.30700000  0.06770000  0.40470000  1.0 -0.3133595455
N  N4  1  0.28670000  0.97130000  0.59780000  1.0 -0.3133595455
N  N5  1  0.30700000  0.06770000  0.09530000  1.0 -0.3133595455
N  N6  1  0.28670000  0.97130000  0.90220000  1.0 -0.3201260474
N  N7  1  0.69300000  0.93230000  0.59530000  1.0 -0.3133595455
N  N8  1  0.71330000  0.02870000  0.40220000  1.0 -0.3201260474
N  N9  1  0.19300000  0.56770000  0.09530000  1.0 -0.3133595455
N  N10  1  0.21330000  0.47130000  0.90220000  1.0 -0.3201260474
N  N11  1  0.80700000  0.43230000  0.59530000  1.0 -0.3133595455
N  N12  1  0.78670000  0.52870000  0.40220000  1.0 -0.3201260474
N  N13  1  0.80700000  0.43230000  0.90470000  1.0 -0.3201260474
N  N14  1  0.78670000  0.52870000  0.09780000  1.0 -0.3201260474
N  N15  1  0.19300000  0.56770000  0.40470000  1.0 -0.3133595455
N  N16  1  0.21330000  0.47130000  0.59780000  1.0 -0.3201260474
