# DDEC6 charges by PACMAN v1.1 (https://github.com/mtap-research/PACMAN-charge/)
data_MUSSIE_ASR_pacman
_symmetry_space_group_name_H-M   'P 1'
_cell_length_a   18.00260000
_cell_length_b   18.00260000
_cell_length_c   13.33160000
_cell_angle_alpha   90.00000000
_cell_angle_beta   90.00000000
_cell_angle_gamma   120.00000000
_symmetry_Int_Tables_number   1
_chemical_formula_structural   Be12P16H17O48
_chemical_formula_sum   'Be24 P32 H34 O96'
_cell_volume   3741.82412173
_cell_formula_units_Z   2
loop_
 _symmetry_equiv_pos_site_id
 _symmetry_equiv_pos_as_xyz
  1  'x, y, z'
loop_
 _atom_site_type_symbol
 _atom_site_label
 _atom_site_symmetry_multiplicity
 _atom_site_fract_x
 _atom_site_fract_y
 _atom_site_fract_z
 _atom_site_occupancy
 _atom_site_charge
Be  Be1  1  0.35390000  0.30790000  0.75000000  1.0 0.8009651112
Be  Be2  1  0.69210000  0.04600000  0.75000000  1.0 0.8009651112
Be  Be3  1  0.95400000  0.64610000  0.75000000  1.0 0.8009651112
Be  Be4  1  0.64610000  0.69210000  0.25000000  1.0 0.8103904136
Be  Be5  1  0.30790000  0.95400000  0.25000000  1.0 0.8103904136
Be  Be6  1  0.04600000  0.35390000  0.25000000  1.0 0.8103904136
Be  Be7  1  0.40450000  0.04760000  0.61840000  1.0 0.9203134087
Be  Be8  1  0.95240000  0.35690000  0.61840000  1.0 0.9203134087
Be  Be9  1  0.64310000  0.59550000  0.61840000  1.0 0.9203134087
Be  Be10  1  0.59550000  0.95240000  0.11840000  1.0 0.9203134087
Be  Be11  1  0.04760000  0.64310000  0.11840000  1.0 0.9256867376
Be  Be12  1  0.35690000  0.40450000  0.11840000  1.0 0.9203134087
Be  Be13  1  0.59550000  0.95240000  0.38160000  1.0 0.9203134087
Be  Be14  1  0.04760000  0.64310000  0.38160000  1.0 0.9256867376
Be  Be15  1  0.35690000  0.40450000  0.38160000  1.0 0.9203134087
Be  Be16  1  0.40450000  0.04760000  0.88160000  1.0 0.9203134087
Be  Be17  1  0.95240000  0.35690000  0.88160000  1.0 0.9203134087
Be  Be18  1  0.64310000  0.59550000  0.88160000  1.0 0.9203134087
Be  Be19  1  0.20090000  0.71510000  0.75000000  1.0 0.9012021141
Be  Be20  1  0.28490000  0.48580000  0.75000000  1.0 0.9012021141
Be  Be21  1  0.51420000  0.79910000  0.75000000  1.0 0.9012021141
Be  Be22  1  0.79910000  0.28490000  0.25000000  1.0 0.9068611768
Be  Be23  1  0.71510000  0.51420000  0.25000000  1.0 0.9012021141
Be  Be24  1  0.48580000  0.20090000  0.25000000  1.0 0.9068611768
P  P1  1  0.39807000  0.17228000  0.75000000  1.0 0.9012021141
P  P2  1  0.82772000  0.22579000  0.75000000  1.0 0.9012021141
P  P3  1  0.77421000  0.60193000  0.75000000  1.0 0.9012021141
P  P4  1  0.60193000  0.82772000  0.25000000  1.0 0.9012021141
P  P5  1  0.17228000  0.77421000  0.25000000  1.0 0.9012021141
P  P6  1  0.22579000  0.39807000  0.25000000  1.0 0.9012021141
P  P7  1  0.52521000  0.03717000  0.75000000  1.0 0.6930598226
P  P8  1  0.96283000  0.48804000  0.75000000  1.0 0.6930598226
P  P9  1  0.51196000  0.47479000  0.75000000  1.0 0.6971952972
P  P10  1  0.47479000  0.96283000  0.25000000  1.0 0.6971952972
P  P11  1  0.03717000  0.51196000  0.25000000  1.0 0.6971952972
P  P12  1  0.48804000  0.52521000  0.25000000  1.0 0.6971952972
P  P13  1  0.28302000  0.90626000  0.75000000  1.0 0.8660240379
P  P14  1  0.09374000  0.37676000  0.75000000  1.0 0.8632868734
P  P15  1  0.62324000  0.71698000  0.75000000  1.0 0.8660240379
P  P16  1  0.71698000  0.09374000  0.25000000  1.0 0.8632868734
P  P17  1  0.90626000  0.62324000  0.25000000  1.0 0.8660240379
P  P18  1  0.37676000  0.28302000  0.25000000  1.0 0.8660240379
P  P19  1  0.33333333  0.66666667  0.75000000  1.0 0.4237609712
P  P20  1  0.66666667  0.33333333  0.25000000  1.0 0.4237609712
P  P21  1  0.08082000  0.70125000  0.58981000  1.0 0.9012021141
P  P22  1  0.29875000  0.37957000  0.58981000  1.0 0.9012021141
P  P23  1  0.62043000  0.91918000  0.58981000  1.0 0.9012021141
P  P24  1  0.91918000  0.29875000  0.08981000  1.0 0.9012021141
P  P25  1  0.70125000  0.62043000  0.08981000  1.0 0.9012021141
P  P26  1  0.37957000  0.08082000  0.08981000  1.0 0.9012021141
P  P27  1  0.91918000  0.29875000  0.41019000  1.0 0.9012021141
P  P28  1  0.70125000  0.62043000  0.41019000  1.0 0.9012021141
P  P29  1  0.37957000  0.08082000  0.41019000  1.0 0.9012021141
P  P30  1  0.08082000  0.70125000  0.91019000  1.0 0.9012021141
P  P31  1  0.29875000  0.37957000  0.91019000  1.0 0.9012021141
P  P32  1  0.62043000  0.91918000  0.91019000  1.0 0.9012021141
H  H1  1  0.48270000  0.23680000  0.75000000  1.0 -0.1173876219
H  H2  1  0.76320000  0.24590000  0.75000000  1.0 -0.1173876219
H  H3  1  0.75410000  0.51730000  0.75000000  1.0 -0.1173876219
H  H4  1  0.51730000  0.76320000  0.25000000  1.0 -0.1173876219
H  H5  1  0.23680000  0.75410000  0.25000000  1.0 -0.1173876219
H  H6  1  0.24590000  0.48270000  0.25000000  1.0 -0.1173876219
H  H7  1  0.49600000  0.96230000  0.75000000  1.0 -0.0634453401
H  H8  1  0.03770000  0.53370000  0.75000000  1.0 -0.0634453401
H  H9  1  0.46630000  0.50400000  0.75000000  1.0 -0.0634453401
H  H10  1  0.50400000  0.03770000  0.25000000  1.0 -0.0634453401
H  H11  1  0.96230000  0.46630000  0.25000000  1.0 -0.0634453401
H  H12  1  0.53370000  0.49600000  0.25000000  1.0 -0.0634453401
H  H13  1  0.20170000  0.90050000  0.75000000  1.0 -0.1332044433
H  H14  1  0.09950000  0.30120000  0.75000000  1.0 -0.1332044433
H  H15  1  0.69880000  0.79830000  0.75000000  1.0 -0.1332044433
H  H16  1  0.79830000  0.09950000  0.25000000  1.0 -0.1332044433
H  H17  1  0.90050000  0.69880000  0.25000000  1.0 -0.1332044433
H  H18  1  0.30120000  0.20170000  0.25000000  1.0 -0.1332044433
H  H19  1  0.12550000  0.78160000  0.54650000  1.0 -0.1098526957
H  H20  1  0.21840000  0.34390000  0.54650000  1.0 -0.1098526957
H  H21  1  0.65610000  0.87450000  0.54650000  1.0 -0.1098526957
H  H22  1  0.87450000  0.21840000  0.04650000  1.0 -0.1098526957
H  H23  1  0.78160000  0.65610000  0.04650000  1.0 -0.1098526957
H  H24  1  0.34390000  0.12550000  0.04650000  1.0 -0.1098526957
H  H25  1  0.87450000  0.21840000  0.45350000  1.0 -0.1098526957
H  H26  1  0.78160000  0.65610000  0.45350000  1.0 -0.1098526957
H  H27  1  0.34390000  0.12550000  0.45350000  1.0 -0.1098526957
H  H28  1  0.12550000  0.78160000  0.95350000  1.0 -0.1098526957
H  H29  1  0.21840000  0.34390000  0.95350000  1.0 -0.1098526957
H  H30  1  0.65610000  0.87450000  0.95350000  1.0 -0.1098526957
H  H31  1  0.33333333  0.66666667  0.65810000  1.0 0.0245604385
H  H32  1  0.66666667  0.33333333  0.15810000  1.0 0.0245604385
H  H33  1  0.66666667  0.33333333  0.34190000  1.0 0.0245604385
H  H34  1  0.33333333  0.66666667  0.84190000  1.0 0.0245604385
O  O1  1  0.34270000  0.21310000  0.75000000  1.0 -0.4435472233
O  O2  1  0.78690000  0.12960000  0.75000000  1.0 -0.4435472233
O  O3  1  0.87040000  0.65730000  0.75000000  1.0 -0.4435472233
O  O4  1  0.65730000  0.78690000  0.25000000  1.0 -0.4435472233
O  O5  1  0.21310000  0.87040000  0.25000000  1.0 -0.4435472233
O  O6  1  0.12960000  0.34270000  0.25000000  1.0 -0.4435472233
O  O7  1  0.38510000  0.12130000  0.65590000  1.0 -0.4685359959
O  O8  1  0.87870000  0.26380000  0.65590000  1.0 -0.463793681
O  O9  1  0.73620000  0.61490000  0.65590000  1.0 -0.4685359959
O  O10  1  0.61490000  0.87870000  0.15590000  1.0 -0.4685359959
O  O11  1  0.12130000  0.73620000  0.15590000  1.0 -0.4685359959
O  O12  1  0.26380000  0.38510000  0.15590000  1.0 -0.4685359959
O  O13  1  0.61490000  0.87870000  0.34410000  1.0 -0.4685359959
O  O14  1  0.12130000  0.73620000  0.34410000  1.0 -0.4685359959
O  O15  1  0.26380000  0.38510000  0.34410000  1.0 -0.4685359959
O  O16  1  0.38510000  0.12130000  0.84410000  1.0 -0.4685359959
O  O17  1  0.87870000  0.26380000  0.84410000  1.0 -0.4685359959
O  O18  1  0.73620000  0.61490000  0.84410000  1.0 -0.4685359959
O  O19  1  0.49526000  0.06090000  0.65560000  1.0 -0.463793681
O  O20  1  0.93910000  0.43436000  0.65560000  1.0 -0.463793681
O  O21  1  0.56564000  0.50474000  0.65560000  1.0 -0.463793681
O  O22  1  0.50474000  0.93910000  0.15560000  1.0 -0.4685359959
O  O23  1  0.06090000  0.56564000  0.15560000  1.0 -0.4685359959
O  O24  1  0.43436000  0.49526000  0.15560000  1.0 -0.463793681
O  O25  1  0.50474000  0.93910000  0.34440000  1.0 -0.4685359959
O  O26  1  0.06090000  0.56564000  0.34440000  1.0 -0.4685359959
O  O27  1  0.43436000  0.49526000  0.34440000  1.0 -0.463793681
O  O28  1  0.49526000  0.06090000  0.84440000  1.0 -0.463793681
O  O29  1  0.93910000  0.43436000  0.84440000  1.0 -0.463793681
O  O30  1  0.56564000  0.50474000  0.84440000  1.0 -0.463793681
O  O31  1  0.62120000  0.07530000  0.75000000  1.0 -0.4273074659
O  O32  1  0.92470000  0.54590000  0.75000000  1.0 -0.4273074659
O  O33  1  0.45410000  0.37880000  0.75000000  1.0 -0.4273074659
O  O34  1  0.37880000  0.92470000  0.25000000  1.0 -0.4273074659
O  O35  1  0.07530000  0.45410000  0.25000000  1.0 -0.4273074659
O  O36  1  0.54590000  0.62120000  0.25000000  1.0 -0.4273074659
O  O37  1  0.32860000  0.95283000  0.65480000  1.0 -0.4941508415
O  O38  1  0.04717000  0.37577000  0.65480000  1.0 -0.4941508415
O  O39  1  0.62423000  0.67140000  0.65480000  1.0 -0.4941508415
O  O40  1  0.67140000  0.04717000  0.15480000  1.0 -0.4941508415
O  O41  1  0.95283000  0.62423000  0.15480000  1.0 -0.4941508415
O  O42  1  0.37577000  0.32860000  0.15480000  1.0 -0.4941508415
O  O43  1  0.67140000  0.04717000  0.34520000  1.0 -0.4941508415
O  O44  1  0.95283000  0.62423000  0.34520000  1.0 -0.4941508415
O  O45  1  0.37577000  0.32860000  0.34520000  1.0 -0.4941508415
O  O46  1  0.32860000  0.95283000  0.84520000  1.0 -0.4941508415
O  O47  1  0.04717000  0.37577000  0.84520000  1.0 -0.4941508415
O  O48  1  0.62423000  0.67140000  0.84520000  1.0 -0.4941508415
O  O49  1  0.27050000  0.81740000  0.75000000  1.0 -0.4685359959
O  O50  1  0.18260000  0.45310000  0.75000000  1.0 -0.4685359959
O  O51  1  0.54690000  0.72950000  0.75000000  1.0 -0.4685359959
O  O52  1  0.72950000  0.18260000  0.25000000  1.0 -0.4685359959
O  O53  1  0.81740000  0.54690000  0.25000000  1.0 -0.4685359959
O  O54  1  0.45310000  0.27050000  0.25000000  1.0 -0.4685359959
O  O55  1  0.25230000  0.66380000  0.75000000  1.0 -0.4273074659
O  O56  1  0.33620000  0.58850000  0.75000000  1.0 -0.4273074659
O  O57  1  0.41150000  0.74770000  0.75000000  1.0 -0.4273074659
O  O58  1  0.74770000  0.33620000  0.25000000  1.0 -0.4273074659
O  O59  1  0.66380000  0.41150000  0.25000000  1.0 -0.4273074659
O  O60  1  0.58850000  0.25230000  0.25000000  1.0 -0.4273074659
O  O61  1  0.14423000  0.68720000  0.65010000  1.0 -0.5008727876
O  O62  1  0.31280000  0.45703000  0.65010000  1.0 -0.5008727876
O  O63  1  0.54297000  0.85577000  0.65010000  1.0 -0.5008727876
O  O64  1  0.85577000  0.31280000  0.15010000  1.0 -0.5008727876
O  O65  1  0.68720000  0.54297000  0.15010000  1.0 -0.5008727876
O  O66  1  0.45703000  0.14423000  0.15010000  1.0 -0.5008727876
O  O67  1  0.85577000  0.31280000  0.34990000  1.0 -0.5008727876
O  O68  1  0.68720000  0.54297000  0.34990000  1.0 -0.5008727876
O  O69  1  0.45703000  0.14423000  0.34990000  1.0 -0.5008727876
O  O70  1  0.14423000  0.68720000  0.84990000  1.0 -0.5008727876
O  O71  1  0.31280000  0.45703000  0.84990000  1.0 -0.5008727876
O  O72  1  0.54297000  0.85577000  0.84990000  1.0 -0.5008727876
O  O73  1  0.04940000  0.63940000  0.50270000  1.0 -0.4539568802
O  O74  1  0.36060000  0.41000000  0.50270000  1.0 -0.4539568802
O  O75  1  0.59000000  0.95060000  0.50270000  1.0 -0.4539568802
O  O76  1  0.95060000  0.36060000  0.00270000  1.0 -0.4539568802
O  O77  1  0.63940000  0.59000000  0.00270000  1.0 -0.4539568802
O  O78  1  0.41000000  0.04940000  0.00270000  1.0 -0.4539568802
O  O79  1  0.95060000  0.36060000  0.49730000  1.0 -0.4539568802
O  O80  1  0.63940000  0.59000000  0.49730000  1.0 -0.4539568802
O  O81  1  0.41000000  0.04940000  0.49730000  1.0 -0.4539568802
O  O82  1  0.04940000  0.63940000  0.99730000  1.0 -0.4539568802
O  O83  1  0.36060000  0.41000000  0.99730000  1.0 -0.4539568802
O  O84  1  0.59000000  0.95060000  0.99730000  1.0 -0.4539568802
O  O85  1  0.00870000  0.69600000  0.65170000  1.0 -0.4539568802
O  O86  1  0.30400000  0.31270000  0.65170000  1.0 -0.4539568802
O  O87  1  0.68730000  0.99130000  0.65170000  1.0 -0.4539568802
O  O88  1  0.99130000  0.30400000  0.15170000  1.0 -0.4539568802
O  O89  1  0.69600000  0.68730000  0.15170000  1.0 -0.4539568802
O  O90  1  0.31270000  0.00870000  0.15170000  1.0 -0.4539568802
O  O91  1  0.99130000  0.30400000  0.34830000  1.0 -0.4539568802
O  O92  1  0.69600000  0.68730000  0.34830000  1.0 -0.4539568802
O  O93  1  0.31270000  0.00870000  0.34830000  1.0 -0.4539568802
O  O94  1  0.00870000  0.69600000  0.84830000  1.0 -0.4539568802
O  O95  1  0.30400000  0.31270000  0.84830000  1.0 -0.4539568802
O  O96  1  0.68730000  0.99130000  0.84830000  1.0 -0.4539568802
