# DDEC6 charges by PACMAN v1.1 (https://github.com/mtap-research/PACMAN-charge/)
data_MUSWAB_FSR_pacman
_symmetry_space_group_name_H-M   'P 1'
_cell_length_a   10.01820000
_cell_length_b   20.91120000
_cell_length_c   30.84570000
_cell_angle_alpha   90.00000000
_cell_angle_beta   90.00000000
_cell_angle_gamma   90.00000000
_symmetry_Int_Tables_number   1
_chemical_formula_structural   Cu3H13C17S4NO20
_chemical_formula_sum   'Cu24 H104 C136 S32 N8 O160'
_cell_volume   6461.94539335
_cell_formula_units_Z   8
loop_
 _symmetry_equiv_pos_site_id
 _symmetry_equiv_pos_as_xyz
  1  'x, y, z'
loop_
 _atom_site_type_symbol
 _atom_site_label
 _atom_site_symmetry_multiplicity
 _atom_site_fract_x
 _atom_site_fract_y
 _atom_site_fract_z
 _atom_site_occupancy
 _atom_site_charge
Cu  Cu1  1  0.19822000  0.79483000  0.90239000  1.0 1.1593992812
Cu  Cu2  1  0.28807000  0.71300000  0.82609000  1.0 1.1318417963
Cu  Cu3  1  0.99624000  0.69609000  0.86471000  1.0 1.0183833939
Cu  Cu4  1  0.80178000  0.70517000  0.40239000  1.0 1.1593992812
Cu  Cu5  1  0.71193000  0.78700000  0.32609000  1.0 1.1318417963
Cu  Cu6  1  0.00376000  0.80391000  0.36471000  1.0 1.0183833939
Cu  Cu7  1  0.30178000  0.79483000  0.40239000  1.0 1.1593992812
Cu  Cu8  1  0.21193000  0.71300000  0.32609000  1.0 1.1318417963
Cu  Cu9  1  0.50376000  0.69609000  0.36471000  1.0 1.0183833939
Cu  Cu10  1  0.69822000  0.70517000  0.90239000  1.0 1.1593992812
Cu  Cu11  1  0.78807000  0.78700000  0.82609000  1.0 1.1318417963
Cu  Cu12  1  0.49624000  0.80391000  0.86471000  1.0 1.0183833939
Cu  Cu13  1  0.69822000  0.20517000  0.59761000  1.0 1.1593992812
Cu  Cu14  1  0.78807000  0.28700000  0.67391000  1.0 1.1318417963
Cu  Cu15  1  0.49624000  0.30391000  0.63529000  1.0 1.0183833939
Cu  Cu16  1  0.30178000  0.29483000  0.09761000  1.0 1.1593992812
Cu  Cu17  1  0.21193000  0.21300000  0.17391000  1.0 1.1318417963
Cu  Cu18  1  0.50376000  0.19609000  0.13529000  1.0 1.0183833939
Cu  Cu19  1  0.80178000  0.20517000  0.09761000  1.0 1.1593992812
Cu  Cu20  1  0.71193000  0.28700000  0.17391000  1.0 1.1318417963
Cu  Cu21  1  0.00376000  0.30391000  0.13529000  1.0 1.0183833939
Cu  Cu22  1  0.19822000  0.29483000  0.59761000  1.0 1.1593992812
Cu  Cu23  1  0.28807000  0.21300000  0.67391000  1.0 1.1318417963
Cu  Cu24  1  0.99624000  0.19609000  0.63529000  1.0 1.0183833939
H  H1  1  0.70671000  0.84278000  0.05617000  1.0 0.1314815993
H  H2  1  0.80011000  0.65871000  0.07207000  1.0 0.1424060677
H  H3  1  0.93065000  0.66218000  0.00980000  1.0 0.1314815993
H  H4  1  0.73731000  0.65176000  0.17239000  1.0 0.1492233676
H  H5  1  0.78823000  0.84051000  0.15950000  1.0 0.1424060677
H  H6  1  0.92400000  0.84043000  0.22054000  1.0 0.1424060677
H  H7  1  0.98512000  0.58656000  0.92244000  1.0 0.1314815993
H  H8  1  0.00668000  0.42226000  0.93752000  1.0 0.109294894
H  H9  1  0.90426000  0.47517000  0.95128000  1.0 0.1180070454
H  H10  1  0.05589000  0.48300000  0.96265000  1.0 0.1180070454
H  H11  1  0.03204000  0.41168000  0.87803000  1.0 0.1180070454
H  H12  1  0.09997000  0.46229000  0.84771000  1.0 0.1424060677
H  H13  1  0.94415000  0.45547000  0.84825000  1.0 0.1492233676
H  H14  1  0.29329000  0.65722000  0.55617000  1.0 0.1314815993
H  H15  1  0.19989000  0.84129000  0.57207000  1.0 0.1424060677
H  H16  1  0.06935000  0.83782000  0.50980000  1.0 0.1314815993
H  H17  1  0.26269000  0.84824000  0.67239000  1.0 0.1492233676
H  H18  1  0.21177000  0.65949000  0.65950000  1.0 0.1424060677
H  H19  1  0.07600000  0.65957000  0.72054000  1.0 0.1424060677
H  H20  1  0.01488000  0.91344000  0.42244000  1.0 0.1314815993
H  H21  1  0.99332000  0.07774000  0.43752000  1.0 0.109294894
H  H22  1  0.09574000  0.02483000  0.45128000  1.0 0.1180070454
H  H23  1  0.94411000  0.01700000  0.46265000  1.0 0.1180070454
H  H24  1  0.96796000  0.08832000  0.37803000  1.0 0.1180070454
H  H25  1  0.90003000  0.03771000  0.34771000  1.0 0.1424060677
H  H26  1  0.05585000  0.04453000  0.34825000  1.0 0.1492233676
H  H27  1  0.79329000  0.84278000  0.55617000  1.0 0.1314815993
H  H28  1  0.69989000  0.65871000  0.57207000  1.0 0.1424060677
H  H29  1  0.56935000  0.66218000  0.50980000  1.0 0.1314815993
H  H30  1  0.76269000  0.65176000  0.67239000  1.0 0.1492233676
H  H31  1  0.71177000  0.84051000  0.65950000  1.0 0.1424060677
H  H32  1  0.57600000  0.84043000  0.72054000  1.0 0.1424060677
H  H33  1  0.51488000  0.58656000  0.42244000  1.0 0.1314815993
H  H34  1  0.49332000  0.42226000  0.43752000  1.0 0.109294894
H  H35  1  0.59574000  0.47517000  0.45128000  1.0 0.1180070454
H  H36  1  0.44411000  0.48300000  0.46265000  1.0 0.1180070454
H  H37  1  0.46796000  0.41168000  0.37803000  1.0 0.1180070454
H  H38  1  0.40003000  0.46229000  0.34771000  1.0 0.1424060677
H  H39  1  0.55585000  0.45547000  0.34825000  1.0 0.1492233676
H  H40  1  0.20671000  0.65722000  0.05617000  1.0 0.1314815993
H  H41  1  0.30011000  0.84129000  0.07207000  1.0 0.1424060677
H  H42  1  0.43065000  0.83782000  0.00980000  1.0 0.1314815993
H  H43  1  0.23731000  0.84824000  0.17239000  1.0 0.1492233676
H  H44  1  0.28823000  0.65949000  0.15950000  1.0 0.1424060677
H  H45  1  0.42400000  0.65957000  0.22054000  1.0 0.1424060677
H  H46  1  0.48512000  0.91344000  0.92244000  1.0 0.1314815993
H  H47  1  0.50668000  0.07774000  0.93752000  1.0 0.109294894
H  H48  1  0.40426000  0.02483000  0.95128000  1.0 0.1180070454
H  H49  1  0.55589000  0.01700000  0.96265000  1.0 0.1180070454
H  H50  1  0.53204000  0.08832000  0.87803000  1.0 0.1180070454
H  H51  1  0.59997000  0.03771000  0.84771000  1.0 0.1424060677
H  H52  1  0.44415000  0.04453000  0.84825000  1.0 0.1492233676
H  H53  1  0.20671000  0.15722000  0.44383000  1.0 0.1314815993
H  H54  1  0.30011000  0.34129000  0.42793000  1.0 0.1424060677
H  H55  1  0.43065000  0.33782000  0.49020000  1.0 0.1314815993
H  H56  1  0.23731000  0.34824000  0.32761000  1.0 0.1492233676
H  H57  1  0.28823000  0.15949000  0.34050000  1.0 0.1424060677
H  H58  1  0.42400000  0.15957000  0.27946000  1.0 0.1424060677
H  H59  1  0.48512000  0.41344000  0.57756000  1.0 0.1314815993
H  H60  1  0.50668000  0.57774000  0.56248000  1.0 0.109294894
H  H61  1  0.40426000  0.52483000  0.54872000  1.0 0.1180070454
H  H62  1  0.55589000  0.51700000  0.53735000  1.0 0.1180070454
H  H63  1  0.53204000  0.58832000  0.62197000  1.0 0.1180070454
H  H64  1  0.59997000  0.53771000  0.65229000  1.0 0.1424060677
H  H65  1  0.44415000  0.54453000  0.65175000  1.0 0.1492233676
H  H66  1  0.79329000  0.34278000  0.94383000  1.0 0.1314815993
H  H67  1  0.69989000  0.15871000  0.92793000  1.0 0.1424060677
H  H68  1  0.56935000  0.16218000  0.99020000  1.0 0.1314815993
H  H69  1  0.76269000  0.15176000  0.82761000  1.0 0.1492233676
H  H70  1  0.71177000  0.34051000  0.84050000  1.0 0.1424060677
H  H71  1  0.57600000  0.34043000  0.77946000  1.0 0.1424060677
H  H72  1  0.51488000  0.08656000  0.07756000  1.0 0.1314815993
H  H73  1  0.49332000  0.92226000  0.06248000  1.0 0.109294894
H  H74  1  0.59574000  0.97517000  0.04872000  1.0 0.1180070454
H  H75  1  0.44411000  0.98300000  0.03735000  1.0 0.1180070454
H  H76  1  0.46796000  0.91168000  0.12197000  1.0 0.1180070454
H  H77  1  0.40003000  0.96229000  0.15229000  1.0 0.1424060677
H  H78  1  0.55585000  0.95547000  0.15175000  1.0 0.1492233676
H  H79  1  0.29329000  0.15722000  0.94383000  1.0 0.1314815993
H  H80  1  0.19989000  0.34129000  0.92793000  1.0 0.1424060677
H  H81  1  0.06935000  0.33782000  0.99020000  1.0 0.1314815993
H  H82  1  0.26269000  0.34824000  0.82761000  1.0 0.1492233676
H  H83  1  0.21177000  0.15949000  0.84050000  1.0 0.1424060677
H  H84  1  0.07600000  0.15957000  0.77946000  1.0 0.1424060677
H  H85  1  0.01488000  0.41344000  0.07756000  1.0 0.1314815993
H  H86  1  0.99332000  0.57774000  0.06248000  1.0 0.109294894
H  H87  1  0.09574000  0.52483000  0.04872000  1.0 0.1180070454
H  H88  1  0.94411000  0.51700000  0.03735000  1.0 0.1180070454
H  H89  1  0.96796000  0.58832000  0.12197000  1.0 0.1180070454
H  H90  1  0.90003000  0.53771000  0.15229000  1.0 0.1424060677
H  H91  1  0.05585000  0.54453000  0.15175000  1.0 0.1492233676
H  H92  1  0.70671000  0.34278000  0.44383000  1.0 0.1314815993
H  H93  1  0.80011000  0.15871000  0.42793000  1.0 0.1424060677
H  H94  1  0.93065000  0.16218000  0.49020000  1.0 0.1314815993
H  H95  1  0.73731000  0.15176000  0.32761000  1.0 0.1492233676
H  H96  1  0.78823000  0.34051000  0.34050000  1.0 0.1424060677
H  H97  1  0.92400000  0.34043000  0.27946000  1.0 0.1424060677
H  H98  1  0.98512000  0.08656000  0.57756000  1.0 0.1314815993
H  H99  1  0.00668000  0.92226000  0.56248000  1.0 0.109294894
H  H100  1  0.90426000  0.97517000  0.54872000  1.0 0.1180070454
H  H101  1  0.05589000  0.98300000  0.53735000  1.0 0.1180070454
H  H102  1  0.03204000  0.91168000  0.62197000  1.0 0.1180070454
H  H103  1  0.09997000  0.96229000  0.65229000  1.0 0.1424060677
H  H104  1  0.94415000  0.95547000  0.65175000  1.0 0.1492233676
C  C1  1  0.97790000  0.75220000  0.95430000  1.0 0.5538171036
C  C2  1  0.89580000  0.75470000  0.99560000  1.0 0.0396946593
C  C3  1  0.82740000  0.80930000  0.00890000  1.0 -0.0484858627
C  C4  1  0.75140000  0.80650000  0.04650000  1.0 -0.0797454104
C  C5  1  0.74200000  0.75030000  0.06940000  1.0 -0.0602498593
C  C6  1  0.80750000  0.69640000  0.05630000  1.0 -0.0484858627
C  C7  1  0.88540000  0.69860000  0.01900000  1.0 -0.0797454104
C  C8  1  0.99340000  0.75160000  0.27420000  1.0 0.603777903
C  C9  1  0.91010000  0.74630000  0.23300000  1.0 0.0224494101
C  C10  1  0.85170000  0.69000000  0.21860000  1.0 -0.0797454104
C  C11  1  0.77370000  0.68980000  0.18250000  1.0 -0.0602498593
C  C12  1  0.74890000  0.74630000  0.16100000  1.0 -0.0703608478
C  C13  1  0.80450000  0.80270000  0.17450000  1.0 -0.0484858627
C  C14  1  0.88570000  0.80250000  0.21090000  1.0 -0.0703608478
C  C15  1  0.00360000  0.56450000  0.89690000  1.0 0.3427246985
C  C16  1  0.99400000  0.46740000  0.94150000  1.0 -0.3683456453
C  C17  1  0.02400000  0.45360000  0.86560000  1.0 -0.2813601243
C  C18  1  0.02210000  0.74780000  0.45430000  1.0 0.5538171036
C  C19  1  0.10420000  0.74530000  0.49560000  1.0 0.0396946593
C  C20  1  0.17260000  0.69070000  0.50890000  1.0 -0.0484858627
C  C21  1  0.24860000  0.69350000  0.54650000  1.0 -0.0797454104
C  C22  1  0.25800000  0.74970000  0.56940000  1.0 -0.0602498593
C  C23  1  0.19250000  0.80360000  0.55630000  1.0 -0.0484858627
C  C24  1  0.11460000  0.80140000  0.51900000  1.0 -0.0797454104
C  C25  1  0.00660000  0.74840000  0.77420000  1.0 0.603777903
C  C26  1  0.08990000  0.75370000  0.73300000  1.0 0.0224494101
C  C27  1  0.14830000  0.81000000  0.71860000  1.0 -0.0797454104
C  C28  1  0.22630000  0.81020000  0.68250000  1.0 -0.0602498593
C  C29  1  0.25110000  0.75370000  0.66100000  1.0 -0.0703608478
C  C30  1  0.19550000  0.69730000  0.67450000  1.0 -0.0484858627
C  C31  1  0.11430000  0.69750000  0.71090000  1.0 -0.0703608478
C  C32  1  0.99640000  0.93550000  0.39690000  1.0 0.3427246985
C  C33  1  0.00600000  0.03260000  0.44150000  1.0 -0.3683456453
C  C34  1  0.97600000  0.04640000  0.36560000  1.0 -0.2813601243
C  C35  1  0.52210000  0.75220000  0.45430000  1.0 0.5538171036
C  C36  1  0.60420000  0.75470000  0.49560000  1.0 0.0396946593
C  C37  1  0.67260000  0.80930000  0.50890000  1.0 -0.0484858627
C  C38  1  0.74860000  0.80650000  0.54650000  1.0 -0.0797454104
C  C39  1  0.75800000  0.75030000  0.56940000  1.0 -0.0602498593
C  C40  1  0.69250000  0.69640000  0.55630000  1.0 -0.0484858627
C  C41  1  0.61460000  0.69860000  0.51900000  1.0 -0.0797454104
C  C42  1  0.50660000  0.75160000  0.77420000  1.0 0.603777903
C  C43  1  0.58990000  0.74630000  0.73300000  1.0 0.0224494101
C  C44  1  0.64830000  0.69000000  0.71860000  1.0 -0.0797454104
C  C45  1  0.72630000  0.68980000  0.68250000  1.0 -0.0602498593
C  C46  1  0.75110000  0.74630000  0.66100000  1.0 -0.0703608478
C  C47  1  0.69550000  0.80270000  0.67450000  1.0 -0.0484858627
C  C48  1  0.61430000  0.80250000  0.71090000  1.0 -0.0703608478
C  C49  1  0.49640000  0.56450000  0.39690000  1.0 0.3427246985
C  C50  1  0.50600000  0.46740000  0.44150000  1.0 -0.3683456453
C  C51  1  0.47600000  0.45360000  0.36560000  1.0 -0.2813601243
C  C52  1  0.47790000  0.74780000  0.95430000  1.0 0.5538171036
C  C53  1  0.39580000  0.74530000  0.99560000  1.0 0.0396946593
C  C54  1  0.32740000  0.69070000  0.00890000  1.0 -0.0484858627
C  C55  1  0.25140000  0.69350000  0.04650000  1.0 -0.0797454104
C  C56  1  0.24200000  0.74970000  0.06940000  1.0 -0.0602498593
C  C57  1  0.30750000  0.80360000  0.05630000  1.0 -0.0484858627
C  C58  1  0.38540000  0.80140000  0.01900000  1.0 -0.0797454104
C  C59  1  0.49340000  0.74840000  0.27420000  1.0 0.603777903
C  C60  1  0.41010000  0.75370000  0.23300000  1.0 0.0224494101
C  C61  1  0.35170000  0.81000000  0.21860000  1.0 -0.0797454104
C  C62  1  0.27370000  0.81020000  0.18250000  1.0 -0.0602498593
C  C63  1  0.24890000  0.75370000  0.16100000  1.0 -0.0703608478
C  C64  1  0.30450000  0.69730000  0.17450000  1.0 -0.0484858627
C  C65  1  0.38570000  0.69750000  0.21090000  1.0 -0.0703608478
C  C66  1  0.50360000  0.93550000  0.89690000  1.0 0.3427246985
C  C67  1  0.49400000  0.03260000  0.94150000  1.0 -0.3683456453
C  C68  1  0.52400000  0.04640000  0.86560000  1.0 -0.2813601243
C  C69  1  0.47790000  0.24780000  0.54570000  1.0 0.5538171036
C  C70  1  0.39580000  0.24530000  0.50440000  1.0 0.0396946593
C  C71  1  0.32740000  0.19070000  0.49110000  1.0 -0.0484858627
C  C72  1  0.25140000  0.19350000  0.45350000  1.0 -0.0797454104
C  C73  1  0.24200000  0.24970000  0.43060000  1.0 -0.0602498593
C  C74  1  0.30750000  0.30360000  0.44370000  1.0 -0.0484858627
C  C75  1  0.38540000  0.30140000  0.48100000  1.0 -0.0797454104
C  C76  1  0.49340000  0.24840000  0.22580000  1.0 0.603777903
C  C77  1  0.41010000  0.25370000  0.26700000  1.0 0.0224494101
C  C78  1  0.35170000  0.31000000  0.28140000  1.0 -0.0797454104
C  C79  1  0.27370000  0.31020000  0.31750000  1.0 -0.0602498593
C  C80  1  0.24890000  0.25370000  0.33900000  1.0 -0.0703608478
C  C81  1  0.30450000  0.19730000  0.32550000  1.0 -0.0484858627
C  C82  1  0.38570000  0.19750000  0.28910000  1.0 -0.0703608478
C  C83  1  0.50360000  0.43550000  0.60310000  1.0 0.3427246985
C  C84  1  0.49400000  0.53260000  0.55850000  1.0 -0.3683456453
C  C85  1  0.52400000  0.54640000  0.63440000  1.0 -0.2813601243
C  C86  1  0.52210000  0.25220000  0.04570000  1.0 0.5538171036
C  C87  1  0.60420000  0.25470000  0.00440000  1.0 0.0396946593
C  C88  1  0.67260000  0.30930000  0.99110000  1.0 -0.0484858627
C  C89  1  0.74860000  0.30650000  0.95350000  1.0 -0.0797454104
C  C90  1  0.75800000  0.25030000  0.93060000  1.0 -0.0602498593
C  C91  1  0.69250000  0.19640000  0.94370000  1.0 -0.0484858627
C  C92  1  0.61460000  0.19860000  0.98100000  1.0 -0.0797454104
C  C93  1  0.50660000  0.25160000  0.72580000  1.0 0.603777903
C  C94  1  0.58990000  0.24630000  0.76700000  1.0 0.0224494101
C  C95  1  0.64830000  0.19000000  0.78140000  1.0 -0.0797454104
C  C96  1  0.72630000  0.18980000  0.81750000  1.0 -0.0602498593
C  C97  1  0.75110000  0.24630000  0.83900000  1.0 -0.0703608478
C  C98  1  0.69550000  0.30270000  0.82550000  1.0 -0.0484858627
C  C99  1  0.61430000  0.30250000  0.78910000  1.0 -0.0703608478
C  C100  1  0.49640000  0.06450000  0.10310000  1.0 0.3427246985
C  C101  1  0.50600000  0.96740000  0.05850000  1.0 -0.3683456453
C  C102  1  0.47600000  0.95360000  0.13440000  1.0 -0.2813601243
C  C103  1  0.02210000  0.24780000  0.04570000  1.0 0.5538171036
C  C104  1  0.10420000  0.24530000  0.00440000  1.0 0.0396946593
C  C105  1  0.17260000  0.19070000  0.99110000  1.0 -0.0484858627
C  C106  1  0.24860000  0.19350000  0.95350000  1.0 -0.0797454104
C  C107  1  0.25800000  0.24970000  0.93060000  1.0 -0.0602498593
C  C108  1  0.19250000  0.30360000  0.94370000  1.0 -0.0484858627
C  C109  1  0.11460000  0.30140000  0.98100000  1.0 -0.0797454104
C  C110  1  0.00660000  0.24840000  0.72580000  1.0 0.603777903
C  C111  1  0.08990000  0.25370000  0.76700000  1.0 0.0224494101
C  C112  1  0.14830000  0.31000000  0.78140000  1.0 -0.0797454104
C  C113  1  0.22630000  0.31020000  0.81750000  1.0 -0.0602498593
C  C114  1  0.25110000  0.25370000  0.83900000  1.0 -0.0703608478
C  C115  1  0.19550000  0.19730000  0.82550000  1.0 -0.0484858627
C  C116  1  0.11430000  0.19750000  0.78910000  1.0 -0.0703608478
C  C117  1  0.99640000  0.43550000  0.10310000  1.0 0.3427246985
C  C118  1  0.00600000  0.53260000  0.05850000  1.0 -0.3683456453
C  C119  1  0.97600000  0.54640000  0.13440000  1.0 -0.2813601243
C  C120  1  0.97790000  0.25220000  0.54570000  1.0 0.5538171036
C  C121  1  0.89580000  0.25470000  0.50440000  1.0 0.0396946593
C  C122  1  0.82740000  0.30930000  0.49110000  1.0 -0.0484858627
C  C123  1  0.75140000  0.30650000  0.45350000  1.0 -0.0797454104
C  C124  1  0.74200000  0.25030000  0.43060000  1.0 -0.0602498593
C  C125  1  0.80750000  0.19640000  0.44370000  1.0 -0.0484858627
C  C126  1  0.88540000  0.19860000  0.48100000  1.0 -0.0797454104
C  C127  1  0.99340000  0.25160000  0.22580000  1.0 0.603777903
C  C128  1  0.91010000  0.24630000  0.26700000  1.0 0.0291227048
C  C129  1  0.85170000  0.19000000  0.28140000  1.0 -0.0797454104
C  C130  1  0.77370000  0.18980000  0.31750000  1.0 -0.0602498593
C  C131  1  0.74890000  0.24630000  0.33900000  1.0 -0.0703608478
C  C132  1  0.80450000  0.30270000  0.32550000  1.0 -0.0484858627
C  C133  1  0.88570000  0.30250000  0.28910000  1.0 -0.0703608478
C  C134  1  0.00360000  0.06450000  0.60310000  1.0 0.3427246985
C  C135  1  0.99400000  0.96740000  0.55850000  1.0 -0.3683456453
C  C136  1  0.02400000  0.95360000  0.63440000  1.0 -0.2813601243
S  S1  1  0.80230000  0.88110000  0.97811000  1.0 0.2613047537
S  S2  1  0.87340000  0.61778000  0.24837000  1.0 1.1318417963
S  S3  1  0.63850000  0.74685000  0.11587000  1.0 0.979072119
S  S4  1  0.86390000  0.88200000  0.97990000  1.0 0.2697220546
S  S5  1  0.19770000  0.61890000  0.47811000  1.0 0.2613047537
S  S6  1  0.12660000  0.88222000  0.74837000  1.0 1.1318417963
S  S7  1  0.36150000  0.75315000  0.61587000  1.0 0.979072119
S  S8  1  0.13610000  0.61800000  0.47990000  1.0 0.2697220546
S  S9  1  0.69770000  0.88110000  0.47811000  1.0 0.2613047537
S  S10  1  0.62660000  0.61778000  0.74837000  1.0 1.1318417963
S  S11  1  0.86150000  0.74685000  0.61587000  1.0 0.979072119
S  S12  1  0.63610000  0.88200000  0.47990000  1.0 0.2697220546
S  S13  1  0.30230000  0.61890000  0.97811000  1.0 0.2613047537
S  S14  1  0.37340000  0.88222000  0.24837000  1.0 1.1318417963
S  S15  1  0.13850000  0.75315000  0.11587000  1.0 0.979072119
S  S16  1  0.36390000  0.61800000  0.97990000  1.0 0.2697220546
S  S17  1  0.30230000  0.11890000  0.52189000  1.0 0.2613047537
S  S18  1  0.37340000  0.38222000  0.25163000  1.0 1.1318417963
S  S19  1  0.13850000  0.25315000  0.38413000  1.0 0.979072119
S  S20  1  0.36390000  0.11800000  0.52010000  1.0 0.2697220546
S  S21  1  0.69770000  0.38110000  0.02189000  1.0 0.2613047537
S  S22  1  0.62660000  0.11778000  0.75163000  1.0 1.1318417963
S  S23  1  0.86150000  0.24685000  0.88413000  1.0 0.979072119
S  S24  1  0.63610000  0.38200000  0.02010000  1.0 0.2697220546
S  S25  1  0.19770000  0.11890000  0.02189000  1.0 0.2613047537
S  S26  1  0.12660000  0.38222000  0.75163000  1.0 1.1318417963
S  S27  1  0.36150000  0.25315000  0.88413000  1.0 0.979072119
S  S28  1  0.13610000  0.11800000  0.02010000  1.0 0.2697220546
S  S29  1  0.80230000  0.38110000  0.52189000  1.0 0.2613047537
S  S30  1  0.87340000  0.11778000  0.25163000  1.0 1.1318417963
S  S31  1  0.63850000  0.24685000  0.38413000  1.0 0.979072119
S  S32  1  0.86390000  0.38200000  0.52010000  1.0 0.2697220546
N  N1  1  0.01580000  0.50070000  0.89990000  1.0 0.002152679
N  N2  1  0.98420000  0.99930000  0.39990000  1.0 -0.0001192434
N  N3  1  0.48420000  0.50070000  0.39990000  1.0 0.002152679
N  N4  1  0.51580000  0.99930000  0.89990000  1.0 0.002152679
N  N5  1  0.51580000  0.49930000  0.60010000  1.0 0.002152679
N  N6  1  0.48420000  0.00070000  0.10010000  1.0 0.002152679
N  N7  1  0.98420000  0.49930000  0.10010000  1.0 0.002152679
N  N8  1  0.01580000  0.00070000  0.60010000  1.0 0.002152679
O  O1  1  0.18280000  0.70650000  0.88051000  1.0 -0.8037823963
O  O2  1  0.22090000  0.88390000  0.91920000  1.0 -0.4010727248
O  O3  1  0.31050000  0.80120000  0.84886000  1.0 -0.8383313614
O  O4  1  0.27490000  0.62230000  0.80990000  1.0 -0.1729805517
O  O5  1  0.08840000  0.78010000  0.95386000  1.0 -0.4707618304
O  O6  1  0.92810000  0.71950000  0.92442000  1.0 -0.5508926856
O  O7  1  0.83860000  0.86380000  0.93422000  1.0 -0.3448580551
O  O8  1  0.66320000  0.89850000  0.98240000  1.0 -0.1990078171
O  O9  1  0.89170000  0.92730000  0.99660000  1.0 0.0291227048
O  O10  1  0.10660000  0.72760000  0.27381000  1.0 -0.4707618304
O  O11  1  0.93910000  0.78170000  0.30472000  1.0 -0.5704629022
O  O12  1  0.86280000  0.63410000  0.29300000  1.0 -0.4494557703
O  O13  1  0.80570000  0.57200000  0.22810000  1.0 -0.4494557703
O  O14  1  0.02530000  0.59880000  0.23970000  1.0 -0.5241452652
O  O15  1  0.57120000  0.68620000  0.11486000  1.0 -0.5098836432
O  O16  1  0.56350000  0.80540000  0.11738000  1.0 -0.5098836432
O  O17  1  0.01410000  0.59560000  0.86460000  1.0 -0.4010727248
O  O18  1  0.99500000  0.82700000  0.86390000  1.0 -0.192821649
O  O19  1  0.76200000  0.92510000  0.99590000  1.0 0.0129865561
O  O20  1  0.99900000  0.90490000  0.98670000  1.0 -0.1268184382
O  O21  1  0.81720000  0.79350000  0.38051000  1.0 -0.8056544709
O  O22  1  0.77910000  0.61610000  0.41920000  1.0 -0.4010727248
O  O23  1  0.68950000  0.69880000  0.34886000  1.0 -0.8383313614
O  O24  1  0.72510000  0.87770000  0.30990000  1.0 -0.1729805517
O  O25  1  0.91160000  0.71990000  0.45386000  1.0 -0.4707618304
O  O26  1  0.07190000  0.78050000  0.42442000  1.0 -0.5508926856
O  O27  1  0.16140000  0.63620000  0.43422000  1.0 -0.3466707158
O  O28  1  0.33680000  0.60150000  0.48240000  1.0 -0.1990078171
O  O29  1  0.10830000  0.57270000  0.49660000  1.0 0.0291227048
O  O30  1  0.89340000  0.77240000  0.77381000  1.0 -0.4605870635
O  O31  1  0.06090000  0.71830000  0.80472000  1.0 -0.5704629022
O  O32  1  0.13720000  0.86590000  0.79300000  1.0 -0.4494557703
O  O33  1  0.19430000  0.92800000  0.72810000  1.0 -0.4605870635
O  O34  1  0.97470000  0.90120000  0.73970000  1.0 -0.5241452652
O  O35  1  0.42880000  0.81380000  0.61486000  1.0 -0.5098836432
O  O36  1  0.43650000  0.69460000  0.61738000  1.0 -0.5098836432
O  O37  1  0.98590000  0.90440000  0.36460000  1.0 -0.4010727248
O  O38  1  0.00500000  0.67300000  0.36390000  1.0 -0.1990078171
O  O39  1  0.23800000  0.57490000  0.49590000  1.0 0.0129865561
O  O40  1  0.00100000  0.59510000  0.48670000  1.0 -0.1268184382
O  O41  1  0.31720000  0.70650000  0.38051000  1.0 -0.8037823963
O  O42  1  0.27910000  0.88390000  0.41920000  1.0 -0.4010727248
O  O43  1  0.18950000  0.80120000  0.34886000  1.0 -0.8383313614
O  O44  1  0.22510000  0.62230000  0.30990000  1.0 -0.1729805517
O  O45  1  0.41160000  0.78010000  0.45386000  1.0 -0.4707618304
O  O46  1  0.57190000  0.71950000  0.42442000  1.0 -0.5508926856
O  O47  1  0.66140000  0.86380000  0.43422000  1.0 -0.3448580551
O  O48  1  0.83680000  0.89850000  0.48240000  1.0 -0.1990078171
O  O49  1  0.60830000  0.92730000  0.49660000  1.0 0.0224494101
O  O50  1  0.39340000  0.72760000  0.77381000  1.0 -0.4707618304
O  O51  1  0.56090000  0.78170000  0.80472000  1.0 -0.5704629022
O  O52  1  0.63720000  0.63410000  0.79300000  1.0 -0.4494557703
O  O53  1  0.69430000  0.57200000  0.72810000  1.0 -0.4494557703
O  O54  1  0.47470000  0.59880000  0.73970000  1.0 -0.5241452652
O  O55  1  0.92880000  0.68620000  0.61486000  1.0 -0.5098836432
O  O56  1  0.93650000  0.80540000  0.61738000  1.0 -0.5098836432
O  O57  1  0.48590000  0.59560000  0.36460000  1.0 -0.4010727248
O  O58  1  0.50500000  0.82700000  0.36390000  1.0 -0.1990078171
O  O59  1  0.73800000  0.92510000  0.49590000  1.0 0.0129865561
O  O60  1  0.50100000  0.90490000  0.48670000  1.0 -0.1268184382
O  O61  1  0.68280000  0.79350000  0.88051000  1.0 -0.8037823963
O  O62  1  0.72090000  0.61610000  0.91920000  1.0 -0.4010727248
O  O63  1  0.81050000  0.69880000  0.84886000  1.0 -0.8383313614
O  O64  1  0.77490000  0.87770000  0.80990000  1.0 -0.1729805517
O  O65  1  0.58840000  0.71990000  0.95386000  1.0 -0.4707618304
O  O66  1  0.42810000  0.78050000  0.92442000  1.0 -0.5508926856
O  O67  1  0.33860000  0.63620000  0.93422000  1.0 -0.3466707158
O  O68  1  0.16320000  0.60150000  0.98240000  1.0 -0.1990078171
O  O69  1  0.39170000  0.57270000  0.99660000  1.0 0.0291227048
O  O70  1  0.60660000  0.77240000  0.27381000  1.0 -0.4605870635
O  O71  1  0.43910000  0.71830000  0.30472000  1.0 -0.5704629022
O  O72  1  0.36280000  0.86590000  0.29300000  1.0 -0.4494557703
O  O73  1  0.30570000  0.92800000  0.22810000  1.0 -0.4605870635
O  O74  1  0.52530000  0.90120000  0.23970000  1.0 -0.5241452652
O  O75  1  0.07120000  0.81380000  0.11486000  1.0 -0.5098836432
O  O76  1  0.06350000  0.69460000  0.11738000  1.0 -0.5098836432
O  O77  1  0.51410000  0.90440000  0.86460000  1.0 -0.4010727248
O  O78  1  0.49500000  0.67300000  0.86390000  1.0 -0.1990078171
O  O79  1  0.26200000  0.57490000  0.99590000  1.0 0.0129865561
O  O80  1  0.49900000  0.59510000  0.98670000  1.0 -0.1268184382
O  O81  1  0.68280000  0.29350000  0.61949000  1.0 -0.8037823963
O  O82  1  0.72090000  0.11610000  0.58080000  1.0 -0.4010727248
O  O83  1  0.81050000  0.19880000  0.65114000  1.0 -0.8383313614
O  O84  1  0.77490000  0.37770000  0.69010000  1.0 -0.1729805517
O  O85  1  0.58840000  0.21990000  0.54614000  1.0 -0.4707618304
O  O86  1  0.42810000  0.28050000  0.57558000  1.0 -0.5508926856
O  O87  1  0.33860000  0.13620000  0.56578000  1.0 -0.3466707158
O  O88  1  0.16320000  0.10150000  0.51760000  1.0 -0.1990078171
O  O89  1  0.39170000  0.07270000  0.50340000  1.0 0.0291227048
O  O90  1  0.60660000  0.27240000  0.22619000  1.0 -0.4707618304
O  O91  1  0.43910000  0.21830000  0.19528000  1.0 -0.5704629022
O  O92  1  0.36280000  0.36590000  0.20700000  1.0 -0.4494557703
O  O93  1  0.30570000  0.42800000  0.27190000  1.0 -0.4494557703
O  O94  1  0.52530000  0.40120000  0.26030000  1.0 -0.5241452652
O  O95  1  0.07120000  0.31380000  0.38514000  1.0 -0.5098836432
O  O96  1  0.06350000  0.19460000  0.38262000  1.0 -0.5098836432
O  O97  1  0.51410000  0.40440000  0.63540000  1.0 -0.4010727248
O  O98  1  0.49500000  0.17300000  0.63610000  1.0 -0.1990078171
O  O99  1  0.26200000  0.07490000  0.50410000  1.0 0.0224494101
O  O100  1  0.49900000  0.09510000  0.51330000  1.0 -0.1268184382
O  O101  1  0.31720000  0.20650000  0.11949000  1.0 -0.8056544709
O  O102  1  0.27910000  0.38390000  0.08080000  1.0 -0.4010727248
O  O103  1  0.18950000  0.30120000  0.15114000  1.0 -0.8383313614
O  O104  1  0.22510000  0.12230000  0.19010000  1.0 -0.1767353463
O  O105  1  0.41160000  0.28010000  0.04614000  1.0 -0.4707618304
O  O106  1  0.57190000  0.21950000  0.07558000  1.0 -0.5508926856
O  O107  1  0.66140000  0.36380000  0.06578000  1.0 -0.3466707158
O  O108  1  0.83680000  0.39850000  0.01760000  1.0 -0.1990078171
O  O109  1  0.60830000  0.42730000  0.00340000  1.0 0.0291227048
O  O110  1  0.39340000  0.22760000  0.72619000  1.0 -0.4605870635
O  O111  1  0.56090000  0.28170000  0.69528000  1.0 -0.5704629022
O  O112  1  0.63720000  0.13410000  0.70700000  1.0 -0.4494557703
O  O113  1  0.69430000  0.07200000  0.77190000  1.0 -0.4494557703
O  O114  1  0.47470000  0.09880000  0.76030000  1.0 -0.5241452652
O  O115  1  0.92880000  0.18620000  0.88514000  1.0 -0.5098836432
O  O116  1  0.93650000  0.30540000  0.88262000  1.0 -0.5098836432
O  O117  1  0.48590000  0.09560000  0.13540000  1.0 -0.4010727248
O  O118  1  0.50500000  0.32700000  0.13610000  1.0 -0.1990078171
O  O119  1  0.73800000  0.42510000  0.00410000  1.0 0.0224494101
O  O120  1  0.50100000  0.40490000  0.01330000  1.0 -0.1268184382
O  O121  1  0.81720000  0.29350000  0.11949000  1.0 -0.8056544709
O  O122  1  0.77910000  0.11610000  0.08080000  1.0 -0.4010727248
O  O123  1  0.68950000  0.19880000  0.15114000  1.0 -0.8383313614
O  O124  1  0.72510000  0.37770000  0.19010000  1.0 -0.1767353463
O  O125  1  0.91160000  0.21990000  0.04614000  1.0 -0.4707618304
O  O126  1  0.07190000  0.28050000  0.07558000  1.0 -0.5508926856
O  O127  1  0.16140000  0.13620000  0.06578000  1.0 -0.3448580551
O  O128  1  0.33680000  0.10150000  0.01760000  1.0 -0.1990078171
O  O129  1  0.10830000  0.07270000  0.00340000  1.0 0.0291227048
O  O130  1  0.89340000  0.27240000  0.72619000  1.0 -0.4605870635
O  O131  1  0.06090000  0.21830000  0.69528000  1.0 -0.5704629022
O  O132  1  0.13720000  0.36590000  0.70700000  1.0 -0.4494557703
O  O133  1  0.19430000  0.42800000  0.77190000  1.0 -0.4494557703
O  O134  1  0.97470000  0.40120000  0.76030000  1.0 -0.5241452652
O  O135  1  0.42880000  0.31380000  0.88514000  1.0 -0.5098836432
O  O136  1  0.43650000  0.19460000  0.88262000  1.0 -0.5098836432
O  O137  1  0.98590000  0.40440000  0.13540000  1.0 -0.4010727248
O  O138  1  0.00500000  0.17300000  0.13610000  1.0 -0.192821649
O  O139  1  0.23800000  0.07490000  0.00410000  1.0 0.0224494101
O  O140  1  0.00100000  0.09510000  0.01330000  1.0 -0.1268184382
O  O141  1  0.18280000  0.20650000  0.61949000  1.0 -0.8037823963
O  O142  1  0.22090000  0.38390000  0.58080000  1.0 -0.4010727248
O  O143  1  0.31050000  0.30120000  0.65114000  1.0 -0.8383313614
O  O144  1  0.27490000  0.12230000  0.69010000  1.0 -0.1729805517
O  O145  1  0.08840000  0.28010000  0.54614000  1.0 -0.4707618304
O  O146  1  0.92810000  0.21950000  0.57558000  1.0 -0.5508926856
O  O147  1  0.83860000  0.36380000  0.56578000  1.0 -0.3466707158
O  O148  1  0.66320000  0.39850000  0.51760000  1.0 -0.1990078171
O  O149  1  0.89170000  0.42730000  0.50340000  1.0 0.0291227048
O  O150  1  0.10660000  0.22760000  0.22619000  1.0 -0.4707618304
O  O151  1  0.93910000  0.28170000  0.19528000  1.0 -0.5704629022
O  O152  1  0.86280000  0.13410000  0.20700000  1.0 -0.4494557703
O  O153  1  0.80570000  0.07200000  0.27190000  1.0 -0.4605870635
O  O154  1  0.02530000  0.09880000  0.26030000  1.0 -0.5241452652
O  O155  1  0.57120000  0.18620000  0.38514000  1.0 -0.5098836432
O  O156  1  0.56350000  0.30540000  0.38262000  1.0 -0.5098836432
O  O157  1  0.01410000  0.09560000  0.63540000  1.0 -0.4010727248
O  O158  1  0.99500000  0.32700000  0.63610000  1.0 -0.1990078171
O  O159  1  0.76200000  0.42510000  0.50410000  1.0 0.0224494101
O  O160  1  0.99900000  0.40490000  0.51330000  1.0 -0.1268184382
