# DDEC6 charges by PACMAN v1.1 (https://github.com/mtap-research/PACMAN-charge/)
data_MUVGOA_FSR_pacman
_symmetry_space_group_name_H-M   'P 1'
_cell_length_a   12.61400000
_cell_length_b   14.60400000
_cell_length_c   22.85700000
_cell_angle_alpha   90.00000000
_cell_angle_beta   90.00000000
_cell_angle_gamma   90.00000000
_symmetry_Int_Tables_number   1
_chemical_formula_structural   ZnH16(C17N5)2
_chemical_formula_sum   'Zn4 H64 C136 N40'
_cell_volume   4210.59896359
_cell_formula_units_Z   4
loop_
 _symmetry_equiv_pos_site_id
 _symmetry_equiv_pos_as_xyz
  1  'x, y, z'
loop_
 _atom_site_type_symbol
 _atom_site_label
 _atom_site_symmetry_multiplicity
 _atom_site_fract_x
 _atom_site_fract_y
 _atom_site_fract_z
 _atom_site_occupancy
 _atom_site_charge
Zn  Zn1  1  0.50000000  0.23858000  0.25000000  1.0 0.7720578916
Zn  Zn2  1  0.50000000  0.26142000  0.75000000  1.0 0.7720578916
Zn  Zn3  1  0.50000000  0.76142000  0.75000000  1.0 0.7720578916
Zn  Zn4  1  0.50000000  0.73858000  0.25000000  1.0 0.7720578916
H  H1  1  0.92700000  0.13800000  0.09600000  1.0 0.1259326923
H  H2  1  0.07300000  0.13800000  0.40400000  1.0 0.1259326923
H  H3  1  0.07300000  0.36200000  0.59600000  1.0 0.1259326923
H  H4  1  0.92700000  0.36200000  0.90400000  1.0 0.1259326923
H  H5  1  0.07300000  0.86200000  0.90400000  1.0 0.1259326923
H  H6  1  0.92700000  0.86200000  0.59600000  1.0 0.1259326923
H  H7  1  0.92700000  0.63800000  0.40400000  1.0 0.1259326923
H  H8  1  0.07300000  0.63800000  0.09600000  1.0 0.1259326923
H  H9  1  0.79900000  0.13200000  0.15980000  1.0 0.1180857289
H  H10  1  0.20100000  0.13200000  0.34020000  1.0 0.1180857289
H  H11  1  0.20100000  0.36800000  0.65980000  1.0 0.1180857289
H  H12  1  0.79900000  0.36800000  0.84020000  1.0 0.1180857289
H  H13  1  0.20100000  0.86800000  0.84020000  1.0 0.1180857289
H  H14  1  0.79900000  0.86800000  0.65980000  1.0 0.1180857289
H  H15  1  0.79900000  0.63200000  0.34020000  1.0 0.1180857289
H  H16  1  0.20100000  0.63200000  0.15980000  1.0 0.1180857289
H  H17  1  0.79000000  0.84700000  0.15480000  1.0 0.1117095071
H  H18  1  0.21000000  0.84700000  0.34520000  1.0 0.1117095071
H  H19  1  0.21000000  0.65300000  0.65480000  1.0 0.1117095071
H  H20  1  0.79000000  0.65300000  0.84520000  1.0 0.1117095071
H  H21  1  0.21000000  0.15300000  0.84520000  1.0 0.1117095071
H  H22  1  0.79000000  0.15300000  0.65480000  1.0 0.1117095071
H  H23  1  0.79000000  0.34700000  0.34520000  1.0 0.1117095071
H  H24  1  0.21000000  0.34700000  0.15480000  1.0 0.1117095071
H  H25  1  0.92000000  0.85100000  0.08110000  1.0 0.1180857289
H  H26  1  0.08000000  0.85100000  0.41890000  1.0 0.1180857289
H  H27  1  0.08000000  0.64900000  0.58110000  1.0 0.1180857289
H  H28  1  0.92000000  0.64900000  0.91890000  1.0 0.1180857289
H  H29  1  0.08000000  0.14900000  0.91890000  1.0 0.1180857289
H  H30  1  0.92000000  0.14900000  0.58110000  1.0 0.1180857289
H  H31  1  0.92000000  0.35100000  0.41890000  1.0 0.1180857289
H  H32  1  0.08000000  0.35100000  0.08110000  1.0 0.1180857289
H  H33  1  0.34800000  0.20400000  0.04910000  1.0 0.1425467178
H  H34  1  0.65200000  0.20400000  0.45090000  1.0 0.1425467178
H  H35  1  0.65200000  0.29600000  0.54910000  1.0 0.1425467178
H  H36  1  0.34800000  0.29600000  0.95090000  1.0 0.1425467178
H  H37  1  0.65200000  0.79600000  0.95090000  1.0 0.1425467178
H  H38  1  0.34800000  0.79600000  0.54910000  1.0 0.1425467178
H  H39  1  0.34800000  0.70400000  0.45090000  1.0 0.1425467178
H  H40  1  0.65200000  0.70400000  0.04910000  1.0 0.1425467178
H  H41  1  0.36200000  0.20420000  0.14360000  1.0 0.1180857289
H  H42  1  0.63800000  0.20420000  0.35640000  1.0 0.1180857289
H  H43  1  0.63800000  0.29580000  0.64360000  1.0 0.1180857289
H  H44  1  0.36200000  0.29580000  0.85640000  1.0 0.1180857289
H  H45  1  0.63800000  0.79580000  0.85640000  1.0 0.1180857289
H  H46  1  0.36200000  0.79580000  0.64360000  1.0 0.1180857289
H  H47  1  0.36200000  0.70420000  0.35640000  1.0 0.1180857289
H  H48  1  0.63800000  0.70420000  0.14360000  1.0 0.1180857289
H  H49  1  0.64900000  0.27600000  0.14540000  1.0 0.1117095071
H  H50  1  0.35100000  0.27600000  0.35460000  1.0 0.1117095071
H  H51  1  0.35100000  0.22400000  0.64540000  1.0 0.1117095071
H  H52  1  0.64900000  0.22400000  0.85460000  1.0 0.1117095071
H  H53  1  0.35100000  0.72400000  0.85460000  1.0 0.1117095071
H  H54  1  0.64900000  0.72400000  0.64540000  1.0 0.1117095071
H  H55  1  0.64900000  0.77600000  0.35460000  1.0 0.1117095071
H  H56  1  0.35100000  0.77600000  0.14540000  1.0 0.1117095071
H  H57  1  0.65900000  0.29300000  0.04820000  1.0 0.1425467178
H  H58  1  0.34100000  0.29300000  0.45180000  1.0 0.1425467178
H  H59  1  0.34100000  0.20700000  0.54820000  1.0 0.1425467178
H  H60  1  0.65900000  0.20700000  0.95180000  1.0 0.1425467178
H  H61  1  0.34100000  0.70700000  0.95180000  1.0 0.1425467178
H  H62  1  0.65900000  0.70700000  0.54820000  1.0 0.1425467178
H  H63  1  0.65900000  0.79300000  0.45180000  1.0 0.1425467178
H  H64  1  0.34100000  0.79300000  0.04820000  1.0 0.1425467178
C  C1  1  0.81410000  0.91025000  0.13947000  1.0 -0.1568142057
C  C2  1  0.18590000  0.91025000  0.36053000  1.0 -0.1568142057
C  C3  1  0.18590000  0.58975000  0.63947000  1.0 -0.1568142057
C  C4  1  0.81410000  0.58975000  0.86053000  1.0 -0.1568142057
C  C5  1  0.18590000  0.08975000  0.86053000  1.0 -0.1568142057
C  C6  1  0.81410000  0.08975000  0.63947000  1.0 -0.1568142057
C  C7  1  0.81410000  0.41025000  0.36053000  1.0 -0.1568142057
C  C8  1  0.18590000  0.41025000  0.13947000  1.0 -0.1568142057
C  C9  1  0.77570000  0.99172000  0.16429000  1.0 0.1117095071
C  C10  1  0.22430000  0.99172000  0.33571000  1.0 0.1117095071
C  C11  1  0.22430000  0.50828000  0.66429000  1.0 0.1117095071
C  C12  1  0.77570000  0.50828000  0.83571000  1.0 0.1117095071
C  C13  1  0.22430000  0.00828000  0.83571000  1.0 0.1117095071
C  C14  1  0.77570000  0.00828000  0.66429000  1.0 0.1117095071
C  C15  1  0.77570000  0.49172000  0.33571000  1.0 0.1117095071
C  C16  1  0.22430000  0.49172000  0.16429000  1.0 0.1117095071
C  C17  1  0.65474000  0.07010000  0.23353000  1.0 0.3001532525
C  C18  1  0.34526000  0.07010000  0.26647000  1.0 0.3001532525
C  C19  1  0.34526000  0.42990000  0.73353000  1.0 0.3001532525
C  C20  1  0.65474000  0.42990000  0.76647000  1.0 0.3001532525
C  C21  1  0.34526000  0.92990000  0.76647000  1.0 0.3001532525
C  C22  1  0.65474000  0.92990000  0.73353000  1.0 0.3001532525
C  C23  1  0.65474000  0.57010000  0.26647000  1.0 0.3001532525
C  C24  1  0.34526000  0.57010000  0.23353000  1.0 0.3001532525
C  C25  1  0.65509000  0.90824000  0.23168000  1.0 0.3001532525
C  C26  1  0.34491000  0.90824000  0.26832000  1.0 0.3001532525
C  C27  1  0.34491000  0.59176000  0.73168000  1.0 0.3001532525
C  C28  1  0.65509000  0.59176000  0.76832000  1.0 0.3001532525
C  C29  1  0.34491000  0.09176000  0.76832000  1.0 0.3001532525
C  C30  1  0.65509000  0.09176000  0.73168000  1.0 0.3001532525
C  C31  1  0.65509000  0.40824000  0.26832000  1.0 0.3001532525
C  C32  1  0.34491000  0.40824000  0.23168000  1.0 0.3001532525
C  C33  1  0.69682000  0.98986000  0.21048000  1.0 -0.2113353156
C  C34  1  0.30318000  0.98986000  0.28952000  1.0 -0.2113353156
C  C35  1  0.30318000  0.51014000  0.71048000  1.0 -0.2113353156
C  C36  1  0.69682000  0.51014000  0.78952000  1.0 -0.2113353156
C  C37  1  0.30318000  0.01014000  0.78952000  1.0 -0.2113353156
C  C38  1  0.69682000  0.01014000  0.71048000  1.0 -0.2113353156
C  C39  1  0.69682000  0.48986000  0.28952000  1.0 -0.2113353156
C  C40  1  0.30318000  0.48986000  0.21048000  1.0 -0.2113353156
C  C41  1  0.41470000  0.22340000  0.12414000  1.0 0.0894430883
C  C42  1  0.58530000  0.22340000  0.37586000  1.0 0.0894430883
C  C43  1  0.58530000  0.27660000  0.62414000  1.0 0.0894430883
C  C44  1  0.41470000  0.27660000  0.87586000  1.0 0.0894430883
C  C45  1  0.58530000  0.77660000  0.87586000  1.0 0.0894430883
C  C46  1  0.41470000  0.77660000  0.62414000  1.0 0.0894430883
C  C47  1  0.41470000  0.72340000  0.37586000  1.0 0.0894430883
C  C48  1  0.58530000  0.72340000  0.12414000  1.0 0.0894430883
C  C49  1  0.41120000  0.22778000  0.06341000  1.0 -0.1859793302
C  C50  1  0.58880000  0.22778000  0.43659000  1.0 -0.1859793302
C  C51  1  0.58880000  0.27222000  0.56341000  1.0 -0.1859793302
C  C52  1  0.41120000  0.27222000  0.93659000  1.0 -0.1859793302
C  C53  1  0.58880000  0.77222000  0.93659000  1.0 -0.1859793302
C  C54  1  0.41120000  0.77222000  0.56341000  1.0 -0.1859793302
C  C55  1  0.41120000  0.72778000  0.43659000  1.0 -0.1859793302
C  C56  1  0.58880000  0.72778000  0.06341000  1.0 -0.1859793302
C  C57  1  0.50335000  0.24770000  0.03251000  1.0 0.1117095071
C  C58  1  0.49665000  0.24770000  0.46749000  1.0 0.1117095071
C  C59  1  0.49665000  0.25230000  0.53251000  1.0 0.1180857289
C  C60  1  0.50335000  0.25230000  0.96749000  1.0 0.1180857289
C  C61  1  0.49665000  0.75230000  0.96749000  1.0 0.1180857289
C  C62  1  0.50335000  0.75230000  0.53251000  1.0 0.1180857289
C  C63  1  0.50335000  0.74770000  0.46749000  1.0 0.1117095071
C  C64  1  0.49665000  0.74770000  0.03251000  1.0 0.1117095071
C  C65  1  0.81710000  0.07432000  0.14397000  1.0 -0.1512303382
C  C66  1  0.18290000  0.07432000  0.35603000  1.0 -0.1512303382
C  C67  1  0.18290000  0.42568000  0.64397000  1.0 -0.1512303382
C  C68  1  0.81710000  0.42568000  0.85603000  1.0 -0.1512303382
C  C69  1  0.18290000  0.92568000  0.85603000  1.0 -0.1512303382
C  C70  1  0.81710000  0.92568000  0.64397000  1.0 -0.1512303382
C  C71  1  0.81710000  0.57432000  0.35603000  1.0 -0.1512303382
C  C72  1  0.18290000  0.57432000  0.14397000  1.0 -0.1512303382
C  C73  1  0.59540000  0.26340000  0.06457000  1.0 -0.1962838948
C  C74  1  0.40460000  0.26340000  0.43543000  1.0 -0.1962838948
C  C75  1  0.40460000  0.23660000  0.56457000  1.0 -0.1962838948
C  C76  1  0.59540000  0.23660000  0.93543000  1.0 -0.1962838948
C  C77  1  0.40460000  0.73660000  0.93543000  1.0 -0.1962838948
C  C78  1  0.59540000  0.73660000  0.56457000  1.0 -0.1962838948
C  C79  1  0.59540000  0.76340000  0.43543000  1.0 -0.1962838948
C  C80  1  0.40460000  0.76340000  0.06457000  1.0 -0.1962838948
C  C81  1  0.02370000  0.99790000  0.03302000  1.0 0.0283385341
C  C82  1  0.97630000  0.99790000  0.46698000  1.0 0.0283385341
C  C83  1  0.97630000  0.50210000  0.53302000  1.0 0.0283385341
C  C84  1  0.02370000  0.50210000  0.96698000  1.0 0.0283385341
C  C85  1  0.97630000  0.00210000  0.96698000  1.0 0.0283385341
C  C86  1  0.02370000  0.00210000  0.53302000  1.0 0.0283385341
C  C87  1  0.02370000  0.49790000  0.46698000  1.0 0.0283385341
C  C88  1  0.97630000  0.49790000  0.03302000  1.0 0.0283385341
C  C89  1  0.09140000  0.91610000  0.03714000  1.0 0.2357478
C  C90  1  0.90860000  0.91610000  0.46286000  1.0 0.2357478
C  C91  1  0.90860000  0.58390000  0.53714000  1.0 0.2357478
C  C92  1  0.09140000  0.58390000  0.96286000  1.0 0.2357478
C  C93  1  0.90860000  0.08390000  0.96286000  1.0 0.2357478
C  C94  1  0.09140000  0.08390000  0.53714000  1.0 0.2357478
C  C95  1  0.09140000  0.41610000  0.46286000  1.0 0.2357478
C  C96  1  0.90860000  0.41610000  0.03714000  1.0 0.2357478
C  C97  1  0.09160000  0.07950000  0.04053000  1.0 0.2329449381
C  C98  1  0.90840000  0.07950000  0.45947000  1.0 0.2329449381
C  C99  1  0.90840000  0.42050000  0.54053000  1.0 0.2329449381
C  C100  1  0.09160000  0.42050000  0.95947000  1.0 0.2329449381
C  C101  1  0.90840000  0.92050000  0.95947000  1.0 0.2329449381
C  C102  1  0.09160000  0.92050000  0.54053000  1.0 0.2329449381
C  C103  1  0.09160000  0.57950000  0.45947000  1.0 0.2329449381
C  C104  1  0.90840000  0.57950000  0.04053000  1.0 0.2329449381
C  C105  1  0.89430000  0.91260000  0.09781000  1.0 -0.140910743
C  C106  1  0.10570000  0.91260000  0.40219000  1.0 -0.140910743
C  C107  1  0.10570000  0.58740000  0.59781000  1.0 -0.140910743
C  C108  1  0.89430000  0.58740000  0.90219000  1.0 -0.140910743
C  C109  1  0.10570000  0.08740000  0.90219000  1.0 -0.140910743
C  C110  1  0.89430000  0.08740000  0.59781000  1.0 -0.140910743
C  C111  1  0.89430000  0.41260000  0.40219000  1.0 -0.140910743
C  C112  1  0.10570000  0.41260000  0.09781000  1.0 -0.140910743
C  C113  1  0.93650000  0.99568000  0.07940000  1.0 0.0117061788
C  C114  1  0.06350000  0.99568000  0.42060000  1.0 0.0117061788
C  C115  1  0.06350000  0.50432000  0.57940000  1.0 0.0117061788
C  C116  1  0.93650000  0.50432000  0.92060000  1.0 0.0117061788
C  C117  1  0.06350000  0.00432000  0.92060000  1.0 0.0117061788
C  C118  1  0.93650000  0.00432000  0.57940000  1.0 0.0117061788
C  C119  1  0.93650000  0.49568000  0.42060000  1.0 0.0117061788
C  C120  1  0.06350000  0.49568000  0.07940000  1.0 0.0117061788
C  C121  1  0.59070000  0.25960000  0.12535000  1.0 0.1034896484
C  C122  1  0.40930000  0.25960000  0.37465000  1.0 0.1034896484
C  C123  1  0.40930000  0.24040000  0.62535000  1.0 0.1034896484
C  C124  1  0.59070000  0.24040000  0.87465000  1.0 0.1034896484
C  C125  1  0.40930000  0.74040000  0.87465000  1.0 0.1034896484
C  C126  1  0.59070000  0.74040000  0.62535000  1.0 0.1034896484
C  C127  1  0.59070000  0.75960000  0.37465000  1.0 0.1034896484
C  C128  1  0.40930000  0.75960000  0.12535000  1.0 0.1034896484
C  C129  1  0.89620000  0.07650000  0.10248000  1.0 -0.140910743
C  C130  1  0.10380000  0.07650000  0.39752000  1.0 -0.140910743
C  C131  1  0.10380000  0.42350000  0.60248000  1.0 -0.140910743
C  C132  1  0.89620000  0.42350000  0.89752000  1.0 -0.140910743
C  C133  1  0.10380000  0.92350000  0.89752000  1.0 -0.140910743
C  C134  1  0.89620000  0.92350000  0.60248000  1.0 -0.140910743
C  C135  1  0.89620000  0.57650000  0.39752000  1.0 -0.140910743
C  C136  1  0.10380000  0.57650000  0.10248000  1.0 -0.140910743
N  N1  1  0.62030000  0.13683000  0.25175000  1.0 -0.4278666631
N  N2  1  0.37970000  0.13683000  0.24825000  1.0 -0.4278666631
N  N3  1  0.37970000  0.36317000  0.75175000  1.0 -0.4278666631
N  N4  1  0.62030000  0.36317000  0.74825000  1.0 -0.4278666631
N  N5  1  0.37970000  0.86317000  0.74825000  1.0 -0.4278666631
N  N6  1  0.62030000  0.86317000  0.75175000  1.0 -0.4278666631
N  N7  1  0.62030000  0.63683000  0.24825000  1.0 -0.4278666631
N  N8  1  0.37970000  0.63683000  0.25175000  1.0 -0.4278666631
N  N9  1  0.62110000  0.84089000  0.24885000  1.0 -0.4278666631
N  N10  1  0.37890000  0.84089000  0.25115000  1.0 -0.4278666631
N  N11  1  0.37890000  0.65911000  0.74885000  1.0 -0.4278666631
N  N12  1  0.62110000  0.65911000  0.75115000  1.0 -0.4278666631
N  N13  1  0.37890000  0.15911000  0.75115000  1.0 -0.4278666631
N  N14  1  0.62110000  0.15911000  0.74885000  1.0 -0.4278666631
N  N15  1  0.62110000  0.34089000  0.25115000  1.0 -0.4278666631
N  N16  1  0.37890000  0.34089000  0.24885000  1.0 -0.4278666631
N  N17  1  0.13880000  0.85040000  0.04160000  1.0 -0.3136285462
N  N18  1  0.86120000  0.85040000  0.45840000  1.0 -0.3136285462
N  N19  1  0.86120000  0.64960000  0.54160000  1.0 -0.3136285462
N  N20  1  0.13880000  0.64960000  0.95840000  1.0 -0.3136285462
N  N21  1  0.86120000  0.14960000  0.95840000  1.0 -0.3136285462
N  N22  1  0.13880000  0.14960000  0.54160000  1.0 -0.3136285462
N  N23  1  0.13880000  0.35040000  0.45840000  1.0 -0.3136285462
N  N24  1  0.86120000  0.35040000  0.04160000  1.0 -0.3136285462
N  N25  1  0.50331000  0.23996000  0.15505000  1.0 -0.2294733033
N  N26  1  0.49669000  0.23996000  0.34495000  1.0 -0.2294733033
N  N27  1  0.49669000  0.26004000  0.65505000  1.0 -0.2294733033
N  N28  1  0.50331000  0.26004000  0.84495000  1.0 -0.2294733033
N  N29  1  0.49669000  0.76004000  0.84495000  1.0 -0.2294733033
N  N30  1  0.50331000  0.76004000  0.65505000  1.0 -0.2294733033
N  N31  1  0.50331000  0.73996000  0.34495000  1.0 -0.2294733033
N  N32  1  0.49669000  0.73996000  0.15505000  1.0 -0.2294733033
N  N33  1  0.14060000  0.14440000  0.04757000  1.0 -0.3210153461
N  N34  1  0.85940000  0.14440000  0.45243000  1.0 -0.3210153461
N  N35  1  0.85940000  0.35560000  0.54757000  1.0 -0.3210153461
N  N36  1  0.14060000  0.35560000  0.95243000  1.0 -0.3210153461
N  N37  1  0.85940000  0.85560000  0.95243000  1.0 -0.3210153461
N  N38  1  0.14060000  0.85560000  0.54757000  1.0 -0.3210153461
N  N39  1  0.14060000  0.64440000  0.45243000  1.0 -0.3210153461
N  N40  1  0.85940000  0.64440000  0.04757000  1.0 -0.3210153461
