# DDEC6 charges by PACMAN v1.1 (https://github.com/mtap-research/PACMAN-charge/)
data_MUVHAN_FSR_pacman
_symmetry_space_group_name_H-M   'P 1'
_cell_length_a   11.43410000
_cell_length_b   12.57910000
_cell_length_c   14.77590000
_cell_angle_alpha   90.00000000
_cell_angle_beta   90.00000000
_cell_angle_gamma   90.00000000
_symmetry_Int_Tables_number   1
_chemical_formula_structural   ZnH16(C17N5)2
_chemical_formula_sum   'Zn2 H32 C68 N20'
_cell_volume   2125.22785262
_cell_formula_units_Z   2
loop_
 _symmetry_equiv_pos_site_id
 _symmetry_equiv_pos_as_xyz
  1  'x, y, z'
loop_
 _atom_site_type_symbol
 _atom_site_label
 _atom_site_symmetry_multiplicity
 _atom_site_fract_x
 _atom_site_fract_y
 _atom_site_fract_z
 _atom_site_occupancy
 _atom_site_charge
Zn  Zn1  1  0.50000000  0.50000000  0.75000000  1.0 0.7678577019
Zn  Zn2  1  0.50000000  0.50000000  0.25000000  1.0 0.7678577019
H  H1  1  0.30330000  0.78210000  0.86390000  1.0 0.1180049977
H  H2  1  0.69670000  0.21790000  0.86390000  1.0 0.1180049977
H  H3  1  0.30330000  0.21790000  0.63610000  1.0 0.1180049977
H  H4  1  0.69670000  0.78210000  0.63610000  1.0 0.1180049977
H  H5  1  0.69670000  0.21790000  0.13610000  1.0 0.1180049977
H  H6  1  0.30330000  0.78210000  0.13610000  1.0 0.1180049977
H  H7  1  0.69670000  0.78210000  0.36390000  1.0 0.1180049977
H  H8  1  0.30330000  0.21790000  0.36390000  1.0 0.1180049977
H  H9  1  0.17140000  0.92090000  0.86410000  1.0 0.1253678961
H  H10  1  0.82860000  0.07910000  0.86410000  1.0 0.1253678961
H  H11  1  0.17140000  0.07910000  0.63590000  1.0 0.1253678961
H  H12  1  0.82860000  0.92090000  0.63590000  1.0 0.1253678961
H  H13  1  0.82860000  0.07910000  0.13590000  1.0 0.1253678961
H  H14  1  0.17140000  0.92090000  0.13590000  1.0 0.1253678961
H  H15  1  0.82860000  0.92090000  0.36410000  1.0 0.1253678961
H  H16  1  0.17140000  0.07910000  0.36410000  1.0 0.1253678961
H  H17  1  0.08940000  0.65560000  0.71960000  1.0 0.1396640292
H  H18  1  0.91060000  0.34440000  0.71960000  1.0 0.1396640292
H  H19  1  0.08940000  0.34440000  0.78040000  1.0 0.1396640292
H  H20  1  0.91060000  0.65560000  0.78040000  1.0 0.1396640292
H  H21  1  0.91060000  0.34440000  0.28040000  1.0 0.1396640292
H  H22  1  0.08940000  0.65560000  0.28040000  1.0 0.1396640292
H  H23  1  0.91060000  0.65560000  0.21960000  1.0 0.1396640292
H  H24  1  0.08940000  0.34440000  0.21960000  1.0 0.1396640292
H  H25  1  0.29070000  0.65040000  0.71920000  1.0 0.1084983474
H  H26  1  0.70930000  0.34960000  0.71920000  1.0 0.1084983474
H  H27  1  0.29070000  0.34960000  0.78080000  1.0 0.1084983474
H  H28  1  0.70930000  0.65040000  0.78080000  1.0 0.1084983474
H  H29  1  0.70930000  0.34960000  0.28080000  1.0 0.1084983474
H  H30  1  0.29070000  0.65040000  0.28080000  1.0 0.1084983474
H  H31  1  0.70930000  0.65040000  0.21920000  1.0 0.1084983474
H  H32  1  0.29070000  0.34960000  0.21920000  1.0 0.1084983474
C  C1  1  0.06490000  0.50000000  0.75000000  1.0 0.1084983474
C  C2  1  0.93510000  0.50000000  0.75000000  1.0 0.1084983474
C  C3  1  0.93510000  0.50000000  0.25000000  1.0 0.1084983474
C  C4  1  0.06490000  0.50000000  0.25000000  1.0 0.1084983474
C  C5  1  0.12814000  0.59222000  0.73187000  1.0 -0.1815032498
C  C6  1  0.87186000  0.40778000  0.73187000  1.0 -0.1815032498
C  C7  1  0.12814000  0.40778000  0.76813000  1.0 -0.1815032498
C  C8  1  0.87186000  0.59222000  0.76813000  1.0 -0.1815032498
C  C9  1  0.87186000  0.40778000  0.26813000  1.0 -0.1815032498
C  C10  1  0.12814000  0.59222000  0.26813000  1.0 -0.1815032498
C  C11  1  0.87186000  0.59222000  0.23187000  1.0 -0.1815032498
C  C12  1  0.12814000  0.40778000  0.23187000  1.0 -0.1815032498
C  C13  1  0.24978000  0.58832000  0.73201000  1.0 0.0953098847
C  C14  1  0.75022000  0.41168000  0.73201000  1.0 0.0953098847
C  C15  1  0.24978000  0.41168000  0.76799000  1.0 0.0953098847
C  C16  1  0.75022000  0.58832000  0.76799000  1.0 0.0953098847
C  C17  1  0.75022000  0.41168000  0.26799000  1.0 0.0953098847
C  C18  1  0.24978000  0.58832000  0.26799000  1.0 0.0953098847
C  C19  1  0.75022000  0.58832000  0.23201000  1.0 0.0953098847
C  C20  1  0.24978000  0.41168000  0.23201000  1.0 0.0953098847
C  C21  1  0.46158000  0.65101000  0.91965000  1.0 0.2994094057
C  C22  1  0.53842000  0.34899000  0.91965000  1.0 0.2994094057
C  C23  1  0.46158000  0.34899000  0.58035000  1.0 0.2994094057
C  C24  1  0.53842000  0.65101000  0.58035000  1.0 0.2994094057
C  C25  1  0.53842000  0.34899000  0.08035000  1.0 0.2994094057
C  C26  1  0.46158000  0.65101000  0.08035000  1.0 0.2994094057
C  C27  1  0.53842000  0.65101000  0.41965000  1.0 0.2994094057
C  C28  1  0.46158000  0.34899000  0.41965000  1.0 0.2994094057
C  C29  1  0.41480000  0.68940000  0.00000000  1.0 -0.2074969844
C  C30  1  0.58520000  0.31060000  0.00000000  1.0 -0.2074969844
C  C31  1  0.41480000  0.31060000  0.50000000  1.0 -0.2074969844
C  C32  1  0.58520000  0.68940000  0.50000000  1.0 -0.2074969844
C  C33  1  0.32360000  0.77000000  0.00000000  1.0 0.1084983474
C  C34  1  0.67640000  0.23000000  0.00000000  1.0 0.1084983474
C  C35  1  0.32360000  0.23000000  0.50000000  1.0 0.1084983474
C  C36  1  0.67640000  0.77000000  0.50000000  1.0 0.1084983474
C  C37  1  0.27930000  0.81110000  0.91867000  1.0 -0.1585623888
C  C38  1  0.72070000  0.18890000  0.91867000  1.0 -0.1585623888
C  C39  1  0.27930000  0.18890000  0.58133000  1.0 -0.1585623888
C  C40  1  0.72070000  0.81110000  0.58133000  1.0 -0.1585623888
C  C41  1  0.72070000  0.18890000  0.08133000  1.0 -0.1585623888
C  C42  1  0.27930000  0.81110000  0.08133000  1.0 -0.1585623888
C  C43  1  0.72070000  0.81110000  0.41867000  1.0 -0.1585623888
C  C44  1  0.27930000  0.18890000  0.41867000  1.0 -0.1585623888
C  C45  1  0.19860000  0.89340000  0.91857000  1.0 -0.1349302517
C  C46  1  0.80140000  0.10660000  0.91857000  1.0 -0.1349302517
C  C47  1  0.19860000  0.10660000  0.58143000  1.0 -0.1349302517
C  C48  1  0.80140000  0.89340000  0.58143000  1.0 -0.1352823065
C  C49  1  0.80140000  0.10660000  0.08143000  1.0 -0.1349302517
C  C50  1  0.19860000  0.89340000  0.08143000  1.0 -0.1349302517
C  C51  1  0.80140000  0.89340000  0.41857000  1.0 -0.1352823065
C  C52  1  0.19860000  0.10660000  0.41857000  1.0 -0.1349302517
C  C53  1  0.15830000  0.93520000  0.00000000  1.0 -0.0027781108
C  C54  1  0.84170000  0.06480000  0.00000000  1.0 -0.0027781108
C  C55  1  0.15830000  0.06480000  0.50000000  1.0 -0.0027781108
C  C56  1  0.84170000  0.93520000  0.50000000  1.0 -0.0027781108
C  C57  1  0.06600000  0.02360000  0.00000000  1.0 0.0360844884
C  C58  1  0.93400000  0.97640000  0.00000000  1.0 0.0360844884
C  C59  1  0.06600000  0.97640000  0.50000000  1.0 0.0360844884
C  C60  1  0.93400000  0.02360000  0.50000000  1.0 0.0360844884
C  C61  1  0.07860000  0.09070000  0.91900000  1.0 0.235671231
C  C62  1  0.92140000  0.90930000  0.91900000  1.0 0.235671231
C  C63  1  0.07860000  0.90930000  0.58100000  1.0 0.235671231
C  C64  1  0.92140000  0.09070000  0.58100000  1.0 0.235671231
C  C65  1  0.92140000  0.90930000  0.08100000  1.0 0.235671231
C  C66  1  0.07860000  0.09070000  0.08100000  1.0 0.235671231
C  C67  1  0.92140000  0.09070000  0.41900000  1.0 0.235671231
C  C68  1  0.07860000  0.90930000  0.41900000  1.0 0.235671231
N  N1  1  0.31030000  0.50000000  0.75000000  1.0 -0.2286858843
N  N2  1  0.68970000  0.50000000  0.75000000  1.0 -0.2286858843
N  N3  1  0.68970000  0.50000000  0.25000000  1.0 -0.2286858843
N  N4  1  0.31030000  0.50000000  0.25000000  1.0 -0.2286858843
N  N5  1  0.49899000  0.62019000  0.85235000  1.0 -0.4274634146
N  N6  1  0.50101000  0.37981000  0.85235000  1.0 -0.4274634146
N  N7  1  0.49899000  0.37981000  0.64765000  1.0 -0.4274634146
N  N8  1  0.50101000  0.62019000  0.64765000  1.0 -0.4274634146
N  N9  1  0.50101000  0.37981000  0.14765000  1.0 -0.4274634146
N  N10  1  0.49899000  0.62019000  0.14765000  1.0 -0.4274634146
N  N11  1  0.50101000  0.62019000  0.35235000  1.0 -0.4274634146
N  N12  1  0.49899000  0.37981000  0.35235000  1.0 -0.4274634146
N  N13  1  0.08920000  0.14080000  0.85530000  1.0 -0.3184030006
N  N14  1  0.91080000  0.85920000  0.85530000  1.0 -0.3184030006
N  N15  1  0.08920000  0.85920000  0.64470000  1.0 -0.3184030006
N  N16  1  0.91080000  0.14080000  0.64470000  1.0 -0.3184030006
N  N17  1  0.91080000  0.85920000  0.14470000  1.0 -0.3184030006
N  N18  1  0.08920000  0.14080000  0.14470000  1.0 -0.3184030006
N  N19  1  0.91080000  0.14080000  0.35530000  1.0 -0.3184030006
N  N20  1  0.08920000  0.85920000  0.35530000  1.0 -0.3184030006
