# DDEC6 charges by PACMAN v1.1 (https://github.com/mtap-research/PACMAN-charge/)
data_MUVJAP_ASR_pacman
_symmetry_space_group_name_H-M   'P 1'
_cell_length_a   9.48900000
_cell_length_b   26.24600000
_cell_length_c   9.89800000
_cell_angle_alpha   90.00000000
_cell_angle_beta   90.00000000
_cell_angle_gamma   90.00000000
_symmetry_Int_Tables_number   1
_chemical_formula_structural   MnReH6C15N2ClO7
_chemical_formula_sum   'Mn4 Re4 H24 C60 N8 Cl4 O28'
_cell_volume   2465.08001401
_cell_formula_units_Z   4
loop_
 _symmetry_equiv_pos_site_id
 _symmetry_equiv_pos_as_xyz
  1  'x, y, z'
loop_
 _atom_site_type_symbol
 _atom_site_label
 _atom_site_symmetry_multiplicity
 _atom_site_fract_x
 _atom_site_fract_y
 _atom_site_fract_z
 _atom_site_occupancy
 _atom_site_charge
Mn  Mn1  1  0.75004000  0.00003000  0.02649000  1.0 1.1981269353
Mn  Mn2  1  0.24996000  0.99997000  0.97351000  1.0 1.1981269353
Mn  Mn3  1  0.74996000  0.50003000  0.47351000  1.0 1.1981269353
Mn  Mn4  1  0.25004000  0.49997000  0.52649000  1.0 1.1981269353
Re  Re1  1  0.74278000  0.24952000  0.25073000  1.0 0.1046612551
Re  Re2  1  0.25722000  0.75048000  0.74927000  1.0 0.1046612551
Re  Re3  1  0.75722000  0.74952000  0.24927000  1.0 0.1046612551
Re  Re4  1  0.24278000  0.25048000  0.75073000  1.0 0.1046612551
H  H1  1  0.20569000  0.21206000  0.20346000  1.0 0.1172316605
H  H2  1  0.79431000  0.78794000  0.79654000  1.0 0.1172316605
H  H3  1  0.29479000  0.78821000  0.20916000  1.0 0.1172316605
H  H4  1  0.70521000  0.21179000  0.79084000  1.0 0.1172316605
H  H5  1  0.29431000  0.71206000  0.29654000  1.0 0.1172316605
H  H6  1  0.70569000  0.28794000  0.70346000  1.0 0.1172316605
H  H7  1  0.20521000  0.28821000  0.29084000  1.0 0.1172316605
H  H8  1  0.79479000  0.71179000  0.70916000  1.0 0.1172316605
H  H9  1  0.22528000  0.12314000  0.12818000  1.0 0.1172316605
H  H10  1  0.77472000  0.87686000  0.87182000  1.0 0.1172316605
H  H11  1  0.27483000  0.87668000  0.12916000  1.0 0.1172316605
H  H12  1  0.72517000  0.12332000  0.87084000  1.0 0.1172316605
H  H13  1  0.27472000  0.62314000  0.37182000  1.0 0.1172316605
H  H14  1  0.72528000  0.37686000  0.62818000  1.0 0.1172316605
H  H15  1  0.22517000  0.37668000  0.37084000  1.0 0.1172316605
H  H16  1  0.77483000  0.62332000  0.62916000  1.0 0.1172316605
H  H17  1  0.67998000  0.13911000  0.14407000  1.0 0.0911809587
H  H18  1  0.32002000  0.86089000  0.85593000  1.0 0.0911809587
H  H19  1  0.82030000  0.86047000  0.14364000  1.0 0.0911809587
H  H20  1  0.17970000  0.13953000  0.85636000  1.0 0.0911809587
H  H21  1  0.82002000  0.63911000  0.35593000  1.0 0.0911809587
H  H22  1  0.17998000  0.36089000  0.64407000  1.0 0.0911809587
H  H23  1  0.67970000  0.36047000  0.35636000  1.0 0.0911809587
H  H24  1  0.32030000  0.63953000  0.64364000  1.0 0.0911809587
C  C1  1  0.43110000  0.22390000  0.22104000  1.0 0.1669994229
C  C2  1  0.56890000  0.77610000  0.77896000  1.0 0.1669994229
C  C3  1  0.06911000  0.77596000  0.22409000  1.0 0.1669994229
C  C4  1  0.93089000  0.22404000  0.77591000  1.0 0.1669994229
C  C5  1  0.06890000  0.72390000  0.27896000  1.0 0.1669994229
C  C6  1  0.93110000  0.27610000  0.72104000  1.0 0.1669994229
C  C7  1  0.43089000  0.27596000  0.27591000  1.0 0.1669994229
C  C8  1  0.56911000  0.72404000  0.72409000  1.0 0.1669994229
C  C9  1  0.88832000  0.29498000  0.30868000  1.0 0.107873029
C  C10  1  0.11168000  0.70502000  0.69132000  1.0 0.107873029
C  C11  1  0.61134000  0.70291000  0.30137000  1.0 0.107873029
C  C12  1  0.38866000  0.29709000  0.69863000  1.0 0.107873029
C  C13  1  0.61168000  0.79498000  0.19132000  1.0 0.107873029
C  C14  1  0.38832000  0.20502000  0.80868000  1.0 0.107873029
C  C15  1  0.88866000  0.20291000  0.19863000  1.0 0.107873029
C  C16  1  0.11134000  0.79709000  0.80137000  1.0 0.107873029
C  C17  1  0.30992000  0.19538000  0.19121000  1.0 -0.1502046427
C  C18  1  0.69008000  0.80462000  0.80879000  1.0 -0.1502046427
C  C19  1  0.19037000  0.80464000  0.19486000  1.0 -0.1502046427
C  C20  1  0.80963000  0.19536000  0.80514000  1.0 -0.1502046427
C  C21  1  0.19008000  0.69538000  0.30879000  1.0 -0.1502046427
C  C22  1  0.80992000  0.30462000  0.69121000  1.0 -0.1502046427
C  C23  1  0.30963000  0.30464000  0.30514000  1.0 -0.1502046427
C  C24  1  0.69037000  0.69536000  0.69486000  1.0 -0.1502046427
C  C25  1  0.74966000  0.28178000  0.07773000  1.0 0.107873029
C  C26  1  0.25034000  0.71822000  0.92227000  1.0 0.107873029
C  C27  1  0.75034000  0.78178000  0.42227000  1.0 0.107873029
C  C28  1  0.24966000  0.21822000  0.57773000  1.0 0.107873029
C  C29  1  0.32158000  0.14494000  0.14811000  1.0 -0.0405970394
C  C30  1  0.67842000  0.85506000  0.85189000  1.0 -0.0405970394
C  C31  1  0.17867000  0.85485000  0.14968000  1.0 -0.0405970394
C  C32  1  0.82133000  0.14515000  0.85032000  1.0 -0.0405970394
C  C33  1  0.17842000  0.64494000  0.35189000  1.0 -0.0405970394
C  C34  1  0.82158000  0.35506000  0.64811000  1.0 -0.0405970394
C  C35  1  0.32133000  0.35485000  0.35032000  1.0 -0.0405970394
C  C36  1  0.67867000  0.64515000  0.64968000  1.0 -0.0405970394
C  C37  1  0.45685000  0.12286000  0.13176000  1.0 -0.0925478219
C  C38  1  0.54315000  0.87714000  0.86824000  1.0 -0.0925478219
C  C39  1  0.04337000  0.87688000  0.13208000  1.0 -0.0925478219
C  C40  1  0.95663000  0.12312000  0.86792000  1.0 -0.0925478219
C  C41  1  0.04315000  0.62286000  0.36824000  1.0 -0.0925478219
C  C42  1  0.95685000  0.37714000  0.63176000  1.0 -0.0925478219
C  C43  1  0.45663000  0.37688000  0.36792000  1.0 -0.0925478219
C  C44  1  0.54337000  0.62312000  0.63208000  1.0 -0.0925478219
C  C45  1  0.57339000  0.15398000  0.15756000  1.0 0.0758489658
C  C46  1  0.42661000  0.84602000  0.84244000  1.0 0.0758489658
C  C47  1  0.92694000  0.84571000  0.15830000  1.0 0.0725798206
C  C48  1  0.07306000  0.15429000  0.84170000  1.0 0.0725798206
C  C49  1  0.92661000  0.65398000  0.34244000  1.0 0.0758489658
C  C50  1  0.07339000  0.34602000  0.65756000  1.0 0.0758489658
C  C51  1  0.57306000  0.34571000  0.34170000  1.0 0.0725798206
C  C52  1  0.42694000  0.65429000  0.65830000  1.0 0.0725798206
C  C53  1  0.47628000  0.06924000  0.08351000  1.0 0.6150367492
C  C54  1  0.52372000  0.93076000  0.91649000  1.0 0.6150367492
C  C55  1  0.02386000  0.93052000  0.08333000  1.0 0.6134907686
C  C56  1  0.97614000  0.06948000  0.91667000  1.0 0.6134907686
C  C57  1  0.02372000  0.56924000  0.41649000  1.0 0.6150367492
C  C58  1  0.97628000  0.43076000  0.58351000  1.0 0.6150367492
C  C59  1  0.47614000  0.43052000  0.41667000  1.0 0.6134907686
C  C60  1  0.52386000  0.56948000  0.58333000  1.0 0.6134907686
N  N1  1  0.56220000  0.20282000  0.19973000  1.0 -0.1198411743
N  N2  1  0.43780000  0.79718000  0.80027000  1.0 -0.1198411743
N  N3  1  0.93802000  0.79700000  0.20181000  1.0 -0.1198411743
N  N4  1  0.06198000  0.20300000  0.79819000  1.0 -0.1198411743
N  N5  1  0.93780000  0.70282000  0.30027000  1.0 -0.1198411743
N  N6  1  0.06220000  0.29718000  0.69973000  1.0 -0.1198411743
N  N7  1  0.56198000  0.29700000  0.29819000  1.0 -0.1198411743
N  N8  1  0.43802000  0.70300000  0.70181000  1.0 -0.1198411743
Cl  Cl1  1  0.70360000  0.21110000  0.47581000  1.0 -0.3311500317
Cl  Cl2  1  0.29640000  0.78890000  0.52419000  1.0 -0.3311500317
Cl  Cl3  1  0.79640000  0.71110000  0.02419000  1.0 -0.3311500317
Cl  Cl4  1  0.20360000  0.28890000  0.97581000  1.0 -0.3311500317
O  O1  1  0.60054000  0.05092000  0.05997000  1.0 -0.5909778169
O  O2  1  0.39946000  0.94908000  0.94003000  1.0 -0.5909778169
O  O3  1  0.89959000  0.94887000  0.06006000  1.0 -0.5909778169
O  O4  1  0.10041000  0.05113000  0.93994000  1.0 -0.5909778169
O  O5  1  0.89946000  0.55092000  0.44003000  1.0 -0.5909778169
O  O6  1  0.10054000  0.44908000  0.55997000  1.0 -0.5909778169
O  O7  1  0.60041000  0.44887000  0.43994000  1.0 -0.5909778169
O  O8  1  0.39959000  0.55113000  0.56006000  1.0 -0.5909778169
O  O9  1  0.97785000  0.32388000  0.34035000  1.0 -0.2056441969
O  O10  1  0.02215000  0.67612000  0.65965000  1.0 -0.1994507677
O  O11  1  0.52245000  0.67483000  0.33719000  1.0 -0.1994507677
O  O12  1  0.47755000  0.32517000  0.66281000  1.0 -0.1994507677
O  O13  1  0.52215000  0.82388000  0.15965000  1.0 -0.1994507677
O  O14  1  0.47785000  0.17612000  0.84035000  1.0 -0.2056441969
O  O15  1  0.97755000  0.17483000  0.16281000  1.0 -0.1994507677
O  O16  1  0.02245000  0.82517000  0.83719000  1.0 -0.1994507677
O  O17  1  0.35550000  0.04638000  0.06670000  1.0 -0.5481000907
O  O18  1  0.64450000  0.95362000  0.93330000  1.0 -0.5481000907
O  O19  1  0.14458000  0.95337000  0.06647000  1.0 -0.5481000907
O  O20  1  0.85542000  0.04663000  0.93353000  1.0 -0.5481000907
O  O21  1  0.14450000  0.54638000  0.43330000  1.0 -0.5481000907
O  O22  1  0.85550000  0.45362000  0.56670000  1.0 -0.5481000907
O  O23  1  0.35542000  0.45337000  0.43353000  1.0 -0.5481000907
O  O24  1  0.64458000  0.54663000  0.56647000  1.0 -0.5481000907
O  O25  1  0.74914000  0.30380000  0.97500000  1.0 -0.1709655328
O  O26  1  0.25086000  0.69620000  0.02500000  1.0 -0.1709655328
O  O27  1  0.75086000  0.80380000  0.52500000  1.0 -0.1709655328
O  O28  1  0.24914000  0.19620000  0.47500000  1.0 -0.1709655328
