# DDEC6 charges by PACMAN v1.1 (https://github.com/mtap-research/PACMAN-charge/)
data_MUWQEB_ASR_pacman
_symmetry_space_group_name_H-M   'P 1'
_cell_length_a   18.82350000
_cell_length_b   18.82350000
_cell_length_c   18.82350000
_cell_angle_alpha   90.00000000
_cell_angle_beta   90.00000000
_cell_angle_gamma   90.00000000
_symmetry_Int_Tables_number   1
_chemical_formula_structural   Fe4H8C24N32Cl
_chemical_formula_sum   'Fe12 H24 C72 N96 Cl3'
_cell_volume   6669.62067988
_cell_formula_units_Z   3
loop_
 _symmetry_equiv_pos_site_id
 _symmetry_equiv_pos_as_xyz
  1  'x, y, z'
loop_
 _atom_site_type_symbol
 _atom_site_label
 _atom_site_symmetry_multiplicity
 _atom_site_fract_x
 _atom_site_fract_y
 _atom_site_fract_z
 _atom_site_occupancy
 _atom_site_charge
Fe  Fe1  1  0.85929000  0.00000000  0.50000000  1.0 0.4965570447
Fe  Fe2  1  0.14071000  0.00000000  0.50000000  1.0 0.4943497423
Fe  Fe3  1  0.50000000  0.85929000  0.00000000  1.0 0.4965570447
Fe  Fe4  1  0.50000000  0.14071000  0.00000000  1.0 0.4943497423
Fe  Fe5  1  0.00000000  0.50000000  0.85929000  1.0 0.4943497423
Fe  Fe6  1  0.00000000  0.50000000  0.14071000  1.0 0.4943497423
Fe  Fe7  1  0.00000000  0.85929000  0.50000000  1.0 0.4943497423
Fe  Fe8  1  0.00000000  0.14071000  0.50000000  1.0 0.4943497423
Fe  Fe9  1  0.85929000  0.50000000  0.00000000  1.0 0.4965570447
Fe  Fe10  1  0.14071000  0.50000000  0.00000000  1.0 0.4943497423
Fe  Fe11  1  0.50000000  0.00000000  0.14071000  1.0 0.4943497423
Fe  Fe12  1  0.50000000  0.00000000  0.85929000  1.0 0.4943497423
H  H1  1  0.89190000  0.73930000  0.26070000  1.0 0.1329378115
H  H2  1  0.10810000  0.26070000  0.26070000  1.0 0.1329378115
H  H3  1  0.10810000  0.73930000  0.73930000  1.0 0.1329378115
H  H4  1  0.89190000  0.26070000  0.73930000  1.0 0.1329378115
H  H5  1  0.26070000  0.89190000  0.73930000  1.0 0.1329378115
H  H6  1  0.26070000  0.10810000  0.26070000  1.0 0.1329378115
H  H7  1  0.73930000  0.10810000  0.73930000  1.0 0.1329378115
H  H8  1  0.73930000  0.89190000  0.26070000  1.0 0.1329378115
H  H9  1  0.73930000  0.26070000  0.89190000  1.0 0.1329378115
H  H10  1  0.26070000  0.26070000  0.10810000  1.0 0.1329378115
H  H11  1  0.73930000  0.73930000  0.10810000  1.0 0.1329378115
H  H12  1  0.26070000  0.73930000  0.89190000  1.0 0.1329378115
H  H13  1  0.73930000  0.89190000  0.73930000  1.0 0.1329378115
H  H14  1  0.26070000  0.10810000  0.73930000  1.0 0.1329378115
H  H15  1  0.73930000  0.10810000  0.26070000  1.0 0.1329378115
H  H16  1  0.26070000  0.89190000  0.26070000  1.0 0.1329378115
H  H17  1  0.89190000  0.26070000  0.26070000  1.0 0.1329378115
H  H18  1  0.10810000  0.26070000  0.73930000  1.0 0.1329378115
H  H19  1  0.10810000  0.73930000  0.26070000  1.0 0.1329378115
H  H20  1  0.89190000  0.73930000  0.73930000  1.0 0.1329378115
H  H21  1  0.26070000  0.73930000  0.10810000  1.0 0.1329378115
H  H22  1  0.26070000  0.26070000  0.89190000  1.0 0.1329378115
H  H23  1  0.73930000  0.73930000  0.89190000  1.0 0.1329378115
H  H24  1  0.73930000  0.26070000  0.10810000  1.0 0.1329378115
C  C1  1  0.85044000  0.75969000  0.24031000  1.0 -0.1098660738
C  C2  1  0.14956000  0.24031000  0.24031000  1.0 -0.1098660738
C  C3  1  0.14956000  0.75969000  0.75969000  1.0 -0.1098660738
C  C4  1  0.85044000  0.24031000  0.75969000  1.0 -0.1098660738
C  C5  1  0.24031000  0.85044000  0.75969000  1.0 -0.1098660738
C  C6  1  0.24031000  0.14956000  0.24031000  1.0 -0.1098660738
C  C7  1  0.75969000  0.14956000  0.75969000  1.0 -0.1098660738
C  C8  1  0.75969000  0.85044000  0.24031000  1.0 -0.1098660738
C  C9  1  0.75969000  0.24031000  0.85044000  1.0 -0.1098660738
C  C10  1  0.24031000  0.24031000  0.14956000  1.0 -0.1098660738
C  C11  1  0.75969000  0.75969000  0.14956000  1.0 -0.1098660738
C  C12  1  0.24031000  0.75969000  0.85044000  1.0 -0.1098660738
C  C13  1  0.75969000  0.85044000  0.75969000  1.0 -0.1098660738
C  C14  1  0.24031000  0.14956000  0.75969000  1.0 -0.1098660738
C  C15  1  0.75969000  0.14956000  0.24031000  1.0 -0.1098660738
C  C16  1  0.24031000  0.85044000  0.24031000  1.0 -0.1098660738
C  C17  1  0.85044000  0.24031000  0.24031000  1.0 -0.1098660738
C  C18  1  0.14956000  0.24031000  0.75969000  1.0 -0.1098660738
C  C19  1  0.14956000  0.75969000  0.24031000  1.0 -0.1098660738
C  C20  1  0.85044000  0.75969000  0.75969000  1.0 -0.1098660738
C  C21  1  0.24031000  0.75969000  0.14956000  1.0 -0.1098660738
C  C22  1  0.24031000  0.24031000  0.85044000  1.0 -0.1098660738
C  C23  1  0.75969000  0.75969000  0.85044000  1.0 -0.1098660738
C  C24  1  0.75969000  0.24031000  0.14956000  1.0 -0.1098660738
C  C25  1  0.85119000  0.85119000  0.33428000  1.0 0.2388124753
C  C26  1  0.14881000  0.14881000  0.33428000  1.0 0.2388124753
C  C27  1  0.14881000  0.85119000  0.66572000  1.0 0.2388124753
C  C28  1  0.85119000  0.14881000  0.66572000  1.0 0.2388124753
C  C29  1  0.33428000  0.85119000  0.85119000  1.0 0.2388124753
C  C30  1  0.33428000  0.14881000  0.14881000  1.0 0.2388124753
C  C31  1  0.66572000  0.14881000  0.85119000  1.0 0.2388124753
C  C32  1  0.66572000  0.85119000  0.14881000  1.0 0.2388124753
C  C33  1  0.85119000  0.33428000  0.85119000  1.0 0.2388124753
C  C34  1  0.14881000  0.33428000  0.14881000  1.0 0.2388124753
C  C35  1  0.85119000  0.66572000  0.14881000  1.0 0.2388124753
C  C36  1  0.14881000  0.66572000  0.85119000  1.0 0.2388124753
C  C37  1  0.85119000  0.85119000  0.66572000  1.0 0.2388124753
C  C38  1  0.14881000  0.14881000  0.66572000  1.0 0.2388124753
C  C39  1  0.85119000  0.14881000  0.33428000  1.0 0.2388124753
C  C40  1  0.14881000  0.85119000  0.33428000  1.0 0.2388124753
C  C41  1  0.85119000  0.33428000  0.14881000  1.0 0.2388124753
C  C42  1  0.14881000  0.33428000  0.85119000  1.0 0.2388124753
C  C43  1  0.14881000  0.66572000  0.14881000  1.0 0.2388124753
C  C44  1  0.85119000  0.66572000  0.85119000  1.0 0.2388124753
C  C45  1  0.33428000  0.85119000  0.14881000  1.0 0.2388124753
C  C46  1  0.33428000  0.14881000  0.85119000  1.0 0.2388124753
C  C47  1  0.66572000  0.85119000  0.85119000  1.0 0.2388124753
C  C48  1  0.66572000  0.14881000  0.14881000  1.0 0.2388124753
C  C49  1  0.81997000  0.81997000  0.27058000  1.0 0.0404025746
C  C50  1  0.18003000  0.18003000  0.27058000  1.0 0.0404025746
C  C51  1  0.18003000  0.81997000  0.72942000  1.0 0.0404025746
C  C52  1  0.81997000  0.18003000  0.72942000  1.0 0.0404025746
C  C53  1  0.27058000  0.81997000  0.81997000  1.0 0.0404025746
C  C54  1  0.27058000  0.18003000  0.18003000  1.0 0.0404025746
C  C55  1  0.72942000  0.18003000  0.81997000  1.0 0.0404025746
C  C56  1  0.72942000  0.81997000  0.18003000  1.0 0.0404025746
C  C57  1  0.81997000  0.27058000  0.81997000  1.0 0.0404025746
C  C58  1  0.18003000  0.27058000  0.18003000  1.0 0.0404025746
C  C59  1  0.81997000  0.72942000  0.18003000  1.0 0.0404025746
C  C60  1  0.18003000  0.72942000  0.81997000  1.0 0.0404025746
C  C61  1  0.81997000  0.81997000  0.72942000  1.0 0.0404025746
C  C62  1  0.18003000  0.18003000  0.72942000  1.0 0.0404025746
C  C63  1  0.81997000  0.18003000  0.27058000  1.0 0.0404025746
C  C64  1  0.18003000  0.81997000  0.27058000  1.0 0.0404025746
C  C65  1  0.81997000  0.27058000  0.18003000  1.0 0.0404025746
C  C66  1  0.18003000  0.27058000  0.81997000  1.0 0.0404025746
C  C67  1  0.18003000  0.72942000  0.18003000  1.0 0.0404025746
C  C68  1  0.81997000  0.72942000  0.81997000  1.0 0.0404025746
C  C69  1  0.27058000  0.81997000  0.18003000  1.0 0.0404025746
C  C70  1  0.27058000  0.18003000  0.81997000  1.0 0.0404025746
C  C71  1  0.72942000  0.81997000  0.81997000  1.0 0.0404025746
C  C72  1  0.72942000  0.18003000  0.18003000  1.0 0.0404025746
N  N1  1  0.86917000  0.91871000  0.42169000  1.0 -0.009850707
N  N2  1  0.13083000  0.08129000  0.42169000  1.0 -0.009850707
N  N3  1  0.13083000  0.91871000  0.57831000  1.0 -0.009850707
N  N4  1  0.86917000  0.08129000  0.57831000  1.0 -0.009850707
N  N5  1  0.42169000  0.86917000  0.91871000  1.0 -0.009850707
N  N6  1  0.42169000  0.13083000  0.08129000  1.0 -0.009850707
N  N7  1  0.57831000  0.13083000  0.91871000  1.0 -0.009850707
N  N8  1  0.57831000  0.86917000  0.08129000  1.0 -0.009850707
N  N9  1  0.91871000  0.42169000  0.86917000  1.0 -0.009850707
N  N10  1  0.08129000  0.42169000  0.13083000  1.0 -0.009850707
N  N11  1  0.91871000  0.57831000  0.13083000  1.0 -0.009850707
N  N12  1  0.08129000  0.57831000  0.86917000  1.0 -0.009850707
N  N13  1  0.91871000  0.86917000  0.57831000  1.0 -0.009850707
N  N14  1  0.08129000  0.13083000  0.57831000  1.0 -0.009850707
N  N15  1  0.91871000  0.13083000  0.42169000  1.0 -0.009850707
N  N16  1  0.08129000  0.86917000  0.42169000  1.0 -0.009850707
N  N17  1  0.86917000  0.42169000  0.08129000  1.0 -0.009850707
N  N18  1  0.13083000  0.42169000  0.91871000  1.0 -0.009850707
N  N19  1  0.13083000  0.57831000  0.08129000  1.0 -0.009850707
N  N20  1  0.86917000  0.57831000  0.91871000  1.0 -0.009850707
N  N21  1  0.42169000  0.91871000  0.13083000  1.0 -0.009850707
N  N22  1  0.42169000  0.08129000  0.86917000  1.0 -0.009850707
N  N23  1  0.57831000  0.91871000  0.86917000  1.0 -0.009850707
N  N24  1  0.57831000  0.08129000  0.13083000  1.0 -0.009850707
N  N25  1  0.13083000  0.08129000  0.57831000  1.0 -0.009850707
N  N26  1  0.86917000  0.91871000  0.57831000  1.0 -0.009850707
N  N27  1  0.86917000  0.08129000  0.42169000  1.0 -0.009850707
N  N28  1  0.13083000  0.91871000  0.42169000  1.0 -0.009850707
N  N29  1  0.57831000  0.13083000  0.08129000  1.0 -0.009850707
N  N30  1  0.57831000  0.86917000  0.91871000  1.0 -0.009850707
N  N31  1  0.42169000  0.86917000  0.08129000  1.0 -0.009850707
N  N32  1  0.42169000  0.13083000  0.91871000  1.0 -0.009850707
N  N33  1  0.08129000  0.57831000  0.13083000  1.0 -0.009850707
N  N34  1  0.91871000  0.57831000  0.86917000  1.0 -0.009850707
N  N35  1  0.08129000  0.42169000  0.86917000  1.0 -0.009850707
N  N36  1  0.91871000  0.42169000  0.13083000  1.0 -0.009850707
N  N37  1  0.08129000  0.13083000  0.42169000  1.0 -0.009850707
N  N38  1  0.91871000  0.86917000  0.42169000  1.0 -0.009850707
N  N39  1  0.08129000  0.86917000  0.57831000  1.0 -0.009850707
N  N40  1  0.91871000  0.13083000  0.57831000  1.0 -0.009850707
N  N41  1  0.13083000  0.57831000  0.91871000  1.0 -0.009850707
N  N42  1  0.86917000  0.57831000  0.08129000  1.0 -0.009850707
N  N43  1  0.86917000  0.42169000  0.91871000  1.0 -0.009850707
N  N44  1  0.13083000  0.42169000  0.08129000  1.0 -0.009850707
N  N45  1  0.57831000  0.08129000  0.86917000  1.0 -0.009850707
N  N46  1  0.57831000  0.91871000  0.13083000  1.0 -0.009850707
N  N47  1  0.42169000  0.08129000  0.13083000  1.0 -0.009850707
N  N48  1  0.42169000  0.91871000  0.86917000  1.0 -0.009850707
N  N49  1  0.82542000  0.90875000  0.36667000  1.0 -0.2380738008
N  N50  1  0.17458000  0.09125000  0.36667000  1.0 -0.2380738008
N  N51  1  0.17458000  0.90875000  0.63333000  1.0 -0.2380738008
N  N52  1  0.82542000  0.09125000  0.63333000  1.0 -0.2380738008
N  N53  1  0.36667000  0.82542000  0.90875000  1.0 -0.2380738008
N  N54  1  0.36667000  0.17458000  0.09125000  1.0 -0.2380738008
N  N55  1  0.63333000  0.17458000  0.90875000  1.0 -0.2380738008
N  N56  1  0.63333000  0.82542000  0.09125000  1.0 -0.2380738008
N  N57  1  0.90875000  0.36667000  0.82542000  1.0 -0.2380738008
N  N58  1  0.09125000  0.36667000  0.17458000  1.0 -0.2380738008
N  N59  1  0.90875000  0.63333000  0.17458000  1.0 -0.2380738008
N  N60  1  0.09125000  0.63333000  0.82542000  1.0 -0.2380738008
N  N61  1  0.90875000  0.82542000  0.63333000  1.0 -0.2380738008
N  N62  1  0.09125000  0.17458000  0.63333000  1.0 -0.2380738008
N  N63  1  0.90875000  0.17458000  0.36667000  1.0 -0.2380738008
N  N64  1  0.09125000  0.82542000  0.36667000  1.0 -0.2380738008
N  N65  1  0.82542000  0.36667000  0.09125000  1.0 -0.2380738008
N  N66  1  0.17458000  0.36667000  0.90875000  1.0 -0.2380738008
N  N67  1  0.17458000  0.63333000  0.09125000  1.0 -0.2380738008
N  N68  1  0.82542000  0.63333000  0.90875000  1.0 -0.2380738008
N  N69  1  0.36667000  0.90875000  0.17458000  1.0 -0.2380738008
N  N70  1  0.36667000  0.09125000  0.82542000  1.0 -0.2380738008
N  N71  1  0.63333000  0.90875000  0.82542000  1.0 -0.2380738008
N  N72  1  0.63333000  0.09125000  0.17458000  1.0 -0.2380738008
N  N73  1  0.17458000  0.09125000  0.63333000  1.0 -0.2380738008
N  N74  1  0.82542000  0.90875000  0.63333000  1.0 -0.2380738008
N  N75  1  0.82542000  0.09125000  0.36667000  1.0 -0.2380738008
N  N76  1  0.17458000  0.90875000  0.36667000  1.0 -0.2380738008
N  N77  1  0.63333000  0.17458000  0.09125000  1.0 -0.2380738008
N  N78  1  0.63333000  0.82542000  0.90875000  1.0 -0.2380738008
N  N79  1  0.36667000  0.82542000  0.09125000  1.0 -0.2380738008
N  N80  1  0.36667000  0.17458000  0.90875000  1.0 -0.2380738008
N  N81  1  0.09125000  0.63333000  0.17458000  1.0 -0.2380738008
N  N82  1  0.90875000  0.63333000  0.82542000  1.0 -0.2380738008
N  N83  1  0.09125000  0.36667000  0.82542000  1.0 -0.2380738008
N  N84  1  0.90875000  0.36667000  0.17458000  1.0 -0.2380738008
N  N85  1  0.09125000  0.17458000  0.36667000  1.0 -0.2380738008
N  N86  1  0.90875000  0.82542000  0.36667000  1.0 -0.2380738008
N  N87  1  0.09125000  0.82542000  0.63333000  1.0 -0.2380738008
N  N88  1  0.90875000  0.17458000  0.63333000  1.0 -0.2380738008
N  N89  1  0.17458000  0.63333000  0.90875000  1.0 -0.2380738008
N  N90  1  0.82542000  0.63333000  0.09125000  1.0 -0.2380738008
N  N91  1  0.82542000  0.36667000  0.90875000  1.0 -0.2380738008
N  N92  1  0.17458000  0.36667000  0.09125000  1.0 -0.2380738008
N  N93  1  0.63333000  0.09125000  0.82542000  1.0 -0.2380738008
N  N94  1  0.63333000  0.90875000  0.17458000  1.0 -0.2380738008
N  N95  1  0.36667000  0.09125000  0.17458000  1.0 -0.2380738008
N  N96  1  0.36667000  0.90875000  0.82542000  1.0 -0.2380738008
Cl  Cl1  1  0.00000000  0.00000000  0.50000000  1.0 -0.4311084472
Cl  Cl2  1  0.50000000  0.00000000  0.00000000  1.0 -0.4311084472
Cl  Cl3  1  0.00000000  0.50000000  0.00000000  1.0 -0.4311084472
