# DDEC6 charges by PACMAN v1.1 (https://github.com/mtap-research/PACMAN-charge/)
data_MUWRIH_ASR_pacman
_symmetry_space_group_name_H-M   'P 1'
_cell_length_a   33.21320000
_cell_length_b   33.21320000
_cell_length_c   33.21320000
_cell_angle_alpha   109.47100000
_cell_angle_beta   109.47100000
_cell_angle_gamma   109.47100000
_symmetry_Int_Tables_number   1
_chemical_formula_structural   Sm3H29C61N3O20
_chemical_formula_sum   'Sm36 H348 C732 N36 O240'
_cell_volume   28204.20215956
_cell_formula_units_Z   12
loop_
 _symmetry_equiv_pos_site_id
 _symmetry_equiv_pos_as_xyz
  1  'x, y, z'
loop_
 _atom_site_type_symbol
 _atom_site_label
 _atom_site_symmetry_multiplicity
 _atom_site_fract_x
 _atom_site_fract_y
 _atom_site_fract_z
 _atom_site_occupancy
 _atom_site_charge
Sm  Sm1  1  0.18572000  0.49514000  0.30942000  1.0 2.0489789878
Sm  Sm2  1  0.18572000  0.87630000  0.69058000  1.0 2.0489789878
Sm  Sm3  1  0.81428000  0.50486000  0.69058000  1.0 2.0489789878
Sm  Sm4  1  0.81428000  0.12370000  0.30942000  1.0 2.0489789878
Sm  Sm5  1  0.30942000  0.18572000  0.49514000  1.0 2.0489789878
Sm  Sm6  1  0.69058000  0.18572000  0.87630000  1.0 2.0489789878
Sm  Sm7  1  0.69058000  0.81428000  0.50486000  1.0 2.0489789878
Sm  Sm8  1  0.30942000  0.81428000  0.12370000  1.0 2.0489789878
Sm  Sm9  1  0.49514000  0.30942000  0.18572000  1.0 2.0489789878
Sm  Sm10  1  0.87630000  0.69058000  0.18572000  1.0 2.0489789878
Sm  Sm11  1  0.50486000  0.69058000  0.81428000  1.0 2.0489789878
Sm  Sm12  1  0.12370000  0.30942000  0.81428000  1.0 2.0489789878
Sm  Sm13  1  0.33223000  0.50026000  0.34583000  1.0 2.0429729754
Sm  Sm14  1  0.15443000  0.98640000  0.65417000  1.0 2.0429729754
Sm  Sm15  1  0.84557000  0.49974000  0.83197000  1.0 2.0429729754
Sm  Sm16  1  0.66777000  0.01360000  0.16803000  1.0 2.0429729754
Sm  Sm17  1  0.34583000  0.33223000  0.50026000  1.0 2.0429729754
Sm  Sm18  1  0.65417000  0.15443000  0.98640000  1.0 2.0429729754
Sm  Sm19  1  0.83197000  0.84557000  0.49974000  1.0 2.0429729754
Sm  Sm20  1  0.16803000  0.66777000  0.01360000  1.0 2.0429729754
Sm  Sm21  1  0.50026000  0.34583000  0.33223000  1.0 2.0429729754
Sm  Sm22  1  0.98640000  0.65417000  0.15443000  1.0 2.0429729754
Sm  Sm23  1  0.49974000  0.83197000  0.84557000  1.0 2.0429729754
Sm  Sm24  1  0.01360000  0.16803000  0.66777000  1.0 2.0429729754
Sm  Sm25  1  0.66777000  0.49974000  0.65417000  1.0 2.0429729754
Sm  Sm26  1  0.84557000  0.01360000  0.34583000  1.0 2.0429729754
Sm  Sm27  1  0.15443000  0.50026000  0.16803000  1.0 2.0429729754
Sm  Sm28  1  0.33223000  0.98640000  0.83197000  1.0 2.0429729754
Sm  Sm29  1  0.65417000  0.66777000  0.49974000  1.0 2.0429729754
Sm  Sm30  1  0.34583000  0.84557000  0.01360000  1.0 2.0429729754
Sm  Sm31  1  0.16803000  0.15443000  0.50026000  1.0 2.0429729754
Sm  Sm32  1  0.83197000  0.33223000  0.98640000  1.0 2.0429729754
Sm  Sm33  1  0.49974000  0.65417000  0.66777000  1.0 2.0429729754
Sm  Sm34  1  0.01360000  0.34583000  0.84557000  1.0 2.0429729754
Sm  Sm35  1  0.50026000  0.16803000  0.15443000  1.0 2.0429729754
Sm  Sm36  1  0.98640000  0.83197000  0.33223000  1.0 2.0429729754
H  H1  1  0.37660000  0.59670000  0.49310000  1.0 0.1410364497
H  H2  1  0.10360000  0.88350000  0.50690000  1.0 0.1410364497
H  H3  1  0.89640000  0.40330000  0.77990000  1.0 0.1410364497
H  H4  1  0.62340000  0.11650000  0.22010000  1.0 0.1410364497
H  H5  1  0.49310000  0.37660000  0.59670000  1.0 0.1410364497
H  H6  1  0.50690000  0.10360000  0.88350000  1.0 0.1410364497
H  H7  1  0.77990000  0.89640000  0.40330000  1.0 0.1410364497
H  H8  1  0.22010000  0.62340000  0.11650000  1.0 0.1410364497
H  H9  1  0.59670000  0.49310000  0.37660000  1.0 0.1410364497
H  H10  1  0.88350000  0.50690000  0.10360000  1.0 0.1410364497
H  H11  1  0.40330000  0.77990000  0.89640000  1.0 0.1410364497
H  H12  1  0.11650000  0.22010000  0.62340000  1.0 0.1410364497
H  H13  1  0.62340000  0.40330000  0.50690000  1.0 0.1410364497
H  H14  1  0.89640000  0.11650000  0.49310000  1.0 0.1410364497
H  H15  1  0.10360000  0.59670000  0.22010000  1.0 0.1410364497
H  H16  1  0.37660000  0.88350000  0.77990000  1.0 0.1410364497
H  H17  1  0.50690000  0.62340000  0.40330000  1.0 0.1410364497
H  H18  1  0.49310000  0.89640000  0.11650000  1.0 0.1410364497
H  H19  1  0.22010000  0.10360000  0.59670000  1.0 0.1410364497
H  H20  1  0.77990000  0.37660000  0.88350000  1.0 0.1410364497
H  H21  1  0.40330000  0.50690000  0.62340000  1.0 0.1410364497
H  H22  1  0.11650000  0.49310000  0.89640000  1.0 0.1410364497
H  H23  1  0.59670000  0.22010000  0.10360000  1.0 0.1410364497
H  H24  1  0.88350000  0.77990000  0.37660000  1.0 0.1410364497
H  H25  1  0.35210000  0.66120000  0.60130000  1.0 0.1203601876
H  H26  1  0.05990000  0.75080000  0.39870000  1.0 0.1203601876
H  H27  1  0.94010000  0.33880000  0.69090000  1.0 0.1203601876
H  H28  1  0.64790000  0.24920000  0.30910000  1.0 0.1203601876
H  H29  1  0.60130000  0.35210000  0.66120000  1.0 0.1203601876
H  H30  1  0.39870000  0.05990000  0.75080000  1.0 0.1203601876
H  H31  1  0.69090000  0.94010000  0.33880000  1.0 0.1203601876
H  H32  1  0.30910000  0.64790000  0.24920000  1.0 0.1203601876
H  H33  1  0.66120000  0.60130000  0.35210000  1.0 0.1203601876
H  H34  1  0.75080000  0.39870000  0.05990000  1.0 0.1203601876
H  H35  1  0.33880000  0.69090000  0.94010000  1.0 0.1203601876
H  H36  1  0.24920000  0.30910000  0.64790000  1.0 0.1203601876
H  H37  1  0.64790000  0.33880000  0.39870000  1.0 0.1203601876
H  H38  1  0.94010000  0.24920000  0.60130000  1.0 0.1203601876
H  H39  1  0.05990000  0.66120000  0.30910000  1.0 0.1203601876
H  H40  1  0.35210000  0.75080000  0.69090000  1.0 0.1203601876
H  H41  1  0.39870000  0.64790000  0.33880000  1.0 0.1203601876
H  H42  1  0.60130000  0.94010000  0.24920000  1.0 0.1203601876
H  H43  1  0.30910000  0.05990000  0.66120000  1.0 0.1203601876
H  H44  1  0.69090000  0.35210000  0.75080000  1.0 0.1203601876
H  H45  1  0.33880000  0.39870000  0.64790000  1.0 0.1203601876
H  H46  1  0.24920000  0.60130000  0.94010000  1.0 0.1203601876
H  H47  1  0.66120000  0.30910000  0.05990000  1.0 0.1203601876
H  H48  1  0.75080000  0.69090000  0.35210000  1.0 0.1203601876
H  H49  1  0.25240000  0.60430000  0.45990000  1.0 0.1299800828
H  H50  1  0.14440000  0.79250000  0.54010000  1.0 0.1203601876
H  H51  1  0.85560000  0.39570000  0.64810000  1.0 0.1299800828
H  H52  1  0.74760000  0.20750000  0.35190000  1.0 0.1299800828
H  H53  1  0.45990000  0.25240000  0.60430000  1.0 0.1299800828
H  H54  1  0.54010000  0.14440000  0.79250000  1.0 0.1299800828
H  H55  1  0.64810000  0.85560000  0.39570000  1.0 0.1203601876
H  H56  1  0.35190000  0.74760000  0.20750000  1.0 0.1203601876
H  H57  1  0.60430000  0.45990000  0.25240000  1.0 0.1203601876
H  H58  1  0.79250000  0.54010000  0.14440000  1.0 0.1203601876
H  H59  1  0.39570000  0.64810000  0.85560000  1.0 0.1299800828
H  H60  1  0.20750000  0.35190000  0.74760000  1.0 0.1299800828
H  H61  1  0.74760000  0.39570000  0.54010000  1.0 0.1299800828
H  H62  1  0.85560000  0.20750000  0.45990000  1.0 0.1299800828
H  H63  1  0.14440000  0.60430000  0.35190000  1.0 0.1203601876
H  H64  1  0.25240000  0.79250000  0.64810000  1.0 0.1299800828
H  H65  1  0.54010000  0.74760000  0.39570000  1.0 0.1203601876
H  H66  1  0.45990000  0.85560000  0.20750000  1.0 0.1203601876
H  H67  1  0.35190000  0.14440000  0.60430000  1.0 0.1299800828
H  H68  1  0.64810000  0.25240000  0.79250000  1.0 0.1299800828
H  H69  1  0.39570000  0.54010000  0.74760000  1.0 0.1299800828
H  H70  1  0.20750000  0.45990000  0.85560000  1.0 0.1299800828
H  H71  1  0.60430000  0.35190000  0.14440000  1.0 0.1203601876
H  H72  1  0.79250000  0.64810000  0.25240000  1.0 0.1203601876
H  H73  1  0.20090000  0.59430000  0.50160000  1.0 0.0790880681
H  H74  1  0.09270000  0.69930000  0.49840000  1.0 0.0790880681
H  H75  1  0.90730000  0.40570000  0.60660000  1.0 0.0790880681
H  H76  1  0.79910000  0.30070000  0.39340000  1.0 0.0790880681
H  H77  1  0.50160000  0.20090000  0.59430000  1.0 0.0790880681
H  H78  1  0.49840000  0.09270000  0.69930000  1.0 0.0790880681
H  H79  1  0.60660000  0.90730000  0.40570000  1.0 0.0790880681
H  H80  1  0.39340000  0.79910000  0.30070000  1.0 0.0790880681
H  H81  1  0.59430000  0.50160000  0.20090000  1.0 0.0790880681
H  H82  1  0.69930000  0.49840000  0.09270000  1.0 0.0790880681
H  H83  1  0.40570000  0.60660000  0.90730000  1.0 0.0790880681
H  H84  1  0.30070000  0.39340000  0.79910000  1.0 0.0790880681
H  H85  1  0.79910000  0.40570000  0.49840000  1.0 0.0790880681
H  H86  1  0.90730000  0.30070000  0.50160000  1.0 0.0790880681
H  H87  1  0.09270000  0.59430000  0.39340000  1.0 0.0790880681
H  H88  1  0.20090000  0.69930000  0.60660000  1.0 0.0790880681
H  H89  1  0.49840000  0.79910000  0.40570000  1.0 0.0790880681
H  H90  1  0.50160000  0.90730000  0.30070000  1.0 0.0790880681
H  H91  1  0.39340000  0.09270000  0.59430000  1.0 0.0790880681
H  H92  1  0.60660000  0.20090000  0.69930000  1.0 0.0790880681
H  H93  1  0.40570000  0.49840000  0.79910000  1.0 0.0790880681
H  H94  1  0.30070000  0.50160000  0.90730000  1.0 0.0790880681
H  H95  1  0.59430000  0.39340000  0.09270000  1.0 0.0790880681
H  H96  1  0.69930000  0.60660000  0.20090000  1.0 0.0790880681
H  H97  1  0.15800000  0.62360000  0.53440000  1.0 0.0881628382
H  H98  1  0.08920000  0.62360000  0.46560000  1.0 0.0881628382
H  H99  1  0.91080000  0.37640000  0.53440000  1.0 0.0881628382
H  H100  1  0.84200000  0.37640000  0.46560000  1.0 0.0881628382
H  H101  1  0.53440000  0.15800000  0.62360000  1.0 0.0881628382
H  H102  1  0.46560000  0.08920000  0.62360000  1.0 0.0881628382
H  H103  1  0.53440000  0.91080000  0.37640000  1.0 0.0881628382
H  H104  1  0.46560000  0.84200000  0.37640000  1.0 0.0881628382
H  H105  1  0.62360000  0.53440000  0.15800000  1.0 0.0881628382
H  H106  1  0.62360000  0.46560000  0.08920000  1.0 0.0881628382
H  H107  1  0.37640000  0.53440000  0.91080000  1.0 0.0881628382
H  H108  1  0.37640000  0.46560000  0.84200000  1.0 0.0881628382
H  H109  1  0.39180000  0.38730000  0.27970000  1.0 0.1410364497
H  H110  1  0.10760000  0.11210000  0.72030000  1.0 0.1410364497
H  H111  1  0.89240000  0.61270000  0.00450000  1.0 0.1410364497
H  H112  1  0.60820000  0.88790000  0.99550000  1.0 0.1410364497
H  H113  1  0.27970000  0.39180000  0.38730000  1.0 0.1410364497
H  H114  1  0.72030000  0.10760000  0.11210000  1.0 0.1410364497
H  H115  1  0.00450000  0.89240000  0.61270000  1.0 0.1410364497
H  H116  1  0.99550000  0.60820000  0.88790000  1.0 0.1410364497
H  H117  1  0.38730000  0.27970000  0.39180000  1.0 0.1410364497
H  H118  1  0.11210000  0.72030000  0.10760000  1.0 0.1410364497
H  H119  1  0.61270000  0.00450000  0.89240000  1.0 0.1410364497
H  H120  1  0.88790000  0.99550000  0.60820000  1.0 0.1410364497
H  H121  1  0.60820000  0.61270000  0.72030000  1.0 0.1410364497
H  H122  1  0.89240000  0.88790000  0.27970000  1.0 0.1410364497
H  H123  1  0.10760000  0.38730000  0.99550000  1.0 0.1410364497
H  H124  1  0.39180000  0.11210000  0.00450000  1.0 0.1410364497
H  H125  1  0.72030000  0.60820000  0.61270000  1.0 0.1410364497
H  H126  1  0.27970000  0.89240000  0.88790000  1.0 0.1410364497
H  H127  1  0.99550000  0.10760000  0.38730000  1.0 0.1410364497
H  H128  1  0.00450000  0.39180000  0.11210000  1.0 0.1410364497
H  H129  1  0.61270000  0.72030000  0.60820000  1.0 0.1410364497
H  H130  1  0.88790000  0.27970000  0.89240000  1.0 0.1410364497
H  H131  1  0.38730000  0.99550000  0.10760000  1.0 0.1410364497
H  H132  1  0.11210000  0.00450000  0.39180000  1.0 0.1410364497
H  H133  1  0.39080000  0.35440000  0.15140000  1.0 0.1203601876
H  H134  1  0.20300000  0.23940000  0.84860000  1.0 0.1203601876
H  H135  1  0.79700000  0.64560000  0.03640000  1.0 0.1203601876
H  H136  1  0.60920000  0.76060000  0.96360000  1.0 0.1203601876
H  H137  1  0.15140000  0.39080000  0.35440000  1.0 0.1203601876
H  H138  1  0.84860000  0.20300000  0.23940000  1.0 0.1203601876
H  H139  1  0.03640000  0.79700000  0.64560000  1.0 0.1203601876
H  H140  1  0.96360000  0.60920000  0.76060000  1.0 0.1203601876
H  H141  1  0.35440000  0.15140000  0.39080000  1.0 0.1203601876
H  H142  1  0.23940000  0.84860000  0.20300000  1.0 0.1203601876
H  H143  1  0.64560000  0.03640000  0.79700000  1.0 0.1203601876
H  H144  1  0.76060000  0.96360000  0.60920000  1.0 0.1203601876
H  H145  1  0.60920000  0.64560000  0.84860000  1.0 0.1203601876
H  H146  1  0.79700000  0.76060000  0.15140000  1.0 0.1203601876
H  H147  1  0.20300000  0.35440000  0.96360000  1.0 0.1203601876
H  H148  1  0.39080000  0.23940000  0.03640000  1.0 0.1203601876
H  H149  1  0.84860000  0.60920000  0.64560000  1.0 0.1203601876
H  H150  1  0.15140000  0.79700000  0.76060000  1.0 0.1203601876
H  H151  1  0.96360000  0.20300000  0.35440000  1.0 0.1203601876
H  H152  1  0.03640000  0.39080000  0.23940000  1.0 0.1203601876
H  H153  1  0.64560000  0.84860000  0.60920000  1.0 0.1203601876
H  H154  1  0.76060000  0.15140000  0.79700000  1.0 0.1203601876
H  H155  1  0.35440000  0.96360000  0.20300000  1.0 0.1203601876
H  H156  1  0.23940000  0.03640000  0.39080000  1.0 0.1203601876
H  H157  1  0.31570000  0.42000000  0.18570000  1.0 0.1299800828
H  H158  1  0.23430000  0.13000000  0.81430000  1.0 0.1299800828
H  H159  1  0.76570000  0.58000000  0.89570000  1.0 0.1299800828
H  H160  1  0.68430000  0.87000000  0.10430000  1.0 0.1299800828
H  H161  1  0.18570000  0.31570000  0.42000000  1.0 0.1299800828
H  H162  1  0.81430000  0.23430000  0.13000000  1.0 0.1299800828
H  H163  1  0.89570000  0.76570000  0.58000000  1.0 0.1299800828
H  H164  1  0.10430000  0.68430000  0.87000000  1.0 0.1299800828
H  H165  1  0.42000000  0.18570000  0.31570000  1.0 0.1299800828
H  H166  1  0.13000000  0.81430000  0.23430000  1.0 0.1299800828
H  H167  1  0.58000000  0.89570000  0.76570000  1.0 0.1299800828
H  H168  1  0.87000000  0.10430000  0.68430000  1.0 0.1299800828
H  H169  1  0.68430000  0.58000000  0.81430000  1.0 0.1299800828
H  H170  1  0.76570000  0.87000000  0.18570000  1.0 0.1299800828
H  H171  1  0.23430000  0.42000000  0.10430000  1.0 0.1299800828
H  H172  1  0.31570000  0.13000000  0.89570000  1.0 0.1299800828
H  H173  1  0.81430000  0.68430000  0.58000000  1.0 0.1299800828
H  H174  1  0.18570000  0.76570000  0.87000000  1.0 0.1299800828
H  H175  1  0.10430000  0.23430000  0.42000000  1.0 0.1299800828
H  H176  1  0.89570000  0.31570000  0.13000000  1.0 0.1299800828
H  H177  1  0.58000000  0.81430000  0.68430000  1.0 0.1299800828
H  H178  1  0.87000000  0.18570000  0.76570000  1.0 0.1299800828
H  H179  1  0.42000000  0.10430000  0.23430000  1.0 0.1299800828
H  H180  1  0.13000000  0.89570000  0.31570000  1.0 0.1299800828
H  H181  1  0.39080000  0.38690000  0.10130000  1.0 0.1203601876
H  H182  1  0.28560000  0.28950000  0.89870000  1.0 0.1203601876
H  H183  1  0.71440000  0.61310000  0.00390000  1.0 0.1203601876
H  H184  1  0.60920000  0.71050000  0.99610000  1.0 0.1203601876
H  H185  1  0.10130000  0.39080000  0.38690000  1.0 0.1203601876
H  H186  1  0.89870000  0.28560000  0.28950000  1.0 0.1203601876
H  H187  1  0.00390000  0.71440000  0.61310000  1.0 0.1203601876
H  H188  1  0.99610000  0.60920000  0.71050000  1.0 0.1203601876
H  H189  1  0.38690000  0.10130000  0.39080000  1.0 0.1203601876
H  H190  1  0.28950000  0.89870000  0.28560000  1.0 0.1203601876
H  H191  1  0.61310000  0.00390000  0.71440000  1.0 0.1203601876
H  H192  1  0.71050000  0.99610000  0.60920000  1.0 0.1203601876
H  H193  1  0.60920000  0.61310000  0.89870000  1.0 0.1203601876
H  H194  1  0.71440000  0.71050000  0.10130000  1.0 0.1203601876
H  H195  1  0.28560000  0.38690000  0.99610000  1.0 0.1203601876
H  H196  1  0.39080000  0.28950000  0.00390000  1.0 0.1203601876
H  H197  1  0.89870000  0.60920000  0.61310000  1.0 0.1203601876
H  H198  1  0.10130000  0.71440000  0.71050000  1.0 0.1203601876
H  H199  1  0.99610000  0.28560000  0.38690000  1.0 0.1203601876
H  H200  1  0.00390000  0.39080000  0.28950000  1.0 0.1203601876
H  H201  1  0.61310000  0.89870000  0.60920000  1.0 0.1203601876
H  H202  1  0.71050000  0.10130000  0.71440000  1.0 0.1203601876
H  H203  1  0.38690000  0.99610000  0.28560000  1.0 0.1203601876
H  H204  1  0.28950000  0.00390000  0.39080000  1.0 0.1203601876
H  H205  1  0.36030000  0.38830000  0.02800000  1.0 0.1029370238
H  H206  1  0.36030000  0.33230000  0.97200000  1.0 0.1029370238
H  H207  1  0.63970000  0.61170000  0.97200000  1.0 0.1029370238
H  H208  1  0.63970000  0.66770000  0.02800000  1.0 0.1029370238
H  H209  1  0.02800000  0.36030000  0.38830000  1.0 0.1029370238
H  H210  1  0.97200000  0.36030000  0.33230000  1.0 0.1029370238
H  H211  1  0.97200000  0.63970000  0.61170000  1.0 0.1029370238
H  H212  1  0.02800000  0.63970000  0.66770000  1.0 0.1029370238
H  H213  1  0.38830000  0.02800000  0.36030000  1.0 0.1029370238
H  H214  1  0.33230000  0.97200000  0.36030000  1.0 0.1029370238
H  H215  1  0.61170000  0.97200000  0.63970000  1.0 0.1029370238
H  H216  1  0.66770000  0.02800000  0.63970000  1.0 0.1029370238
H  H217  1  0.25970000  0.50020000  0.24050000  1.0 0.1632333022
H  H218  1  0.25970000  0.01920000  0.75950000  1.0 0.1632333022
H  H219  1  0.74030000  0.49980000  0.75950000  1.0 0.1632333022
H  H220  1  0.74030000  0.98080000  0.24050000  1.0 0.1632333022
H  H221  1  0.24050000  0.25970000  0.50020000  1.0 0.1632333022
H  H222  1  0.75950000  0.25970000  0.01920000  1.0 0.1632333022
H  H223  1  0.75950000  0.74030000  0.49980000  1.0 0.1632333022
H  H224  1  0.24050000  0.74030000  0.98080000  1.0 0.1632333022
H  H225  1  0.50020000  0.24050000  0.25970000  1.0 0.1632333022
H  H226  1  0.01920000  0.75950000  0.25970000  1.0 0.1632333022
H  H227  1  0.49980000  0.75950000  0.74030000  1.0 0.1632333022
H  H228  1  0.98080000  0.24050000  0.74030000  1.0 0.1632333022
H  H229  1  0.10400000  0.47440000  0.37040000  1.0 0.1203601876
H  H230  1  0.10400000  0.73360000  0.62960000  1.0 0.1203601876
H  H231  1  0.89600000  0.52560000  0.62960000  1.0 0.1203601876
H  H232  1  0.89600000  0.26640000  0.37040000  1.0 0.1203601876
H  H233  1  0.37040000  0.10400000  0.47440000  1.0 0.1203601876
H  H234  1  0.62960000  0.10400000  0.73360000  1.0 0.1203601876
H  H235  1  0.62960000  0.89600000  0.52560000  1.0 0.1203601876
H  H236  1  0.37040000  0.89600000  0.26640000  1.0 0.1203601876
H  H237  1  0.47440000  0.37040000  0.10400000  1.0 0.1203601876
H  H238  1  0.73360000  0.62960000  0.10400000  1.0 0.1203601876
H  H239  1  0.52560000  0.62960000  0.89600000  1.0 0.1203601876
H  H240  1  0.26640000  0.37040000  0.89600000  1.0 0.1203601876
H  H241  1  0.37620000  0.59530000  0.49970000  1.0 0.1453997415
H  H242  1  0.09560000  0.87650000  0.50030000  1.0 0.1453997415
H  H243  1  0.90440000  0.40470000  0.78090000  1.0 0.1453997415
H  H244  1  0.62380000  0.12350000  0.21910000  1.0 0.1453997415
H  H245  1  0.49970000  0.37620000  0.59530000  1.0 0.1453997415
H  H246  1  0.50030000  0.09560000  0.87650000  1.0 0.1453997415
H  H247  1  0.78090000  0.90440000  0.40470000  1.0 0.1453997415
H  H248  1  0.21910000  0.62380000  0.12350000  1.0 0.1453997415
H  H249  1  0.59530000  0.49970000  0.37620000  1.0 0.1453997415
H  H250  1  0.87650000  0.50030000  0.09560000  1.0 0.1453997415
H  H251  1  0.40470000  0.78090000  0.90440000  1.0 0.1453997415
H  H252  1  0.12350000  0.21910000  0.62380000  1.0 0.1453997415
H  H253  1  0.62380000  0.40470000  0.50030000  1.0 0.1453997415
H  H254  1  0.90440000  0.12350000  0.49970000  1.0 0.1453997415
H  H255  1  0.09560000  0.59530000  0.21910000  1.0 0.1453997415
H  H256  1  0.37620000  0.87650000  0.78090000  1.0 0.1453997415
H  H257  1  0.50030000  0.62380000  0.40470000  1.0 0.1453997415
H  H258  1  0.49970000  0.90440000  0.12350000  1.0 0.1453997415
H  H259  1  0.21910000  0.09560000  0.59530000  1.0 0.1453997415
H  H260  1  0.78090000  0.37620000  0.87650000  1.0 0.1453997415
H  H261  1  0.40470000  0.50030000  0.62380000  1.0 0.1453997415
H  H262  1  0.12350000  0.49970000  0.90440000  1.0 0.1453997415
H  H263  1  0.59530000  0.21910000  0.09560000  1.0 0.1453997415
H  H264  1  0.87650000  0.78090000  0.37620000  1.0 0.1453997415
H  H265  1  0.35060000  0.67400000  0.59960000  1.0 0.1203601876
H  H266  1  0.07440000  0.75100000  0.40040000  1.0 0.1203601876
H  H267  1  0.92560000  0.32600000  0.67660000  1.0 0.1203601876
H  H268  1  0.64940000  0.24900000  0.32340000  1.0 0.1203601876
H  H269  1  0.59960000  0.35060000  0.67400000  1.0 0.1203601876
H  H270  1  0.40040000  0.07440000  0.75100000  1.0 0.1203601876
H  H271  1  0.67660000  0.92560000  0.32600000  1.0 0.1203601876
H  H272  1  0.32340000  0.64940000  0.24900000  1.0 0.1203601876
H  H273  1  0.67400000  0.59960000  0.35060000  1.0 0.1203601876
H  H274  1  0.75100000  0.40040000  0.07440000  1.0 0.1203601876
H  H275  1  0.32600000  0.67660000  0.92560000  1.0 0.1203601876
H  H276  1  0.24900000  0.32340000  0.64940000  1.0 0.1203601876
H  H277  1  0.64940000  0.32600000  0.40040000  1.0 0.1203601876
H  H278  1  0.92560000  0.24900000  0.59960000  1.0 0.1203601876
H  H279  1  0.07440000  0.67400000  0.32340000  1.0 0.1203601876
H  H280  1  0.35060000  0.75100000  0.67660000  1.0 0.1203601876
H  H281  1  0.40040000  0.64940000  0.32600000  1.0 0.1203601876
H  H282  1  0.59960000  0.92560000  0.24900000  1.0 0.1203601876
H  H283  1  0.32340000  0.07440000  0.67400000  1.0 0.1203601876
H  H284  1  0.67660000  0.35060000  0.75100000  1.0 0.1203601876
H  H285  1  0.32600000  0.40040000  0.64940000  1.0 0.1203601876
H  H286  1  0.24900000  0.59960000  0.92560000  1.0 0.1203601876
H  H287  1  0.67400000  0.32340000  0.07440000  1.0 0.1203601876
H  H288  1  0.75100000  0.67660000  0.35060000  1.0 0.1203601876
H  H289  1  0.25870000  0.61370000  0.45500000  1.0 0.1203601876
H  H290  1  0.15870000  0.80370000  0.54500000  1.0 0.1203601876
H  H291  1  0.84130000  0.38630000  0.64500000  1.0 0.1203601876
H  H292  1  0.74130000  0.19630000  0.35500000  1.0 0.1203601876
H  H293  1  0.45500000  0.25870000  0.61370000  1.0 0.1299800828
H  H294  1  0.54500000  0.15870000  0.80370000  1.0 0.1299800828
H  H295  1  0.64500000  0.84130000  0.38630000  1.0 0.1203601876
H  H296  1  0.35500000  0.74130000  0.19630000  1.0 0.1203601876
H  H297  1  0.61370000  0.45500000  0.25870000  1.0 0.1203601876
H  H298  1  0.80370000  0.54500000  0.15870000  1.0 0.1203601876
H  H299  1  0.38630000  0.64500000  0.84130000  1.0 0.1299800828
H  H300  1  0.19630000  0.35500000  0.74130000  1.0 0.1299800828
H  H301  1  0.74130000  0.38630000  0.54500000  1.0 0.1203601876
H  H302  1  0.84130000  0.19630000  0.45500000  1.0 0.1203601876
H  H303  1  0.15870000  0.61370000  0.35500000  1.0 0.1203601876
H  H304  1  0.25870000  0.80370000  0.64500000  1.0 0.1203601876
H  H305  1  0.54500000  0.74130000  0.38630000  1.0 0.1203601876
H  H306  1  0.45500000  0.84130000  0.19630000  1.0 0.1203601876
H  H307  1  0.35500000  0.15870000  0.61370000  1.0 0.1299800828
H  H308  1  0.64500000  0.25870000  0.80370000  1.0 0.1299800828
H  H309  1  0.38630000  0.54500000  0.74130000  1.0 0.1203601876
H  H310  1  0.19630000  0.45500000  0.84130000  1.0 0.1299800828
H  H311  1  0.61370000  0.35500000  0.15870000  1.0 0.1203601876
H  H312  1  0.80370000  0.64500000  0.25870000  1.0 0.1203601876
H  H313  1  0.20110000  0.61620000  0.47990000  1.0 0.0729655434
H  H314  1  0.13630000  0.72120000  0.52010000  1.0 0.0729655434
H  H315  1  0.86370000  0.38380000  0.58490000  1.0 0.0729655434
H  H316  1  0.79890000  0.27880000  0.41510000  1.0 0.0729655434
H  H317  1  0.47990000  0.20110000  0.61620000  1.0 0.0729655434
H  H318  1  0.52010000  0.13630000  0.72120000  1.0 0.0729655434
H  H319  1  0.58490000  0.86370000  0.38380000  1.0 0.0729655434
H  H320  1  0.41510000  0.79890000  0.27880000  1.0 0.0729655434
H  H321  1  0.61620000  0.47990000  0.20110000  1.0 0.0729655434
H  H322  1  0.72120000  0.52010000  0.13630000  1.0 0.0729655434
H  H323  1  0.38380000  0.58490000  0.86370000  1.0 0.0729655434
H  H324  1  0.27880000  0.41510000  0.79890000  1.0 0.0729655434
H  H325  1  0.79890000  0.38380000  0.52010000  1.0 0.0729655434
H  H326  1  0.86370000  0.27880000  0.47990000  1.0 0.0729655434
H  H327  1  0.13630000  0.61620000  0.41510000  1.0 0.0729655434
H  H328  1  0.20110000  0.72120000  0.58490000  1.0 0.0729655434
H  H329  1  0.52010000  0.79890000  0.38380000  1.0 0.0729655434
H  H330  1  0.47990000  0.86370000  0.27880000  1.0 0.0729655434
H  H331  1  0.41510000  0.13630000  0.61620000  1.0 0.0729655434
H  H332  1  0.58490000  0.20110000  0.72120000  1.0 0.0729655434
H  H333  1  0.38380000  0.52010000  0.79890000  1.0 0.0729655434
H  H334  1  0.27880000  0.47990000  0.86370000  1.0 0.0729655434
H  H335  1  0.61620000  0.41510000  0.13630000  1.0 0.0729655434
H  H336  1  0.72120000  0.58490000  0.20110000  1.0 0.0729655434
H  H337  1  0.15850000  0.65010000  0.50840000  1.0 0.0881628382
H  H338  1  0.14170000  0.65010000  0.49160000  1.0 0.0881628382
H  H339  1  0.85830000  0.34990000  0.50840000  1.0 0.0881628382
H  H340  1  0.84150000  0.34990000  0.49160000  1.0 0.0881628382
H  H341  1  0.50840000  0.15850000  0.65010000  1.0 0.0881628382
H  H342  1  0.49160000  0.14170000  0.65010000  1.0 0.0881628382
H  H343  1  0.50840000  0.85830000  0.34990000  1.0 0.0881628382
H  H344  1  0.49160000  0.84150000  0.34990000  1.0 0.0881628382
H  H345  1  0.65010000  0.50840000  0.15850000  1.0 0.0881628382
H  H346  1  0.65010000  0.49160000  0.14170000  1.0 0.0881628382
H  H347  1  0.34990000  0.50840000  0.85830000  1.0 0.0881628382
H  H348  1  0.34990000  0.49160000  0.84150000  1.0 0.0881628382
C  C1  1  0.29705000  0.57024000  0.41461000  1.0 0.4981154709
C  C2  1  0.15563000  0.88244000  0.58539000  1.0 0.4981154709
C  C3  1  0.84437000  0.42976000  0.72681000  1.0 0.4981154709
C  C4  1  0.70295000  0.11756000  0.27319000  1.0 0.4981154709
C  C5  1  0.41461000  0.29705000  0.57024000  1.0 0.4981154709
C  C6  1  0.58539000  0.15563000  0.88244000  1.0 0.4981154709
C  C7  1  0.72681000  0.84437000  0.42976000  1.0 0.4981154709
C  C8  1  0.27319000  0.70295000  0.11756000  1.0 0.4981154709
C  C9  1  0.57024000  0.41461000  0.29705000  1.0 0.4981154709
C  C10  1  0.88244000  0.58539000  0.15563000  1.0 0.4981154709
C  C11  1  0.42976000  0.72681000  0.84437000  1.0 0.4981154709
C  C12  1  0.11756000  0.27319000  0.70295000  1.0 0.4981154709
C  C13  1  0.70295000  0.42976000  0.58539000  1.0 0.4981154709
C  C14  1  0.84437000  0.11756000  0.41461000  1.0 0.4981154709
C  C15  1  0.15563000  0.57024000  0.27319000  1.0 0.4981154709
C  C16  1  0.29705000  0.88244000  0.72681000  1.0 0.4981154709
C  C17  1  0.58539000  0.70295000  0.42976000  1.0 0.4981154709
C  C18  1  0.41461000  0.84437000  0.11756000  1.0 0.4981154709
C  C19  1  0.27319000  0.15563000  0.57024000  1.0 0.4981154709
C  C20  1  0.72681000  0.29705000  0.88244000  1.0 0.4981154709
C  C21  1  0.42976000  0.58539000  0.70295000  1.0 0.4981154709
C  C22  1  0.11756000  0.41461000  0.84437000  1.0 0.4981154709
C  C23  1  0.57024000  0.27319000  0.15563000  1.0 0.4981154709
C  C24  1  0.88244000  0.72681000  0.29705000  1.0 0.4981154709
C  C25  1  0.31200000  0.59650000  0.46830000  1.0 0.038092027
C  C26  1  0.12820000  0.84370000  0.53170000  1.0 0.038092027
C  C27  1  0.87180000  0.40350000  0.71550000  1.0 0.038092027
C  C28  1  0.68800000  0.15630000  0.28450000  1.0 0.038092027
C  C29  1  0.46830000  0.31200000  0.59650000  1.0 0.038092027
C  C30  1  0.53170000  0.12820000  0.84370000  1.0 0.038092027
C  C31  1  0.71550000  0.87180000  0.40350000  1.0 0.038092027
C  C32  1  0.28450000  0.68800000  0.15630000  1.0 0.038092027
C  C33  1  0.59650000  0.46830000  0.31200000  1.0 0.038092027
C  C34  1  0.84370000  0.53170000  0.12820000  1.0 0.038092027
C  C35  1  0.40350000  0.71550000  0.87180000  1.0 0.038092027
C  C36  1  0.15630000  0.28450000  0.68800000  1.0 0.038092027
C  C37  1  0.68800000  0.40350000  0.53170000  1.0 0.038092027
C  C38  1  0.87180000  0.15630000  0.46830000  1.0 0.038092027
C  C39  1  0.12820000  0.59650000  0.28450000  1.0 0.038092027
C  C40  1  0.31200000  0.84370000  0.71550000  1.0 0.038092027
C  C41  1  0.53170000  0.68800000  0.40350000  1.0 0.038092027
C  C42  1  0.46830000  0.87180000  0.15630000  1.0 0.038092027
C  C43  1  0.28450000  0.12820000  0.59650000  1.0 0.038092027
C  C44  1  0.71550000  0.31200000  0.84370000  1.0 0.038092027
C  C45  1  0.40350000  0.53170000  0.68800000  1.0 0.038092027
C  C46  1  0.15630000  0.46830000  0.87180000  1.0 0.038092027
C  C47  1  0.59650000  0.28450000  0.12820000  1.0 0.038092027
C  C48  1  0.84370000  0.71550000  0.31200000  1.0 0.038092027
C  C49  1  0.35670000  0.60640000  0.50310000  1.0 -0.1191057886
C  C50  1  0.10330000  0.85360000  0.49690000  1.0 -0.1191057886
C  C51  1  0.89670000  0.39360000  0.75030000  1.0 -0.1191057886
C  C52  1  0.64330000  0.14640000  0.24970000  1.0 -0.1191057886
C  C53  1  0.50310000  0.35670000  0.60640000  1.0 -0.1191057886
C  C54  1  0.49690000  0.10330000  0.85360000  1.0 -0.1191057886
C  C55  1  0.75030000  0.89670000  0.39360000  1.0 -0.1191057886
C  C56  1  0.24970000  0.64330000  0.14640000  1.0 -0.1191057886
C  C57  1  0.60640000  0.50310000  0.35670000  1.0 -0.1191057886
C  C58  1  0.85360000  0.49690000  0.10330000  1.0 -0.1191057886
C  C59  1  0.39360000  0.75030000  0.89670000  1.0 -0.1191057886
C  C60  1  0.14640000  0.24970000  0.64330000  1.0 -0.1191057886
C  C61  1  0.64330000  0.39360000  0.49690000  1.0 -0.1191057886
C  C62  1  0.89670000  0.14640000  0.50310000  1.0 -0.1191057886
C  C63  1  0.10330000  0.60640000  0.24970000  1.0 -0.1191057886
C  C64  1  0.35670000  0.85360000  0.75030000  1.0 -0.1191057886
C  C65  1  0.49690000  0.64330000  0.39360000  1.0 -0.1191057886
C  C66  1  0.50310000  0.89670000  0.14640000  1.0 -0.1191057886
C  C67  1  0.24970000  0.10330000  0.60640000  1.0 -0.1191057886
C  C68  1  0.75030000  0.35670000  0.85360000  1.0 -0.1191057886
C  C69  1  0.39360000  0.49690000  0.64330000  1.0 -0.1191057886
C  C70  1  0.14640000  0.50310000  0.89670000  1.0 -0.1191057886
C  C71  1  0.60640000  0.24970000  0.10330000  1.0 -0.1191057886
C  C72  1  0.85360000  0.75030000  0.35670000  1.0 -0.1191057886
C  C73  1  0.37180000  0.63060000  0.55300000  1.0 0.0139285916
C  C74  1  0.07760000  0.81880000  0.44700000  1.0 0.0139285916
C  C75  1  0.92240000  0.36940000  0.74120000  1.0 0.0139285916
C  C76  1  0.62820000  0.18120000  0.25880000  1.0 0.0139285916
C  C77  1  0.55300000  0.37180000  0.63060000  1.0 0.0139285916
C  C78  1  0.44700000  0.07760000  0.81880000  1.0 0.0139285916
C  C79  1  0.74120000  0.92240000  0.36940000  1.0 0.0139285916
C  C80  1  0.25880000  0.62820000  0.18120000  1.0 0.0139285916
C  C81  1  0.63060000  0.55300000  0.37180000  1.0 0.0139285916
C  C82  1  0.81880000  0.44700000  0.07760000  1.0 0.0139285916
C  C83  1  0.36940000  0.74120000  0.92240000  1.0 0.0139285916
C  C84  1  0.18120000  0.25880000  0.62820000  1.0 0.0139285916
C  C85  1  0.62820000  0.36940000  0.44700000  1.0 0.0139285916
C  C86  1  0.92240000  0.18120000  0.55300000  1.0 0.0139285916
C  C87  1  0.07760000  0.63060000  0.25880000  1.0 0.0139285916
C  C88  1  0.37180000  0.81880000  0.74120000  1.0 0.0139285916
C  C89  1  0.44700000  0.62820000  0.36940000  1.0 0.0139285916
C  C90  1  0.55300000  0.92240000  0.18120000  1.0 0.0139285916
C  C91  1  0.25880000  0.07760000  0.63060000  1.0 0.0139285916
C  C92  1  0.74120000  0.37180000  0.81880000  1.0 0.0139285916
C  C93  1  0.36940000  0.44700000  0.62820000  1.0 0.0139285916
C  C94  1  0.18120000  0.55300000  0.92240000  1.0 0.0139285916
C  C95  1  0.63060000  0.25880000  0.07760000  1.0 0.0139285916
C  C96  1  0.81880000  0.74120000  0.37180000  1.0 0.0139285916
C  C97  1  0.34210000  0.64500000  0.56790000  1.0 -0.1273086468
C  C98  1  0.07710000  0.77420000  0.43210000  1.0 -0.1273086468
C  C99  1  0.92290000  0.35500000  0.69710000  1.0 -0.1273086468
C  C100  1  0.65790000  0.22580000  0.30290000  1.0 -0.1273086468
C  C101  1  0.56790000  0.34210000  0.64500000  1.0 -0.1273086468
C  C102  1  0.43210000  0.07710000  0.77420000  1.0 -0.1273086468
C  C103  1  0.69710000  0.92290000  0.35500000  1.0 -0.1273086468
C  C104  1  0.30290000  0.65790000  0.22580000  1.0 -0.1273086468
C  C105  1  0.64500000  0.56790000  0.34210000  1.0 -0.1273086468
C  C106  1  0.77420000  0.43210000  0.07710000  1.0 -0.1273086468
C  C107  1  0.35500000  0.69710000  0.92290000  1.0 -0.1273086468
C  C108  1  0.22580000  0.30290000  0.65790000  1.0 -0.1273086468
C  C109  1  0.65790000  0.35500000  0.43210000  1.0 -0.1273086468
C  C110  1  0.92290000  0.22580000  0.56790000  1.0 -0.1273086468
C  C111  1  0.07710000  0.64500000  0.30290000  1.0 -0.1273086468
C  C112  1  0.34210000  0.77420000  0.69710000  1.0 -0.1273086468
C  C113  1  0.43210000  0.65790000  0.35500000  1.0 -0.1273086468
C  C114  1  0.56790000  0.92290000  0.22580000  1.0 -0.1273086468
C  C115  1  0.30290000  0.07710000  0.64500000  1.0 -0.1273086468
C  C116  1  0.69710000  0.34210000  0.77420000  1.0 -0.1191057886
C  C117  1  0.35500000  0.43210000  0.65790000  1.0 -0.1273086468
C  C118  1  0.22580000  0.56790000  0.92290000  1.0 -0.1273086468
C  C119  1  0.64500000  0.30290000  0.07710000  1.0 -0.1273086468
C  C120  1  0.77420000  0.69710000  0.34210000  1.0 -0.1273086468
C  C121  1  0.29740000  0.63510000  0.53310000  1.0 0.038092027
C  C122  1  0.10200000  0.76430000  0.46690000  1.0 0.038092027
C  C123  1  0.89800000  0.36490000  0.66230000  1.0 0.038092027
C  C124  1  0.70260000  0.23570000  0.33770000  1.0 0.038092027
C  C125  1  0.53310000  0.29740000  0.63510000  1.0 0.038092027
C  C126  1  0.46690000  0.10200000  0.76430000  1.0 0.038092027
C  C127  1  0.66230000  0.89800000  0.36490000  1.0 0.038092027
C  C128  1  0.33770000  0.70260000  0.23570000  1.0 0.038092027
C  C129  1  0.63510000  0.53310000  0.29740000  1.0 0.038092027
C  C130  1  0.76430000  0.46690000  0.10200000  1.0 0.038092027
C  C131  1  0.36490000  0.66230000  0.89800000  1.0 0.038092027
C  C132  1  0.23570000  0.33770000  0.70260000  1.0 0.038092027
C  C133  1  0.70260000  0.36490000  0.46690000  1.0 0.038092027
C  C134  1  0.89800000  0.23570000  0.53310000  1.0 0.038092027
C  C135  1  0.10200000  0.63510000  0.33770000  1.0 0.038092027
C  C136  1  0.29740000  0.76430000  0.66230000  1.0 0.038092027
C  C137  1  0.46690000  0.70260000  0.36490000  1.0 0.038092027
C  C138  1  0.53310000  0.89800000  0.23570000  1.0 0.038092027
C  C139  1  0.33770000  0.10200000  0.63510000  1.0 0.038092027
C  C140  1  0.66230000  0.29740000  0.76430000  1.0 0.038092027
C  C141  1  0.36490000  0.46690000  0.70260000  1.0 0.038092027
C  C142  1  0.23570000  0.53310000  0.89800000  1.0 0.038092027
C  C143  1  0.63510000  0.33770000  0.10200000  1.0 0.038092027
C  C144  1  0.76430000  0.66230000  0.29740000  1.0 0.038092027
C  C145  1  0.28230000  0.61090000  0.48320000  1.0 -0.1512934705
C  C146  1  0.12770000  0.79910000  0.51680000  1.0 -0.1512934705
C  C147  1  0.87230000  0.38910000  0.67140000  1.0 -0.1512934705
C  C148  1  0.71770000  0.20090000  0.32860000  1.0 -0.1512934705
C  C149  1  0.48320000  0.28230000  0.61090000  1.0 -0.1512934705
C  C150  1  0.51680000  0.12770000  0.79910000  1.0 -0.1512934705
C  C151  1  0.67140000  0.87230000  0.38910000  1.0 -0.1512934705
C  C152  1  0.32860000  0.71770000  0.20090000  1.0 -0.1512934705
C  C153  1  0.61090000  0.48320000  0.28230000  1.0 -0.1512934705
C  C154  1  0.79910000  0.51680000  0.12770000  1.0 -0.1512934705
C  C155  1  0.38910000  0.67140000  0.87230000  1.0 -0.1512934705
C  C156  1  0.20090000  0.32860000  0.71770000  1.0 -0.1512934705
C  C157  1  0.71770000  0.38910000  0.51680000  1.0 -0.1512934705
C  C158  1  0.87230000  0.20090000  0.48320000  1.0 -0.1512934705
C  C159  1  0.12770000  0.61090000  0.32860000  1.0 -0.1512934705
C  C160  1  0.28230000  0.79910000  0.67140000  1.0 -0.1512934705
C  C161  1  0.51680000  0.71770000  0.38910000  1.0 -0.1512934705
C  C162  1  0.48320000  0.87230000  0.20090000  1.0 -0.1512934705
C  C163  1  0.32860000  0.12770000  0.61090000  1.0 -0.1512934705
C  C164  1  0.67140000  0.28230000  0.79910000  1.0 -0.1512934705
C  C165  1  0.38910000  0.51680000  0.71770000  1.0 -0.1512934705
C  C166  1  0.20090000  0.48320000  0.87230000  1.0 -0.1512934705
C  C167  1  0.61090000  0.32860000  0.12770000  1.0 -0.1512934705
C  C168  1  0.79910000  0.67140000  0.28230000  1.0 -0.1512934705
C  C169  1  0.41690000  0.64341000  0.59489000  1.0 0.4315848645
C  C170  1  0.04852000  0.82201000  0.40511000  1.0 0.4315848645
C  C171  1  0.95148000  0.35659000  0.77349000  1.0 0.4315848645
C  C172  1  0.58310000  0.17799000  0.22651000  1.0 0.4315848645
C  C173  1  0.59489000  0.41690000  0.64341000  1.0 0.4315848645
C  C174  1  0.40511000  0.04852000  0.82201000  1.0 0.4315848645
C  C175  1  0.77349000  0.95148000  0.35659000  1.0 0.4315848645
C  C176  1  0.22651000  0.58310000  0.17799000  1.0 0.4315848645
C  C177  1  0.64341000  0.59489000  0.41690000  1.0 0.4315848645
C  C178  1  0.82201000  0.40511000  0.04852000  1.0 0.4315848645
C  C179  1  0.35659000  0.77349000  0.95148000  1.0 0.4315848645
C  C180  1  0.17799000  0.22651000  0.58310000  1.0 0.4315848645
C  C181  1  0.58310000  0.35659000  0.40511000  1.0 0.4315848645
C  C182  1  0.95148000  0.17799000  0.59489000  1.0 0.4315848645
C  C183  1  0.04852000  0.64341000  0.22651000  1.0 0.4315848645
C  C184  1  0.41690000  0.82201000  0.77349000  1.0 0.4315848645
C  C185  1  0.40511000  0.58310000  0.35659000  1.0 0.4315848645
C  C186  1  0.59489000  0.95148000  0.17799000  1.0 0.4315848645
C  C187  1  0.22651000  0.04852000  0.64341000  1.0 0.4315848645
C  C188  1  0.77349000  0.41690000  0.82201000  1.0 0.4315848645
C  C189  1  0.35659000  0.40511000  0.58310000  1.0 0.4315848645
C  C190  1  0.17799000  0.59489000  0.95148000  1.0 0.4315848645
C  C191  1  0.64341000  0.22651000  0.04852000  1.0 0.4315848645
C  C192  1  0.82201000  0.77349000  0.41690000  1.0 0.4315848645
C  C193  1  0.26930000  0.65220000  0.55430000  1.0 0.0790880681
C  C194  1  0.09790000  0.71500000  0.44570000  1.0 0.0790880681
C  C195  1  0.90210000  0.34780000  0.61710000  1.0 0.0790880681
C  C196  1  0.73070000  0.28500000  0.38290000  1.0 0.0790880681
C  C197  1  0.55430000  0.26930000  0.65220000  1.0 0.0790880681
C  C198  1  0.44570000  0.09790000  0.71500000  1.0 0.0790880681
C  C199  1  0.61710000  0.90210000  0.34780000  1.0 0.0790880681
C  C200  1  0.38290000  0.73070000  0.28500000  1.0 0.0790880681
C  C201  1  0.65220000  0.55430000  0.26930000  1.0 0.0790880681
C  C202  1  0.71500000  0.44570000  0.09790000  1.0 0.0790880681
C  C203  1  0.34780000  0.61710000  0.90210000  1.0 0.0790880681
C  C204  1  0.28500000  0.38290000  0.73070000  1.0 0.0790880681
C  C205  1  0.73070000  0.34780000  0.44570000  1.0 0.0790880681
C  C206  1  0.90210000  0.28500000  0.55430000  1.0 0.0790880681
C  C207  1  0.09790000  0.65220000  0.38290000  1.0 0.0790880681
C  C208  1  0.26930000  0.71500000  0.61710000  1.0 0.0790880681
C  C209  1  0.44570000  0.73070000  0.34780000  1.0 0.0790880681
C  C210  1  0.55430000  0.90210000  0.28500000  1.0 0.0790880681
C  C211  1  0.38290000  0.09790000  0.65220000  1.0 0.0790880681
C  C212  1  0.61710000  0.26930000  0.71500000  1.0 0.0790880681
C  C213  1  0.34780000  0.44570000  0.73070000  1.0 0.0790880681
C  C214  1  0.28500000  0.55430000  0.90210000  1.0 0.0790880681
C  C215  1  0.65220000  0.38290000  0.09790000  1.0 0.0790880681
C  C216  1  0.71500000  0.61710000  0.26930000  1.0 0.0790880681
C  C217  1  0.21790000  0.62447000  0.53057000  1.0 -0.0707573074
C  C218  1  0.09390000  0.68733000  0.46943000  1.0 -0.0707573074
C  C219  1  0.90610000  0.37553000  0.59343000  1.0 -0.0707573074
C  C220  1  0.78210000  0.31267000  0.40657000  1.0 -0.0707573074
C  C221  1  0.53057000  0.21790000  0.62447000  1.0 -0.0707573074
C  C222  1  0.46943000  0.09390000  0.68733000  1.0 -0.0707573074
C  C223  1  0.59343000  0.90610000  0.37553000  1.0 -0.0707573074
C  C224  1  0.40657000  0.78210000  0.31267000  1.0 -0.0707573074
C  C225  1  0.62447000  0.53057000  0.21790000  1.0 -0.0707573074
C  C226  1  0.68733000  0.46943000  0.09390000  1.0 -0.0707573074
C  C227  1  0.37553000  0.59343000  0.90610000  1.0 -0.0707573074
C  C228  1  0.31267000  0.40657000  0.78210000  1.0 -0.0707573074
C  C229  1  0.78210000  0.37553000  0.46943000  1.0 -0.0707573074
C  C230  1  0.90610000  0.31267000  0.53057000  1.0 -0.0707573074
C  C231  1  0.09390000  0.62447000  0.40657000  1.0 -0.0707573074
C  C232  1  0.21790000  0.68733000  0.59343000  1.0 -0.0707573074
C  C233  1  0.46943000  0.78210000  0.37553000  1.0 -0.0707573074
C  C234  1  0.53057000  0.90610000  0.31267000  1.0 -0.0707573074
C  C235  1  0.40657000  0.09390000  0.62447000  1.0 -0.0707573074
C  C236  1  0.59343000  0.21790000  0.68733000  1.0 -0.0707573074
C  C237  1  0.37553000  0.46943000  0.78210000  1.0 -0.0707573074
C  C238  1  0.31267000  0.53057000  0.90610000  1.0 -0.0707573074
C  C239  1  0.62447000  0.40657000  0.09390000  1.0 -0.0707573074
C  C240  1  0.68733000  0.59343000  0.21790000  1.0 -0.0707573074
C  C241  1  0.19220000  0.64210000  0.55010000  1.0 -0.0471319756
C  C242  1  0.09200000  0.64210000  0.44990000  1.0 -0.0471319756
C  C243  1  0.90800000  0.35790000  0.55010000  1.0 -0.0471319756
C  C244  1  0.80780000  0.35790000  0.44990000  1.0 -0.0471319756
C  C245  1  0.55010000  0.19220000  0.64210000  1.0 -0.0471319756
C  C246  1  0.44990000  0.09200000  0.64210000  1.0 -0.0471319756
C  C247  1  0.55010000  0.90800000  0.35790000  1.0 -0.0471319756
C  C248  1  0.44990000  0.80780000  0.35790000  1.0 -0.0471319756
C  C249  1  0.64210000  0.55010000  0.19220000  1.0 -0.0471319756
C  C250  1  0.64210000  0.44990000  0.09200000  1.0 -0.0471319756
C  C251  1  0.35790000  0.55010000  0.90800000  1.0 -0.0471319756
C  C252  1  0.35790000  0.44990000  0.80780000  1.0 -0.0471319756
C  C253  1  0.34050000  0.43578000  0.27420000  1.0 0.5698231071
C  C254  1  0.16158000  0.06630000  0.72580000  1.0 0.5698231071
C  C255  1  0.83842000  0.56422000  0.90472000  1.0 0.5698231071
C  C256  1  0.65950000  0.93370000  0.09528000  1.0 0.5698231071
C  C257  1  0.27420000  0.34050000  0.43578000  1.0 0.5698231071
C  C258  1  0.72580000  0.16158000  0.06630000  1.0 0.5698231071
C  C259  1  0.90472000  0.83842000  0.56422000  1.0 0.5698231071
C  C260  1  0.09528000  0.65950000  0.93370000  1.0 0.5698231071
C  C261  1  0.43578000  0.27420000  0.34050000  1.0 0.5698231071
C  C262  1  0.06630000  0.72580000  0.16158000  1.0 0.5698231071
C  C263  1  0.56422000  0.90472000  0.83842000  1.0 0.5698231071
C  C264  1  0.93370000  0.09528000  0.65950000  1.0 0.5698231071
C  C265  1  0.65950000  0.56422000  0.72580000  1.0 0.5698231071
C  C266  1  0.83842000  0.93370000  0.27420000  1.0 0.5698231071
C  C267  1  0.16158000  0.43578000  0.09528000  1.0 0.5698231071
C  C268  1  0.34050000  0.06630000  0.90472000  1.0 0.5698231071
C  C269  1  0.72580000  0.65950000  0.56422000  1.0 0.5698231071
C  C270  1  0.27420000  0.83842000  0.93370000  1.0 0.5698231071
C  C271  1  0.09528000  0.16158000  0.43578000  1.0 0.5698231071
C  C272  1  0.90472000  0.34050000  0.06630000  1.0 0.5698231071
C  C273  1  0.56422000  0.72580000  0.65950000  1.0 0.5698231071
C  C274  1  0.93370000  0.27420000  0.83842000  1.0 0.5698231071
C  C275  1  0.43578000  0.09528000  0.16158000  1.0 0.5698231071
C  C276  1  0.06630000  0.90472000  0.34050000  1.0 0.5698231071
C  C277  1  0.35121000  0.40685000  0.23806000  1.0 -0.0128119908
C  C278  1  0.16879000  0.11315000  0.76194000  1.0 -0.0128119908
C  C279  1  0.83121000  0.59315000  0.94436000  1.0 -0.0128119908
C  C280  1  0.64879000  0.88685000  0.05564000  1.0 -0.0128119908
C  C281  1  0.23806000  0.35121000  0.40685000  1.0 -0.0128119908
C  C282  1  0.76194000  0.16879000  0.11315000  1.0 -0.0128119908
C  C283  1  0.94436000  0.83121000  0.59315000  1.0 -0.0128119908
C  C284  1  0.05564000  0.64879000  0.88685000  1.0 -0.0128119908
C  C285  1  0.40685000  0.23806000  0.35121000  1.0 -0.0128119908
C  C286  1  0.11315000  0.76194000  0.16879000  1.0 -0.0128119908
C  C287  1  0.59315000  0.94436000  0.83121000  1.0 -0.0128119908
C  C288  1  0.88685000  0.05564000  0.64879000  1.0 -0.0128119908
C  C289  1  0.64879000  0.59315000  0.76194000  1.0 -0.0128119908
C  C290  1  0.83121000  0.88685000  0.23806000  1.0 -0.0128119908
C  C291  1  0.16879000  0.40685000  0.05564000  1.0 -0.0128119908
C  C292  1  0.35121000  0.11315000  0.94436000  1.0 -0.0128119908
C  C293  1  0.76194000  0.64879000  0.59315000  1.0 -0.0128119908
C  C294  1  0.23806000  0.83121000  0.88685000  1.0 -0.0128119908
C  C295  1  0.05564000  0.16879000  0.40685000  1.0 -0.0128119908
C  C296  1  0.94436000  0.35121000  0.11315000  1.0 -0.0128119908
C  C297  1  0.59315000  0.76194000  0.64879000  1.0 -0.0128119908
C  C298  1  0.88685000  0.23806000  0.83121000  1.0 -0.0128119908
C  C299  1  0.40685000  0.05564000  0.16879000  1.0 -0.0128119908
C  C300  1  0.11315000  0.94436000  0.35121000  1.0 -0.0128119908
C  C301  1  0.38150000  0.38731000  0.25001000  1.0 -0.0969493082
C  C302  1  0.13730000  0.13149000  0.74999000  1.0 -0.0969493082
C  C303  1  0.86270000  0.61269000  0.99419000  1.0 -0.0969493082
C  C304  1  0.61850000  0.86851000  0.00581000  1.0 -0.0969493082
C  C305  1  0.25001000  0.38150000  0.38731000  1.0 -0.0969493082
C  C306  1  0.74999000  0.13730000  0.13149000  1.0 -0.0969493082
C  C307  1  0.99419000  0.86270000  0.61269000  1.0 -0.0969493082
C  C308  1  0.00581000  0.61850000  0.86851000  1.0 -0.0969493082
C  C309  1  0.38731000  0.25001000  0.38150000  1.0 -0.0969493082
C  C310  1  0.13149000  0.74999000  0.13730000  1.0 -0.0969493082
C  C311  1  0.61269000  0.99419000  0.86270000  1.0 -0.0969493082
C  C312  1  0.86851000  0.00581000  0.61850000  1.0 -0.0969493082
C  C313  1  0.61850000  0.61269000  0.74999000  1.0 -0.0969493082
C  C314  1  0.86270000  0.86851000  0.25001000  1.0 -0.0969493082
C  C315  1  0.13730000  0.38731000  0.00581000  1.0 -0.0969493082
C  C316  1  0.38150000  0.13149000  0.99419000  1.0 -0.0969493082
C  C317  1  0.74999000  0.61850000  0.61269000  1.0 -0.0969493082
C  C318  1  0.25001000  0.86270000  0.86851000  1.0 -0.0969493082
C  C319  1  0.00581000  0.13730000  0.38731000  1.0 -0.0969493082
C  C320  1  0.99419000  0.38150000  0.13149000  1.0 -0.0969493082
C  C321  1  0.61269000  0.74999000  0.61850000  1.0 -0.0969493082
C  C322  1  0.86851000  0.25001000  0.86270000  1.0 -0.0969493082
C  C323  1  0.38731000  0.00581000  0.13730000  1.0 -0.0969493082
C  C324  1  0.13149000  0.99419000  0.38150000  1.0 -0.0969493082
C  C325  1  0.39633000  0.36762000  0.21755000  1.0 -0.0329929451
C  C326  1  0.15007000  0.17878000  0.78245000  1.0 -0.0329929451
C  C327  1  0.84993000  0.63238000  0.02871000  1.0 -0.0329929451
C  C328  1  0.60367000  0.82122000  0.97129000  1.0 -0.0329929451
C  C329  1  0.21755000  0.39633000  0.36762000  1.0 -0.0329929451
C  C330  1  0.78245000  0.15007000  0.17878000  1.0 -0.0329929451
C  C331  1  0.02871000  0.84993000  0.63238000  1.0 -0.0329929451
C  C332  1  0.97129000  0.60367000  0.82122000  1.0 -0.0329929451
C  C333  1  0.36762000  0.21755000  0.39633000  1.0 -0.0329929451
C  C334  1  0.17878000  0.78245000  0.15007000  1.0 -0.0329929451
C  C335  1  0.63238000  0.02871000  0.84993000  1.0 -0.0329929451
C  C336  1  0.82122000  0.97129000  0.60367000  1.0 -0.0329929451
C  C337  1  0.60367000  0.63238000  0.78245000  1.0 -0.0329929451
C  C338  1  0.84993000  0.82122000  0.21755000  1.0 -0.0329929451
C  C339  1  0.15007000  0.36762000  0.97129000  1.0 -0.0329929451
C  C340  1  0.39633000  0.17878000  0.02871000  1.0 -0.0329929451
C  C341  1  0.78245000  0.60367000  0.63238000  1.0 -0.0329929451
C  C342  1  0.21755000  0.84993000  0.82122000  1.0 -0.0329929451
C  C343  1  0.97129000  0.15007000  0.36762000  1.0 -0.0329929451
C  C344  1  0.02871000  0.39633000  0.17878000  1.0 -0.0329929451
C  C345  1  0.63238000  0.78245000  0.60367000  1.0 -0.0329929451
C  C346  1  0.82122000  0.21755000  0.84993000  1.0 -0.0329929451
C  C347  1  0.36762000  0.97129000  0.15007000  1.0 -0.0329929451
C  C348  1  0.17878000  0.02871000  0.39633000  1.0 -0.0329929451
C  C349  1  0.38096000  0.36757000  0.17313000  1.0 -0.1273086468
C  C350  1  0.19444000  0.20783000  0.82687000  1.0 -0.1273086468
C  C351  1  0.80556000  0.63243000  0.01339000  1.0 -0.1273086468
C  C352  1  0.61904000  0.79217000  0.98661000  1.0 -0.1273086468
C  C353  1  0.17313000  0.38096000  0.36757000  1.0 -0.1273086468
C  C354  1  0.82687000  0.19444000  0.20783000  1.0 -0.1273086468
C  C355  1  0.01339000  0.80556000  0.63243000  1.0 -0.1273086468
C  C356  1  0.98661000  0.61904000  0.79217000  1.0 -0.1273086468
C  C357  1  0.36757000  0.17313000  0.38096000  1.0 -0.1273086468
C  C358  1  0.20783000  0.82687000  0.19444000  1.0 -0.1273086468
C  C359  1  0.63243000  0.01339000  0.80556000  1.0 -0.1273086468
C  C360  1  0.79217000  0.98661000  0.61904000  1.0 -0.1273086468
C  C361  1  0.61904000  0.63243000  0.82687000  1.0 -0.1273086468
C  C362  1  0.80556000  0.79217000  0.17313000  1.0 -0.1273086468
C  C363  1  0.19444000  0.36757000  0.98661000  1.0 -0.1273086468
C  C364  1  0.38096000  0.20783000  0.01339000  1.0 -0.1273086468
C  C365  1  0.82687000  0.61904000  0.63243000  1.0 -0.1273086468
C  C366  1  0.17313000  0.80556000  0.79217000  1.0 -0.1273086468
C  C367  1  0.98661000  0.19444000  0.36757000  1.0 -0.1273086468
C  C368  1  0.01339000  0.38096000  0.20783000  1.0 -0.1273086468
C  C369  1  0.63243000  0.82687000  0.61904000  1.0 -0.1273086468
C  C370  1  0.79217000  0.17313000  0.80556000  1.0 -0.1273086468
C  C371  1  0.36757000  0.98661000  0.19444000  1.0 -0.1273086468
C  C372  1  0.20783000  0.01339000  0.38096000  1.0 -0.1273086468
C  C373  1  0.35067000  0.38710000  0.16117000  1.0 0.038092027
C  C374  1  0.22593000  0.18950000  0.83883000  1.0 0.038092027
C  C375  1  0.77407000  0.61290000  0.96357000  1.0 0.038092027
C  C376  1  0.64933000  0.81050000  0.03643000  1.0 0.038092027
C  C377  1  0.16117000  0.35067000  0.38710000  1.0 0.038092027
C  C378  1  0.83883000  0.22593000  0.18950000  1.0 0.038092027
C  C379  1  0.96357000  0.77407000  0.61290000  1.0 0.038092027
C  C380  1  0.03643000  0.64933000  0.81050000  1.0 0.038092027
C  C381  1  0.38710000  0.16117000  0.35067000  1.0 0.038092027
C  C382  1  0.18950000  0.83883000  0.22593000  1.0 0.038092027
C  C383  1  0.61290000  0.96357000  0.77407000  1.0 0.038092027
C  C384  1  0.81050000  0.03643000  0.64933000  1.0 0.038092027
C  C385  1  0.64933000  0.61290000  0.83883000  1.0 0.038092027
C  C386  1  0.77407000  0.81050000  0.16117000  1.0 0.038092027
C  C387  1  0.22593000  0.38710000  0.03643000  1.0 0.038092027
C  C388  1  0.35067000  0.18950000  0.96357000  1.0 0.038092027
C  C389  1  0.83883000  0.64933000  0.61290000  1.0 0.038092027
C  C390  1  0.16117000  0.77407000  0.81050000  1.0 0.038092027
C  C391  1  0.03643000  0.22593000  0.38710000  1.0 0.038092027
C  C392  1  0.96357000  0.35067000  0.18950000  1.0 0.038092027
C  C393  1  0.61290000  0.83883000  0.64933000  1.0 0.038092027
C  C394  1  0.81050000  0.16117000  0.77407000  1.0 0.038092027
C  C395  1  0.38710000  0.03643000  0.22593000  1.0 0.038092027
C  C396  1  0.18950000  0.96357000  0.35067000  1.0 0.038092027
C  C397  1  0.33584000  0.40680000  0.19364000  1.0 -0.1081632379
C  C398  1  0.21316000  0.14220000  0.80636000  1.0 -0.1081632379
C  C399  1  0.78684000  0.59320000  0.92904000  1.0 -0.1081632379
C  C400  1  0.66416000  0.85780000  0.07096000  1.0 -0.1081632379
C  C401  1  0.19364000  0.33584000  0.40680000  1.0 -0.1081632379
C  C402  1  0.80636000  0.21316000  0.14220000  1.0 -0.1081632379
C  C403  1  0.92904000  0.78684000  0.59320000  1.0 -0.1081632379
C  C404  1  0.07096000  0.66416000  0.85780000  1.0 -0.1081632379
C  C405  1  0.40680000  0.19364000  0.33584000  1.0 -0.1081632379
C  C406  1  0.14220000  0.80636000  0.21316000  1.0 -0.1081632379
C  C407  1  0.59320000  0.92904000  0.78684000  1.0 -0.1081632379
C  C408  1  0.85780000  0.07096000  0.66416000  1.0 -0.1081632379
C  C409  1  0.66416000  0.59320000  0.80636000  1.0 -0.1081632379
C  C410  1  0.78684000  0.85780000  0.19364000  1.0 -0.1081632379
C  C411  1  0.21316000  0.40680000  0.07096000  1.0 -0.1081632379
C  C412  1  0.33584000  0.14220000  0.92904000  1.0 -0.1081632379
C  C413  1  0.80636000  0.66416000  0.59320000  1.0 -0.1081632379
C  C414  1  0.19364000  0.78684000  0.85780000  1.0 -0.1081632379
C  C415  1  0.07096000  0.21316000  0.40680000  1.0 -0.1081632379
C  C416  1  0.92904000  0.33584000  0.14220000  1.0 -0.1081632379
C  C417  1  0.59320000  0.80636000  0.66416000  1.0 -0.1081632379
C  C418  1  0.85780000  0.19364000  0.78684000  1.0 -0.1081632379
C  C419  1  0.40680000  0.07096000  0.21316000  1.0 -0.1081632379
C  C420  1  0.14220000  0.92904000  0.33584000  1.0 -0.1081632379
C  C421  1  0.43270000  0.35207000  0.23557000  1.0 0.6511795928
C  C422  1  0.11650000  0.19713000  0.76443000  1.0 0.6511795928
C  C423  1  0.88350000  0.64793000  0.08063000  1.0 0.6511795928
C  C424  1  0.56730000  0.80287000  0.91937000  1.0 0.6511795928
C  C425  1  0.23557000  0.43270000  0.35207000  1.0 0.6511795928
C  C426  1  0.76443000  0.11650000  0.19713000  1.0 0.6511795928
C  C427  1  0.08063000  0.88350000  0.64793000  1.0 0.6511795928
C  C428  1  0.91937000  0.56730000  0.80287000  1.0 0.6511795928
C  C429  1  0.35207000  0.23557000  0.43270000  1.0 0.6511795928
C  C430  1  0.19713000  0.76443000  0.11650000  1.0 0.6511795928
C  C431  1  0.64793000  0.08063000  0.88350000  1.0 0.6511795928
C  C432  1  0.80287000  0.91937000  0.56730000  1.0 0.6511795928
C  C433  1  0.56730000  0.64793000  0.76443000  1.0 0.6511795928
C  C434  1  0.88350000  0.80287000  0.23557000  1.0 0.6511795928
C  C435  1  0.11650000  0.35207000  0.91937000  1.0 0.6511795928
C  C436  1  0.43270000  0.19713000  0.08063000  1.0 0.6511795928
C  C437  1  0.76443000  0.56730000  0.64793000  1.0 0.6511795928
C  C438  1  0.23557000  0.88350000  0.80287000  1.0 0.6511795928
C  C439  1  0.91937000  0.11650000  0.35207000  1.0 0.6511795928
C  C440  1  0.08063000  0.43270000  0.19713000  1.0 0.6511795928
C  C441  1  0.64793000  0.76443000  0.56730000  1.0 0.6511795928
C  C442  1  0.80287000  0.23557000  0.88350000  1.0 0.6511795928
C  C443  1  0.35207000  0.91937000  0.11650000  1.0 0.6511795928
C  C444  1  0.19713000  0.08063000  0.43270000  1.0 0.6511795928
C  C445  1  0.33413000  0.38460000  0.11293000  1.0 0.2007165287
C  C446  1  0.27167000  0.22120000  0.88707000  1.0 0.2007165287
C  C447  1  0.72833000  0.61540000  0.94953000  1.0 0.2007165287
C  C448  1  0.66587000  0.77880000  0.05047000  1.0 0.2007165287
C  C449  1  0.11293000  0.33413000  0.38460000  1.0 0.2007165287
C  C450  1  0.88707000  0.27167000  0.22120000  1.0 0.2007165287
C  C451  1  0.94953000  0.72833000  0.61540000  1.0 0.2007165287
C  C452  1  0.05047000  0.66587000  0.77880000  1.0 0.2007165287
C  C453  1  0.38460000  0.11293000  0.33413000  1.0 0.2007165287
C  C454  1  0.22120000  0.88707000  0.27167000  1.0 0.2007165287
C  C455  1  0.61540000  0.94953000  0.72833000  1.0 0.2007165287
C  C456  1  0.77880000  0.05047000  0.66587000  1.0 0.2007165287
C  C457  1  0.66587000  0.61540000  0.88707000  1.0 0.2007165287
C  C458  1  0.72833000  0.77880000  0.11293000  1.0 0.2007165287
C  C459  1  0.27167000  0.38460000  0.05047000  1.0 0.2007165287
C  C460  1  0.33413000  0.22120000  0.94953000  1.0 0.2007165287
C  C461  1  0.88707000  0.66587000  0.61540000  1.0 0.2007165287
C  C462  1  0.11293000  0.72833000  0.77880000  1.0 0.2007165287
C  C463  1  0.05047000  0.27167000  0.38460000  1.0 0.2007165287
C  C464  1  0.94953000  0.33413000  0.22120000  1.0 0.2007165287
C  C465  1  0.61540000  0.88707000  0.66587000  1.0 0.2007165287
C  C466  1  0.77880000  0.11293000  0.72833000  1.0 0.2007165287
C  C467  1  0.38460000  0.05047000  0.27167000  1.0 0.2007165287
C  C468  1  0.22120000  0.94953000  0.33413000  1.0 0.2007165287
C  C469  1  0.36093000  0.38630000  0.08843000  1.0 -0.2009996067
C  C470  1  0.29787000  0.27250000  0.91157000  1.0 -0.2009996067
C  C471  1  0.70213000  0.61370000  0.97463000  1.0 -0.2009996067
C  C472  1  0.63907000  0.72750000  0.02537000  1.0 -0.2009996067
C  C473  1  0.08843000  0.36093000  0.38630000  1.0 -0.2009996067
C  C474  1  0.91157000  0.29787000  0.27250000  1.0 -0.2009996067
C  C475  1  0.97463000  0.70213000  0.61370000  1.0 -0.2009996067
C  C476  1  0.02537000  0.63907000  0.72750000  1.0 -0.2009996067
C  C477  1  0.38630000  0.08843000  0.36093000  1.0 -0.2009996067
C  C478  1  0.27250000  0.91157000  0.29787000  1.0 -0.2009996067
C  C479  1  0.61370000  0.97463000  0.70213000  1.0 -0.2009996067
C  C480  1  0.72750000  0.02537000  0.63907000  1.0 -0.2009996067
C  C481  1  0.63907000  0.61370000  0.91157000  1.0 -0.2009996067
C  C482  1  0.70213000  0.72750000  0.08843000  1.0 -0.2009996067
C  C483  1  0.29787000  0.38630000  0.02537000  1.0 -0.2009996067
C  C484  1  0.36093000  0.27250000  0.97463000  1.0 -0.2009996067
C  C485  1  0.91157000  0.63907000  0.61370000  1.0 -0.2009996067
C  C486  1  0.08843000  0.70213000  0.72750000  1.0 -0.2009996067
C  C487  1  0.02537000  0.29787000  0.38630000  1.0 -0.2009996067
C  C488  1  0.97463000  0.36093000  0.27250000  1.0 -0.2009996067
C  C489  1  0.61370000  0.91157000  0.63907000  1.0 -0.2009996067
C  C490  1  0.72750000  0.08843000  0.70213000  1.0 -0.2009996067
C  C491  1  0.38630000  0.02537000  0.29787000  1.0 -0.2009996067
C  C492  1  0.27250000  0.97463000  0.36093000  1.0 -0.2009996067
C  C493  1  0.34260000  0.38710000  0.04450000  1.0 -0.0471319756
C  C494  1  0.34260000  0.29810000  0.95550000  1.0 -0.0471319756
C  C495  1  0.65740000  0.61290000  0.95550000  1.0 -0.0471319756
C  C496  1  0.65740000  0.70190000  0.04450000  1.0 -0.0471319756
C  C497  1  0.04450000  0.34260000  0.38710000  1.0 -0.0471319756
C  C498  1  0.95550000  0.34260000  0.29810000  1.0 -0.0471319756
C  C499  1  0.95550000  0.65740000  0.61290000  1.0 -0.0471319756
C  C500  1  0.04450000  0.65740000  0.70190000  1.0 -0.0471319756
C  C501  1  0.38710000  0.04450000  0.34260000  1.0 -0.0471319756
C  C502  1  0.29810000  0.95550000  0.34260000  1.0 -0.0471319756
C  C503  1  0.61290000  0.95550000  0.65740000  1.0 -0.0471319756
C  C504  1  0.70190000  0.04450000  0.65740000  1.0 -0.0471319756
C  C505  1  0.24190000  0.49880000  0.25690000  1.0 0.5612043177
C  C506  1  0.24190000  0.98500000  0.74310000  1.0 0.5612043177
C  C507  1  0.75810000  0.50120000  0.74310000  1.0 0.5612043177
C  C508  1  0.75810000  0.01500000  0.25690000  1.0 0.5612043177
C  C509  1  0.25690000  0.24190000  0.49880000  1.0 0.5612043177
C  C510  1  0.74310000  0.24190000  0.98500000  1.0 0.5612043177
C  C511  1  0.74310000  0.75810000  0.50120000  1.0 0.5612043177
C  C512  1  0.25690000  0.75810000  0.01500000  1.0 0.5612043177
C  C513  1  0.49880000  0.25690000  0.24190000  1.0 0.5612043177
C  C514  1  0.98500000  0.74310000  0.24190000  1.0 0.5612043177
C  C515  1  0.50120000  0.74310000  0.75810000  1.0 0.5612043177
C  C516  1  0.01500000  0.25690000  0.75810000  1.0 0.5612043177
C  C517  1  0.12330000  0.47900000  0.35570000  1.0 0.4145164756
C  C518  1  0.12330000  0.76760000  0.64430000  1.0 0.4145164756
C  C519  1  0.87670000  0.52100000  0.64430000  1.0 0.4154508446
C  C520  1  0.87670000  0.23240000  0.35570000  1.0 0.4145164756
C  C521  1  0.35570000  0.12330000  0.47900000  1.0 0.4145164756
C  C522  1  0.64430000  0.12330000  0.76760000  1.0 0.4145164756
C  C523  1  0.64430000  0.87670000  0.52100000  1.0 0.4154508446
C  C524  1  0.35570000  0.87670000  0.23240000  1.0 0.4145164756
C  C525  1  0.47900000  0.35570000  0.12330000  1.0 0.4145164756
C  C526  1  0.76760000  0.64430000  0.12330000  1.0 0.4154508446
C  C527  1  0.52100000  0.64430000  0.87670000  1.0 0.4145164756
C  C528  1  0.23240000  0.35570000  0.87670000  1.0 0.4145164756
C  C529  1  0.31524000  0.59994000  0.46930000  1.0 0.038092027
C  C530  1  0.13064000  0.84594000  0.53070000  1.0 0.038092027
C  C531  1  0.86936000  0.40006000  0.71530000  1.0 0.038092027
C  C532  1  0.68476000  0.15406000  0.28470000  1.0 0.038092027
C  C533  1  0.46930000  0.31524000  0.59994000  1.0 0.038092027
C  C534  1  0.53070000  0.13064000  0.84594000  1.0 0.038092027
C  C535  1  0.71530000  0.86936000  0.40006000  1.0 0.038092027
C  C536  1  0.28470000  0.68476000  0.15406000  1.0 0.038092027
C  C537  1  0.59994000  0.46930000  0.31524000  1.0 0.038092027
C  C538  1  0.84594000  0.53070000  0.13064000  1.0 0.038092027
C  C539  1  0.40006000  0.71530000  0.86936000  1.0 0.038092027
C  C540  1  0.15406000  0.28470000  0.68476000  1.0 0.038092027
C  C541  1  0.68476000  0.40006000  0.53070000  1.0 0.038092027
C  C542  1  0.86936000  0.15406000  0.46930000  1.0 0.038092027
C  C543  1  0.13064000  0.59994000  0.28470000  1.0 0.038092027
C  C544  1  0.31524000  0.84594000  0.71530000  1.0 0.038092027
C  C545  1  0.53070000  0.68476000  0.40006000  1.0 0.038092027
C  C546  1  0.46930000  0.86936000  0.15406000  1.0 0.038092027
C  C547  1  0.28470000  0.13064000  0.59994000  1.0 0.038092027
C  C548  1  0.71530000  0.31524000  0.84594000  1.0 0.038092027
C  C549  1  0.40006000  0.53070000  0.68476000  1.0 0.038092027
C  C550  1  0.15406000  0.46930000  0.86936000  1.0 0.038092027
C  C551  1  0.59994000  0.28470000  0.13064000  1.0 0.038092027
C  C552  1  0.84594000  0.71530000  0.31524000  1.0 0.038092027
C  C553  1  0.35705000  0.60835000  0.50710000  1.0 -0.1191057886
C  C554  1  0.10125000  0.84995000  0.49290000  1.0 -0.1191057886
C  C555  1  0.89875000  0.39165000  0.74870000  1.0 -0.1191057886
C  C556  1  0.64295000  0.15005000  0.25130000  1.0 -0.1191057886
C  C557  1  0.50710000  0.35705000  0.60835000  1.0 -0.1191057886
C  C558  1  0.49290000  0.10125000  0.84995000  1.0 -0.1191057886
C  C559  1  0.74870000  0.89875000  0.39165000  1.0 -0.1191057886
C  C560  1  0.25130000  0.64295000  0.15005000  1.0 -0.1191057886
C  C561  1  0.60835000  0.50710000  0.35705000  1.0 -0.1191057886
C  C562  1  0.84995000  0.49290000  0.10125000  1.0 -0.1191057886
C  C563  1  0.39165000  0.74870000  0.89875000  1.0 -0.1191057886
C  C564  1  0.15005000  0.25130000  0.64295000  1.0 -0.1191057886
C  C565  1  0.64295000  0.39165000  0.49290000  1.0 -0.1191057886
C  C566  1  0.89875000  0.15005000  0.50710000  1.0 -0.1191057886
C  C567  1  0.10125000  0.60835000  0.25130000  1.0 -0.1191057886
C  C568  1  0.35705000  0.84995000  0.74870000  1.0 -0.1191057886
C  C569  1  0.49290000  0.64295000  0.39165000  1.0 -0.1191057886
C  C570  1  0.50710000  0.89875000  0.15005000  1.0 -0.1191057886
C  C571  1  0.25130000  0.10125000  0.60835000  1.0 -0.1191057886
C  C572  1  0.74870000  0.35705000  0.84995000  1.0 -0.1191057886
C  C573  1  0.39165000  0.49290000  0.64295000  1.0 -0.1191057886
C  C574  1  0.15005000  0.50710000  0.89875000  1.0 -0.1191057886
C  C575  1  0.60835000  0.25130000  0.10125000  1.0 -0.1191057886
C  C576  1  0.84995000  0.74870000  0.35705000  1.0 -0.1191057886
C  C577  1  0.37035000  0.63605000  0.55590000  1.0 0.0297224927
C  C578  1  0.08015000  0.81445000  0.44410000  1.0 0.0297224927
C  C579  1  0.91985000  0.36395000  0.73430000  1.0 0.0297224927
C  C580  1  0.62965000  0.18555000  0.26570000  1.0 0.0297224927
C  C581  1  0.55590000  0.37035000  0.63605000  1.0 0.0297224927
C  C582  1  0.44410000  0.08015000  0.81445000  1.0 0.0297224927
C  C583  1  0.73430000  0.91985000  0.36395000  1.0 0.0297224927
C  C584  1  0.26570000  0.62965000  0.18555000  1.0 0.0297224927
C  C585  1  0.63605000  0.55590000  0.37035000  1.0 0.0297224927
C  C586  1  0.81445000  0.44410000  0.08015000  1.0 0.0297224927
C  C587  1  0.36395000  0.73430000  0.91985000  1.0 0.0297224927
C  C588  1  0.18555000  0.26570000  0.62965000  1.0 0.0297224927
C  C589  1  0.62965000  0.36395000  0.44410000  1.0 0.0297224927
C  C590  1  0.91985000  0.18555000  0.55590000  1.0 0.0297224927
C  C591  1  0.08015000  0.63605000  0.26570000  1.0 0.0297224927
C  C592  1  0.37035000  0.81445000  0.73430000  1.0 0.0297224927
C  C593  1  0.44410000  0.62965000  0.36395000  1.0 0.0297224927
C  C594  1  0.55590000  0.91985000  0.18555000  1.0 0.0297224927
C  C595  1  0.26570000  0.08015000  0.63605000  1.0 0.0297224927
C  C596  1  0.73430000  0.37035000  0.81445000  1.0 0.0297224927
C  C597  1  0.36395000  0.44410000  0.62965000  1.0 0.0297224927
C  C598  1  0.18555000  0.55590000  0.91985000  1.0 0.0297224927
C  C599  1  0.63605000  0.26570000  0.08015000  1.0 0.0297224927
C  C600  1  0.81445000  0.73430000  0.37035000  1.0 0.0297224927
C  C601  1  0.34170000  0.65540000  0.56690000  1.0 -0.1273086468
C  C602  1  0.08850000  0.77480000  0.43310000  1.0 -0.1273086468
C  C603  1  0.91150000  0.34460000  0.68630000  1.0 -0.1273086468
C  C604  1  0.65830000  0.22520000  0.31370000  1.0 -0.1273086468
C  C605  1  0.56690000  0.34170000  0.65540000  1.0 -0.1273086468
C  C606  1  0.43310000  0.08850000  0.77480000  1.0 -0.1273086468
C  C607  1  0.68630000  0.91150000  0.34460000  1.0 -0.1273086468
C  C608  1  0.31370000  0.65830000  0.22520000  1.0 -0.1273086468
C  C609  1  0.65540000  0.56690000  0.34170000  1.0 -0.1273086468
C  C610  1  0.77480000  0.43310000  0.08850000  1.0 -0.1273086468
C  C611  1  0.34460000  0.68630000  0.91150000  1.0 -0.1273086468
C  C612  1  0.22520000  0.31370000  0.65830000  1.0 -0.1273086468
C  C613  1  0.65830000  0.34460000  0.43310000  1.0 -0.1273086468
C  C614  1  0.91150000  0.22520000  0.56690000  1.0 -0.1273086468
C  C615  1  0.08850000  0.65540000  0.31370000  1.0 -0.1273086468
C  C616  1  0.34170000  0.77480000  0.68630000  1.0 -0.1273086468
C  C617  1  0.43310000  0.65830000  0.34460000  1.0 -0.1273086468
C  C618  1  0.56690000  0.91150000  0.22520000  1.0 -0.1273086468
C  C619  1  0.31370000  0.08850000  0.65540000  1.0 -0.1273086468
C  C620  1  0.68630000  0.34170000  0.77480000  1.0 -0.1273086468
C  C621  1  0.34460000  0.43310000  0.65830000  1.0 -0.1273086468
C  C622  1  0.22520000  0.56690000  0.91150000  1.0 -0.1273086468
C  C623  1  0.65540000  0.31370000  0.08850000  1.0 -0.1273086468
C  C624  1  0.77480000  0.68630000  0.34170000  1.0 -0.1273086468
C  C625  1  0.29990000  0.64710000  0.52920000  1.0 0.038092027
C  C626  1  0.11790000  0.77070000  0.47080000  1.0 0.038092027
C  C627  1  0.88210000  0.35290000  0.65280000  1.0 0.038092027
C  C628  1  0.70010000  0.22930000  0.34720000  1.0 0.038092027
C  C629  1  0.52920000  0.29990000  0.64710000  1.0 0.038092027
C  C630  1  0.47080000  0.11790000  0.77070000  1.0 0.038092027
C  C631  1  0.65280000  0.88210000  0.35290000  1.0 0.038092027
C  C632  1  0.34720000  0.70010000  0.22930000  1.0 0.038092027
C  C633  1  0.64710000  0.52920000  0.29990000  1.0 0.038092027
C  C634  1  0.77070000  0.47080000  0.11790000  1.0 0.038092027
C  C635  1  0.35290000  0.65280000  0.88210000  1.0 0.038092027
C  C636  1  0.22930000  0.34720000  0.70010000  1.0 0.038092027
C  C637  1  0.70010000  0.35290000  0.47080000  1.0 0.038092027
C  C638  1  0.88210000  0.22930000  0.52920000  1.0 0.038092027
C  C639  1  0.11790000  0.64710000  0.34720000  1.0 0.038092027
C  C640  1  0.29990000  0.77070000  0.65280000  1.0 0.038092027
C  C641  1  0.47080000  0.70010000  0.35290000  1.0 0.038092027
C  C642  1  0.52920000  0.88210000  0.22930000  1.0 0.038092027
C  C643  1  0.34720000  0.11790000  0.64710000  1.0 0.038092027
C  C644  1  0.65280000  0.29990000  0.77070000  1.0 0.038092027
C  C645  1  0.35290000  0.47080000  0.70010000  1.0 0.038092027
C  C646  1  0.22930000  0.52920000  0.88210000  1.0 0.038092027
C  C647  1  0.64710000  0.34720000  0.11790000  1.0 0.038092027
C  C648  1  0.77070000  0.65280000  0.29990000  1.0 0.038092027
C  C649  1  0.28663000  0.61933000  0.48030000  1.0 -0.1512934705
C  C650  1  0.13903000  0.80633000  0.51970000  1.0 -0.1512934705
C  C651  1  0.86097000  0.38067000  0.66730000  1.0 -0.1512934705
C  C652  1  0.71337000  0.19367000  0.33270000  1.0 -0.1512934705
C  C653  1  0.48030000  0.28663000  0.61933000  1.0 -0.1512934705
C  C654  1  0.51970000  0.13903000  0.80633000  1.0 -0.1512934705
C  C655  1  0.66730000  0.86097000  0.38067000  1.0 -0.1512934705
C  C656  1  0.33270000  0.71337000  0.19367000  1.0 -0.1512934705
C  C657  1  0.61933000  0.48030000  0.28663000  1.0 -0.1512934705
C  C658  1  0.80633000  0.51970000  0.13903000  1.0 -0.1512934705
C  C659  1  0.38067000  0.66730000  0.86097000  1.0 -0.1512934705
C  C660  1  0.19367000  0.33270000  0.71337000  1.0 -0.1512934705
C  C661  1  0.71337000  0.38067000  0.51970000  1.0 -0.1512934705
C  C662  1  0.86097000  0.19367000  0.48030000  1.0 -0.1512934705
C  C663  1  0.13903000  0.61933000  0.33270000  1.0 -0.1512934705
C  C664  1  0.28663000  0.80633000  0.66730000  1.0 -0.1512934705
C  C665  1  0.51970000  0.71337000  0.38067000  1.0 -0.1512934705
C  C666  1  0.48030000  0.86097000  0.19367000  1.0 -0.1512934705
C  C667  1  0.33270000  0.13903000  0.61933000  1.0 -0.1512934705
C  C668  1  0.66730000  0.28663000  0.80633000  1.0 -0.1512934705
C  C669  1  0.38067000  0.51970000  0.71337000  1.0 -0.1512934705
C  C670  1  0.19367000  0.48030000  0.86097000  1.0 -0.1512934705
C  C671  1  0.61933000  0.33270000  0.13903000  1.0 -0.1512934705
C  C672  1  0.80633000  0.66730000  0.28663000  1.0 -0.1512934705
C  C673  1  0.26890000  0.66681000  0.53931000  1.0 0.0790880681
C  C674  1  0.12750000  0.72959000  0.46069000  1.0 0.0790880681
C  C675  1  0.87250000  0.33319000  0.60209000  1.0 0.0790880681
C  C676  1  0.73110000  0.27041000  0.39791000  1.0 0.0790880681
C  C677  1  0.53931000  0.26890000  0.66681000  1.0 0.0790880681
C  C678  1  0.46069000  0.12750000  0.72959000  1.0 0.0790880681
C  C679  1  0.60209000  0.87250000  0.33319000  1.0 0.0790880681
C  C680  1  0.39791000  0.73110000  0.27041000  1.0 0.0790880681
C  C681  1  0.66681000  0.53931000  0.26890000  1.0 0.0790880681
C  C682  1  0.72959000  0.46069000  0.12750000  1.0 0.0790880681
C  C683  1  0.33319000  0.60209000  0.87250000  1.0 0.0790880681
C  C684  1  0.27041000  0.39791000  0.73110000  1.0 0.0790880681
C  C685  1  0.73110000  0.33319000  0.46069000  1.0 0.0790880681
C  C686  1  0.87250000  0.27041000  0.53931000  1.0 0.0790880681
C  C687  1  0.12750000  0.66681000  0.39791000  1.0 0.0790880681
C  C688  1  0.26890000  0.72959000  0.60209000  1.0 0.0790880681
C  C689  1  0.46069000  0.73110000  0.33319000  1.0 0.0790880681
C  C690  1  0.53931000  0.87250000  0.27041000  1.0 0.0790880681
C  C691  1  0.39791000  0.12750000  0.66681000  1.0 0.0790880681
C  C692  1  0.60209000  0.26890000  0.72959000  1.0 0.0790880681
C  C693  1  0.33319000  0.46069000  0.73110000  1.0 0.0790880681
C  C694  1  0.27041000  0.53931000  0.87250000  1.0 0.0790880681
C  C695  1  0.66681000  0.39791000  0.12750000  1.0 0.0790880681
C  C696  1  0.72959000  0.60209000  0.26890000  1.0 0.0790880681
C  C697  1  0.21810000  0.64467000  0.51057000  1.0 -0.0933426659
C  C698  1  0.13410000  0.70753000  0.48943000  1.0 -0.0933426659
C  C699  1  0.86590000  0.35533000  0.57343000  1.0 -0.0933426659
C  C700  1  0.78190000  0.29247000  0.42657000  1.0 -0.0933426659
C  C701  1  0.51057000  0.21810000  0.64467000  1.0 -0.0933426659
C  C702  1  0.48943000  0.13410000  0.70753000  1.0 -0.0933426659
C  C703  1  0.57343000  0.86590000  0.35533000  1.0 -0.0933426659
C  C704  1  0.42657000  0.78190000  0.29247000  1.0 -0.0933426659
C  C705  1  0.64467000  0.51057000  0.21810000  1.0 -0.0933426659
C  C706  1  0.70753000  0.48943000  0.13410000  1.0 -0.0933426659
C  C707  1  0.35533000  0.57343000  0.86590000  1.0 -0.0933426659
C  C708  1  0.29247000  0.42657000  0.78190000  1.0 -0.0933426659
C  C709  1  0.78190000  0.35533000  0.48943000  1.0 -0.0933426659
C  C710  1  0.86590000  0.29247000  0.51057000  1.0 -0.0933426659
C  C711  1  0.13410000  0.64467000  0.42657000  1.0 -0.0933426659
C  C712  1  0.21810000  0.70753000  0.57343000  1.0 -0.0933426659
C  C713  1  0.48943000  0.78190000  0.35533000  1.0 -0.0933426659
C  C714  1  0.51057000  0.86590000  0.29247000  1.0 -0.0933426659
C  C715  1  0.42657000  0.13410000  0.64467000  1.0 -0.0933426659
C  C716  1  0.57343000  0.21810000  0.70753000  1.0 -0.0933426659
C  C717  1  0.35533000  0.48943000  0.78190000  1.0 -0.0933426659
C  C718  1  0.29247000  0.51057000  0.86590000  1.0 -0.0933426659
C  C719  1  0.64467000  0.42657000  0.13410000  1.0 -0.0933426659
C  C720  1  0.70753000  0.57343000  0.21810000  1.0 -0.0933426659
C  C721  1  0.19250000  0.66490000  0.52760000  1.0 -0.1081632379
C  C722  1  0.13730000  0.66490000  0.47240000  1.0 -0.1081632379
C  C723  1  0.86270000  0.33510000  0.52760000  1.0 -0.1081632379
C  C724  1  0.80750000  0.33510000  0.47240000  1.0 -0.1081632379
C  C725  1  0.52760000  0.19250000  0.66490000  1.0 -0.1081632379
C  C726  1  0.47240000  0.13730000  0.66490000  1.0 -0.1081632379
C  C727  1  0.52760000  0.86270000  0.33510000  1.0 -0.1081632379
C  C728  1  0.47240000  0.80750000  0.33510000  1.0 -0.1081632379
C  C729  1  0.66490000  0.52760000  0.19250000  1.0 -0.1081632379
C  C730  1  0.66490000  0.47240000  0.13730000  1.0 -0.1081632379
C  C731  1  0.33510000  0.52760000  0.86270000  1.0 -0.1081632379
C  C732  1  0.33510000  0.47240000  0.80750000  1.0 -0.1081632379
N  N1  1  0.29440000  0.69710000  0.59730000  1.0 -0.0800342746
N  N2  1  0.09980000  0.69710000  0.40270000  1.0 -0.0800342746
N  N3  1  0.90020000  0.30290000  0.59730000  1.0 -0.0800342746
N  N4  1  0.70560000  0.30290000  0.40270000  1.0 -0.0800342746
N  N5  1  0.59730000  0.29440000  0.69710000  1.0 -0.0800342746
N  N6  1  0.40270000  0.09980000  0.69710000  1.0 -0.0800342746
N  N7  1  0.59730000  0.90020000  0.30290000  1.0 -0.0800342746
N  N8  1  0.40270000  0.70560000  0.30290000  1.0 -0.0800342746
N  N9  1  0.69710000  0.59730000  0.29440000  1.0 -0.0800342746
N  N10  1  0.69710000  0.40270000  0.09980000  1.0 -0.0800342746
N  N11  1  0.30290000  0.59730000  0.90020000  1.0 -0.0800342746
N  N12  1  0.30290000  0.40270000  0.70560000  1.0 -0.0800342746
N  N13  1  0.28940000  0.38370000  0.09430000  1.0 -0.3544335629
N  N14  1  0.28940000  0.19510000  0.90570000  1.0 -0.355012622
N  N15  1  0.71060000  0.61630000  0.90570000  1.0 -0.355012622
N  N16  1  0.71060000  0.80490000  0.09430000  1.0 -0.355012622
N  N17  1  0.09430000  0.28940000  0.38370000  1.0 -0.355012622
N  N18  1  0.90570000  0.28940000  0.19510000  1.0 -0.3544335629
N  N19  1  0.90570000  0.71060000  0.61630000  1.0 -0.3544335629
N  N20  1  0.09430000  0.71060000  0.80490000  1.0 -0.355012622
N  N21  1  0.38370000  0.09430000  0.28940000  1.0 -0.3544335629
N  N22  1  0.19510000  0.90570000  0.28940000  1.0 -0.355012622
N  N23  1  0.61630000  0.90570000  0.71060000  1.0 -0.355012622
N  N24  1  0.80490000  0.09430000  0.71060000  1.0 -0.3544335629
N  N25  1  0.29430000  0.70930000  0.58500000  1.0 -0.0800342746
N  N26  1  0.12430000  0.70930000  0.41500000  1.0 -0.0800342746
N  N27  1  0.87570000  0.29070000  0.58500000  1.0 -0.0800342746
N  N28  1  0.70570000  0.29070000  0.41500000  1.0 -0.0800342746
N  N29  1  0.58500000  0.29430000  0.70930000  1.0 -0.0800342746
N  N30  1  0.41500000  0.12430000  0.70930000  1.0 -0.0800342746
N  N31  1  0.58500000  0.87570000  0.29070000  1.0 -0.0800342746
N  N32  1  0.41500000  0.70570000  0.29070000  1.0 -0.0800342746
N  N33  1  0.70930000  0.58500000  0.29430000  1.0 -0.0800342746
N  N34  1  0.70930000  0.41500000  0.12430000  1.0 -0.0800342746
N  N35  1  0.29070000  0.58500000  0.87570000  1.0 -0.0800342746
N  N36  1  0.29070000  0.41500000  0.70570000  1.0 -0.0800342746
O  O1  1  0.25776000  0.56170000  0.38086000  1.0 -0.629302009
O  O2  1  0.18084000  0.87690000  0.61914000  1.0 -0.629302009
O  O3  1  0.81916000  0.43830000  0.69606000  1.0 -0.629302009
O  O4  1  0.74224000  0.12310000  0.30394000  1.0 -0.629302009
O  O5  1  0.38086000  0.25776000  0.56170000  1.0 -0.629302009
O  O6  1  0.61914000  0.18084000  0.87690000  1.0 -0.629302009
O  O7  1  0.69606000  0.81916000  0.43830000  1.0 -0.629302009
O  O8  1  0.30394000  0.74224000  0.12310000  1.0 -0.629302009
O  O9  1  0.56170000  0.38086000  0.25776000  1.0 -0.629302009
O  O10  1  0.87690000  0.61914000  0.18084000  1.0 -0.629302009
O  O11  1  0.43830000  0.69606000  0.81916000  1.0 -0.629302009
O  O12  1  0.12310000  0.30394000  0.74224000  1.0 -0.629302009
O  O13  1  0.74224000  0.43830000  0.61914000  1.0 -0.629302009
O  O14  1  0.81916000  0.12310000  0.38086000  1.0 -0.629302009
O  O15  1  0.18084000  0.56170000  0.30394000  1.0 -0.629302009
O  O16  1  0.25776000  0.87690000  0.69606000  1.0 -0.629302009
O  O17  1  0.61914000  0.74224000  0.43830000  1.0 -0.629302009
O  O18  1  0.38086000  0.81916000  0.12310000  1.0 -0.629302009
O  O19  1  0.30394000  0.18084000  0.56170000  1.0 -0.629302009
O  O20  1  0.69606000  0.25776000  0.87690000  1.0 -0.629302009
O  O21  1  0.43830000  0.61914000  0.74224000  1.0 -0.629302009
O  O22  1  0.12310000  0.38086000  0.81916000  1.0 -0.629302009
O  O23  1  0.56170000  0.30394000  0.18084000  1.0 -0.629302009
O  O24  1  0.87690000  0.69606000  0.25776000  1.0 -0.629302009
O  O25  1  0.32509000  0.55629000  0.40578000  1.0 -0.629302009
O  O26  1  0.15051000  0.91931000  0.59422000  1.0 -0.629302009
O  O27  1  0.84949000  0.44371000  0.76880000  1.0 -0.629302009
O  O28  1  0.67491000  0.08069000  0.23120000  1.0 -0.629302009
O  O29  1  0.40578000  0.32509000  0.55629000  1.0 -0.629302009
O  O30  1  0.59422000  0.15051000  0.91931000  1.0 -0.629302009
O  O31  1  0.76880000  0.84949000  0.44371000  1.0 -0.629302009
O  O32  1  0.23120000  0.67491000  0.08069000  1.0 -0.629302009
O  O33  1  0.55629000  0.40578000  0.32509000  1.0 -0.629302009
O  O34  1  0.91931000  0.59422000  0.15051000  1.0 -0.629302009
O  O35  1  0.44371000  0.76880000  0.84949000  1.0 -0.629302009
O  O36  1  0.08069000  0.23120000  0.67491000  1.0 -0.629302009
O  O37  1  0.67491000  0.44371000  0.59422000  1.0 -0.629302009
O  O38  1  0.84949000  0.08069000  0.40578000  1.0 -0.629302009
O  O39  1  0.15051000  0.55629000  0.23120000  1.0 -0.629302009
O  O40  1  0.32509000  0.91931000  0.76880000  1.0 -0.629302009
O  O41  1  0.59422000  0.67491000  0.44371000  1.0 -0.629302009
O  O42  1  0.40578000  0.84949000  0.08069000  1.0 -0.629302009
O  O43  1  0.23120000  0.15051000  0.55629000  1.0 -0.629302009
O  O44  1  0.76880000  0.32509000  0.91931000  1.0 -0.629302009
O  O45  1  0.44371000  0.59422000  0.67491000  1.0 -0.629302009
O  O46  1  0.08069000  0.40578000  0.84949000  1.0 -0.629302009
O  O47  1  0.55629000  0.23120000  0.15051000  1.0 -0.629302009
O  O48  1  0.91931000  0.76880000  0.32509000  1.0 -0.629302009
O  O49  1  0.43880000  0.62155000  0.58239000  1.0 -0.5857930331
O  O50  1  0.03916000  0.85641000  0.41761000  1.0 -0.5857930331
O  O51  1  0.96084000  0.37845000  0.81725000  1.0 -0.5857930331
O  O52  1  0.56120000  0.14359000  0.18275000  1.0 -0.5857930331
O  O53  1  0.58239000  0.43880000  0.62155000  1.0 -0.5857930331
O  O54  1  0.41761000  0.03916000  0.85641000  1.0 -0.5857930331
O  O55  1  0.81725000  0.96084000  0.37845000  1.0 -0.5857930331
O  O56  1  0.18275000  0.56120000  0.14359000  1.0 -0.5857930331
O  O57  1  0.62155000  0.58239000  0.43880000  1.0 -0.5857930331
O  O58  1  0.85641000  0.41761000  0.03916000  1.0 -0.5857930331
O  O59  1  0.37845000  0.81725000  0.96084000  1.0 -0.5857930331
O  O60  1  0.14359000  0.18275000  0.56120000  1.0 -0.5857930331
O  O61  1  0.56120000  0.37845000  0.41761000  1.0 -0.5857930331
O  O62  1  0.96084000  0.14359000  0.58239000  1.0 -0.5846851434
O  O63  1  0.03916000  0.62155000  0.18275000  1.0 -0.5857930331
O  O64  1  0.43880000  0.85641000  0.81725000  1.0 -0.5857930331
O  O65  1  0.41761000  0.56120000  0.37845000  1.0 -0.5857930331
O  O66  1  0.58239000  0.96084000  0.14359000  1.0 -0.5857930331
O  O67  1  0.18275000  0.03916000  0.62155000  1.0 -0.5857930331
O  O68  1  0.81725000  0.43880000  0.85641000  1.0 -0.5857930331
O  O69  1  0.37845000  0.41761000  0.56120000  1.0 -0.5857930331
O  O70  1  0.14359000  0.58239000  0.96084000  1.0 -0.5857930331
O  O71  1  0.62155000  0.18275000  0.03916000  1.0 -0.5857930331
O  O72  1  0.85641000  0.81725000  0.43880000  1.0 -0.5857930331
O  O73  1  0.43270000  0.67179000  0.63889000  1.0 -0.5617468191
O  O74  1  0.03290000  0.79381000  0.36111000  1.0 -0.5617468191
O  O75  1  0.96710000  0.32821000  0.76091000  1.0 -0.5617468191
O  O76  1  0.56730000  0.20619000  0.23909000  1.0 -0.5617468191
O  O77  1  0.63889000  0.43270000  0.67179000  1.0 -0.5617468191
O  O78  1  0.36111000  0.03290000  0.79381000  1.0 -0.5617468191
O  O79  1  0.76091000  0.96710000  0.32821000  1.0 -0.5617468191
O  O80  1  0.23909000  0.56730000  0.20619000  1.0 -0.5617468191
O  O81  1  0.67179000  0.63889000  0.43270000  1.0 -0.5617468191
O  O82  1  0.79381000  0.36111000  0.03290000  1.0 -0.5617468191
O  O83  1  0.32821000  0.76091000  0.96710000  1.0 -0.5617468191
O  O84  1  0.20619000  0.23909000  0.56730000  1.0 -0.5617468191
O  O85  1  0.56730000  0.32821000  0.36111000  1.0 -0.5617468191
O  O86  1  0.96710000  0.20619000  0.63889000  1.0 -0.5617468191
O  O87  1  0.03290000  0.67179000  0.23909000  1.0 -0.5617468191
O  O88  1  0.43270000  0.79381000  0.76091000  1.0 -0.5617468191
O  O89  1  0.36111000  0.56730000  0.32821000  1.0 -0.5617468191
O  O90  1  0.63889000  0.96710000  0.20619000  1.0 -0.5617468191
O  O91  1  0.23909000  0.03290000  0.67179000  1.0 -0.5617468191
O  O92  1  0.76091000  0.43270000  0.79381000  1.0 -0.5617468191
O  O93  1  0.32821000  0.36111000  0.56730000  1.0 -0.5617468191
O  O94  1  0.20619000  0.63889000  0.96710000  1.0 -0.5617468191
O  O95  1  0.67179000  0.23909000  0.03290000  1.0 -0.5617468191
O  O96  1  0.79381000  0.76091000  0.43270000  1.0 -0.5617468191
O  O97  1  0.31227000  0.45170000  0.26157000  1.0 -0.6009393524
O  O98  1  0.19013000  0.05070000  0.73843000  1.0 -0.6009393524
O  O99  1  0.80987000  0.54830000  0.86057000  1.0 -0.6009393524
O  O100  1  0.68773000  0.94930000  0.13943000  1.0 -0.6009393524
O  O101  1  0.26157000  0.31227000  0.45170000  1.0 -0.6009393524
O  O102  1  0.73843000  0.19013000  0.05070000  1.0 -0.6009393524
O  O103  1  0.86057000  0.80987000  0.54830000  1.0 -0.6009393524
O  O104  1  0.13943000  0.68773000  0.94930000  1.0 -0.6009393524
O  O105  1  0.45170000  0.26157000  0.31227000  1.0 -0.6009393524
O  O106  1  0.05070000  0.73843000  0.19013000  1.0 -0.6009393524
O  O107  1  0.54830000  0.86057000  0.80987000  1.0 -0.6009393524
O  O108  1  0.94930000  0.13943000  0.68773000  1.0 -0.6009393524
O  O109  1  0.68773000  0.54830000  0.73843000  1.0 -0.6009393524
O  O110  1  0.80987000  0.94930000  0.26157000  1.0 -0.6009393524
O  O111  1  0.19013000  0.45170000  0.13943000  1.0 -0.6009393524
O  O112  1  0.31227000  0.05070000  0.86057000  1.0 -0.6009393524
O  O113  1  0.73843000  0.68773000  0.54830000  1.0 -0.6009393524
O  O114  1  0.26157000  0.80987000  0.94930000  1.0 -0.6009393524
O  O115  1  0.13943000  0.19013000  0.45170000  1.0 -0.6009393524
O  O116  1  0.86057000  0.31227000  0.05070000  1.0 -0.6009393524
O  O117  1  0.54830000  0.73843000  0.68773000  1.0 -0.6009393524
O  O118  1  0.94930000  0.26157000  0.80987000  1.0 -0.6009393524
O  O119  1  0.45170000  0.13943000  0.19013000  1.0 -0.6009393524
O  O120  1  0.05070000  0.86057000  0.31227000  1.0 -0.6009393524
O  O121  1  0.36033000  0.44375000  0.31708000  1.0 -0.613901477
O  O122  1  0.12667000  0.04325000  0.68292000  1.0 -0.613901477
O  O123  1  0.87333000  0.55625000  0.91658000  1.0 -0.613901477
O  O124  1  0.63967000  0.95675000  0.08342000  1.0 -0.613901477
O  O125  1  0.31708000  0.36033000  0.44375000  1.0 -0.613901477
O  O126  1  0.68292000  0.12667000  0.04325000  1.0 -0.613901477
O  O127  1  0.91658000  0.87333000  0.55625000  1.0 -0.613901477
O  O128  1  0.08342000  0.63967000  0.95675000  1.0 -0.613901477
O  O129  1  0.44375000  0.31708000  0.36033000  1.0 -0.613901477
O  O130  1  0.04325000  0.68292000  0.12667000  1.0 -0.613901477
O  O131  1  0.55625000  0.91658000  0.87333000  1.0 -0.613901477
O  O132  1  0.95675000  0.08342000  0.63967000  1.0 -0.613901477
O  O133  1  0.63967000  0.55625000  0.68292000  1.0 -0.613901477
O  O134  1  0.87333000  0.95675000  0.31708000  1.0 -0.6155052747
O  O135  1  0.12667000  0.44375000  0.08342000  1.0 -0.613901477
O  O136  1  0.36033000  0.04325000  0.91658000  1.0 -0.613901477
O  O137  1  0.68292000  0.63967000  0.55625000  1.0 -0.613901477
O  O138  1  0.31708000  0.87333000  0.95675000  1.0 -0.613901477
O  O139  1  0.08342000  0.12667000  0.44375000  1.0 -0.613901477
O  O140  1  0.91658000  0.36033000  0.04325000  1.0 -0.613901477
O  O141  1  0.55625000  0.68292000  0.63967000  1.0 -0.613901477
O  O142  1  0.95675000  0.31708000  0.87333000  1.0 -0.613901477
O  O143  1  0.44375000  0.08342000  0.12667000  1.0 -0.613901477
O  O144  1  0.04325000  0.91658000  0.36033000  1.0 -0.613901477
O  O145  1  0.43729000  0.34261000  0.26946000  1.0 -0.6507912045
O  O146  1  0.07315000  0.16783000  0.73054000  1.0 -0.6507912045
O  O147  1  0.92685000  0.65739000  0.09468000  1.0 -0.6507912045
O  O148  1  0.56271000  0.83217000  0.90532000  1.0 -0.6507912045
O  O149  1  0.26946000  0.43729000  0.34261000  1.0 -0.6507912045
O  O150  1  0.73054000  0.07315000  0.16783000  1.0 -0.6507912045
O  O151  1  0.09468000  0.92685000  0.65739000  1.0 -0.6507912045
O  O152  1  0.90532000  0.56271000  0.83217000  1.0 -0.6507912045
O  O153  1  0.34261000  0.26946000  0.43729000  1.0 -0.6507912045
O  O154  1  0.16783000  0.73054000  0.07315000  1.0 -0.6507912045
O  O155  1  0.65739000  0.09468000  0.92685000  1.0 -0.6507912045
O  O156  1  0.83217000  0.90532000  0.56271000  1.0 -0.6507912045
O  O157  1  0.56271000  0.65739000  0.73054000  1.0 -0.6507912045
O  O158  1  0.92685000  0.83217000  0.26946000  1.0 -0.6507912045
O  O159  1  0.07315000  0.34261000  0.90532000  1.0 -0.6507912045
O  O160  1  0.43729000  0.16783000  0.09468000  1.0 -0.6507912045
O  O161  1  0.73054000  0.56271000  0.65739000  1.0 -0.6507912045
O  O162  1  0.26946000  0.92685000  0.83217000  1.0 -0.6507912045
O  O163  1  0.90532000  0.07315000  0.34261000  1.0 -0.6507912045
O  O164  1  0.09468000  0.43729000  0.16783000  1.0 -0.6507912045
O  O165  1  0.65739000  0.73054000  0.56271000  1.0 -0.6507912045
O  O166  1  0.83217000  0.26946000  0.92685000  1.0 -0.6507912045
O  O167  1  0.34261000  0.90532000  0.07315000  1.0 -0.6507912045
O  O168  1  0.16783000  0.09468000  0.43729000  1.0 -0.6507912045
O  O169  1  0.45680000  0.34990000  0.21430000  1.0 -0.6507912045
O  O170  1  0.13560000  0.24250000  0.78570000  1.0 -0.6507912045
O  O171  1  0.86440000  0.65010000  0.10690000  1.0 -0.6507912045
O  O172  1  0.54320000  0.75750000  0.89310000  1.0 -0.6507912045
O  O173  1  0.21430000  0.45680000  0.34990000  1.0 -0.6507912045
O  O174  1  0.78570000  0.13560000  0.24250000  1.0 -0.6507912045
O  O175  1  0.10690000  0.86440000  0.65010000  1.0 -0.6507912045
O  O176  1  0.89310000  0.54320000  0.75750000  1.0 -0.6507912045
O  O177  1  0.34990000  0.21430000  0.45680000  1.0 -0.6507912045
O  O178  1  0.24250000  0.78570000  0.13560000  1.0 -0.6507912045
O  O179  1  0.65010000  0.10690000  0.86440000  1.0 -0.6507912045
O  O180  1  0.75750000  0.89310000  0.54320000  1.0 -0.6507912045
O  O181  1  0.54320000  0.65010000  0.78570000  1.0 -0.6507912045
O  O182  1  0.86440000  0.75750000  0.21430000  1.0 -0.6507912045
O  O183  1  0.13560000  0.34990000  0.89310000  1.0 -0.6507912045
O  O184  1  0.45680000  0.24250000  0.10690000  1.0 -0.6507912045
O  O185  1  0.78570000  0.54320000  0.65010000  1.0 -0.6507912045
O  O186  1  0.21430000  0.86440000  0.75750000  1.0 -0.6507912045
O  O187  1  0.89310000  0.13560000  0.34990000  1.0 -0.6507912045
O  O188  1  0.10690000  0.45680000  0.24250000  1.0 -0.6507912045
O  O189  1  0.65010000  0.78570000  0.54320000  1.0 -0.6507912045
O  O190  1  0.75750000  0.21430000  0.86440000  1.0 -0.6507912045
O  O191  1  0.34990000  0.89310000  0.13560000  1.0 -0.6507912045
O  O192  1  0.24250000  0.10690000  0.45680000  1.0 -0.6507912045
O  O193  1  0.25846000  0.49778000  0.29594000  1.0 -0.6618428792
O  O194  1  0.20184000  0.96252000  0.70406000  1.0 -0.6618428792
O  O195  1  0.79816000  0.50222000  0.76068000  1.0 -0.6618428792
O  O196  1  0.74154000  0.03748000  0.23932000  1.0 -0.6618428792
O  O197  1  0.29594000  0.25846000  0.49778000  1.0 -0.6618428792
O  O198  1  0.70406000  0.20184000  0.96252000  1.0 -0.6618428792
O  O199  1  0.76068000  0.79816000  0.50222000  1.0 -0.6618428792
O  O200  1  0.23932000  0.74154000  0.03748000  1.0 -0.6618428792
O  O201  1  0.49778000  0.29594000  0.25846000  1.0 -0.6618428792
O  O202  1  0.96252000  0.70406000  0.20184000  1.0 -0.6618428792
O  O203  1  0.50222000  0.76068000  0.79816000  1.0 -0.6618428792
O  O204  1  0.03748000  0.23932000  0.74154000  1.0 -0.6618428792
O  O205  1  0.74154000  0.50222000  0.70406000  1.0 -0.6618428792
O  O206  1  0.79816000  0.03748000  0.29594000  1.0 -0.6618428792
O  O207  1  0.20184000  0.49778000  0.23932000  1.0 -0.6618428792
O  O208  1  0.25846000  0.96252000  0.76068000  1.0 -0.6618428792
O  O209  1  0.70406000  0.74154000  0.50222000  1.0 -0.6618428792
O  O210  1  0.29594000  0.79816000  0.03748000  1.0 -0.6618428792
O  O211  1  0.23932000  0.20184000  0.49778000  1.0 -0.6618428792
O  O212  1  0.76068000  0.25846000  0.96252000  1.0 -0.6618428792
O  O213  1  0.50222000  0.70406000  0.74154000  1.0 -0.6618428792
O  O214  1  0.03748000  0.29594000  0.79816000  1.0 -0.6618428792
O  O215  1  0.49778000  0.23932000  0.20184000  1.0 -0.6618428792
O  O216  1  0.96252000  0.76068000  0.25846000  1.0 -0.6618428792
O  O217  1  0.11910000  0.44280000  0.32370000  1.0 -0.5166444148
O  O218  1  0.11910000  0.79540000  0.67630000  1.0 -0.5166444148
O  O219  1  0.88090000  0.55720000  0.67630000  1.0 -0.5166444148
O  O220  1  0.88090000  0.20460000  0.32370000  1.0 -0.5166444148
O  O221  1  0.32370000  0.11910000  0.44280000  1.0 -0.5166444148
O  O222  1  0.67630000  0.11910000  0.79540000  1.0 -0.5166444148
O  O223  1  0.67630000  0.88090000  0.55720000  1.0 -0.5166444148
O  O224  1  0.32370000  0.88090000  0.20460000  1.0 -0.5166444148
O  O225  1  0.44280000  0.32370000  0.11910000  1.0 -0.5166444148
O  O226  1  0.79540000  0.67630000  0.11910000  1.0 -0.5166444148
O  O227  1  0.55720000  0.67630000  0.88090000  1.0 -0.5166444148
O  O228  1  0.20460000  0.32370000  0.88090000  1.0 -0.5166444148
O  O229  1  0.15330000  0.52190000  0.36860000  1.0 -0.5617468191
O  O230  1  0.15330000  0.78470000  0.63140000  1.0 -0.5617468191
O  O231  1  0.84670000  0.47810000  0.63140000  1.0 -0.5617468191
O  O232  1  0.84670000  0.21530000  0.36860000  1.0 -0.5617468191
O  O233  1  0.36860000  0.15330000  0.52190000  1.0 -0.5617468191
O  O234  1  0.63140000  0.15330000  0.78470000  1.0 -0.5617468191
O  O235  1  0.63140000  0.84670000  0.47810000  1.0 -0.5617468191
O  O236  1  0.36860000  0.84670000  0.21530000  1.0 -0.5617468191
O  O237  1  0.52190000  0.36860000  0.15330000  1.0 -0.5617468191
O  O238  1  0.78470000  0.63140000  0.15330000  1.0 -0.5617468191
O  O239  1  0.47810000  0.63140000  0.84670000  1.0 -0.5617468191
O  O240  1  0.21530000  0.36860000  0.84670000  1.0 -0.5617468191
