# DDEC6 charges by PACMAN v1.1 (https://github.com/mtap-research/PACMAN-charge/)
data_NABCEA_ion_pacman
_symmetry_space_group_name_H-M   'P 1'
_cell_length_a   10.65970000
_cell_length_b   18.84950000
_cell_length_c   39.75520000
_cell_angle_alpha   90.00000000
_cell_angle_beta   90.00000000
_cell_angle_gamma   90.00000000
_symmetry_Int_Tables_number   1
_chemical_formula_structural   ZnH20C24N4(ClO5)2
_chemical_formula_sum   'Zn8 H160 C192 N32 Cl16 O80'
_cell_volume   7988.01293829
_cell_formula_units_Z   8
loop_
 _symmetry_equiv_pos_site_id
 _symmetry_equiv_pos_as_xyz
  1  'x, y, z'
loop_
 _atom_site_type_symbol
 _atom_site_label
 _atom_site_symmetry_multiplicity
 _atom_site_fract_x
 _atom_site_fract_y
 _atom_site_fract_z
 _atom_site_occupancy
 _atom_site_charge
Zn  Zn1  1  0.50048000  0.52598000  0.47938000  1.0 0.6371409427
Zn  Zn2  1  0.49952000  0.47402000  0.97938000  1.0 0.6371409427
Zn  Zn3  1  0.99952000  0.02598000  0.47938000  1.0 0.6371409427
Zn  Zn4  1  0.00048000  0.97402000  0.97938000  1.0 0.6371409427
Zn  Zn5  1  0.30060000  0.27398000  0.22853000  1.0 0.6903927904
Zn  Zn6  1  0.69940000  0.72602000  0.72853000  1.0 0.6903927904
Zn  Zn7  1  0.19940000  0.77398000  0.22853000  1.0 0.6903927904
Zn  Zn8  1  0.80060000  0.22602000  0.72853000  1.0 0.6903927904
H  H1  1  0.48240000  0.50100000  0.55670000  1.0 0.1187381717
H  H2  1  0.51760000  0.49900000  0.05670000  1.0 0.1187381717
H  H3  1  0.01760000  0.00100000  0.55670000  1.0 0.1187381717
H  H4  1  0.98240000  0.99900000  0.05670000  1.0 0.1187381717
H  H5  1  0.43490000  0.41170000  0.59500000  1.0 0.1411069587
H  H6  1  0.56510000  0.58830000  0.09500000  1.0 0.1411069587
H  H7  1  0.06510000  0.91170000  0.59500000  1.0 0.1411069587
H  H8  1  0.93490000  0.08830000  0.09500000  1.0 0.1411069587
H  H9  1  0.39210000  0.27880000  0.51740000  1.0 0.1491698419
H  H10  1  0.60790000  0.72120000  0.01740000  1.0 0.1491698419
H  H11  1  0.10790000  0.77880000  0.51740000  1.0 0.1491698419
H  H12  1  0.89210000  0.22120000  0.01740000  1.0 0.1491698419
H  H13  1  0.42950000  0.36900000  0.48090000  1.0 0.1110206972
H  H14  1  0.57050000  0.63100000  0.98090000  1.0 0.1110206972
H  H15  1  0.07050000  0.86900000  0.48090000  1.0 0.1110206972
H  H16  1  0.92950000  0.13100000  0.98090000  1.0 0.1110206972
H  H17  1  0.73560000  0.32400000  0.66860000  1.0 0.1187381717
H  H18  1  0.26440000  0.67600000  0.16860000  1.0 0.1187381717
H  H19  1  0.76440000  0.82400000  0.66860000  1.0 0.1187381717
H  H20  1  0.23560000  0.17600000  0.16860000  1.0 0.1187381717
H  H21  1  0.58400000  0.34570000  0.63110000  1.0 0.1491698419
H  H22  1  0.41600000  0.65430000  0.13110000  1.0 0.1491698419
H  H23  1  0.91600000  0.84570000  0.63110000  1.0 0.1491698419
H  H24  1  0.08400000  0.15430000  0.13110000  1.0 0.1491698419
H  H25  1  0.39190000  0.17900000  0.66720000  1.0 0.1411069587
H  H26  1  0.60810000  0.82100000  0.16720000  1.0 0.1411069587
H  H27  1  0.10810000  0.67900000  0.66720000  1.0 0.1411069587
H  H28  1  0.89190000  0.32100000  0.16720000  1.0 0.1411069587
H  H29  1  0.55860000  0.15900000  0.70350000  1.0 0.1187381717
H  H30  1  0.44140000  0.84100000  0.20350000  1.0 0.1187381717
H  H31  1  0.94140000  0.65900000  0.70350000  1.0 0.1187381717
H  H32  1  0.05860000  0.34100000  0.20350000  1.0 0.1187381717
H  H33  1  0.05740000  0.29740000  0.71570000  1.0 0.1187381717
H  H34  1  0.94260000  0.70260000  0.21570000  1.0 0.1187381717
H  H35  1  0.44260000  0.79740000  0.71570000  1.0 0.1187381717
H  H36  1  0.55740000  0.20260000  0.21570000  1.0 0.1187381717
H  H37  1  0.21410000  0.30440000  0.67780000  1.0 0.1411069587
H  H38  1  0.78590000  0.69560000  0.17780000  1.0 0.1411069587
H  H39  1  0.28590000  0.80440000  0.67780000  1.0 0.1411069587
H  H40  1  0.71410000  0.19560000  0.17780000  1.0 0.1411069587
H  H41  1  0.02590000  0.16610000  0.61880000  1.0 0.1491698419
H  H42  1  0.97410000  0.83390000  0.11880000  1.0 0.1491698419
H  H43  1  0.47410000  0.66610000  0.61880000  1.0 0.1491698419
H  H44  1  0.52590000  0.33390000  0.11880000  1.0 0.1491698419
H  H45  1  0.85930000  0.17200000  0.65740000  1.0 0.1187381717
H  H46  1  0.14070000  0.82800000  0.15740000  1.0 0.1187381717
H  H47  1  0.64070000  0.67200000  0.65740000  1.0 0.1187381717
H  H48  1  0.35930000  0.32800000  0.15740000  1.0 0.1187381717
H  H49  1  0.93680000  0.16770000  0.51250000  1.0 0.1187381717
H  H50  1  0.06320000  0.83230000  0.01250000  1.0 0.1187381717
H  H51  1  0.56320000  0.66770000  0.51250000  1.0 0.1187381717
H  H52  1  0.43680000  0.33230000  0.01250000  1.0 0.1187381717
H  H53  1  0.01630000  0.25190000  0.54810000  1.0 0.1491698419
H  H54  1  0.98370000  0.74810000  0.04810000  1.0 0.1491698419
H  H55  1  0.48370000  0.75190000  0.54810000  1.0 0.1491698419
H  H56  1  0.51630000  0.24810000  0.04810000  1.0 0.1491698419
H  H57  1  0.32910000  0.13540000  0.55640000  1.0 0.1491698419
H  H58  1  0.67090000  0.86460000  0.05640000  1.0 0.1491698419
H  H59  1  0.17090000  0.63540000  0.55640000  1.0 0.1491698419
H  H60  1  0.82910000  0.36460000  0.05640000  1.0 0.1491698419
H  H61  1  0.24070000  0.05510000  0.51850000  1.0 0.1187381717
H  H62  1  0.75930000  0.94490000  0.01850000  1.0 0.1187381717
H  H63  1  0.25930000  0.55510000  0.51850000  1.0 0.1187381717
H  H64  1  0.74070000  0.44490000  0.01850000  1.0 0.1187381717
H  H65  1  0.42410000  0.23360000  0.57840000  1.0 0.0992026031
H  H66  1  0.57590000  0.76640000  0.07840000  1.0 0.0992026031
H  H67  1  0.07590000  0.73360000  0.57840000  1.0 0.0992026031
H  H68  1  0.92410000  0.26640000  0.07840000  1.0 0.0992026031
H  H69  1  0.32420000  0.33030000  0.62710000  1.0 0.0992026031
H  H70  1  0.67580000  0.66970000  0.12710000  1.0 0.0992026031
H  H71  1  0.17580000  0.83030000  0.62710000  1.0 0.0992026031
H  H72  1  0.82420000  0.16970000  0.12710000  1.0 0.0992026031
H  H73  1  0.28140000  0.18060000  0.62030000  1.0 0.0992026031
H  H74  1  0.71860000  0.81940000  0.12030000  1.0 0.0992026031
H  H75  1  0.21860000  0.68060000  0.62030000  1.0 0.0992026031
H  H76  1  0.78140000  0.31940000  0.12030000  1.0 0.0992026031
H  H77  1  0.17620000  0.29590000  0.58250000  1.0 0.0896954447
H  H78  1  0.82380000  0.70410000  0.08250000  1.0 0.0896954447
H  H79  1  0.32380000  0.79590000  0.58250000  1.0 0.0896954447
H  H80  1  0.67620000  0.20410000  0.08250000  1.0 0.0896954447
H  H81  1  0.71040000  0.41170000  0.47490000  1.0 0.1110206972
H  H82  1  0.28960000  0.58830000  0.97490000  1.0 0.1110206972
H  H83  1  0.78960000  0.91170000  0.47490000  1.0 0.1110206972
H  H84  1  0.21040000  0.08830000  0.97490000  1.0 0.1110206972
H  H85  1  0.79920000  0.33380000  0.43700000  1.0 0.1411069587
H  H86  1  0.20080000  0.66620000  0.93700000  1.0 0.1411069587
H  H87  1  0.70080000  0.83380000  0.43700000  1.0 0.1411069587
H  H88  1  0.29920000  0.16620000  0.93700000  1.0 0.1411069587
H  H89  1  0.55980000  0.40580000  0.36780000  1.0 0.1411069587
H  H90  1  0.44020000  0.59420000  0.86780000  1.0 0.1411069587
H  H91  1  0.94020000  0.90580000  0.36780000  1.0 0.1411069587
H  H92  1  0.05980000  0.09420000  0.86780000  1.0 0.1411069587
H  H93  1  0.47970000  0.47990000  0.40750000  1.0 0.1187381717
H  H94  1  0.52030000  0.52010000  0.90750000  1.0 0.1187381717
H  H95  1  0.02030000  0.97990000  0.40750000  1.0 0.1187381717
H  H96  1  0.97970000  0.02010000  0.90750000  1.0 0.1187381717
H  H97  1  0.37450000  0.22730000  0.29910000  1.0 0.1110206972
H  H98  1  0.62550000  0.77270000  0.79910000  1.0 0.1110206972
H  H99  1  0.12550000  0.72730000  0.29910000  1.0 0.1110206972
H  H100  1  0.87450000  0.27270000  0.79910000  1.0 0.1110206972
H  H101  1  0.54080000  0.23700000  0.33730000  1.0 0.1491698419
H  H102  1  0.45920000  0.76300000  0.83730000  1.0 0.1491698419
H  H103  1  0.95920000  0.73700000  0.33730000  1.0 0.1491698419
H  H104  1  0.04080000  0.26300000  0.83730000  1.0 0.1491698419
H  H105  1  0.69340000  0.38470000  0.27830000  1.0 0.1491698419
H  H106  1  0.30660000  0.61530000  0.77830000  1.0 0.1491698419
H  H107  1  0.80660000  0.88470000  0.27830000  1.0 0.1491698419
H  H108  1  0.19340000  0.11530000  0.77830000  1.0 0.1491698419
H  H109  1  0.53850000  0.36600000  0.24030000  1.0 0.1187381717
H  H110  1  0.46150000  0.63400000  0.74030000  1.0 0.1187381717
H  H111  1  0.96150000  0.86600000  0.24030000  1.0 0.1187381717
H  H112  1  0.03850000  0.13400000  0.74030000  1.0 0.1187381717
H  H113  1  0.18710000  0.36100000  0.28810000  1.0 0.1187381717
H  H114  1  0.81290000  0.63900000  0.78810000  1.0 0.1187381717
H  H115  1  0.31290000  0.86100000  0.28810000  1.0 0.1187381717
H  H116  1  0.68710000  0.13900000  0.78810000  1.0 0.1187381717
H  H117  1  0.03420000  0.35640000  0.32760000  1.0 0.1491698419
H  H118  1  0.96580000  0.64360000  0.82760000  1.0 0.1491698419
H  H119  1  0.46580000  0.85640000  0.32760000  1.0 0.1491698419
H  H120  1  0.53420000  0.14360000  0.82760000  1.0 0.1491698419
H  H121  1  0.91680000  0.17130000  0.28750000  1.0 0.1491698419
H  H122  1  0.08320000  0.82870000  0.78750000  1.0 0.1491698419
H  H123  1  0.58320000  0.67130000  0.28750000  1.0 0.1491698419
H  H124  1  0.41680000  0.32870000  0.78750000  1.0 0.1491698419
H  H125  1  0.08480000  0.17940000  0.24980000  1.0 0.1187381717
H  H126  1  0.91520000  0.82060000  0.74980000  1.0 0.1187381717
H  H127  1  0.41520000  0.67940000  0.24980000  1.0 0.1187381717
H  H128  1  0.58480000  0.32060000  0.74980000  1.0 0.1187381717
H  H129  1  0.12410000  0.15650000  0.44550000  1.0 0.1110206972
H  H130  1  0.87590000  0.84350000  0.94550000  1.0 0.1110206972
H  H131  1  0.37590000  0.65650000  0.44550000  1.0 0.1110206972
H  H132  1  0.62410000  0.34350000  0.94550000  1.0 0.1110206972
H  H133  1  0.07960000  0.24520000  0.40630000  1.0 0.1491698419
H  H134  1  0.92040000  0.75480000  0.90630000  1.0 0.1491698419
H  H135  1  0.42040000  0.74520000  0.40630000  1.0 0.1491698419
H  H136  1  0.57960000  0.25480000  0.90630000  1.0 0.1491698419
H  H137  1  0.73590000  0.16140000  0.39660000  1.0 0.1491698419
H  H138  1  0.26410000  0.83860000  0.89660000  1.0 0.1491698419
H  H139  1  0.76410000  0.66140000  0.39660000  1.0 0.1491698419
H  H140  1  0.23590000  0.33860000  0.89660000  1.0 0.1491698419
H  H141  1  0.78900000  0.07710000  0.43470000  1.0 0.1187381717
H  H142  1  0.21100000  0.92290000  0.93470000  1.0 0.1187381717
H  H143  1  0.71100000  0.57710000  0.43470000  1.0 0.1187381717
H  H144  1  0.28900000  0.42290000  0.93470000  1.0 0.1187381717
H  H145  1  0.66950000  0.26010000  0.37620000  1.0 0.0992026031
H  H146  1  0.33050000  0.73990000  0.87620000  1.0 0.0992026031
H  H147  1  0.83050000  0.76010000  0.37620000  1.0 0.0992026031
H  H148  1  0.16950000  0.23990000  0.87620000  1.0 0.0992026031
H  H149  1  0.78480000  0.36460000  0.33333333  1.0 0.0896954447
H  H150  1  0.21520000  0.63540000  0.83333000  1.0 0.0896954447
H  H151  1  0.71520000  0.86460000  0.33333333  1.0 0.0896954447
H  H152  1  0.28480000  0.13540000  0.83333000  1.0 0.0896954447
H  H153  1  0.80650000  0.21130000  0.33390000  1.0 0.0992026031
H  H154  1  0.19350000  0.78870000  0.83390000  1.0 0.0992026031
H  H155  1  0.69350000  0.71130000  0.33390000  1.0 0.0992026031
H  H156  1  0.30650000  0.28870000  0.83390000  1.0 0.0992026031
H  H157  1  0.92410000  0.31410000  0.37770000  1.0 0.0896954447
H  H158  1  0.07590000  0.68590000  0.87770000  1.0 0.0896954447
H  H159  1  0.57590000  0.81410000  0.37770000  1.0 0.0896954447
H  H160  1  0.42410000  0.18590000  0.87770000  1.0 0.0896954447
C  C1  1  0.46260000  0.45540000  0.54880000  1.0 0.0896954447
C  C2  1  0.53740000  0.54460000  0.04880000  1.0 0.0896954447
C  C3  1  0.03740000  0.95540000  0.54880000  1.0 0.0896954447
C  C4  1  0.96260000  0.04460000  0.04880000  1.0 0.0896954447
C  C5  1  0.43460000  0.40190000  0.57180000  1.0 -0.1797843897
C  C6  1  0.56540000  0.59810000  0.07180000  1.0 -0.1797843897
C  C7  1  0.06540000  0.90190000  0.57180000  1.0 -0.1797843897
C  C8  1  0.93460000  0.09810000  0.07180000  1.0 -0.1797843897
C  C9  1  0.40650000  0.33480000  0.56040000  1.0 0.1491698419
C  C10  1  0.59350000  0.66520000  0.06040000  1.0 0.1491698419
C  C11  1  0.09350000  0.83480000  0.56040000  1.0 0.1491698419
C  C12  1  0.90650000  0.16520000  0.06040000  1.0 0.1491698419
C  C13  1  0.40840000  0.32430000  0.52590000  1.0 -0.1797843897
C  C14  1  0.59160000  0.67570000  0.02590000  1.0 -0.1797843897
C  C15  1  0.09160000  0.82430000  0.52590000  1.0 -0.1797843897
C  C16  1  0.90840000  0.17570000  0.02590000  1.0 -0.1797843897
C  C17  1  0.43290000  0.37790000  0.50411000  1.0 0.0992026031
C  C18  1  0.56710000  0.62210000  0.00411000  1.0 0.0992026031
C  C19  1  0.06710000  0.87790000  0.50411000  1.0 0.0992026031
C  C20  1  0.93290000  0.12210000  0.00411000  1.0 0.0992026031
C  C21  1  0.66500000  0.29410000  0.66840000  1.0 0.0896954447
C  C22  1  0.33500000  0.70590000  0.16840000  1.0 0.0896954447
C  C23  1  0.83500000  0.79410000  0.66840000  1.0 0.0896954447
C  C24  1  0.16500000  0.20590000  0.16840000  1.0 0.0896954447
C  C25  1  0.57450000  0.30800000  0.64640000  1.0 -0.1797843897
C  C26  1  0.42550000  0.69200000  0.14640000  1.0 -0.1797843897
C  C27  1  0.92550000  0.80800000  0.64640000  1.0 -0.1797843897
C  C28  1  0.07450000  0.19200000  0.14640000  1.0 -0.1797843897
C  C29  1  0.46190000  0.26580000  0.64577000  1.0 0.1573993843
C  C30  1  0.53810000  0.73420000  0.14577000  1.0 0.1573993843
C  C31  1  0.03810000  0.76580000  0.64577000  1.0 0.1573993843
C  C32  1  0.96190000  0.23420000  0.14577000  1.0 0.1573993843
C  C33  1  0.46080000  0.21010000  0.66710000  1.0 -0.1896749307
C  C34  1  0.53920000  0.78990000  0.16710000  1.0 -0.1896749307
C  C35  1  0.03920000  0.71010000  0.66710000  1.0 -0.1896749307
C  C36  1  0.96080000  0.28990000  0.16710000  1.0 -0.1896749307
C  C37  1  0.56170000  0.19840000  0.68900000  1.0 0.0992026031
C  C38  1  0.43830000  0.80160000  0.18900000  1.0 0.0992026031
C  C39  1  0.93830000  0.69840000  0.68900000  1.0 0.0992026031
C  C40  1  0.06170000  0.30160000  0.18900000  1.0 0.0992026031
C  C41  1  0.05020000  0.27110000  0.69570000  1.0 0.0791135076
C  C42  1  0.94980000  0.72890000  0.19570000  1.0 0.0791135076
C  C43  1  0.44980000  0.77110000  0.69570000  1.0 0.0791135076
C  C44  1  0.55020000  0.22890000  0.19570000  1.0 0.0791135076
C  C45  1  0.14500000  0.27480000  0.67350000  1.0 -0.1797843897
C  C46  1  0.85500000  0.72520000  0.17350000  1.0 -0.1797843897
C  C47  1  0.35500000  0.77480000  0.67350000  1.0 -0.1797843897
C  C48  1  0.64500000  0.22520000  0.17350000  1.0 -0.1797843897
C  C49  1  0.14080000  0.23430000  0.64398000  1.0 0.1411069587
C  C50  1  0.85920000  0.76570000  0.14398000  1.0 0.1491698419
C  C51  1  0.35920000  0.73430000  0.64398000  1.0 0.1491698419
C  C52  1  0.64080000  0.26570000  0.14398000  1.0 0.1491698419
C  C53  1  0.03300000  0.19420000  0.63830000  1.0 -0.1685810158
C  C54  1  0.96700000  0.80580000  0.13830000  1.0 -0.1685810158
C  C55  1  0.46700000  0.69420000  0.63830000  1.0 -0.1685810158
C  C56  1  0.53300000  0.30580000  0.13830000  1.0 -0.1685810158
C  C57  1  0.93430000  0.19640000  0.66210000  1.0 0.1187381717
C  C58  1  0.06570000  0.80360000  0.16210000  1.0 0.1187381717
C  C59  1  0.56570000  0.69640000  0.66210000  1.0 0.1187381717
C  C60  1  0.43430000  0.30360000  0.16210000  1.0 0.1187381717
C  C61  1  0.01780000  0.16120000  0.52130000  1.0 0.0992026031
C  C62  1  0.98220000  0.83880000  0.02130000  1.0 0.0992026031
C  C63  1  0.48220000  0.66120000  0.52130000  1.0 0.0992026031
C  C64  1  0.51780000  0.33880000  0.02130000  1.0 0.0992026031
C  C65  1  0.06390000  0.21130000  0.54310000  1.0 -0.1896749307
C  C66  1  0.93610000  0.78870000  0.04310000  1.0 -0.1896749307
C  C67  1  0.43610000  0.71130000  0.54310000  1.0 -0.1896749307
C  C68  1  0.56390000  0.28870000  0.04310000  1.0 -0.1896749307
C  C69  1  0.17960000  0.20200000  0.55762000  1.0 0.1411069587
C  C70  1  0.82040000  0.79800000  0.05762000  1.0 0.1411069587
C  C71  1  0.32040000  0.70200000  0.55762000  1.0 0.1411069587
C  C72  1  0.67960000  0.29800000  0.05762000  1.0 0.1411069587
C  C73  1  0.24810000  0.14320000  0.54790000  1.0 -0.1797843897
C  C74  1  0.75190000  0.85680000  0.04790000  1.0 -0.1797843897
C  C75  1  0.25190000  0.64320000  0.54790000  1.0 -0.1797843897
C  C76  1  0.74810000  0.35680000  0.04790000  1.0 -0.1797843897
C  C77  1  0.19420000  0.09530000  0.52490000  1.0 0.1110206972
C  C78  1  0.80580000  0.90470000  0.02490000  1.0 0.1110206972
C  C79  1  0.30580000  0.59530000  0.52490000  1.0 0.1110206972
C  C80  1  0.69420000  0.40470000  0.02490000  1.0 0.1110206972
C  C81  1  0.37120000  0.27540000  0.58353000  1.0 -0.0912003131
C  C82  1  0.62880000  0.72460000  0.08353000  1.0 -0.0912003131
C  C83  1  0.12880000  0.77540000  0.58353000  1.0 -0.0912003131
C  C84  1  0.87120000  0.22460000  0.08353000  1.0 -0.0912003131
C  C85  1  0.35770000  0.28260000  0.62180000  1.0 -0.10204768
C  C86  1  0.64230000  0.71740000  0.12180000  1.0 -0.10204768
C  C87  1  0.14230000  0.78260000  0.62180000  1.0 -0.10204768
C  C88  1  0.85770000  0.21740000  0.12180000  1.0 -0.10204768
C  C89  1  0.24740000  0.22940000  0.61988000  1.0 -0.10204768
C  C90  1  0.75260000  0.77060000  0.11988000  1.0 -0.10204768
C  C91  1  0.25260000  0.72940000  0.61988000  1.0 -0.10204768
C  C92  1  0.74740000  0.27060000  0.11988000  1.0 -0.10204768
C  C93  1  0.22880000  0.25260000  0.58285000  1.0 -0.078159146
C  C94  1  0.77120000  0.74740000  0.08285000  1.0 -0.078159146
C  C95  1  0.27120000  0.75260000  0.58285000  1.0 -0.078159146
C  C96  1  0.72880000  0.24740000  0.08285000  1.0 -0.078159146
C  C97  1  0.67900000  0.41000000  0.45280000  1.0 0.0896954447
C  C98  1  0.32100000  0.59000000  0.95280000  1.0 0.0896954447
C  C99  1  0.82100000  0.91000000  0.45280000  1.0 0.0896954447
C  C100  1  0.17900000  0.09000000  0.95280000  1.0 0.0896954447
C  C101  1  0.73140000  0.36250000  0.43030000  1.0 -0.1685810158
C  C102  1  0.26860000  0.63750000  0.93030000  1.0 -0.1685810158
C  C103  1  0.76860000  0.86250000  0.43030000  1.0 -0.1685810158
C  C104  1  0.23140000  0.13750000  0.93030000  1.0 -0.1685810158
C  C105  1  0.68450000  0.35720000  0.39847000  1.0 0.1491698419
C  C106  1  0.31550000  0.64280000  0.89847000  1.0 0.1491698419
C  C107  1  0.81550000  0.85720000  0.39847000  1.0 0.1491698419
C  C108  1  0.18450000  0.14280000  0.89847000  1.0 0.1491698419
C  C109  1  0.59140000  0.40460000  0.38990000  1.0 -0.1685810158
C  C110  1  0.40860000  0.59540000  0.88990000  1.0 -0.1685810158
C  C111  1  0.90860000  0.90460000  0.38990000  1.0 -0.1685810158
C  C112  1  0.09140000  0.09540000  0.88990000  1.0 -0.1685810158
C  C113  1  0.54560000  0.44940000  0.41370000  1.0 0.0896954447
C  C114  1  0.45440000  0.55060000  0.91370000  1.0 0.0896954447
C  C115  1  0.95440000  0.94940000  0.41370000  1.0 0.0896954447
C  C116  1  0.04560000  0.05060000  0.91370000  1.0 0.0896954447
C  C117  1  0.44100000  0.25850000  0.29440000  1.0 0.1110206972
C  C118  1  0.55900000  0.74150000  0.79440000  1.0 0.1110206972
C  C119  1  0.05900000  0.75850000  0.29440000  1.0 0.1110206972
C  C120  1  0.94100000  0.24150000  0.79440000  1.0 0.1110206972
C  C121  1  0.54080000  0.26510000  0.31772000  1.0 -0.1797843897
C  C122  1  0.45920000  0.73490000  0.81772000  1.0 -0.1797843897
C  C123  1  0.95920000  0.76510000  0.31772000  1.0 -0.1797843897
C  C124  1  0.04080000  0.23490000  0.81772000  1.0 -0.1797843897
C  C125  1  0.63570000  0.31100000  0.31241000  1.0 0.1411069587
C  C126  1  0.36430000  0.68900000  0.81241000  1.0 0.1411069587
C  C127  1  0.86430000  0.81100000  0.31241000  1.0 0.1411069587
C  C128  1  0.13570000  0.18900000  0.81241000  1.0 0.1411069587
C  C129  1  0.63100000  0.35080000  0.28281000  1.0 -0.1797843897
C  C130  1  0.36900000  0.64920000  0.78281000  1.0 -0.1797843897
C  C131  1  0.86900000  0.85080000  0.28281000  1.0 -0.1797843897
C  C132  1  0.13100000  0.14920000  0.78281000  1.0 -0.1797843897
C  C133  1  0.53660000  0.34050000  0.26060000  1.0 0.0896954447
C  C134  1  0.46340000  0.65950000  0.76060000  1.0 0.0896954447
C  C135  1  0.96340000  0.84050000  0.26060000  1.0 0.0896954447
C  C136  1  0.03660000  0.15950000  0.76060000  1.0 0.0896954447
C  C137  1  0.13350000  0.32140000  0.28846000  1.0 0.0791135076
C  C138  1  0.86650000  0.67860000  0.78846000  1.0 0.0791135076
C  C139  1  0.36650000  0.82140000  0.28846000  1.0 0.0791135076
C  C140  1  0.63350000  0.17860000  0.78846000  1.0 0.0791135076
C  C141  1  0.04090000  0.31970000  0.31170000  1.0 -0.1797843897
C  C142  1  0.95910000  0.68030000  0.81170000  1.0 -0.1797843897
C  C143  1  0.45910000  0.81970000  0.31170000  1.0 -0.1797843897
C  C144  1  0.54090000  0.18030000  0.81170000  1.0 -0.1797843897
C  C145  1  0.95310000  0.26230000  0.31210000  1.0 0.1573993843
C  C146  1  0.04690000  0.73770000  0.81210000  1.0 0.1573993843
C  C147  1  0.54690000  0.76230000  0.31210000  1.0 0.1573993843
C  C148  1  0.45310000  0.23770000  0.81210000  1.0 0.1573993843
C  C149  1  0.97150000  0.21030000  0.28850000  1.0 -0.1985273529
C  C150  1  0.02850000  0.78970000  0.78850000  1.0 -0.1985273529
C  C151  1  0.52850000  0.71030000  0.28850000  1.0 -0.1985273529
C  C152  1  0.47150000  0.28970000  0.78850000  1.0 -0.1985273529
C  C153  1  0.07330000  0.21570000  0.26570000  1.0 0.0992026031
C  C154  1  0.92670000  0.78430000  0.76570000  1.0 0.0992026031
C  C155  1  0.42670000  0.71570000  0.26570000  1.0 0.0992026031
C  C156  1  0.57330000  0.28430000  0.76570000  1.0 0.0992026031
C  C157  1  0.04460000  0.15810000  0.43530000  1.0 0.0896954447
C  C158  1  0.95540000  0.84190000  0.93530000  1.0 0.0896954447
C  C159  1  0.45540000  0.65810000  0.43530000  1.0 0.0896954447
C  C160  1  0.54460000  0.34190000  0.93530000  1.0 0.0896954447
C  C161  1  0.01790000  0.21180000  0.41210000  1.0 -0.1896749307
C  C162  1  0.98210000  0.78820000  0.91210000  1.0 -0.1896749307
C  C163  1  0.48210000  0.71180000  0.41210000  1.0 -0.1896749307
C  C164  1  0.51790000  0.28820000  0.91210000  1.0 -0.1896749307
C  C165  1  0.89900000  0.21520000  0.39780000  1.0 0.1491698419
C  C166  1  0.10100000  0.78480000  0.89780000  1.0 0.1491698419
C  C167  1  0.60100000  0.71520000  0.39780000  1.0 0.1491698419
C  C168  1  0.39900000  0.28480000  0.89780000  1.0 0.1491698419
C  C169  1  0.81610000  0.16240000  0.40650000  1.0 -0.1797843897
C  C170  1  0.18390000  0.83760000  0.90650000  1.0 -0.1797843897
C  C171  1  0.68390000  0.66240000  0.40650000  1.0 -0.1797843897
C  C172  1  0.31610000  0.33760000  0.90650000  1.0 -0.1797843897
C  C173  1  0.84890000  0.11180000  0.42910000  1.0 0.1110206972
C  C174  1  0.15110000  0.88820000  0.92910000  1.0 0.1110206972
C  C175  1  0.65110000  0.61180000  0.42910000  1.0 0.1110206972
C  C176  1  0.34890000  0.38820000  0.92910000  1.0 0.1110206972
C  C177  1  0.72620000  0.30150000  0.37409000  1.0 -0.0912003131
C  C178  1  0.27380000  0.69850000  0.87409000  1.0 -0.0912003131
C  C179  1  0.77380000  0.80150000  0.37409000  1.0 -0.0912003131
C  C180  1  0.22620000  0.19850000  0.87409000  1.0 -0.0912003131
C  C181  1  0.74480000  0.31760000  0.33606000  1.0 -0.0912003131
C  C182  1  0.25520000  0.68240000  0.83606000  1.0 -0.0912003131
C  C183  1  0.75520000  0.81760000  0.33606000  1.0 -0.0912003131
C  C184  1  0.24480000  0.18240000  0.83606000  1.0 -0.0912003131
C  C185  1  0.84800000  0.25800000  0.33640000  1.0 -0.10204768
C  C186  1  0.15200000  0.74200000  0.83640000  1.0 -0.10204768
C  C187  1  0.65200000  0.75800000  0.33640000  1.0 -0.10204768
C  C188  1  0.34800000  0.24200000  0.83640000  1.0 -0.10204768
C  C189  1  0.86550000  0.27390000  0.37464000  1.0 -0.0912003131
C  C190  1  0.13450000  0.72610000  0.87464000  1.0 -0.0912003131
C  C191  1  0.63450000  0.77390000  0.37464000  1.0 -0.0912003131
C  C192  1  0.36550000  0.22610000  0.87464000  1.0 -0.0912003131
N  N1  1  0.46170000  0.44280000  0.51478000  1.0 -0.211413065
N  N2  1  0.53830000  0.55720000  0.01478000  1.0 -0.211413065
N  N3  1  0.03830000  0.94280000  0.51478000  1.0 -0.211413065
N  N4  1  0.96170000  0.05720000  0.01478000  1.0 -0.211413065
N  N5  1  0.08180000  0.10400000  0.51193000  1.0 -0.2189805974
N  N6  1  0.91820000  0.89600000  0.01193000  1.0 -0.2189805974
N  N7  1  0.41820000  0.60400000  0.51193000  1.0 -0.2189805974
N  N8  1  0.58180000  0.39600000  0.01193000  1.0 -0.2189805974
N  N9  1  0.94460000  0.23210000  0.69112000  1.0 -0.211413065
N  N10  1  0.05540000  0.76790000  0.19112000  1.0 -0.211413065
N  N11  1  0.55540000  0.73210000  0.69112000  1.0 -0.211413065
N  N12  1  0.44460000  0.26790000  0.19112000  1.0 -0.211413065
N  N13  1  0.66220000  0.24070000  0.69013000  1.0 -0.211413065
N  N14  1  0.33780000  0.75930000  0.19013000  1.0 -0.211413065
N  N15  1  0.83780000  0.74070000  0.69013000  1.0 -0.211413065
N  N16  1  0.16220000  0.25930000  0.19013000  1.0 -0.211413065
N  N17  1  0.58670000  0.45310000  0.44450000  1.0 -0.211413065
N  N18  1  0.41330000  0.54690000  0.94450000  1.0 -0.211413065
N  N19  1  0.91330000  0.95310000  0.44450000  1.0 -0.211413065
N  N20  1  0.08670000  0.04690000  0.94450000  1.0 -0.211413065
N  N21  1  0.43970000  0.29550000  0.26598000  1.0 -0.211413065
N  N22  1  0.56030000  0.70450000  0.76598000  1.0 -0.211413065
N  N23  1  0.06030000  0.79550000  0.26598000  1.0 -0.211413065
N  N24  1  0.93970000  0.20450000  0.76598000  1.0 -0.211413065
N  N25  1  0.15310000  0.26970000  0.26588000  1.0 -0.211413065
N  N26  1  0.84690000  0.73030000  0.76588000  1.0 -0.211413065
N  N27  1  0.34690000  0.76970000  0.26588000  1.0 -0.211413065
N  N28  1  0.65310000  0.23030000  0.76588000  1.0 -0.211413065
N  N29  1  0.95800000  0.10850000  0.44331000  1.0 -0.2189805974
N  N30  1  0.04200000  0.89150000  0.94331000  1.0 -0.2189805974
N  N31  1  0.54200000  0.60850000  0.44331000  1.0 -0.2189805974
N  N32  1  0.45800000  0.39150000  0.94331000  1.0 -0.2189805974
Cl  Cl1  1  0.16280000  0.45710000  0.82080000  1.0 1.243915897
Cl  Cl2  1  0.83720000  0.54290000  0.32080000  1.0 1.243915897
Cl  Cl3  1  0.33720000  0.95710000  0.82080000  1.0 1.2458570878
Cl  Cl4  1  0.66280000  0.04290000  0.32080000  1.0 1.243915897
Cl  Cl5  1  0.14570000  0.01040000  0.66110000  1.0 1.243915897
Cl  Cl6  1  0.85430000  0.98960000  0.16110000  1.0 1.243915897
Cl  Cl7  1  0.35430000  0.51040000  0.66110000  1.0 1.243915897
Cl  Cl8  1  0.64570000  0.48960000  0.16110000  1.0 1.243915897
Cl  Cl9  1  0.31080000  0.87520000  0.08231000  1.0 1.204974262
Cl  Cl10  1  0.68920000  0.12480000  0.58231000  1.0 1.207059153
Cl  Cl11  1  0.18920000  0.37520000  0.08231000  1.0 1.207059153
Cl  Cl12  1  0.81080000  0.62480000  0.58231000  1.0 1.207059153
Cl  Cl13  1  0.93580000  0.29150000  0.93999000  1.0 1.243915897
Cl  Cl14  1  0.06420000  0.70850000  0.43999000  1.0 1.2458570878
Cl  Cl15  1  0.56420000  0.79150000  0.93999000  1.0 1.2458570878
Cl  Cl16  1  0.43580000  0.20850000  0.43999000  1.0 1.243915897
O  O1  1  0.68320000  0.54180000  0.50305000  1.0 -0.3113283534
O  O2  1  0.31680000  0.45820000  0.00305000  1.0 -0.3113283534
O  O3  1  0.81680000  0.04180000  0.50305000  1.0 -0.3113283534
O  O4  1  0.18320000  0.95820000  0.00305000  1.0 -0.3113283534
O  O5  1  0.31660000  0.50660000  0.45689000  1.0 -0.3970032949
O  O6  1  0.68340000  0.49340000  0.95689000  1.0 -0.3970032949
O  O7  1  0.18340000  0.00660000  0.45689000  1.0 -0.3970032949
O  O8  1  0.81660000  0.99340000  0.95689000  1.0 -0.3970032949
O  O9  1  0.32360000  0.15950000  0.23515000  1.0 -0.528699236
O  O10  1  0.67640000  0.84050000  0.73515000  1.0 -0.528699236
O  O11  1  0.17640000  0.65950000  0.23515000  1.0 -0.528699236
O  O12  1  0.82360000  0.34050000  0.73515000  1.0 -0.528699236
O  O13  1  0.27870000  0.38690000  0.22350000  1.0 -0.4481349174
O  O14  1  0.72130000  0.61310000  0.72350000  1.0 -0.4481349174
O  O15  1  0.22130000  0.88690000  0.22350000  1.0 -0.4481349174
O  O16  1  0.77870000  0.11310000  0.72350000  1.0 -0.4481349174
O  O17  1  0.07500000  0.50160000  0.80600000  1.0 -0.4368219883
O  O18  1  0.18400000  0.49450000  0.85460000  1.0 -0.4763769973
O  O19  1  0.11700000  0.39440000  0.83240000  1.0 -0.4303750923
O  O20  1  0.27580000  0.45900000  0.80550000  1.0 -0.4303750923
O  O21  1  0.92500000  0.49840000  0.30600000  1.0 -0.4368219883
O  O22  1  0.81600000  0.50550000  0.35460000  1.0 -0.4763769973
O  O23  1  0.88300000  0.60560000  0.33240000  1.0 -0.4303750923
O  O24  1  0.72420000  0.54100000  0.30550000  1.0 -0.4303750923
O  O25  1  0.42500000  0.00160000  0.80600000  1.0 -0.4368219883
O  O26  1  0.31600000  0.99450000  0.85460000  1.0 -0.4763769973
O  O27  1  0.38300000  0.89440000  0.83240000  1.0 -0.4303750923
O  O28  1  0.22420000  0.95900000  0.80550000  1.0 -0.4303750923
O  O29  1  0.57500000  0.99840000  0.30600000  1.0 -0.4368219883
O  O30  1  0.68400000  0.00550000  0.35460000  1.0 -0.4763769973
O  O31  1  0.61700000  0.10560000  0.33240000  1.0 -0.4303750923
O  O32  1  0.77580000  0.04100000  0.30550000  1.0 -0.4303750923
O  O33  1  0.18100000  0.94060000  0.66870000  1.0 -0.4481349174
O  O34  1  0.13600000  0.04990000  0.69010000  1.0 -0.4303750923
O  O35  1  0.03800000  0.01070000  0.64050000  1.0 -0.4303750923
O  O36  1  0.24800000  0.03670000  0.63970000  1.0 -0.4590168912
O  O37  1  0.81900000  0.05940000  0.16870000  1.0 -0.4481349174
O  O38  1  0.86400000  0.95010000  0.19010000  1.0 -0.4303750923
O  O39  1  0.96200000  0.98930000  0.14050000  1.0 -0.4368219883
O  O40  1  0.75200000  0.96330000  0.13970000  1.0 -0.4590168912
O  O41  1  0.31900000  0.44060000  0.66870000  1.0 -0.4481349174
O  O42  1  0.36400000  0.54990000  0.69010000  1.0 -0.4303750923
O  O43  1  0.46200000  0.51070000  0.64050000  1.0 -0.4368219883
O  O44  1  0.25200000  0.53670000  0.63970000  1.0 -0.4590168912
O  O45  1  0.68100000  0.55940000  0.16870000  1.0 -0.4481349174
O  O46  1  0.63600000  0.45010000  0.19010000  1.0 -0.4303750923
O  O47  1  0.53800000  0.48930000  0.14050000  1.0 -0.4368219883
O  O48  1  0.74800000  0.46330000  0.13970000  1.0 -0.4590168912
O  O49  1  0.22700000  0.81400000  0.08930000  1.0 -0.4481349174
O  O50  1  0.39690000  0.86840000  0.05720000  1.0 -0.4191231337
O  O51  1  0.20500000  0.91480000  0.07140000  1.0 -0.3548181374
O  O52  1  0.35700000  0.90450000  0.11170000  1.0 -0.4303750923
O  O53  1  0.77300000  0.18600000  0.58930000  1.0 -0.4481349174
O  O54  1  0.60310000  0.13160000  0.55720000  1.0 -0.4191231337
O  O55  1  0.79500000  0.08520000  0.57140000  1.0 -0.3561369299
O  O56  1  0.64300000  0.09550000  0.61170000  1.0 -0.4303750923
O  O57  1  0.27300000  0.31400000  0.08930000  1.0 -0.4481349174
O  O58  1  0.10310000  0.36840000  0.05720000  1.0 -0.4191231337
O  O59  1  0.29500000  0.41480000  0.07140000  1.0 -0.3561369299
O  O60  1  0.14300000  0.40450000  0.11170000  1.0 -0.4303750923
O  O61  1  0.72700000  0.68600000  0.58930000  1.0 -0.4481349174
O  O62  1  0.89690000  0.63160000  0.55720000  1.0 -0.4191231337
O  O63  1  0.70500000  0.58520000  0.57140000  1.0 -0.3561369299
O  O64  1  0.85700000  0.59550000  0.61170000  1.0 -0.4303750923
O  O65  1  0.86400000  0.22930000  0.93930000  1.0 -0.4481349174
O  O66  1  0.96120000  0.30480000  0.90550000  1.0 -0.4191231337
O  O67  1  0.87800000  0.35300000  0.95160000  1.0 -0.4368219883
O  O68  1  0.05960000  0.27090000  0.95400000  1.0 -0.4481349174
O  O69  1  0.13600000  0.77070000  0.43930000  1.0 -0.4481349174
O  O70  1  0.03880000  0.69520000  0.40550000  1.0 -0.4191231337
O  O71  1  0.12200000  0.64700000  0.45160000  1.0 -0.4368219883
O  O72  1  0.94040000  0.72910000  0.45400000  1.0 -0.4481349174
O  O73  1  0.63600000  0.72930000  0.93930000  1.0 -0.4481349174
O  O74  1  0.53880000  0.80480000  0.90550000  1.0 -0.4191231337
O  O75  1  0.62200000  0.85300000  0.95160000  1.0 -0.4368219883
O  O76  1  0.44040000  0.77090000  0.95400000  1.0 -0.4481349174
O  O77  1  0.36400000  0.27070000  0.43930000  1.0 -0.4481349174
O  O78  1  0.46120000  0.19520000  0.40550000  1.0 -0.4191231337
O  O79  1  0.37800000  0.14700000  0.45160000  1.0 -0.4368219883
O  O80  1  0.55960000  0.22910000  0.45400000  1.0 -0.4481349174
