# DDEC6 charges by PACMAN v1.1 (https://github.com/mtap-research/PACMAN-charge/)
data_NACYAU_ASR_pacman
_symmetry_space_group_name_H-M   'P 1'
_cell_length_a   17.16940000
_cell_length_b   32.19030000
_cell_length_c   32.92500000
_cell_angle_alpha   90.00000000
_cell_angle_beta   90.00000000
_cell_angle_gamma   90.00000000
_symmetry_Int_Tables_number   1
_chemical_formula_structural   Zn4H48C84N6O13
_chemical_formula_sum   'Zn16 H192 C336 N24 O52'
_cell_volume   18197.25690480
_cell_formula_units_Z   4
loop_
 _symmetry_equiv_pos_site_id
 _symmetry_equiv_pos_as_xyz
  1  'x, y, z'
loop_
 _atom_site_type_symbol
 _atom_site_label
 _atom_site_symmetry_multiplicity
 _atom_site_fract_x
 _atom_site_fract_y
 _atom_site_fract_z
 _atom_site_occupancy
 _atom_site_charge
Zn  Zn1  1  0.77674000  0.05277000  0.24652000  1.0 0.9931634118
Zn  Zn2  1  0.72326000  0.94723000  0.74652000  1.0 0.9931634118
Zn  Zn3  1  0.27674000  0.44723000  0.75348000  1.0 0.9931634118
Zn  Zn4  1  0.22326000  0.55277000  0.25348000  1.0 0.9931634118
Zn  Zn5  1  0.78630000  0.95868000  0.28132000  1.0 0.9354362389
Zn  Zn6  1  0.71370000  0.04132000  0.78132000  1.0 0.933944292
Zn  Zn7  1  0.28630000  0.54132000  0.71868000  1.0 0.933944292
Zn  Zn8  1  0.21370000  0.45868000  0.21868000  1.0 0.933944292
Zn  Zn9  1  0.91159000  0.02636000  0.30591000  1.0 0.933944292
Zn  Zn10  1  0.58841000  0.97364000  0.80591000  1.0 0.933944292
Zn  Zn11  1  0.41159000  0.47364000  0.69409000  1.0 0.933944292
Zn  Zn12  1  0.08841000  0.52636000  0.19409000  1.0 0.933944292
Zn  Zn13  1  0.91144000  0.98753000  0.21826000  1.0 0.9459089836
Zn  Zn14  1  0.58856000  0.01247000  0.71826000  1.0 0.9459089836
Zn  Zn15  1  0.41144000  0.51247000  0.78174000  1.0 0.9459089836
Zn  Zn16  1  0.08856000  0.48753000  0.28174000  1.0 0.9459089836
H  H1  1  0.54150000  0.92680000  0.27400000  1.0 0.139764508
H  H2  1  0.95850000  0.07320000  0.77400000  1.0 0.139764508
H  H3  1  0.04150000  0.57320000  0.72600000  1.0 0.139764508
H  H4  1  0.45850000  0.42680000  0.22600000  1.0 0.139764508
H  H5  1  0.40460000  0.05040000  0.25450000  1.0 0.128198388
H  H6  1  0.09540000  0.94960000  0.75450000  1.0 0.128198388
H  H7  1  0.90460000  0.44960000  0.74550000  1.0 0.128198388
H  H8  1  0.59540000  0.55040000  0.24550000  1.0 0.128198388
H  H9  1  0.54040000  0.05030000  0.25190000  1.0 0.128198388
H  H10  1  0.95960000  0.94970000  0.75190000  1.0 0.128198388
H  H11  1  0.04040000  0.44970000  0.74810000  1.0 0.128198388
H  H12  1  0.45960000  0.55030000  0.24810000  1.0 0.128198388
H  H13  1  0.15090000  0.96120000  0.21240000  1.0 0.139764508
H  H14  1  0.34910000  0.03880000  0.71240000  1.0 0.139764508
H  H15  1  0.65090000  0.53880000  0.78760000  1.0 0.139764508
H  H16  1  0.84910000  0.46120000  0.28760000  1.0 0.139764508
H  H17  1  0.16410000  0.03230000  0.31290000  1.0 0.128198388
H  H18  1  0.33590000  0.96770000  0.81290000  1.0 0.128198388
H  H19  1  0.66410000  0.46770000  0.68710000  1.0 0.128198388
H  H20  1  0.83590000  0.53230000  0.18710000  1.0 0.128198388
H  H21  1  0.29500000  0.02340000  0.31370000  1.0 0.128198388
H  H22  1  0.20500000  0.97660000  0.81370000  1.0 0.128198388
H  H23  1  0.79500000  0.47660000  0.68630000  1.0 0.128198388
H  H24  1  0.70500000  0.52340000  0.18630000  1.0 0.128198388
H  H25  1  0.36520000  0.84380000  0.31150000  1.0 0.128198388
H  H26  1  0.13480000  0.15620000  0.81150000  1.0 0.128198388
H  H27  1  0.86520000  0.65620000  0.68850000  1.0 0.128198388
H  H28  1  0.63480000  0.34380000  0.18850000  1.0 0.128198388
H  H29  1  0.29400000  0.78560000  0.33000000  1.0 0.1103324894
H  H30  1  0.20600000  0.21440000  0.83000000  1.0 0.1103324894
H  H31  1  0.79400000  0.71440000  0.67000000  1.0 0.1103324894
H  H32  1  0.70600000  0.28560000  0.17000000  1.0 0.1103324894
H  H33  1  0.18780000  0.76500000  0.29140000  1.0 0.1103324894
H  H34  1  0.31220000  0.23500000  0.79140000  1.0 0.1103324894
H  H35  1  0.68780000  0.73500000  0.70860000  1.0 0.1103324894
H  H36  1  0.81220000  0.26500000  0.20860000  1.0 0.1103324894
H  H37  1  0.15280000  0.80270000  0.23420000  1.0 0.1103324894
H  H38  1  0.34720000  0.19730000  0.73420000  1.0 0.1103324894
H  H39  1  0.65280000  0.69730000  0.76580000  1.0 0.1103324894
H  H40  1  0.84720000  0.30270000  0.26580000  1.0 0.1103324894
H  H41  1  0.22400000  0.86090000  0.21560000  1.0 0.1196465305
H  H42  1  0.27600000  0.13910000  0.71560000  1.0 0.1196465305
H  H43  1  0.72400000  0.63910000  0.78440000  1.0 0.1196465305
H  H44  1  0.77600000  0.36090000  0.28440000  1.0 0.1196465305
H  H45  1  0.44340000  0.85490000  0.20780000  1.0 0.1196465305
H  H46  1  0.05660000  0.14510000  0.70780000  1.0 0.1196465305
H  H47  1  0.94340000  0.64510000  0.79220000  1.0 0.1196465305
H  H48  1  0.55660000  0.35490000  0.29220000  1.0 0.1196465305
H  H49  1  0.50090000  0.81990000  0.15400000  1.0 0.1196465305
H  H50  1  0.99910000  0.18010000  0.65400000  1.0 0.1196465305
H  H51  1  0.00090000  0.68010000  0.84600000  1.0 0.1196465305
H  H52  1  0.49910000  0.31990000  0.34600000  1.0 0.1196465305
H  H53  1  0.46280000  0.83430000  0.08780000  1.0 0.1103324894
H  H54  1  0.03720000  0.16570000  0.58780000  1.0 0.1103324894
H  H55  1  0.96280000  0.66570000  0.91220000  1.0 0.1196465305
H  H56  1  0.53720000  0.33430000  0.41220000  1.0 0.1103324894
H  H57  1  0.36720000  0.88360000  0.07550000  1.0 0.1196465305
H  H58  1  0.13280000  0.11640000  0.57550000  1.0 0.1196465305
H  H59  1  0.86720000  0.61640000  0.92450000  1.0 0.1196465305
H  H60  1  0.63280000  0.38360000  0.42450000  1.0 0.1196465305
H  H61  1  0.30970000  0.91860000  0.12930000  1.0 0.128198388
H  H62  1  0.19030000  0.08140000  0.62930000  1.0 0.128198388
H  H63  1  0.80970000  0.58140000  0.87070000  1.0 0.128198388
H  H64  1  0.69030000  0.41860000  0.37070000  1.0 0.128198388
H  H65  1  0.89700000  0.16880000  0.22420000  1.0 0.128198388
H  H66  1  0.60300000  0.83120000  0.72420000  1.0 0.128198388
H  H67  1  0.39700000  0.33120000  0.77580000  1.0 0.128198388
H  H68  1  0.10300000  0.66880000  0.27580000  1.0 0.128198388
H  H69  1  0.94560000  0.23420000  0.22370000  1.0 0.1196465305
H  H70  1  0.55440000  0.76580000  0.72370000  1.0 0.1196465305
H  H71  1  0.44560000  0.26580000  0.77630000  1.0 0.1196465305
H  H72  1  0.05440000  0.73420000  0.27630000  1.0 0.1196465305
H  H73  1  0.98210000  0.15240000  0.33710000  1.0 0.139764508
H  H74  1  0.51790000  0.84760000  0.83710000  1.0 0.139764508
H  H75  1  0.48210000  0.34760000  0.66290000  1.0 0.139764508
H  H76  1  0.01790000  0.65240000  0.16290000  1.0 0.139764508
H  H77  1  0.10080000  0.26540000  0.23120000  1.0 0.128198388
H  H78  1  0.39920000  0.73460000  0.73120000  1.0 0.128198388
H  H79  1  0.60080000  0.23460000  0.76880000  1.0 0.128198388
H  H80  1  0.89920000  0.76540000  0.26880000  1.0 0.128198388
H  H81  1  0.14870000  0.33020000  0.22340000  1.0 0.128198388
H  H82  1  0.35130000  0.66980000  0.72340000  1.0 0.128198388
H  H83  1  0.64870000  0.16980000  0.77660000  1.0 0.128198388
H  H84  1  0.85130000  0.83020000  0.27660000  1.0 0.128198388
H  H85  1  0.02060000  0.36890000  0.31610000  1.0 0.139764508
H  H86  1  0.47940000  0.63110000  0.81610000  1.0 0.139764508
H  H87  1  0.52060000  0.13110000  0.68390000  1.0 0.139764508
H  H88  1  0.97940000  0.86890000  0.18390000  1.0 0.139764508
H  H89  1  0.02490000  0.32650000  0.40850000  1.0 0.1196465305
H  H90  1  0.47510000  0.67350000  0.90850000  1.0 0.1196465305
H  H91  1  0.52490000  0.17350000  0.59150000  1.0 0.1196465305
H  H92  1  0.97510000  0.82650000  0.09150000  1.0 0.1196465305
H  H93  1  0.10910000  0.35200000  0.45760000  1.0 0.128198388
H  H94  1  0.39090000  0.64800000  0.95760000  1.0 0.1196465305
H  H95  1  0.60910000  0.14800000  0.54240000  1.0 0.1196465305
H  H96  1  0.89090000  0.85200000  0.04240000  1.0 0.1196465305
H  H97  1  0.21310000  0.31190000  0.47970000  1.0 0.1103324894
H  H98  1  0.28690000  0.68810000  0.97970000  1.0 0.1103324894
H  H99  1  0.71310000  0.18810000  0.52030000  1.0 0.1103324894
H  H100  1  0.78690000  0.81190000  0.02030000  1.0 0.1103324894
H  H101  1  0.23280000  0.24620000  0.45250000  1.0 0.1196465305
H  H102  1  0.26720000  0.75380000  0.95250000  1.0 0.1196465305
H  H103  1  0.73280000  0.25380000  0.54750000  1.0 0.1196465305
H  H104  1  0.76720000  0.74620000  0.04750000  1.0 0.1196465305
H  H105  1  0.14860000  0.22070000  0.40340000  1.0 0.128198388
H  H106  1  0.35140000  0.77930000  0.90340000  1.0 0.128198388
H  H107  1  0.64860000  0.27930000  0.59660000  1.0 0.128198388
H  H108  1  0.85140000  0.72070000  0.09660000  1.0 0.128198388
H  H109  1  0.81910000  0.31570000  0.37320000  1.0 0.1196465305
H  H110  1  0.68090000  0.68430000  0.87320000  1.0 0.1196465305
H  H111  1  0.31910000  0.18430000  0.62680000  1.0 0.1196465305
H  H112  1  0.18090000  0.81570000  0.12680000  1.0 0.1196465305
H  H113  1  0.71920000  0.30250000  0.41880000  1.0 0.1103324894
H  H114  1  0.78080000  0.69750000  0.91880000  1.0 0.1103324894
H  H115  1  0.21920000  0.19750000  0.58120000  1.0 0.1103324894
H  H116  1  0.28080000  0.80250000  0.08120000  1.0 0.1103324894
H  H117  1  0.72750000  0.24610000  0.46250000  1.0 0.1008877134
H  H118  1  0.77250000  0.75390000  0.96250000  1.0 0.1008877134
H  H119  1  0.22750000  0.25390000  0.53750000  1.0 0.1008877134
H  H120  1  0.27250000  0.74610000  0.03750000  1.0 0.1008877134
H  H121  1  0.83570000  0.20290000  0.46050000  1.0 0.1103324894
H  H122  1  0.66430000  0.79710000  0.96050000  1.0 0.1103324894
H  H123  1  0.33570000  0.29710000  0.53950000  1.0 0.1103324894
H  H124  1  0.16430000  0.70290000  0.03950000  1.0 0.1103324894
H  H125  1  0.93560000  0.21620000  0.41480000  1.0 0.1196465305
H  H126  1  0.56440000  0.78380000  0.91480000  1.0 0.1196465305
H  H127  1  0.43560000  0.28380000  0.58520000  1.0 0.1196465305
H  H128  1  0.06440000  0.71620000  0.08520000  1.0 0.1196465305
H  H129  1  0.90140000  0.00210000  0.43340000  1.0 0.128198388
H  H130  1  0.59860000  0.99790000  0.93340000  1.0 0.128198388
H  H131  1  0.40140000  0.49790000  0.56660000  1.0 0.128198388
H  H132  1  0.09860000  0.50210000  0.06660000  1.0 0.128198388
H  H133  1  0.86550000  0.99390000  0.50030000  1.0 0.128198388
H  H134  1  0.63450000  0.00610000  0.00030000  1.0 0.128198388
H  H135  1  0.36550000  0.50610000  0.49970000  1.0 0.128198388
H  H136  1  0.13450000  0.49390000  0.99970000  1.0 0.128198388
H  H137  1  0.72480000  0.92740000  0.40060000  1.0 0.139764508
H  H138  1  0.77520000  0.07260000  0.90060000  1.0 0.139764508
H  H139  1  0.22480000  0.57260000  0.59940000  1.0 0.139764508
H  H140  1  0.27520000  0.42740000  0.09940000  1.0 0.139764508
H  H141  1  0.82880000  0.92920000  0.55680000  1.0 0.128198388
H  H142  1  0.67120000  0.07080000  0.05680000  1.0 0.128198388
H  H143  1  0.32880000  0.57080000  0.44320000  1.0 0.128198388
H  H144  1  0.17120000  0.42920000  0.94320000  1.0 0.128198388
H  H145  1  0.79180000  0.92990000  0.62290000  1.0 0.128198388
H  H146  1  0.70820000  0.07010000  0.12290000  1.0 0.128198388
H  H147  1  0.29180000  0.57010000  0.37710000  1.0 0.128198388
H  H148  1  0.20820000  0.42990000  0.87710000  1.0 0.128198388
H  H149  1  0.60170000  0.99350000  0.59020000  1.0 0.139764508
H  H150  1  0.89830000  0.00650000  0.09020000  1.0 0.139764508
H  H151  1  0.10170000  0.50650000  0.40980000  1.0 0.139764508
H  H152  1  0.39830000  0.49350000  0.90980000  1.0 0.139764508
H  H153  1  0.50350000  0.03200000  0.48000000  1.0 0.128198388
H  H154  1  0.99650000  0.96800000  0.98000000  1.0 0.128198388
H  H155  1  0.00350000  0.46800000  0.52000000  1.0 0.128198388
H  H156  1  0.49650000  0.53200000  0.02000000  1.0 0.128198388
H  H157  1  0.56460000  0.93400000  0.41150000  1.0 0.1196465305
H  H158  1  0.93540000  0.06600000  0.91150000  1.0 0.1196465305
H  H159  1  0.06460000  0.56600000  0.58850000  1.0 0.1196465305
H  H160  1  0.43540000  0.43400000  0.08850000  1.0 0.1196465305
H  H161  1  0.49940000  0.96270000  0.35650000  1.0 0.1196465305
H  H162  1  0.00060000  0.03730000  0.85650000  1.0 0.1196465305
H  H163  1  0.99940000  0.53730000  0.64350000  1.0 0.1196465305
H  H164  1  0.50060000  0.46270000  0.14350000  1.0 0.1196465305
H  H165  1  0.43620000  0.02600000  0.36330000  1.0 0.1103324894
H  H166  1  0.06380000  0.97400000  0.86330000  1.0 0.1103324894
H  H167  1  0.93620000  0.47400000  0.63670000  1.0 0.1103324894
H  H168  1  0.56380000  0.52600000  0.13670000  1.0 0.1103324894
H  H169  1  0.43830000  0.06070000  0.42510000  1.0 0.1103324894
H  H170  1  0.06170000  0.93930000  0.92510000  1.0 0.1103324894
H  H171  1  0.93830000  0.43930000  0.57490000  1.0 0.1103324894
H  H172  1  0.56170000  0.56070000  0.07490000  1.0 0.1103324894
H  H173  1  0.58860000  0.83710000  0.46330000  1.0 0.128198388
H  H174  1  0.91140000  0.16290000  0.96330000  1.0 0.128198388
H  H175  1  0.08860000  0.66290000  0.53670000  1.0 0.128198388
H  H176  1  0.41140000  0.33710000  0.03670000  1.0 0.128198388
H  H177  1  0.50620000  0.78980000  0.49400000  1.0 0.128198388
H  H178  1  0.99380000  0.21020000  0.99400000  1.0 0.128198388
H  H179  1  0.00620000  0.71020000  0.50600000  1.0 0.128198388
H  H180  1  0.49380000  0.28980000  0.00600000  1.0 0.128198388
H  H181  1  0.41430000  0.81060000  0.54170000  1.0 0.128198388
H  H182  1  0.08570000  0.18940000  0.04170000  1.0 0.1196465305
H  H183  1  0.91430000  0.68940000  0.45830000  1.0 0.1196465305
H  H184  1  0.58570000  0.31060000  0.95830000  1.0 0.128198388
H  H185  1  0.39730000  0.88180000  0.55490000  1.0 0.1196465305
H  H186  1  0.10270000  0.11820000  0.05490000  1.0 0.1196465305
H  H187  1  0.89730000  0.61820000  0.44510000  1.0 0.1196465305
H  H188  1  0.60270000  0.38180000  0.94510000  1.0 0.1196465305
H  H189  1  0.48730000  0.92780000  0.52610000  1.0 0.128198388
H  H190  1  0.01270000  0.07220000  0.02610000  1.0 0.128198388
H  H191  1  0.98730000  0.57220000  0.47390000  1.0 0.128198388
H  H192  1  0.51270000  0.42780000  0.97390000  1.0 0.128198388
C  C1  1  0.64400000  0.98710000  0.26030000  1.0 0.599632107
C  C2  1  0.85600000  0.01290000  0.76030000  1.0 0.5938854714
C  C3  1  0.14400000  0.51290000  0.73970000  1.0 0.599632107
C  C4  1  0.35600000  0.48710000  0.23970000  1.0 0.599632107
C  C5  1  0.55310000  0.98820000  0.26010000  1.0 -0.0072554083
C  C6  1  0.94690000  0.01180000  0.76010000  1.0 -0.0072554083
C  C7  1  0.05310000  0.51180000  0.73990000  1.0 -0.0072554083
C  C8  1  0.44690000  0.48820000  0.23990000  1.0 -0.0072554083
C  C9  1  0.51430000  0.95100000  0.26820000  1.0 -0.180493767
C  C10  1  0.98570000  0.04900000  0.76820000  1.0 -0.180493767
C  C11  1  0.01430000  0.54900000  0.73180000  1.0 -0.180493767
C  C12  1  0.48570000  0.45100000  0.23180000  1.0 -0.180493767
C  C13  1  0.39160000  0.98760000  0.26140000  1.0 0.0163655066
C  C14  1  0.10840000  0.01240000  0.76140000  1.0 0.0163655066
C  C15  1  0.89160000  0.51240000  0.73860000  1.0 0.0163655066
C  C16  1  0.60840000  0.48760000  0.23860000  1.0 0.0163655066
C  C17  1  0.43200000  0.02560000  0.25680000  1.0 -0.1688195814
C  C18  1  0.06800000  0.97440000  0.75680000  1.0 -0.1688195814
C  C19  1  0.93200000  0.47440000  0.74320000  1.0 -0.1688195814
C  C20  1  0.56800000  0.52560000  0.24320000  1.0 -0.1688195814
C  C21  1  0.51320000  0.02560000  0.25560000  1.0 -0.0996121478
C  C22  1  0.98680000  0.97440000  0.75560000  1.0 -0.0996121478
C  C23  1  0.01320000  0.47440000  0.74440000  1.0 -0.0996121478
C  C24  1  0.48680000  0.52560000  0.24440000  1.0 -0.0996121478
C  C25  1  0.29990000  0.98890000  0.26240000  1.0 0.0112649935
C  C26  1  0.20010000  0.01110000  0.76240000  1.0 0.0112649935
C  C27  1  0.79990000  0.51110000  0.73760000  1.0 0.0112649935
C  C28  1  0.70010000  0.48890000  0.23760000  1.0 0.0112649935
C  C29  1  0.25580000  0.96760000  0.23430000  1.0 0.128198388
C  C30  1  0.24420000  0.03240000  0.73430000  1.0 0.128198388
C  C31  1  0.75580000  0.53240000  0.76570000  1.0 0.128198388
C  C32  1  0.74420000  0.46760000  0.26570000  1.0 0.128198388
C  C33  1  0.17980000  0.97260000  0.23350000  1.0 -0.1688195814
C  C34  1  0.32020000  0.02740000  0.73350000  1.0 -0.1688195814
C  C35  1  0.67980000  0.52740000  0.76650000  1.0 -0.1688195814
C  C36  1  0.82020000  0.47260000  0.26650000  1.0 -0.1688195814
C  C37  1  0.14120000  0.99530000  0.26470000  1.0 -0.0038222759
C  C38  1  0.35880000  0.00470000  0.76470000  1.0 -0.0038222759
C  C39  1  0.64120000  0.50470000  0.73530000  1.0 -0.0038222759
C  C40  1  0.85880000  0.49530000  0.23530000  1.0 -0.0038222759
C  C41  1  0.18760000  0.01560000  0.29340000  1.0 -0.0910061333
C  C42  1  0.31240000  0.98440000  0.79340000  1.0 -0.0910061333
C  C43  1  0.68760000  0.48440000  0.70660000  1.0 -0.0910061333
C  C44  1  0.81240000  0.51560000  0.20660000  1.0 -0.0910061333
C  C45  1  0.26500000  0.01140000  0.29340000  1.0 -0.1505642412
C  C46  1  0.23500000  0.98860000  0.79340000  1.0 -0.1505642412
C  C47  1  0.76500000  0.48860000  0.70660000  1.0 -0.1505642412
C  C48  1  0.73500000  0.51140000  0.20660000  1.0 -0.1505642412
C  C49  1  0.05440000  0.00060000  0.26320000  1.0 0.5938854714
C  C50  1  0.44560000  0.99940000  0.76320000  1.0 0.5938854714
C  C51  1  0.55440000  0.49940000  0.73680000  1.0 0.5938854714
C  C52  1  0.94560000  0.50060000  0.23680000  1.0 0.5938854714
C  C53  1  0.43310000  0.95170000  0.26740000  1.0 0.139764508
C  C54  1  0.06690000  0.04830000  0.76740000  1.0 0.139764508
C  C55  1  0.93310000  0.54830000  0.73260000  1.0 0.139764508
C  C56  1  0.56690000  0.45170000  0.23260000  1.0 0.139764508
C  C57  1  0.34550000  0.89640000  0.25100000  1.0 0.139764508
C  C58  1  0.15450000  0.10360000  0.75100000  1.0 0.1504566336
C  C59  1  0.84550000  0.60360000  0.74900000  1.0 0.1504566336
C  C60  1  0.65450000  0.39640000  0.24900000  1.0 0.1504566336
C  C61  1  0.30160000  0.85810000  0.26170000  1.0 0.0424364148
C  C62  1  0.19840000  0.14190000  0.76170000  1.0 0.0424364148
C  C63  1  0.80160000  0.64190000  0.73830000  1.0 0.0424364148
C  C64  1  0.69840000  0.35810000  0.23830000  1.0 0.0424364148
C  C65  1  0.32260000  0.83560000  0.29600000  1.0 -0.1181407105
C  C66  1  0.17740000  0.16440000  0.79600000  1.0 -0.1181407105
C  C67  1  0.82260000  0.66440000  0.70400000  1.0 -0.1181407105
C  C68  1  0.67740000  0.33560000  0.20400000  1.0 -0.1181407105
C  C69  1  0.28000000  0.80070000  0.30710000  1.0 -0.0910061333
C  C70  1  0.22000000  0.19930000  0.80710000  1.0 -0.0910061333
C  C71  1  0.78000000  0.69930000  0.69290000  1.0 -0.0910061333
C  C72  1  0.72000000  0.30070000  0.19290000  1.0 -0.0910061333
C  C73  1  0.21640000  0.78830000  0.28390000  1.0 -0.0996121478
C  C74  1  0.28360000  0.21170000  0.78390000  1.0 -0.0996121478
C  C75  1  0.71640000  0.71170000  0.71610000  1.0 -0.0996121478
C  C76  1  0.78360000  0.28830000  0.21610000  1.0 -0.0996121478
C  C77  1  0.19540000  0.81090000  0.24970000  1.0 -0.0816326942
C  C78  1  0.30460000  0.18910000  0.74970000  1.0 -0.0816326942
C  C79  1  0.69540000  0.68910000  0.75030000  1.0 -0.0816326942
C  C80  1  0.80460000  0.31090000  0.25030000  1.0 -0.0816326942
C  C81  1  0.23800000  0.84580000  0.23850000  1.0 -0.1407019563
C  C82  1  0.26200000  0.15420000  0.73850000  1.0 -0.1407019563
C  C83  1  0.73800000  0.65420000  0.76150000  1.0 -0.1407019563
C  C84  1  0.76200000  0.34580000  0.26150000  1.0 -0.1407019563
C  C85  1  0.33250000  0.91550000  0.20830000  1.0 0.1638062349
C  C86  1  0.16750000  0.08450000  0.70830000  1.0 0.1638062349
C  C87  1  0.83250000  0.58450000  0.79170000  1.0 0.1638062349
C  C88  1  0.66750000  0.41550000  0.29170000  1.0 0.1638062349
C  C89  1  0.37090000  0.89020000  0.17390000  1.0 0.0466314344
C  C90  1  0.12910000  0.10980000  0.67390000  1.0 0.0466314344
C  C91  1  0.87090000  0.60980000  0.82610000  1.0 0.0466314344
C  C92  1  0.62910000  0.39020000  0.32610000  1.0 0.0466314344
C  C93  1  0.42810000  0.86060000  0.18130000  1.0 -0.162995321
C  C94  1  0.07190000  0.13940000  0.68130000  1.0 -0.162995321
C  C95  1  0.92810000  0.63940000  0.81870000  1.0 -0.162995321
C  C96  1  0.57190000  0.36060000  0.31870000  1.0 -0.162995321
C  C97  1  0.46260000  0.83970000  0.14900000  1.0 -0.0816326942
C  C98  1  0.03740000  0.16030000  0.64900000  1.0 -0.0816326942
C  C99  1  0.96260000  0.66030000  0.85100000  1.0 -0.0816326942
C  C100  1  0.53740000  0.33970000  0.35100000  1.0 -0.0816326942
C  C101  1  0.43980000  0.84830000  0.10940000  1.0 -0.1181407105
C  C102  1  0.06020000  0.15170000  0.60940000  1.0 -0.1181407105
C  C103  1  0.93980000  0.65170000  0.89060000  1.0 -0.1181407105
C  C104  1  0.56020000  0.34830000  0.39060000  1.0 -0.1181407105
C  C105  1  0.38250000  0.87790000  0.10200000  1.0 -0.0996121478
C  C106  1  0.11750000  0.12210000  0.60200000  1.0 -0.0996121478
C  C107  1  0.88250000  0.62210000  0.89800000  1.0 -0.0996121478
C  C108  1  0.61750000  0.37790000  0.39800000  1.0 -0.0996121478
C  C109  1  0.34800000  0.89880000  0.13430000  1.0 -0.1325084038
C  C110  1  0.15200000  0.10120000  0.63430000  1.0 -0.1325084038
C  C111  1  0.84800000  0.60120000  0.86570000  1.0 -0.1325084038
C  C112  1  0.65200000  0.39880000  0.36570000  1.0 -0.1325084038
C  C113  1  0.90700000  0.10670000  0.27990000  1.0 0.5794290056
C  C114  1  0.59300000  0.89330000  0.77990000  1.0 0.5794290056
C  C115  1  0.40700000  0.39330000  0.72010000  1.0 0.5794290056
C  C116  1  0.09300000  0.60670000  0.22010000  1.0 0.5794290056
C  C117  1  0.93510000  0.15270000  0.28190000  1.0 0.0112649935
C  C118  1  0.56490000  0.84730000  0.78190000  1.0 0.0112649935
C  C119  1  0.43510000  0.34730000  0.71810000  1.0 0.0112649935
C  C120  1  0.06490000  0.65270000  0.21810000  1.0 0.0112649935
C  C121  1  0.92410000  0.17880000  0.24660000  1.0 -0.0910061333
C  C122  1  0.57590000  0.82120000  0.74660000  1.0 -0.0910061333
C  C123  1  0.42410000  0.32120000  0.75340000  1.0 -0.0910061333
C  C124  1  0.07590000  0.67880000  0.25340000  1.0 -0.0910061333
C  C125  1  0.95330000  0.21770000  0.24650000  1.0 -0.180493767
C  C126  1  0.54670000  0.78230000  0.74650000  1.0 -0.180493767
C  C127  1  0.45330000  0.28230000  0.75350000  1.0 -0.180493767
C  C128  1  0.04670000  0.71770000  0.25350000  1.0 -0.180493767
C  C129  1  0.99560000  0.23420000  0.28020000  1.0 0.027588989
C  C130  1  0.50440000  0.76580000  0.78020000  1.0 0.027588989
C  C131  1  0.49560000  0.26580000  0.71980000  1.0 0.027588989
C  C132  1  0.00440000  0.73420000  0.21980000  1.0 0.027588989
C  C133  1  0.00430000  0.20690000  0.31440000  1.0 0.139764508
C  C134  1  0.49570000  0.79310000  0.81440000  1.0 0.139764508
C  C135  1  0.50430000  0.29310000  0.68560000  1.0 0.139764508
C  C136  1  0.99570000  0.70690000  0.18560000  1.0 0.139764508
C  C137  1  0.97510000  0.16890000  0.31420000  1.0 -0.1505642412
C  C138  1  0.52490000  0.83110000  0.81420000  1.0 -0.1505642412
C  C139  1  0.47510000  0.33110000  0.68580000  1.0 -0.1505642412
C  C140  1  0.02490000  0.66890000  0.18580000  1.0 -0.1505642412
C  C141  1  0.02890000  0.27570000  0.27850000  1.0 0.000907005
C  C142  1  0.47110000  0.72430000  0.77850000  1.0 0.000907005
C  C143  1  0.52890000  0.22430000  0.72150000  1.0 0.000907005
C  C144  1  0.97110000  0.77570000  0.22150000  1.0 0.000907005
C  C145  1  0.08370000  0.28620000  0.24880000  1.0 -0.1505642412
C  C146  1  0.41630000  0.71380000  0.74880000  1.0 -0.1505642412
C  C147  1  0.58370000  0.21380000  0.75120000  1.0 -0.1505642412
C  C148  1  0.91630000  0.78620000  0.25120000  1.0 -0.1505642412
C  C149  1  0.11310000  0.32480000  0.24410000  1.0 -0.0996121478
C  C150  1  0.38690000  0.67520000  0.74410000  1.0 -0.0996121478
C  C151  1  0.61310000  0.17520000  0.75590000  1.0 -0.0996121478
C  C152  1  0.88690000  0.82480000  0.25590000  1.0 -0.0996121478
C  C153  1  0.09050000  0.35610000  0.26980000  1.0 0.000907005
C  C154  1  0.40950000  0.64390000  0.76980000  1.0 0.000907005
C  C155  1  0.59050000  0.14390000  0.73020000  1.0 0.000907005
C  C156  1  0.90950000  0.85610000  0.23020000  1.0 0.000907005
C  C157  1  0.03670000  0.34780000  0.29860000  1.0 -0.162995321
C  C158  1  0.46330000  0.65220000  0.79860000  1.0 -0.162995321
C  C159  1  0.53670000  0.15220000  0.70140000  1.0 -0.162995321
C  C160  1  0.96330000  0.84780000  0.20140000  1.0 -0.162995321
C  C161  1  0.00530000  0.30870000  0.30250000  1.0 0.1504566336
C  C162  1  0.49470000  0.69130000  0.80250000  1.0 0.1504566336
C  C163  1  0.50530000  0.19130000  0.69750000  1.0 0.1504566336
C  C164  1  0.99470000  0.80870000  0.19750000  1.0 0.1504566336
C  C165  1  0.02720000  0.25310000  0.36860000  1.0 0.139764508
C  C166  1  0.47280000  0.74690000  0.86860000  1.0 0.139764508
C  C167  1  0.52720000  0.24690000  0.63140000  1.0 0.139764508
C  C168  1  0.97280000  0.75310000  0.13140000  1.0 0.139764508
C  C169  1  0.07840000  0.27110000  0.40110000  1.0 0.0466314344
C  C170  1  0.42160000  0.72890000  0.90110000  1.0 0.0466314344
C  C171  1  0.57840000  0.22890000  0.59890000  1.0 0.0466314344
C  C172  1  0.92160000  0.77110000  0.09890000  1.0 0.0466314344
C  C173  1  0.06660000  0.31040000  0.41730000  1.0 -0.1505642412
C  C174  1  0.43340000  0.68960000  0.91730000  1.0 -0.1505642412
C  C175  1  0.56660000  0.18960000  0.58270000  1.0 -0.1505642412
C  C176  1  0.93340000  0.81040000  0.08270000  1.0 -0.1505642412
C  C177  1  0.11700000  0.32570000  0.44680000  1.0 -0.0910061333
C  C178  1  0.38300000  0.67430000  0.94680000  1.0 -0.0816326942
C  C179  1  0.61700000  0.17430000  0.55320000  1.0 -0.0816326942
C  C180  1  0.88300000  0.82570000  0.05320000  1.0 -0.0816326942
C  C181  1  0.17930000  0.30160000  0.46000000  1.0 -0.1181407105
C  C182  1  0.32070000  0.69840000  0.96000000  1.0 -0.1181407105
C  C183  1  0.67930000  0.19840000  0.54000000  1.0 -0.1181407105
C  C184  1  0.82070000  0.80160000  0.04000000  1.0 -0.1181407105
C  C185  1  0.19110000  0.26230000  0.44370000  1.0 -0.0996121478
C  C186  1  0.30890000  0.73770000  0.94370000  1.0 -0.0996121478
C  C187  1  0.69110000  0.23770000  0.55630000  1.0 -0.0996121478
C  C188  1  0.80890000  0.76230000  0.05630000  1.0 -0.0996121478
C  C189  1  0.14070000  0.24700000  0.41430000  1.0 -0.1181407105
C  C190  1  0.35930000  0.75300000  0.91430000  1.0 -0.1181407105
C  C191  1  0.64070000  0.25300000  0.58570000  1.0 -0.1181407105
C  C192  1  0.85930000  0.74700000  0.08570000  1.0 -0.1181407105
C  C193  1  0.95500000  0.27420000  0.36040000  1.0 0.1103324894
C  C194  1  0.54500000  0.72580000  0.86040000  1.0 0.1103324894
C  C195  1  0.45500000  0.22580000  0.63960000  1.0 0.1103324894
C  C196  1  0.04500000  0.77420000  0.13960000  1.0 0.1103324894
C  C197  1  0.88720000  0.26730000  0.38950000  1.0 0.0654734926
C  C198  1  0.61280000  0.73270000  0.88950000  1.0 0.0654734926
C  C199  1  0.38720000  0.23270000  0.61050000  1.0 0.0654734926
C  C200  1  0.11280000  0.76730000  0.11050000  1.0 0.0654734926
C  C201  1  0.82240000  0.29310000  0.39070000  1.0 -0.1325084038
C  C202  1  0.67760000  0.70690000  0.89070000  1.0 -0.1325084038
C  C203  1  0.32240000  0.20690000  0.60930000  1.0 -0.1325084038
C  C204  1  0.17760000  0.79310000  0.10930000  1.0 -0.1325084038
C  C205  1  0.76260000  0.28520000  0.41800000  1.0 -0.0910061333
C  C206  1  0.73740000  0.71480000  0.91800000  1.0 -0.0910061333
C  C207  1  0.26260000  0.21480000  0.58200000  1.0 -0.0910061333
C  C208  1  0.23740000  0.78520000  0.08200000  1.0 -0.0910061333
C  C209  1  0.76760000  0.25140000  0.44420000  1.0 -0.1181407105
C  C210  1  0.73240000  0.74860000  0.94420000  1.0 -0.1181407105
C  C211  1  0.26760000  0.24860000  0.55580000  1.0 -0.1181407105
C  C212  1  0.23240000  0.75140000  0.05580000  1.0 -0.1181407105
C  C213  1  0.83240000  0.22550000  0.44300000  1.0 -0.0816326942
C  C214  1  0.66760000  0.77450000  0.94300000  1.0 -0.0816326942
C  C215  1  0.33240000  0.27450000  0.55700000  1.0 -0.0816326942
C  C216  1  0.16760000  0.72550000  0.05700000  1.0 -0.0816326942
C  C217  1  0.89220000  0.23350000  0.41560000  1.0 -0.1688195814
C  C218  1  0.60780000  0.76650000  0.91560000  1.0 -0.1688195814
C  C219  1  0.39220000  0.26650000  0.58440000  1.0 -0.1688195814
C  C220  1  0.10780000  0.73350000  0.08440000  1.0 -0.1688195814
C  C221  1  0.12350000  0.40150000  0.26500000  1.0 0.599632107
C  C222  1  0.37650000  0.59850000  0.76500000  1.0 0.599632107
C  C223  1  0.62350000  0.09850000  0.73500000  1.0 0.599632107
C  C224  1  0.87650000  0.90150000  0.23500000  1.0 0.599632107
C  C225  1  0.83690000  0.97410000  0.36500000  1.0 0.599632107
C  C226  1  0.66310000  0.02590000  0.86500000  1.0 0.599632107
C  C227  1  0.33690000  0.52590000  0.63500000  1.0 0.599632107
C  C228  1  0.16310000  0.47410000  0.13500000  1.0 0.599632107
C  C229  1  0.81500000  0.96760000  0.41130000  1.0 -0.0072554083
C  C230  1  0.68500000  0.03240000  0.91130000  1.0 -0.0072554083
C  C231  1  0.31500000  0.53240000  0.58870000  1.0 -0.0072554083
C  C232  1  0.18500000  0.46760000  0.08870000  1.0 -0.0072554083
C  C233  1  0.85760000  0.98650000  0.44020000  1.0 -0.112942346
C  C234  1  0.64240000  0.01350000  0.94020000  1.0 -0.112942346
C  C235  1  0.35760000  0.51350000  0.55980000  1.0 -0.112942346
C  C236  1  0.14240000  0.48650000  0.05980000  1.0 -0.112942346
C  C237  1  0.83490000  0.98230000  0.47990000  1.0 -0.1407019563
C  C238  1  0.66510000  0.01770000  0.97990000  1.0 -0.1325084038
C  C239  1  0.33490000  0.51770000  0.52010000  1.0 -0.1407019563
C  C240  1  0.16510000  0.48230000  0.02010000  1.0 -0.1407019563
C  C241  1  0.76480000  0.96020000  0.49100000  1.0 0.0466314344
C  C242  1  0.73520000  0.03980000  0.99100000  1.0 0.0466314344
C  C243  1  0.26480000  0.53980000  0.50900000  1.0 0.0466314344
C  C244  1  0.23520000  0.46020000  0.00900000  1.0 0.0466314344
C  C245  1  0.75020000  0.94220000  0.42090000  1.0 -0.162995321
C  C246  1  0.74980000  0.05780000  0.92090000  1.0 -0.162995321
C  C247  1  0.25020000  0.55780000  0.57910000  1.0 -0.162995321
C  C248  1  0.24980000  0.44220000  0.07910000  1.0 -0.162995321
C  C249  1  0.74230000  0.95990000  0.53250000  1.0 0.0112649935
C  C250  1  0.75770000  0.04010000  0.03250000  1.0 0.0112649935
C  C251  1  0.24230000  0.54010000  0.46750000  1.0 0.0112649935
C  C252  1  0.25770000  0.45990000  0.96750000  1.0 0.0112649935
C  C253  1  0.78250000  0.94260000  0.56340000  1.0 -0.1407019563
C  C254  1  0.71750000  0.05740000  0.06340000  1.0 -0.1407019563
C  C255  1  0.28250000  0.55740000  0.43660000  1.0 -0.1407019563
C  C256  1  0.21750000  0.44260000  0.93660000  1.0 -0.1407019563
C  C257  1  0.67350000  0.97670000  0.54400000  1.0 0.1504566336
C  C258  1  0.82650000  0.02330000  0.04400000  1.0 0.1504566336
C  C259  1  0.17350000  0.52330000  0.45600000  1.0 0.139764508
C  C260  1  0.32650000  0.47670000  0.95600000  1.0 0.1504566336
C  C261  1  0.76120000  0.94290000  0.60330000  1.0 -0.0996121478
C  C262  1  0.73880000  0.05710000  0.10330000  1.0 -0.0996121478
C  C263  1  0.26120000  0.55710000  0.39670000  1.0 -0.0996121478
C  C264  1  0.23880000  0.44290000  0.89670000  1.0 -0.0996121478
C  C265  1  0.64810000  0.98000000  0.58410000  1.0 -0.1505642412
C  C266  1  0.85190000  0.02000000  0.08410000  1.0 -0.1505642412
C  C267  1  0.14810000  0.52000000  0.41590000  1.0 -0.1505642412
C  C268  1  0.35190000  0.48000000  0.91590000  1.0 -0.1505642412
C  C269  1  0.69240000  0.96330000  0.61420000  1.0 -0.0072554083
C  C270  1  0.80760000  0.03670000  0.11420000  1.0 -0.0072554083
C  C271  1  0.19240000  0.53670000  0.38580000  1.0 -0.0072554083
C  C272  1  0.30760000  0.46330000  0.88580000  1.0 -0.0072554083
C  C273  1  0.67270000  0.96730000  0.65970000  1.0 0.5938854714
C  C274  1  0.82730000  0.03270000  0.15970000  1.0 0.5938854714
C  C275  1  0.17270000  0.53270000  0.34030000  1.0 0.5938854714
C  C276  1  0.32730000  0.46730000  0.84030000  1.0 0.5938854714
C  C277  1  0.59500000  0.95700000  0.48370000  1.0 0.0630662724
C  C278  1  0.90500000  0.04300000  0.98370000  1.0 0.0630662724
C  C279  1  0.09500000  0.54300000  0.51630000  1.0 0.0630662724
C  C280  1  0.40500000  0.45700000  0.01630000  1.0 0.0630662724
C  C281  1  0.50300000  0.01810000  0.45530000  1.0 -0.1325084038
C  C282  1  0.99700000  0.98190000  0.95530000  1.0 -0.1325084038
C  C283  1  0.00300000  0.48190000  0.54470000  1.0 -0.1325084038
C  C284  1  0.49700000  0.51810000  0.04470000  1.0 -0.1325084038
C  C285  1  0.54100000  0.98020000  0.45120000  1.0 0.0882273237
C  C286  1  0.95900000  0.01980000  0.95120000  1.0 0.0882273237
C  C287  1  0.04100000  0.51980000  0.54880000  1.0 0.0882273237
C  C288  1  0.45900000  0.48020000  0.04880000  1.0 0.0882273237
C  C289  1  0.53900000  0.95940000  0.41420000  1.0 -0.1407019563
C  C290  1  0.96100000  0.04060000  0.91420000  1.0 -0.1407019563
C  C291  1  0.03900000  0.54060000  0.58580000  1.0 -0.1407019563
C  C292  1  0.46100000  0.45940000  0.08580000  1.0 -0.1407019563
C  C293  1  0.50000000  0.97660000  0.38130000  1.0 -0.0735388914
C  C294  1  0.00000000  0.02340000  0.88130000  1.0 -0.0735388914
C  C295  1  0.00000000  0.52340000  0.61870000  1.0 -0.0735388914
C  C296  1  0.50000000  0.47660000  0.11870000  1.0 -0.0735388914
C  C297  1  0.46200000  0.01450000  0.38530000  1.0 -0.1181407105
C  C298  1  0.03800000  0.98550000  0.88530000  1.0 -0.1181407105
C  C299  1  0.96200000  0.48550000  0.61470000  1.0 -0.1181407105
C  C300  1  0.53800000  0.51450000  0.11470000  1.0 -0.1181407105
C  C301  1  0.46400000  0.03530000  0.42230000  1.0 -0.0816326942
C  C302  1  0.03600000  0.96470000  0.92230000  1.0 -0.0816326942
C  C303  1  0.96400000  0.46470000  0.57770000  1.0 -0.0816326942
C  C304  1  0.53600000  0.53530000  0.07770000  1.0 -0.0816326942
C  C305  1  0.72600000  0.93970000  0.45940000  1.0 0.1504566336
C  C306  1  0.77400000  0.06030000  0.95940000  1.0 0.1504566336
C  C307  1  0.22600000  0.56030000  0.54060000  1.0 0.1504566336
C  C308  1  0.27400000  0.43970000  0.04060000  1.0 0.1504566336
C  C309  1  0.59600000  0.92060000  0.47500000  1.0 0.1008877134
C  C310  1  0.90400000  0.07940000  0.97500000  1.0 0.1008877134
C  C311  1  0.09600000  0.57940000  0.52500000  1.0 0.1008877134
C  C312  1  0.40400000  0.42060000  0.02500000  1.0 0.1008877134
C  C313  1  0.54300000  0.88810000  0.49120000  1.0 0.0630662724
C  C314  1  0.95700000  0.11190000  0.99120000  1.0 0.0630662724
C  C315  1  0.04300000  0.61190000  0.50880000  1.0 0.0630662724
C  C316  1  0.45700000  0.38810000  0.00880000  1.0 0.0630662724
C  C317  1  0.55100000  0.84600000  0.48170000  1.0 -0.1407019563
C  C318  1  0.94900000  0.15400000  0.98170000  1.0 -0.1407019563
C  C319  1  0.05100000  0.65400000  0.51830000  1.0 -0.1407019563
C  C320  1  0.44900000  0.34600000  0.01830000  1.0 -0.1407019563
C  C321  1  0.50200000  0.81780000  0.50040000  1.0 -0.0816326942
C  C322  1  0.99800000  0.18220000  0.00040000  1.0 -0.0816326942
C  C323  1  0.00200000  0.68220000  0.49960000  1.0 -0.0816326942
C  C324  1  0.49800000  0.31780000  0.99960000  1.0 -0.0816326942
C  C325  1  0.44500000  0.83030000  0.52900000  1.0 -0.1407019563
C  C326  1  0.05500000  0.16970000  0.02900000  1.0 -0.1325084038
C  C327  1  0.94500000  0.66970000  0.47100000  1.0 -0.1181407105
C  C328  1  0.55500000  0.33030000  0.97100000  1.0 -0.1181407105
C  C329  1  0.43600000  0.87230000  0.53800000  1.0 -0.0735388914
C  C330  1  0.06400000  0.12770000  0.03800000  1.0 -0.0816326942
C  C331  1  0.93600000  0.62770000  0.46200000  1.0 -0.0816326942
C  C332  1  0.56400000  0.37230000  0.96200000  1.0 -0.0816326942
C  C333  1  0.48900000  0.89990000  0.51890000  1.0 -0.1407019563
C  C334  1  0.01100000  0.10010000  0.01890000  1.0 -0.1505642412
C  C335  1  0.98900000  0.60010000  0.48110000  1.0 -0.1407019563
C  C336  1  0.51100000  0.39990000  0.98110000  1.0 -0.1407019563
N  N1  1  0.39580000  0.91330000  0.27660000  1.0 -0.329813006
N  N2  1  0.10420000  0.08670000  0.77660000  1.0 -0.329813006
N  N3  1  0.89580000  0.58670000  0.72340000  1.0 -0.329813006
N  N4  1  0.60420000  0.41330000  0.22340000  1.0 -0.329813006
N  N5  1  0.67000000  0.90920000  0.46940000  1.0 -0.278906318
N  N6  1  0.83000000  0.09080000  0.96940000  1.0 -0.278906318
N  N7  1  0.17000000  0.59080000  0.53060000  1.0 -0.278906318
N  N8  1  0.33000000  0.40920000  0.03060000  1.0 -0.278906318
N  N9  1  0.29100000  0.94650000  0.20020000  1.0 -0.3095035056
N  N10  1  0.20900000  0.05350000  0.70020000  1.0 -0.3095035056
N  N11  1  0.79100000  0.55350000  0.79980000  1.0 -0.3095035056
N  N12  1  0.70900000  0.44650000  0.29980000  1.0 -0.3095035056
N  N13  1  0.04830000  0.22140000  0.34920000  1.0 -0.3095035056
N  N14  1  0.45170000  0.77860000  0.84920000  1.0 -0.3095035056
N  N15  1  0.54830000  0.27860000  0.65080000  1.0 -0.3095035056
N  N16  1  0.95170000  0.72140000  0.15080000  1.0 -0.3095035056
N  N17  1  0.94570000  0.30250000  0.33070000  1.0 -0.329813006
N  N18  1  0.55430000  0.69750000  0.83070000  1.0 -0.329813006
N  N19  1  0.44570000  0.19750000  0.66930000  1.0 -0.329813006
N  N20  1  0.05430000  0.80250000  0.16930000  1.0 -0.329813006
N  N21  1  0.61600000  0.98690000  0.51340000  1.0 -0.4078750858
N  N22  1  0.88400000  0.01310000  0.01340000  1.0 -0.4078750858
N  N23  1  0.11600000  0.51310000  0.48660000  1.0 -0.4078750858
N  N24  1  0.38400000  0.48690000  0.98660000  1.0 -0.4078750858
O  O1  1  0.84720000  0.00600000  0.26230000  1.0 -1.0231602291
O  O2  1  0.65280000  0.99400000  0.76230000  1.0 -1.0231602291
O  O3  1  0.34720000  0.49400000  0.73770000  1.0 -1.0231602291
O  O4  1  0.15280000  0.50600000  0.23770000  1.0 -1.0231602291
O  O5  1  0.67230000  0.02130000  0.24810000  1.0 -0.5744510094
O  O6  1  0.82770000  0.97870000  0.74810000  1.0 -0.5744510094
O  O7  1  0.17230000  0.47870000  0.75190000  1.0 -0.5744510094
O  O8  1  0.32770000  0.52130000  0.25190000  1.0 -0.5744510094
O  O9  1  0.02060000  0.99380000  0.22880000  1.0 -0.5503215218
O  O10  1  0.47940000  0.00620000  0.72880000  1.0 -0.5503215218
O  O11  1  0.52060000  0.50620000  0.77120000  1.0 -0.5503215218
O  O12  1  0.97940000  0.49380000  0.27120000  1.0 -0.5503215218
O  O13  1  0.67830000  0.95630000  0.27290000  1.0 -0.5052410314
O  O14  1  0.82170000  0.04370000  0.77290000  1.0 -0.5052410314
O  O15  1  0.17830000  0.54370000  0.72710000  1.0 -0.5052410314
O  O16  1  0.32170000  0.45630000  0.22710000  1.0 -0.5052410314
O  O17  1  0.02080000  0.00880000  0.29560000  1.0 -0.5200964609
O  O18  1  0.47920000  0.99120000  0.79560000  1.0 -0.5200964609
O  O19  1  0.52080000  0.49120000  0.70440000  1.0 -0.5200964609
O  O20  1  0.97920000  0.50880000  0.20440000  1.0 -0.5200964609
O  O21  1  0.86610000  0.09650000  0.25160000  1.0 -0.5389101157
O  O22  1  0.63390000  0.90350000  0.75160000  1.0 -0.5389101157
O  O23  1  0.36610000  0.40350000  0.74840000  1.0 -0.5389101157
O  O24  1  0.13390000  0.59650000  0.24840000  1.0 -0.5389101157
O  O25  1  0.92880000  0.08520000  0.31030000  1.0 -0.5389101157
O  O26  1  0.57120000  0.91480000  0.81030000  1.0 -0.5389101157
O  O27  1  0.42880000  0.41480000  0.68970000  1.0 -0.5389101157
O  O28  1  0.07120000  0.58520000  0.18970000  1.0 -0.5389101157
O  O29  1  0.17200000  0.40620000  0.23580000  1.0 -0.5389101157
O  O30  1  0.32800000  0.59380000  0.73580000  1.0 -0.5389101157
O  O31  1  0.67200000  0.09380000  0.76420000  1.0 -0.5389101157
O  O32  1  0.82800000  0.90620000  0.26420000  1.0 -0.5389101157
O  O33  1  0.09480000  0.42820000  0.28770000  1.0 -0.5304384926
O  O34  1  0.40520000  0.57180000  0.78770000  1.0 -0.5304384926
O  O35  1  0.59480000  0.07180000  0.71230000  1.0 -0.5304384926
O  O36  1  0.90520000  0.92820000  0.21230000  1.0 -0.5304384926
O  O37  1  0.88860000  0.00110000  0.35700000  1.0 -0.5389101157
O  O38  1  0.61140000  0.99890000  0.85700000  1.0 -0.5389101157
O  O39  1  0.38860000  0.49890000  0.64300000  1.0 -0.5389101157
O  O40  1  0.11140000  0.50110000  0.14300000  1.0 -0.5389101157
O  O41  1  0.79430000  0.95440000  0.33980000  1.0 -0.5562734702
O  O42  1  0.70570000  0.04560000  0.83980000  1.0 -0.5562734702
O  O43  1  0.29430000  0.54560000  0.66020000  1.0 -0.5562734702
O  O44  1  0.20570000  0.45440000  0.16020000  1.0 -0.5562734702
O  O45  1  0.61120000  0.99060000  0.66590000  1.0 -0.5503215218
O  O46  1  0.88880000  0.00940000  0.16590000  1.0 -0.5503215218
O  O47  1  0.11120000  0.50940000  0.33410000  1.0 -0.5503215218
O  O48  1  0.38880000  0.49060000  0.83410000  1.0 -0.5503215218
O  O49  1  0.71330000  0.95110000  0.68480000  1.0 -0.4920526022
O  O50  1  0.78670000  0.04890000  0.18480000  1.0 -0.4920526022
O  O51  1  0.21330000  0.54890000  0.31520000  1.0 -0.4920526022
O  O52  1  0.28670000  0.45110000  0.81520000  1.0 -0.4920526022
