# DDEC6 charges by PACMAN v1.1 (https://github.com/mtap-research/PACMAN-charge/)
data_NAGCAB_ASR_pacman
_symmetry_space_group_name_H-M   'P 1'
_cell_length_a   28.36040000
_cell_length_b   28.36040000
_cell_length_c   28.36040000
_cell_angle_alpha   111.79200000
_cell_angle_beta   111.79200000
_cell_angle_gamma   104.92400000
_symmetry_Int_Tables_number   1
_chemical_formula_structural   ZnMo6P4O25
_chemical_formula_sum   'Zn16 Mo96 P64 O400'
_cell_volume   17477.34466907
_cell_formula_units_Z   16
loop_
 _symmetry_equiv_pos_site_id
 _symmetry_equiv_pos_as_xyz
  1  'x, y, z'
loop_
 _atom_site_type_symbol
 _atom_site_label
 _atom_site_symmetry_multiplicity
 _atom_site_fract_x
 _atom_site_fract_y
 _atom_site_fract_z
 _atom_site_occupancy
 _atom_site_charge
Zn  Zn1  1  0.62500000  0.47290000  0.34790000  1.0 1.2137096122
Zn  Zn2  1  0.12500000  0.27710000  0.65210000  1.0 1.2169704971
Zn  Zn3  1  0.22290000  0.37500000  0.34790000  1.0 1.2169704971
Zn  Zn4  1  0.02710000  0.87500000  0.65210000  1.0 1.2169704971
Zn  Zn5  1  0.12500000  0.77710000  0.15210000  1.0 1.2169704971
Zn  Zn6  1  0.62500000  0.97290000  0.84790000  1.0 1.2169704971
Zn  Zn7  1  0.52710000  0.87500000  0.15210000  1.0 1.2169704971
Zn  Zn8  1  0.72290000  0.37500000  0.84790000  1.0 1.2169704971
Zn  Zn9  1  0.87500000  0.62500000  0.75000000  1.0 1.3310563162
Zn  Zn10  1  0.87500000  0.12500000  0.25000000  1.0 1.3399667933
Zn  Zn11  1  0.37500000  0.12500000  0.25000000  1.0 1.3399667933
Zn  Zn12  1  0.87500000  0.12500000  0.75000000  1.0 1.3310563162
Zn  Zn13  1  0.37500000  0.12500000  0.75000000  1.0 1.3310563162
Zn  Zn14  1  0.37500000  0.62500000  0.25000000  1.0 1.3399667933
Zn  Zn15  1  0.37500000  0.62500000  0.75000000  1.0 1.3310563162
Zn  Zn16  1  0.87500000  0.62500000  0.25000000  1.0 1.3399667933
Mo  Mo1  1  0.87375000  0.50229000  0.62778000  1.0 1.9710568151
Mo  Mo2  1  0.87451000  0.24597000  0.37222000  1.0 1.9710568151
Mo  Mo3  1  0.25229000  0.12451000  0.12854000  1.0 1.9710568151
Mo  Mo4  1  0.99597000  0.12375000  0.87146000  1.0 1.9710568151
Mo  Mo5  1  0.37549000  0.24771000  0.87146000  1.0 1.9630682522
Mo  Mo6  1  0.37625000  0.50403000  0.12854000  1.0 1.9630682522
Mo  Mo7  1  0.25403000  0.62549000  0.62778000  1.0 1.9710568151
Mo  Mo8  1  0.99771000  0.62625000  0.37222000  1.0 1.9710568151
Mo  Mo9  1  0.87625000  0.74771000  0.87222000  1.0 1.9630682522
Mo  Mo10  1  0.87549000  0.00403000  0.12778000  1.0 1.9710568151
Mo  Mo11  1  0.49771000  0.12549000  0.37146000  1.0 1.9630682522
Mo  Mo12  1  0.75403000  0.12625000  0.62854000  1.0 1.9630682522
Mo  Mo13  1  0.37451000  0.00229000  0.62854000  1.0 1.9630682522
Mo  Mo14  1  0.37375000  0.74597000  0.37146000  1.0 1.9630682522
Mo  Mo15  1  0.49597000  0.62451000  0.87222000  1.0 1.9630682522
Mo  Mo16  1  0.75229000  0.62375000  0.12778000  1.0 1.9630682522
Mo  Mo17  1  0.78106000  0.51146000  0.58382000  1.0 1.9784689637
Mo  Mo18  1  0.92764000  0.19724000  0.41618000  1.0 1.9784689637
Mo  Mo19  1  0.26146000  0.17764000  0.23040000  1.0 1.9784689637
Mo  Mo20  1  0.94724000  0.03106000  0.76960000  1.0 1.9856054976
Mo  Mo21  1  0.32236000  0.23854000  0.76960000  1.0 1.9784689637
Mo  Mo22  1  0.46894000  0.55276000  0.23040000  1.0 1.9784689637
Mo  Mo23  1  0.30276000  0.57236000  0.58382000  1.0 1.9784689637
Mo  Mo24  1  0.98854000  0.71894000  0.41618000  1.0 1.9784689637
Mo  Mo25  1  0.96894000  0.73854000  0.91618000  1.0 1.9784689637
Mo  Mo26  1  0.82236000  0.05276000  0.08382000  1.0 1.9856054976
Mo  Mo27  1  0.48854000  0.07236000  0.26960000  1.0 1.9784689637
Mo  Mo28  1  0.80276000  0.21894000  0.73040000  1.0 1.9784689637
Mo  Mo29  1  0.42764000  0.01146000  0.73040000  1.0 1.9784689637
Mo  Mo30  1  0.28106000  0.69724000  0.26960000  1.0 1.9710568151
Mo  Mo31  1  0.44724000  0.67764000  0.91618000  1.0 1.9710568151
Mo  Mo32  1  0.76146000  0.53106000  0.08382000  1.0 1.9784689637
Mo  Mo33  1  0.48615000  0.28032000  0.35457000  1.0 1.9784689637
Mo  Mo34  1  0.92575000  0.13158000  0.64543000  1.0 1.9784689637
Mo  Mo35  1  0.03032000  0.17575000  0.29417000  1.0 1.9784689637
Mo  Mo36  1  0.88158000  0.73615000  0.70583000  1.0 1.9784689637
Mo  Mo37  1  0.32425000  0.46968000  0.70583000  1.0 1.9784689637
Mo  Mo38  1  0.76385000  0.61842000  0.29417000  1.0 1.9784689637
Mo  Mo39  1  0.36842000  0.57425000  0.35457000  1.0 1.9784689637
Mo  Mo40  1  0.21968000  0.01385000  0.64543000  1.0 1.9784689637
Mo  Mo41  1  0.26385000  0.96968000  0.14543000  1.0 1.9710568151
Mo  Mo42  1  0.82425000  0.11842000  0.85457000  1.0 1.9784689637
Mo  Mo43  1  0.71968000  0.07425000  0.20583000  1.0 1.9784689637
Mo  Mo44  1  0.86842000  0.51385000  0.79417000  1.0 1.9784689637
Mo  Mo45  1  0.42575000  0.78032000  0.79417000  1.0 1.9784689637
Mo  Mo46  1  0.98615000  0.63158000  0.20583000  1.0 1.9784689637
Mo  Mo47  1  0.38158000  0.67575000  0.14543000  1.0 1.9784689637
Mo  Mo48  1  0.53032000  0.23615000  0.85457000  1.0 1.9784689637
Mo  Mo49  1  0.37520000  0.14172000  0.12060000  1.0 1.9784689637
Mo  Mo50  1  0.02112000  0.25460000  0.87940000  1.0 1.9710568151
Mo  Mo51  1  0.89172000  0.27112000  0.26652000  1.0 1.9784689637
Mo  Mo52  1  0.00460000  0.62520000  0.73348000  1.0 1.9710568151
Mo  Mo53  1  0.22888000  0.60828000  0.73348000  1.0 1.9710568151
Mo  Mo54  1  0.87480000  0.49540000  0.26652000  1.0 1.9784689637
Mo  Mo55  1  0.24540000  0.47888000  0.12060000  1.0 1.9710568151
Mo  Mo56  1  0.35828000  0.12480000  0.87940000  1.0 1.9710568151
Mo  Mo57  1  0.37480000  0.10828000  0.37940000  1.0 1.9784689637
Mo  Mo58  1  0.72888000  0.99540000  0.62060000  1.0 1.9710568151
Mo  Mo59  1  0.85828000  0.97888000  0.23348000  1.0 1.9784689637
Mo  Mo60  1  0.74540000  0.62480000  0.76652000  1.0 1.9784689637
Mo  Mo61  1  0.52112000  0.64172000  0.76652000  1.0 1.9784689637
Mo  Mo62  1  0.87520000  0.75460000  0.23348000  1.0 1.9784689637
Mo  Mo63  1  0.50460000  0.77112000  0.37940000  1.0 1.9710568151
Mo  Mo64  1  0.39172000  0.12520000  0.62060000  1.0 1.9784689637
Mo  Mo65  1  0.78454000  0.64570000  0.62868000  1.0 1.9710568151
Mo  Mo66  1  0.01702000  0.15586000  0.37132000  1.0 1.9630682522
Mo  Mo67  1  0.39570000  0.26702000  0.36116000  1.0 1.9630682522
Mo  Mo68  1  0.90586000  0.03454000  0.63884000  1.0 1.9710568151
Mo  Mo69  1  0.23298000  0.10430000  0.63884000  1.0 1.9630682522
Mo  Mo70  1  0.46546000  0.59414000  0.36116000  1.0 1.9710568151
Mo  Mo71  1  0.34414000  0.48298000  0.62868000  1.0 1.9630682522
Mo  Mo72  1  0.85430000  0.71546000  0.37132000  1.0 1.9710568151
Mo  Mo73  1  0.96546000  0.60430000  0.87132000  1.0 1.9630682522
Mo  Mo74  1  0.73298000  0.09414000  0.12868000  1.0 1.9710568151
Mo  Mo75  1  0.35430000  0.98298000  0.13884000  1.0 1.9630682522
Mo  Mo76  1  0.84414000  0.21546000  0.86116000  1.0 1.9710568151
Mo  Mo77  1  0.51702000  0.14570000  0.86116000  1.0 1.9710568151
Mo  Mo78  1  0.28454000  0.65586000  0.13884000  1.0 1.9710568151
Mo  Mo79  1  0.40586000  0.76702000  0.87132000  1.0 1.9630682522
Mo  Mo80  1  0.89570000  0.53454000  0.12868000  1.0 1.9630682522
Mo  Mo81  1  0.47530000  0.20669000  0.21683000  1.0 1.9784689637
Mo  Mo82  1  0.98986000  0.25847000  0.78317000  1.0 1.9710568151
Mo  Mo83  1  0.95669000  0.23986000  0.23139000  1.0 1.9784689637
Mo  Mo84  1  0.00847000  0.72530000  0.76861000  1.0 1.9710568151
Mo  Mo85  1  0.26014000  0.54331000  0.76861000  1.0 1.9710568151
Mo  Mo86  1  0.77470000  0.49153000  0.23139000  1.0 1.9710568151
Mo  Mo87  1  0.24153000  0.51014000  0.21683000  1.0 1.9710568151
Mo  Mo88  1  0.29331000  0.02470000  0.78317000  1.0 1.9710568151
Mo  Mo89  1  0.27470000  0.04331000  0.28317000  1.0 1.9710568151
Mo  Mo90  1  0.76014000  0.99153000  0.71683000  1.0 1.9710568151
Mo  Mo91  1  0.79331000  0.01014000  0.26861000  1.0 1.9784689637
Mo  Mo92  1  0.74153000  0.52470000  0.73139000  1.0 1.9710568151
Mo  Mo93  1  0.48986000  0.70669000  0.73139000  1.0 1.9710568151
Mo  Mo94  1  0.97530000  0.75847000  0.26861000  1.0 1.9784689637
Mo  Mo95  1  0.50847000  0.73986000  0.28317000  1.0 1.9710568151
Mo  Mo96  1  0.45669000  0.22530000  0.71683000  1.0 1.9784689637
P  P1  1  0.54716000  0.34648000  0.30236000  1.0 1.369131354
P  P2  1  0.04412000  0.24480000  0.69764000  1.0 1.369131354
P  P3  1  0.09648000  0.29412000  0.29932000  1.0 1.369131354
P  P4  1  0.99480000  0.79716000  0.70068000  1.0 1.369131354
P  P5  1  0.20588000  0.40352000  0.70068000  1.0 1.369131354
P  P6  1  0.70284000  0.50520000  0.29932000  1.0 1.369131354
P  P7  1  0.25520000  0.45588000  0.30236000  1.0 1.369131354
P  P8  1  0.15352000  0.95284000  0.69764000  1.0 1.369131354
P  P9  1  0.20284000  0.90352000  0.19764000  1.0 1.369131354
P  P10  1  0.70588000  0.00520000  0.80236000  1.0 1.369131354
P  P11  1  0.65352000  0.95588000  0.20068000  1.0 1.369131354
P  P12  1  0.75520000  0.45284000  0.79932000  1.0 1.369131354
P  P13  1  0.54412000  0.84648000  0.79932000  1.0 1.369131354
P  P14  1  0.04716000  0.74480000  0.20068000  1.0 1.369131354
P  P15  1  0.49480000  0.79412000  0.19764000  1.0 1.3755717471
P  P16  1  0.59648000  0.29716000  0.80236000  1.0 1.369131354
P  P17  1  0.89861000  0.62618000  0.62479000  1.0 1.5211849704
P  P18  1  0.00139000  0.27382000  0.37521000  1.0 1.5211849704
P  P19  1  0.37618000  0.25139000  0.22757000  1.0 1.5211849704
P  P20  1  0.02382000  0.14861000  0.77243000  1.0 1.5211849704
P  P21  1  0.24861000  0.12382000  0.77243000  1.0 1.5211849704
P  P22  1  0.35139000  0.47618000  0.22757000  1.0 1.5211849704
P  P23  1  0.22618000  0.49861000  0.62479000  1.0 1.5211849704
P  P24  1  0.87382000  0.60139000  0.37521000  1.0 1.5211849704
P  P25  1  0.85139000  0.62382000  0.87521000  1.0 1.5211849704
P  P26  1  0.74861000  0.97618000  0.12479000  1.0 1.5211849704
P  P27  1  0.37382000  0.99861000  0.27243000  1.0 1.5211849704
P  P28  1  0.72618000  0.10139000  0.72757000  1.0 1.5211849704
P  P29  1  0.50139000  0.12618000  0.72757000  1.0 1.5211849704
P  P30  1  0.39861000  0.77382000  0.27243000  1.0 1.5211849704
P  P31  1  0.52382000  0.75139000  0.87521000  1.0 1.5211849704
P  P32  1  0.87618000  0.64861000  0.12479000  1.0 1.5211849704
P  P33  1  0.27723000  0.16763000  0.04330000  1.0 1.357868161
P  P34  1  0.12433000  0.23393000  0.95670000  1.0 1.357868161
P  P35  1  0.91763000  0.37433000  0.39040000  1.0 1.3547136977
P  P36  1  0.98393000  0.52723000  0.60960000  1.0 1.357868161
P  P37  1  0.12567000  0.58237000  0.60960000  1.0 1.357868161
P  P38  1  0.97277000  0.51607000  0.39040000  1.0 1.3547136977
P  P39  1  0.26607000  0.37567000  0.04330000  1.0 1.357868161
P  P40  1  0.33237000  0.22277000  0.95670000  1.0 1.357868161
P  P41  1  0.47277000  0.08237000  0.45670000  1.0 1.3547136977
P  P42  1  0.62567000  0.01607000  0.54330000  1.0 1.3547136977
P  P43  1  0.83237000  0.87567000  0.10960000  1.0 1.3547136977
P  P44  1  0.76607000  0.72277000  0.89040000  1.0 1.3547136977
P  P45  1  0.62433000  0.66763000  0.89040000  1.0 1.3547136977
P  P46  1  0.77723000  0.73393000  0.10960000  1.0 1.357868161
P  P47  1  0.48393000  0.87433000  0.45670000  1.0 1.357868161
P  P48  1  0.41763000  0.02723000  0.54330000  1.0 1.357868161
P  P49  1  0.73196000  0.55108000  0.48840000  1.0 1.3916121574
P  P50  1  0.06268000  0.24356000  0.51160000  1.0 1.3916121574
P  P51  1  0.30108000  0.31268000  0.31912000  1.0 1.3972058225
P  P52  1  0.99356000  0.98196000  0.68088000  1.0 1.3972058225
P  P53  1  0.18732000  0.19892000  0.68088000  1.0 1.3972058225
P  P54  1  0.51804000  0.50644000  0.31912000  1.0 1.3972058225
P  P55  1  0.25644000  0.43732000  0.48840000  1.0 1.3916121574
P  P56  1  0.94892000  0.76804000  0.51160000  1.0 1.3972058225
P  P57  1  0.01804000  0.69892000  0.01160000  1.0 1.3972058225
P  P58  1  0.68732000  0.00644000  0.98840000  1.0 1.3916121574
P  P59  1  0.44892000  0.93732000  0.18088000  1.0 1.3972058225
P  P60  1  0.75644000  0.26804000  0.81912000  1.0 1.3972058225
P  P61  1  0.56268000  0.05108000  0.81912000  1.0 1.3972058225
P  P62  1  0.23196000  0.74356000  0.18088000  1.0 1.3916121574
P  P63  1  0.49356000  0.81268000  0.01160000  1.0 1.3916121574
P  P64  1  0.80108000  0.48196000  0.98840000  1.0 1.3916121574
O  O1  1  0.92742000  0.68720000  0.68028000  1.0 -0.8437937134
O  O2  1  0.00692000  0.24714000  0.31972000  1.0 -0.8437937134
O  O3  1  0.43720000  0.25692000  0.25978000  1.0 -0.8437937134
O  O4  1  0.99714000  0.17742000  0.74022000  1.0 -0.8437937134
O  O5  1  0.24308000  0.06280000  0.74022000  1.0 -0.8437937134
O  O6  1  0.32258000  0.50286000  0.25978000  1.0 -0.8467816079
O  O7  1  0.25286000  0.49308000  0.68028000  1.0 -0.8437937134
O  O8  1  0.81280000  0.57258000  0.31972000  1.0 -0.8437937134
O  O9  1  0.82258000  0.56280000  0.81972000  1.0 -0.8437937134
O  O10  1  0.74308000  0.00286000  0.18028000  1.0 -0.8437937134
O  O11  1  0.31280000  0.99308000  0.24022000  1.0 -0.8467816079
O  O12  1  0.75286000  0.07258000  0.75978000  1.0 -0.8437937134
O  O13  1  0.50692000  0.18720000  0.75978000  1.0 -0.8467816079
O  O14  1  0.42742000  0.74714000  0.24022000  1.0 -0.8467816079
O  O15  1  0.49714000  0.75692000  0.81972000  1.0 -0.8437937134
O  O16  1  0.93720000  0.67742000  0.18028000  1.0 -0.8467816079
O  O17  1  0.74805000  0.56529000  0.61754000  1.0 -0.9277596451
O  O18  1  0.94775000  0.13051000  0.38246000  1.0 -0.9277596451
O  O19  1  0.31529000  0.19775000  0.31724000  1.0 -0.9277596451
O  O20  1  0.88051000  0.99805000  0.68276000  1.0 -0.9277596451
O  O21  1  0.30225000  0.18471000  0.68276000  1.0 -0.9277596451
O  O22  1  0.50195000  0.61949000  0.31724000  1.0 -0.9277596451
O  O23  1  0.36949000  0.55225000  0.61754000  1.0 -0.9277596451
O  O24  1  0.93471000  0.75195000  0.38246000  1.0 -0.9277596451
O  O25  1  0.00195000  0.68471000  0.88246000  1.0 -0.9277596451
O  O26  1  0.80225000  0.11949000  0.11754000  1.0 -0.9277596451
O  O27  1  0.43471000  0.05225000  0.18276000  1.0 -0.9277596451
O  O28  1  0.86949000  0.25195000  0.81724000  1.0 -0.9277596451
O  O29  1  0.44775000  0.06529000  0.81724000  1.0 -0.9277596451
O  O30  1  0.24805000  0.63051000  0.18276000  1.0 -0.9277596451
O  O31  1  0.38051000  0.69775000  0.88246000  1.0 -0.9277596451
O  O32  1  0.81529000  0.49805000  0.11754000  1.0 -0.9277596451
O  O33  1  0.92374000  0.59056000  0.64586000  1.0 -0.8437937134
O  O34  1  0.94470000  0.27788000  0.35414000  1.0 -0.8467816079
O  O35  1  0.34056000  0.19470000  0.16682000  1.0 -0.8467816079
O  O36  1  0.02788000  0.17374000  0.83318000  1.0 -0.8467816079
O  O37  1  0.30530000  0.15944000  0.83318000  1.0 -0.8467816079
O  O38  1  0.32626000  0.47212000  0.16682000  1.0 -0.8467816079
O  O39  1  0.22212000  0.55530000  0.64586000  1.0 -0.8467816079
O  O40  1  0.90944000  0.57626000  0.35414000  1.0 -0.8437937134
O  O41  1  0.82626000  0.65944000  0.85414000  1.0 -0.8467816079
O  O42  1  0.80530000  0.97212000  0.14586000  1.0 -0.8467816079
O  O43  1  0.40944000  0.05530000  0.33318000  1.0 -0.8467816079
O  O44  1  0.72212000  0.07626000  0.66682000  1.0 -0.8467816079
O  O45  1  0.44470000  0.09056000  0.66682000  1.0 -0.8467816079
O  O46  1  0.42374000  0.77788000  0.33318000  1.0 -0.8467816079
O  O47  1  0.52788000  0.69470000  0.85414000  1.0 -0.8467816079
O  O48  1  0.84056000  0.67374000  0.14586000  1.0 -0.8437937134
O  O49  1  0.23843000  0.14216000  0.06231000  1.0 -0.7291415649
O  O50  1  0.07985000  0.17612000  0.93769000  1.0 -0.7291415649
O  O51  1  0.89216000  0.32985000  0.40373000  1.0 -0.7291415649
O  O52  1  0.92612000  0.48843000  0.59627000  1.0 -0.7291415649
O  O53  1  0.17015000  0.60784000  0.59627000  1.0 -0.7291415649
O  O54  1  0.01157000  0.57388000  0.40373000  1.0 -0.7291415649
O  O55  1  0.32388000  0.42015000  0.06231000  1.0 -0.7291415649
O  O56  1  0.35784000  0.26157000  0.93769000  1.0 -0.7291415649
O  O57  1  0.51157000  0.10784000  0.43769000  1.0 -0.7291415649
O  O58  1  0.67015000  0.07388000  0.56231000  1.0 -0.7291415649
O  O59  1  0.85784000  0.92015000  0.09627000  1.0 -0.7291415649
O  O60  1  0.82388000  0.76157000  0.90373000  1.0 -0.7291415649
O  O61  1  0.57985000  0.64216000  0.90373000  1.0 -0.7291415649
O  O62  1  0.73843000  0.67612000  0.09627000  1.0 -0.7291415649
O  O63  1  0.42612000  0.82985000  0.43769000  1.0 -0.7291415649
O  O64  1  0.39216000  0.98843000  0.56231000  1.0 -0.7291415649
O  O65  1  0.40809000  0.14281000  0.19660000  1.0 -0.8602264702
O  O66  1  0.94621000  0.21149000  0.80340000  1.0 -0.8602264702
O  O67  1  0.89281000  0.19621000  0.23472000  1.0 -0.8602264702
O  O68  1  0.96149000  0.65809000  0.76528000  1.0 -0.8602264702
O  O69  1  0.30379000  0.60719000  0.76528000  1.0 -0.8602264702
O  O70  1  0.84191000  0.53851000  0.23472000  1.0 -0.8602264702
O  O71  1  0.28851000  0.55379000  0.19660000  1.0 -0.8602264702
O  O72  1  0.35719000  0.09191000  0.80340000  1.0 -0.8602264702
O  O73  1  0.34191000  0.10719000  0.30340000  1.0 -0.8602264702
O  O74  1  0.80379000  0.03851000  0.69660000  1.0 -0.8602264702
O  O75  1  0.85719000  0.05379000  0.26528000  1.0 -0.8602264702
O  O76  1  0.78851000  0.59191000  0.73472000  1.0 -0.8602264702
O  O77  1  0.44621000  0.64281000  0.73472000  1.0 -0.8602264702
O  O78  1  0.90809000  0.71149000  0.26528000  1.0 -0.8602264702
O  O79  1  0.46149000  0.69621000  0.30340000  1.0 -0.8602264702
O  O80  1  0.39281000  0.15809000  0.69660000  1.0 -0.8602264702
O  O81  1  0.41943000  0.21037000  0.32524000  1.0 -0.8602264702
O  O82  1  0.88513000  0.09419000  0.67476000  1.0 -0.8602264702
O  O83  1  0.96037000  0.13513000  0.29094000  1.0 -0.8602264702
O  O84  1  0.84419000  0.66943000  0.70906000  1.0 -0.8602264702
O  O85  1  0.36487000  0.53963000  0.70906000  1.0 -0.8602264702
O  O86  1  0.83057000  0.65581000  0.29094000  1.0 -0.8602264702
O  O87  1  0.40581000  0.61487000  0.32524000  1.0 -0.8602264702
O  O88  1  0.28963000  0.08057000  0.67476000  1.0 -0.8602264702
O  O89  1  0.33057000  0.03963000  0.17476000  1.0 -0.8602264702
O  O90  1  0.86487000  0.15581000  0.82524000  1.0 -0.8602264702
O  O91  1  0.78963000  0.11487000  0.20906000  1.0 -0.8602264702
O  O92  1  0.90581000  0.58057000  0.79094000  1.0 -0.8602264702
O  O93  1  0.38513000  0.71037000  0.79094000  1.0 -0.8602264702
O  O94  1  0.91943000  0.59419000  0.20906000  1.0 -0.8602264702
O  O95  1  0.34419000  0.63513000  0.17476000  1.0 -0.8602264702
O  O96  1  0.46037000  0.16943000  0.82524000  1.0 -0.8602264702
O  O97  1  0.32503000  0.14943000  0.05352000  1.0 -0.7406613191
O  O98  1  0.09591000  0.27151000  0.94648000  1.0 -0.7406613191
O  O99  1  0.89943000  0.34591000  0.32440000  1.0 -0.7406613191
O  O100  1  0.02151000  0.57503000  0.67560000  1.0 -0.7406613191
O  O101  1  0.15409000  0.60057000  0.67560000  1.0 -0.7406613191
O  O102  1  0.92497000  0.47849000  0.32440000  1.0 -0.7406613191
O  O103  1  0.22849000  0.40409000  0.05352000  1.0 -0.7406613191
O  O104  1  0.35057000  0.17497000  0.94648000  1.0 -0.7406613191
O  O105  1  0.42497000  0.10057000  0.44648000  1.0 -0.7406613191
O  O106  1  0.65409000  0.97849000  0.55352000  1.0 -0.7406613191
O  O107  1  0.85057000  0.90409000  0.17560000  1.0 -0.7406613191
O  O108  1  0.72849000  0.67497000  0.82440000  1.0 -0.7406613191
O  O109  1  0.59591000  0.64943000  0.82440000  1.0 -0.7406613191
O  O110  1  0.82503000  0.77151000  0.17560000  1.0 -0.7406613191
O  O111  1  0.52151000  0.84591000  0.44648000  1.0 -0.7406613191
O  O112  1  0.39943000  0.07503000  0.55352000  1.0 -0.7406613191
O  O113  1  0.45254000  0.33070000  0.37048000  1.0 -0.7620206878
O  O114  1  0.96022000  0.08206000  0.62952000  1.0 -0.7701269599
O  O115  1  0.08070000  0.21022000  0.37816000  1.0 -0.7620206878
O  O116  1  0.83206000  0.70254000  0.62184000  1.0 -0.7701269599
O  O117  1  0.28978000  0.41930000  0.62184000  1.0 -0.7620206878
O  O118  1  0.79746000  0.66794000  0.37816000  1.0 -0.7701269599
O  O119  1  0.41794000  0.53978000  0.37048000  1.0 -0.7620206878
O  O120  1  0.16930000  0.04746000  0.62952000  1.0 -0.7620206878
O  O121  1  0.29746000  0.91930000  0.12952000  1.0 -0.7620206878
O  O122  1  0.78978000  0.16794000  0.87048000  1.0 -0.7620206878
O  O123  1  0.66930000  0.03978000  0.12184000  1.0 -0.7701269599
O  O124  1  0.91794000  0.54746000  0.87816000  1.0 -0.7620206878
O  O125  1  0.46022000  0.83070000  0.87816000  1.0 -0.7620206878
O  O126  1  0.95254000  0.58206000  0.12184000  1.0 -0.7701269599
O  O127  1  0.33206000  0.71022000  0.12952000  1.0 -0.7620206878
O  O128  1  0.58070000  0.20254000  0.87048000  1.0 -0.7620206878
O  O129  1  0.51016000  0.22359000  0.30521000  1.0 -0.9470486881
O  O130  1  0.91838000  0.20495000  0.69479000  1.0 -0.9470486881
O  O131  1  0.97359000  0.16838000  0.21343000  1.0 -0.9470486881
O  O132  1  0.95495000  0.76016000  0.78657000  1.0 -0.9470486881
O  O133  1  0.33162000  0.52641000  0.78657000  1.0 -0.9470486881
O  O134  1  0.73984000  0.54505000  0.21343000  1.0 -0.9470486881
O  O135  1  0.29505000  0.58162000  0.30521000  1.0 -0.9470486881
O  O136  1  0.27641000  0.98984000  0.69479000  1.0 -0.9439549372
O  O137  1  0.23984000  0.02641000  0.19479000  1.0 -0.9470486881
O  O138  1  0.83162000  0.04505000  0.80521000  1.0 -0.9439549372
O  O139  1  0.77641000  0.08162000  0.28657000  1.0 -0.9470486881
O  O140  1  0.79505000  0.48984000  0.71343000  1.0 -0.9439549372
O  O141  1  0.41838000  0.72359000  0.71343000  1.0 -0.9439549372
O  O142  1  0.01016000  0.70495000  0.28657000  1.0 -0.9470486881
O  O143  1  0.45495000  0.66838000  0.19479000  1.0 -0.9439549372
O  O144  1  0.47359000  0.26016000  0.80521000  1.0 -0.9470486881
O  O145  1  0.82447000  0.48784000  0.54979000  1.0 -0.7701269599
O  O146  1  0.93805000  0.27468000  0.45021000  1.0 -0.7620206878
O  O147  1  0.23784000  0.18805000  0.16337000  1.0 -0.7701269599
O  O148  1  0.02468000  0.07447000  0.83663000  1.0 -0.7701269599
O  O149  1  0.31195000  0.26216000  0.83663000  1.0 -0.7620206878
O  O150  1  0.42553000  0.47532000  0.16337000  1.0 -0.7620206878
O  O151  1  0.22532000  0.56195000  0.54979000  1.0 -0.7620206878
O  O152  1  0.01216000  0.67553000  0.45021000  1.0 -0.7701269599
O  O153  1  0.92553000  0.76216000  0.95021000  1.0 -0.7620206878
O  O154  1  0.81195000  0.97532000  0.04979000  1.0 -0.7701269599
O  O155  1  0.51216000  0.06195000  0.33663000  1.0 -0.7620206878
O  O156  1  0.72532000  0.17553000  0.66337000  1.0 -0.7620206878
O  O157  1  0.43805000  0.98784000  0.66337000  1.0 -0.7620206878
O  O158  1  0.32447000  0.77468000  0.33663000  1.0 -0.7620206878
O  O159  1  0.52468000  0.68805000  0.95021000  1.0 -0.7620206878
O  O160  1  0.73784000  0.57447000  0.04979000  1.0 -0.7620206878
O  O161  1  0.90776000  0.63046000  0.57726000  1.0 -0.5106002396
O  O162  1  0.05320000  0.33050000  0.42274000  1.0 -0.5189193628
O  O163  1  0.38046000  0.30320000  0.22270000  1.0 -0.5189193628
O  O164  1  0.08050000  0.15776000  0.77730000  1.0 -0.5189193628
O  O165  1  0.19680000  0.11954000  0.77730000  1.0 -0.5106002396
O  O166  1  0.34224000  0.41950000  0.22270000  1.0 -0.5189193628
O  O167  1  0.16950000  0.44680000  0.57726000  1.0 -0.5189193628
O  O168  1  0.86954000  0.59224000  0.42274000  1.0 -0.5106002396
O  O169  1  0.84224000  0.61954000  0.92274000  1.0 -0.5189193628
O  O170  1  0.69680000  0.91950000  0.07726000  1.0 -0.5189193628
O  O171  1  0.36954000  0.94680000  0.27730000  1.0 -0.5189193628
O  O172  1  0.66950000  0.09224000  0.72270000  1.0 -0.5106002396
O  O173  1  0.55320000  0.13046000  0.72270000  1.0 -0.5189193628
O  O174  1  0.40776000  0.83050000  0.27730000  1.0 -0.5189193628
O  O175  1  0.58050000  0.80320000  0.92274000  1.0 -0.5189193628
O  O176  1  0.88046000  0.65776000  0.07726000  1.0 -0.5106002396
O  O177  1  0.43488000  0.21648000  0.15222000  1.0 -0.7701269599
O  O178  1  0.06426000  0.28266000  0.84778000  1.0 -0.7701269599
O  O179  1  0.96648000  0.31426000  0.28160000  1.0 -0.7701269599
O  O180  1  0.03266000  0.68488000  0.71840000  1.0 -0.7701269599
O  O181  1  0.18574000  0.53352000  0.71840000  1.0 -0.7701269599
O  O182  1  0.81512000  0.46734000  0.28160000  1.0 -0.7701269599
O  O183  1  0.21734000  0.43574000  0.15222000  1.0 -0.7701269599
O  O184  1  0.28352000  0.06512000  0.84778000  1.0 -0.7701269599
O  O185  1  0.31512000  0.03352000  0.34778000  1.0 -0.7701269599
O  O186  1  0.68574000  0.96734000  0.65222000  1.0 -0.7701269599
O  O187  1  0.78352000  0.93574000  0.21840000  1.0 -0.7701269599
O  O188  1  0.71734000  0.56512000  0.78160000  1.0 -0.7701269599
O  O189  1  0.56426000  0.71648000  0.78160000  1.0 -0.7701269599
O  O190  1  0.93488000  0.78266000  0.21840000  1.0 -0.7701269599
O  O191  1  0.53266000  0.81426000  0.34778000  1.0 -0.7701269599
O  O192  1  0.46648000  0.18488000  0.65222000  1.0 -0.7701269599
O  O193  1  0.83424000  0.59894000  0.60372000  1.0 -0.8467816079
O  O194  1  0.99522000  0.23052000  0.39628000  1.0 -0.8467816079
O  O195  1  0.34894000  0.24522000  0.26470000  1.0 -0.8467816079
O  O196  1  0.98052000  0.08424000  0.73530000  1.0 -0.8467816079
O  O197  1  0.25478000  0.15106000  0.73530000  1.0 -0.8467816079
O  O198  1  0.41576000  0.51948000  0.26470000  1.0 -0.8467816079
O  O199  1  0.26948000  0.50478000  0.60372000  1.0 -0.8467816079
O  O200  1  0.90106000  0.66576000  0.39628000  1.0 -0.8467816079
O  O201  1  0.91576000  0.65106000  0.89628000  1.0 -0.8467816079
O  O202  1  0.75478000  0.01948000  0.10372000  1.0 -0.8467816079
O  O203  1  0.40106000  0.00478000  0.23530000  1.0 -0.8467816079
O  O204  1  0.76948000  0.16576000  0.76470000  1.0 -0.8467816079
O  O205  1  0.49522000  0.09894000  0.76470000  1.0 -0.8467816079
O  O206  1  0.33424000  0.73052000  0.23530000  1.0 -0.8467816079
O  O207  1  0.48052000  0.74522000  0.89628000  1.0 -0.8467816079
O  O208  1  0.84894000  0.58424000  0.10372000  1.0 -0.8467816079
O  O209  1  0.84045000  0.54467000  0.66758000  1.0 -0.8686550066
O  O210  1  0.87709000  0.17287000  0.33242000  1.0 -0.8686550066
O  O211  1  0.29467000  0.12709000  0.20422000  1.0 -0.8686550066
O  O212  1  0.92287000  0.09045000  0.79578000  1.0 -0.8686550066
O  O213  1  0.37291000  0.20533000  0.79578000  1.0 -0.8686550066
O  O214  1  0.40955000  0.57713000  0.20422000  1.0 -0.8686550066
O  O215  1  0.32713000  0.62291000  0.66758000  1.0 -0.8686550066
O  O216  1  0.95533000  0.65955000  0.33242000  1.0 -0.8686550066
O  O217  1  0.90955000  0.70533000  0.83242000  1.0 -0.8686550066
O  O218  1  0.87291000  0.07713000  0.16758000  1.0 -0.8686550066
O  O219  1  0.45533000  0.12291000  0.29578000  1.0 -0.8686550066
O  O220  1  0.82713000  0.15955000  0.70422000  1.0 -0.8686550066
O  O221  1  0.37709000  0.04467000  0.70422000  1.0 -0.8686550066
O  O222  1  0.34045000  0.67287000  0.29578000  1.0 -0.8686550066
O  O223  1  0.42287000  0.62709000  0.83242000  1.0 -0.8686550066
O  O224  1  0.79467000  0.59045000  0.16758000  1.0 -0.8686550066
O  O225  1  0.30107000  0.23155000  0.07084000  1.0 -0.5025587948
O  O226  1  0.16071000  0.23023000  0.92916000  1.0 -0.5106002396
O  O227  1  0.98155000  0.41071000  0.43048000  1.0 -0.5106002396
O  O228  1  0.98023000  0.55107000  0.56952000  1.0 -0.5025587948
O  O229  1  0.08929000  0.51845000  0.56952000  1.0 -0.5025587948
O  O230  1  0.94893000  0.51977000  0.43048000  1.0 -0.5025587948
O  O231  1  0.26977000  0.33929000  0.07084000  1.0 -0.5106002396
O  O232  1  0.26845000  0.19893000  0.92916000  1.0 -0.5106002396
O  O233  1  0.44893000  0.01845000  0.42916000  1.0 -0.5025587948
O  O234  1  0.58929000  0.01977000  0.57084000  1.0 -0.5025587948
O  O235  1  0.76845000  0.83929000  0.06952000  1.0 -0.5025587948
O  O236  1  0.76977000  0.69893000  0.93048000  1.0 -0.5025587948
O  O237  1  0.66071000  0.73155000  0.93048000  1.0 -0.5025587948
O  O238  1  0.80107000  0.73023000  0.06952000  1.0 -0.5106002396
O  O239  1  0.48023000  0.91071000  0.42916000  1.0 -0.5106002396
O  O240  1  0.48155000  0.05107000  0.57084000  1.0 -0.5106002396
O  O241  1  0.60439000  0.39387000  0.32684000  1.0 -0.7201601033
O  O242  1  0.06703000  0.27755000  0.67316000  1.0 -0.7201601033
O  O243  1  0.14387000  0.31703000  0.28948000  1.0 -0.7201601033
O  O244  1  0.02755000  0.85439000  0.71052000  1.0 -0.7201601033
O  O245  1  0.18297000  0.35613000  0.71052000  1.0 -0.7201601033
O  O246  1  0.64561000  0.47245000  0.28948000  1.0 -0.7201601033
O  O247  1  0.22245000  0.43297000  0.32684000  1.0 -0.7201601033
O  O248  1  0.10613000  0.89561000  0.67316000  1.0 -0.7201601033
O  O249  1  0.14561000  0.85613000  0.17316000  1.0 -0.7201601033
O  O250  1  0.68297000  0.97245000  0.82684000  1.0 -0.7201601033
O  O251  1  0.60613000  0.93297000  0.21052000  1.0 -0.7201601033
O  O252  1  0.72245000  0.39561000  0.78948000  1.0 -0.7201601033
O  O253  1  0.56703000  0.89387000  0.78948000  1.0 -0.7201601033
O  O254  1  0.10439000  0.77755000  0.21052000  1.0 -0.7201601033
O  O255  1  0.52755000  0.81703000  0.17316000  1.0 -0.7201601033
O  O256  1  0.64387000  0.35439000  0.82684000  1.0 -0.7201601033
O  O257  1  0.73554000  0.60144000  0.53764000  1.0 -0.7291415649
O  O258  1  0.06380000  0.19790000  0.46236000  1.0 -0.7291415649
O  O259  1  0.35144000  0.31380000  0.36590000  1.0 -0.7291415649
O  O260  1  0.94790000  0.98554000  0.63410000  1.0 -0.7291415649
O  O261  1  0.18620000  0.14856000  0.63410000  1.0 -0.7291415649
O  O262  1  0.51446000  0.55210000  0.36590000  1.0 -0.7291415649
O  O263  1  0.30210000  0.43620000  0.53764000  1.0 -0.7291415649
O  O264  1  0.89856000  0.76446000  0.46236000  1.0 -0.7291415649
O  O265  1  0.01446000  0.64856000  0.96236000  1.0 -0.7291415649
O  O266  1  0.68620000  0.05210000  0.03764000  1.0 -0.7291415649
O  O267  1  0.39856000  0.93620000  0.13410000  1.0 -0.7291415649
O  O268  1  0.80210000  0.26446000  0.86590000  1.0 -0.7291415649
O  O269  1  0.56380000  0.10144000  0.86590000  1.0 -0.7291415649
O  O270  1  0.23554000  0.69790000  0.13410000  1.0 -0.7291415649
O  O271  1  0.44790000  0.81380000  0.96236000  1.0 -0.7291415649
O  O272  1  0.85144000  0.48554000  0.03764000  1.0 -0.7291415649
O  O273  1  0.94710000  0.54685000  0.71273000  1.0 -0.9230866997
O  O274  1  0.83412000  0.23437000  0.28727000  1.0 -0.9277596451
O  O275  1  0.29685000  0.08412000  0.09975000  1.0 -0.9230866997
O  O276  1  0.98437000  0.19710000  0.90025000  1.0 -0.9230866997
O  O277  1  0.41588000  0.20315000  0.90025000  1.0 -0.9230866997
O  O278  1  0.30290000  0.51563000  0.09975000  1.0 -0.9277596451
O  O279  1  0.26563000  0.66588000  0.71273000  1.0 -0.9277596451
O  O280  1  0.95315000  0.55290000  0.28727000  1.0 -0.9230866997
O  O281  1  0.80290000  0.70315000  0.78727000  1.0 -0.9277596451
O  O282  1  0.91588000  0.01563000  0.21273000  1.0 -0.9230866997
O  O283  1  0.45315000  0.16588000  0.40025000  1.0 -0.9230866997
O  O284  1  0.76563000  0.05290000  0.59975000  1.0 -0.9230866997
O  O285  1  0.33412000  0.04685000  0.59975000  1.0 -0.9230866997
O  O286  1  0.44710000  0.73437000  0.40025000  1.0 -0.9230866997
O  O287  1  0.48437000  0.58412000  0.78727000  1.0 -0.9230866997
O  O288  1  0.79685000  0.69710000  0.21273000  1.0 -0.9277596451
O  O289  1  0.54168000  0.34355000  0.35321000  1.0 -0.7201601033
O  O290  1  0.99034000  0.18847000  0.64679000  1.0 -0.7201601033
O  O291  1  0.09355000  0.24034000  0.30187000  1.0 -0.7291415649
O  O292  1  0.93847000  0.79168000  0.69813000  1.0 -0.7201601033
O  O293  1  0.25966000  0.40645000  0.69813000  1.0 -0.7201601033
O  O294  1  0.70832000  0.56153000  0.30187000  1.0 -0.7201601033
O  O295  1  0.31153000  0.50966000  0.35321000  1.0 -0.7201601033
O  O296  1  0.15645000  0.95832000  0.64679000  1.0 -0.7291415649
O  O297  1  0.20832000  0.90645000  0.14679000  1.0 -0.7201601033
O  O298  1  0.75966000  0.06153000  0.85321000  1.0 -0.7201601033
O  O299  1  0.65645000  0.00966000  0.19813000  1.0 -0.7201601033
O  O300  1  0.81153000  0.45832000  0.80187000  1.0 -0.7201601033
O  O301  1  0.49034000  0.84355000  0.80187000  1.0 -0.7201601033
O  O302  1  0.04168000  0.68847000  0.19813000  1.0 -0.7201601033
O  O303  1  0.43847000  0.74034000  0.14679000  1.0 -0.7201601033
O  O304  1  0.59355000  0.29168000  0.85321000  1.0 -0.7201601033
O  O305  1  0.53904000  0.28922000  0.25844000  1.0 -0.7620206878
O  O306  1  0.03078000  0.28060000  0.74156000  1.0 -0.7620206878
O  O307  1  0.03922000  0.28078000  0.25018000  1.0 -0.7620206878
O  O308  1  0.03060000  0.78904000  0.74982000  1.0 -0.7620206878
O  O309  1  0.21922000  0.46078000  0.74982000  1.0 -0.7620206878
O  O310  1  0.71096000  0.46940000  0.25018000  1.0 -0.7620206878
O  O311  1  0.21940000  0.46922000  0.25844000  1.0 -0.7620206878
O  O312  1  0.21078000  0.96096000  0.74156000  1.0 -0.7620206878
O  O313  1  0.21096000  0.96078000  0.24156000  1.0 -0.7701269599
O  O314  1  0.71922000  0.96940000  0.75844000  1.0 -0.7620206878
O  O315  1  0.71078000  0.96922000  0.24982000  1.0 -0.7620206878
O  O316  1  0.71940000  0.46096000  0.75018000  1.0 -0.7620206878
O  O317  1  0.53078000  0.78922000  0.75018000  1.0 -0.7620206878
O  O318  1  0.03904000  0.78060000  0.24982000  1.0 -0.7620206878
O  O319  1  0.53060000  0.78078000  0.24156000  1.0 -0.7701269599
O  O320  1  0.53922000  0.28904000  0.75844000  1.0 -0.7620206878
O  O321  1  0.73327000  0.50490000  0.50401000  1.0 -0.7406613191
O  O322  1  0.00089000  0.22926000  0.49599000  1.0 -0.7406613191
O  O323  1  0.25490000  0.25089000  0.27163000  1.0 -0.7406613191
O  O324  1  0.97926000  0.98327000  0.72837000  1.0 -0.7406613191
O  O325  1  0.24911000  0.24510000  0.72837000  1.0 -0.7406613191
O  O326  1  0.51673000  0.52074000  0.27163000  1.0 -0.7406613191
O  O327  1  0.27074000  0.49911000  0.50401000  1.0 -0.7406613191
O  O328  1  0.99510000  0.76673000  0.49599000  1.0 -0.7406613191
O  O329  1  0.01673000  0.74510000  0.99599000  1.0 -0.7406613191
O  O330  1  0.74911000  0.02074000  0.00401000  1.0 -0.7406613191
O  O331  1  0.49510000  0.99911000  0.22837000  1.0 -0.7451570437
O  O332  1  0.77074000  0.26673000  0.77163000  1.0 -0.7406613191
O  O333  1  0.50089000  0.00490000  0.77163000  1.0 -0.7406613191
O  O334  1  0.23327000  0.72926000  0.22837000  1.0 -0.7406613191
O  O335  1  0.47926000  0.75089000  0.99599000  1.0 -0.7406613191
O  O336  1  0.75490000  0.48327000  0.00401000  1.0 -0.7406613191
O  O337  1  0.23723000  0.13751000  0.97380000  1.0 -0.5306955978
O  O338  1  0.16371000  0.26343000  0.02620000  1.0 -0.5189193628
O  O339  1  0.88751000  0.41371000  0.40028000  1.0 -0.5189193628
O  O340  1  0.01343000  0.48723000  0.59972000  1.0 -0.5189193628
O  O341  1  0.08629000  0.61249000  0.59972000  1.0 -0.5189193628
O  O342  1  0.01277000  0.48657000  0.40028000  1.0 -0.5189193628
O  O343  1  0.23657000  0.33629000  0.97380000  1.0 -0.5306955978
O  O344  1  0.36249000  0.26277000  0.02620000  1.0 -0.5189193628
O  O345  1  0.51277000  0.11249000  0.52620000  1.0 -0.5189193628
O  O346  1  0.58629000  0.98657000  0.47380000  1.0 -0.5189193628
O  O347  1  0.86249000  0.83629000  0.09972000  1.0 -0.5189193628
O  O348  1  0.73657000  0.76277000  0.90028000  1.0 -0.5189193628
O  O349  1  0.66371000  0.63751000  0.90028000  1.0 -0.5189193628
O  O350  1  0.73723000  0.76343000  0.09972000  1.0 -0.5189193628
O  O351  1  0.51343000  0.91371000  0.52620000  1.0 -0.5189193628
O  O352  1  0.38751000  0.98723000  0.47380000  1.0 -0.5189193628
O  O353  1  0.67954000  0.52766000  0.43048000  1.0 -0.7201601033
O  O354  1  0.09718000  0.24906000  0.56952000  1.0 -0.7201601033
O  O355  1  0.27766000  0.34718000  0.34812000  1.0 -0.7201601033
O  O356  1  0.99906000  0.92954000  0.65188000  1.0 -0.7201601033
O  O357  1  0.15282000  0.22234000  0.65188000  1.0 -0.7201601033
O  O358  1  0.57046000  0.50094000  0.34812000  1.0 -0.7201601033
O  O359  1  0.25094000  0.40282000  0.43048000  1.0 -0.7201601033
O  O360  1  0.97234000  0.82046000  0.56952000  1.0 -0.7201601033
O  O361  1  0.07046000  0.72234000  0.06952000  1.0 -0.7201601033
O  O362  1  0.65282000  0.00094000  0.93048000  1.0 -0.7201601033
O  O363  1  0.47234000  0.90282000  0.15188000  1.0 -0.7142157361
O  O364  1  0.75094000  0.32046000  0.84812000  1.0 -0.7201601033
O  O365  1  0.59718000  0.02766000  0.84812000  1.0 -0.7201601033
O  O366  1  0.17954000  0.74906000  0.15188000  1.0 -0.7201601033
O  O367  1  0.49906000  0.84718000  0.06952000  1.0 -0.7201601033
O  O368  1  0.77766000  0.42954000  0.93048000  1.0 -0.7142157361
O  O369  1  0.50075000  0.36076000  0.26747000  1.0 -0.5928791243
O  O370  1  0.09329000  0.23328000  0.73253000  1.0 -0.5928791243
O  O371  1  0.11076000  0.34329000  0.36001000  1.0 -0.5928791243
O  O372  1  0.98328000  0.75075000  0.63999000  1.0 -0.5928791243
O  O373  1  0.15671000  0.38924000  0.63999000  1.0 -0.5958210871
O  O374  1  0.74925000  0.51672000  0.36001000  1.0 -0.5958210871
O  O375  1  0.26672000  0.40671000  0.26747000  1.0 -0.5928791243
O  O376  1  0.13924000  0.99925000  0.73253000  1.0 -0.5928791243
O  O377  1  0.24925000  0.88924000  0.23253000  1.0 -0.5958210871
O  O378  1  0.65671000  0.01672000  0.76747000  1.0 -0.5958210871
O  O379  1  0.63924000  0.90671000  0.13999000  1.0 -0.5928791243
O  O380  1  0.76672000  0.49925000  0.86001000  1.0 -0.5928791243
O  O381  1  0.59329000  0.86076000  0.86001000  1.0 -0.5958210871
O  O382  1  0.00075000  0.73328000  0.13999000  1.0 -0.5928791243
O  O383  1  0.48328000  0.84329000  0.23253000  1.0 -0.5928791243
O  O384  1  0.61076000  0.25075000  0.76747000  1.0 -0.5928791243
O  O385  1  0.78509000  0.57317000  0.48212000  1.0 -0.5306955978
O  O386  1  0.09105000  0.30297000  0.51788000  1.0 -0.5367950405
O  O387  1  0.32317000  0.34105000  0.28808000  1.0 -0.5306955978
O  O388  1  0.05297000  0.03509000  0.71192000  1.0 -0.5306955978
O  O389  1  0.15895000  0.17683000  0.71192000  1.0 -0.5306955978
O  O390  1  0.46491000  0.44703000  0.28808000  1.0 -0.5306955978
O  O391  1  0.19703000  0.40895000  0.48212000  1.0 -0.5367950405
O  O392  1  0.92683000  0.71491000  0.51788000  1.0 -0.5306955978
O  O393  1  0.96491000  0.67683000  0.01788000  1.0 -0.5306955978
O  O394  1  0.65895000  0.94703000  0.98212000  1.0 -0.5306955978
O  O395  1  0.42683000  0.90895000  0.21192000  1.0 -0.5306955978
O  O396  1  0.69703000  0.21491000  0.78808000  1.0 -0.5367950405
O  O397  1  0.59105000  0.07317000  0.78808000  1.0 -0.5306955978
O  O398  1  0.28509000  0.80297000  0.21192000  1.0 -0.5306955978
O  O399  1  0.55297000  0.84105000  0.01788000  1.0 -0.5306955978
O  O400  1  0.82317000  0.53509000  0.98212000  1.0 -0.5306955978
