# DDEC6 charges by PACMAN v1.1 (https://github.com/mtap-research/PACMAN-charge/)
data_NAHHAI_FSR_pacman
_symmetry_space_group_name_H-M   'P 1'
_cell_length_a   10.46220000
_cell_length_b   7.18700000
_cell_length_c   13.45440000
_cell_angle_alpha   90.00000000
_cell_angle_beta   112.69400000
_cell_angle_gamma   90.00000000
_symmetry_Int_Tables_number   1
_chemical_formula_structural   Cd2H3C9N4O7
_chemical_formula_sum   'Cd4 H6 C18 N8 O14'
_cell_volume   933.33666245
_cell_formula_units_Z   2
loop_
 _symmetry_equiv_pos_site_id
 _symmetry_equiv_pos_as_xyz
  1  'x, y, z'
loop_
 _atom_site_type_symbol
 _atom_site_label
 _atom_site_symmetry_multiplicity
 _atom_site_fract_x
 _atom_site_fract_y
 _atom_site_fract_z
 _atom_site_occupancy
 _atom_site_charge
Cd  Cd1  1  0.14370000  0.75000000  0.27488000  1.0 0.9650926649
Cd  Cd2  1  0.85630000  0.25000000  0.72512000  1.0 0.9650926649
Cd  Cd3  1  0.00000000  0.00000000  0.00000000  1.0 1.0701550304
Cd  Cd4  1  0.00000000  0.50000000  0.00000000  1.0 1.0701550304
H  H1  1  0.57850000  0.75000000  0.52900000  1.0 0.1405699312
H  H2  1  0.42150000  0.25000000  0.47100000  1.0 0.1405699312
H  H3  1  0.96870000  0.75000000  0.54650000  1.0 0.1405699312
H  H4  1  0.03130000  0.25000000  0.45350000  1.0 0.1405699312
H  H5  1  0.65360000  0.75000000  0.25740000  1.0 0.133461593
H  H6  1  0.34640000  0.25000000  0.74260000  1.0 0.133461593
C  C1  1  0.43600000  0.75000000  0.32090000  1.0 0.5428642093
C  C2  1  0.56400000  0.25000000  0.67910000  1.0 0.5428642093
C  C3  1  0.59220000  0.75000000  0.38550000  1.0 0.008413635
C  C4  1  0.40780000  0.25000000  0.61450000  1.0 0.008413635
C  C5  1  0.64060000  0.75000000  0.49480000  1.0 -0.1188501369
C  C6  1  0.35940000  0.25000000  0.50520000  1.0 -0.1188501369
C  C7  1  0.78570000  0.75000000  0.55730000  1.0 0.0449277519
C  C8  1  0.21430000  0.25000000  0.44270000  1.0 0.0449277519
C  C9  1  0.87360000  0.75000000  0.50700000  1.0 -0.1188501369
C  C10  1  0.12640000  0.25000000  0.49300000  1.0 -0.1188501369
C  C11  1  0.82040000  0.75000000  0.39200000  1.0 0.0030202272
C  C12  1  0.17960000  0.25000000  0.60800000  1.0 0.0030202272
C  C13  1  0.68580000  0.75000000  0.33220000  1.0 -0.1092592072
C  C14  1  0.31420000  0.25000000  0.66780000  1.0 -0.1092592072
C  C15  1  0.92890000  0.75000000  0.34100000  1.0 0.5428642093
C  C16  1  0.07110000  0.25000000  0.65900000  1.0 0.5428642093
C  C17  1  0.83610000  0.75000000  0.67740000  1.0 0.247743672
C  C18  1  0.16390000  0.25000000  0.32260000  1.0 0.247743672
N  N1  1  0.86450000  0.90360000  0.73940000  1.0 -0.2118641676
N  N2  1  0.13550000  0.40360000  0.26060000  1.0 -0.2118641676
N  N3  1  0.13550000  0.09640000  0.26060000  1.0 -0.2118641676
N  N4  1  0.86450000  0.59640000  0.73940000  1.0 -0.2118641676
N  N5  1  0.90360000  0.84280000  0.83820000  1.0 -0.0266084636
N  N6  1  0.09640000  0.34280000  0.16180000  1.0 -0.0266084636
N  N7  1  0.09640000  0.15720000  0.16180000  1.0 -0.0266084636
N  N8  1  0.90360000  0.65720000  0.83820000  1.0 -0.0266084636
O  O1  1  0.36500000  0.75000000  0.37740000  1.0 -0.5234662832
O  O2  1  0.63500000  0.25000000  0.62260000  1.0 -0.5234662832
O  O3  1  0.39440000  0.75000000  0.22330000  1.0 -0.4298898519
O  O4  1  0.60560000  0.25000000  0.77670000  1.0 -0.4298898519
O  O5  1  0.88570000  0.75000000  0.23730000  1.0 -0.4298898519
O  O6  1  0.11430000  0.25000000  0.76270000  1.0 -0.4298898519
O  O7  1  0.05640000  0.75000000  0.39850000  1.0 -0.5234662832
O  O8  1  0.94360000  0.25000000  0.60150000  1.0 -0.5234662832
O  O9  1  0.09750000  0.75000000  0.09760000  1.0 -0.876161033
O  O10  1  0.90250000  0.25000000  0.90240000  1.0 -0.876161033
O  O11  1  0.19750000  0.03420000  0.95770000  1.0 -0.1188501369
O  O12  1  0.80250000  0.53420000  0.04230000  1.0 -0.1092592072
O  O13  1  0.80250000  0.96580000  0.04230000  1.0 -0.1188501369
O  O14  1  0.19750000  0.46580000  0.95770000  1.0 -0.1188501369
