# DDEC6 charges by PACMAN v1.1 (https://github.com/mtap-research/PACMAN-charge/)
data_NAJQUN_ASR_pacman
_symmetry_space_group_name_H-M   'P 1'
_cell_length_a   8.83530000
_cell_length_b   14.26820000
_cell_length_c   22.80800000
_cell_angle_alpha   92.47500000
_cell_angle_beta   91.10100000
_cell_angle_gamma   105.44500000
_symmetry_Int_Tables_number   1
_chemical_formula_structural   MnH5C11O4
_chemical_formula_sum   'Mn8 H40 C88 O32'
_cell_volume   2767.43396503
_cell_formula_units_Z   8
loop_
 _symmetry_equiv_pos_site_id
 _symmetry_equiv_pos_as_xyz
  1  'x, y, z'
loop_
 _atom_site_type_symbol
 _atom_site_label
 _atom_site_symmetry_multiplicity
 _atom_site_fract_x
 _atom_site_fract_y
 _atom_site_fract_z
 _atom_site_occupancy
 _atom_site_charge
Mn  Mn1  1  0.00833000  0.54815000  0.07958000  1.0 1.0599376876
Mn  Mn2  1  0.99167000  0.45185000  0.92042000  1.0 1.0599376876
Mn  Mn3  1  0.50575000  0.95296000  0.42616000  1.0 1.0297662337
Mn  Mn4  1  0.49425000  0.04704000  0.57384000  1.0 1.0297662337
Mn  Mn5  1  0.25660000  0.82634000  0.30181000  1.0 1.0053482969
Mn  Mn6  1  0.74340000  0.17366000  0.69819000  1.0 1.0053482969
Mn  Mn7  1  0.50000000  0.50000000  0.00000000  1.0 1.0974074323
Mn  Mn8  1  0.00000000  0.00000000  0.50000000  1.0 1.0907488782
H  H1  1  0.54050000  0.66110000  0.41680000  1.0 0.1113443005
H  H2  1  0.45950000  0.33890000  0.58320000  1.0 0.1113443005
H  H3  1  0.56570000  0.50450000  0.41580000  1.0 0.1184621906
H  H4  1  0.43430000  0.49550000  0.58420000  1.0 0.1184621906
H  H5  1  0.91100000  0.58710000  0.53920000  1.0 0.1113443005
H  H6  1  0.08900000  0.41290000  0.46080000  1.0 0.1113443005
H  H7  1  0.88680000  0.74480000  0.53980000  1.0 0.1184621906
H  H8  1  0.11320000  0.25520000  0.46020000  1.0 0.1184621906
H  H9  1  0.77000000  0.23620000  0.39690000  1.0 0.1292954032
H  H10  1  0.23000000  0.76380000  0.60310000  1.0 0.1292954032
H  H11  1  0.75540000  0.42400000  0.56510000  1.0 0.1184621906
H  H12  1  0.24460000  0.57600000  0.43490000  1.0 0.1184621906
H  H13  1  0.95160000  0.53820000  0.38990000  1.0 0.1113443005
H  H14  1  0.04840000  0.46180000  0.61010000  1.0 0.1113443005
H  H15  1  0.63550000  0.30060000  0.32260000  1.0 0.1113443005
H  H16  1  0.36450000  0.69940000  0.67740000  1.0 0.1113443005
H  H17  1  0.69250000  0.35200000  0.22870000  1.0 0.1184621906
H  H18  1  0.30750000  0.64800000  0.77130000  1.0 0.1184621906
H  H19  1  0.00840000  0.58920000  0.29640000  1.0 0.1184621906
H  H20  1  0.99160000  0.41080000  0.70360000  1.0 0.1184621906
H  H21  1  0.75060000  0.07640000  0.94700000  1.0 0.1113443005
H  H22  1  0.24940000  0.92360000  0.05300000  1.0 0.1113443005
H  H23  1  0.73590000  0.26750000  0.11310000  1.0 0.1292954032
H  H24  1  0.26410000  0.73250000  0.88690000  1.0 0.1292954032
H  H25  1  0.87170000  0.19780000  0.19070000  1.0 0.1184621906
H  H26  1  0.12830000  0.80220000  0.80930000  1.0 0.1184621906
H  H27  1  0.82160000  0.13530000  0.28270000  1.0 0.1184621906
H  H28  1  0.17840000  0.86470000  0.71730000  1.0 0.1184621906
H  H29  1  0.50550000  0.90190000  0.20930000  1.0 0.1184621906
H  H30  1  0.49450000  0.09810000  0.79070000  1.0 0.1184621906
H  H31  1  0.55100000  0.96630000  0.11800000  1.0 0.1184621906
H  H32  1  0.44900000  0.03370000  0.88200000  1.0 0.1184621906
H  H33  1  0.93990000  0.99550000  0.09570000  1.0 0.1113443005
H  H34  1  0.06010000  0.00450000  0.90430000  1.0 0.1113443005
H  H35  1  0.96140000  0.83780000  0.09510000  1.0 0.1184621906
H  H36  1  0.03860000  0.16220000  0.90490000  1.0 0.1184621906
H  H37  1  0.60790000  0.75710000  0.97440000  1.0 0.1184621906
H  H38  1  0.39210000  0.24290000  0.02560000  1.0 0.1184621906
H  H39  1  0.58750000  0.91460000  0.97570000  1.0 0.1113443005
H  H40  1  0.41250000  0.08540000  0.02430000  1.0 0.1113443005
C  C1  1  0.69720000  0.82140000  0.47710000  1.0 0.5902736355
C  C2  1  0.30280000  0.17860000  0.52290000  1.0 0.5902736355
C  C3  1  0.71210000  0.71980000  0.47833000  1.0 -0.0299355639
C  C4  1  0.28790000  0.28020000  0.52167000  1.0 -0.0299355639
C  C5  1  0.61570000  0.64650000  0.44123000  1.0 -0.0980785861
C  C6  1  0.38430000  0.35350000  0.55877000  1.0 -0.0980785861
C  C7  1  0.63080000  0.55280000  0.44054000  1.0 -0.1496614826
C  C8  1  0.36920000  0.44720000  0.55946000  1.0 -0.1496614826
C  C9  1  0.74340000  0.53010000  0.47672000  1.0 0.0721004003
C  C10  1  0.25660000  0.46990000  0.52328000  1.0 0.0721004003
C  C11  1  0.83730000  0.60210000  0.51422000  1.0 -0.1496614826
C  C12  1  0.16270000  0.39790000  0.48578000  1.0 -0.1496614826
C  C13  1  0.82230000  0.69680000  0.51475000  1.0 -0.0980785861
C  C14  1  0.17770000  0.30320000  0.48525000  1.0 -0.0980785861
C  C15  1  0.75710000  0.42800000  0.47723000  1.0 0.0196098919
C  C16  1  0.24290000  0.57200000  0.52277000  1.0 0.0196098919
C  C17  1  0.76700000  0.37150000  0.42571000  1.0 0.0370692853
C  C18  1  0.23300000  0.62850000  0.57429000  1.0 0.0370692853
C  C19  1  0.76640000  0.27420000  0.43073000  1.0 -0.1692916881
C  C20  1  0.23360000  0.72580000  0.56927000  1.0 -0.1692916881
C  C21  1  0.76030000  0.23240000  0.48515000  1.0 -0.0299355639
C  C22  1  0.23970000  0.76760000  0.51485000  1.0 -0.0299355639
C  C23  1  0.75670000  0.28980000  0.53588000  1.0 -0.0518072303
C  C24  1  0.24330000  0.71020000  0.46412000  1.0 -0.0518072303
C  C25  1  0.75630000  0.38600000  0.53105000  1.0 -0.1496614826
C  C26  1  0.24370000  0.61400000  0.46895000  1.0 -0.1496614826
C  C27  1  0.75120000  0.24890000  0.59546000  1.0 0.5705828238
C  C28  1  0.24880000  0.75110000  0.40454000  1.0 0.5705828238
C  C29  1  0.76080000  0.12750000  0.48500000  1.0 0.6220440585
C  C30  1  0.23920000  0.87250000  0.51500000  1.0 0.6220440585
C  C31  1  0.90020000  0.50000000  0.35771000  1.0 -0.1448334883
C  C32  1  0.09980000  0.50000000  0.64229000  1.0 -0.1448334883
C  C33  1  0.78920000  0.41170000  0.36615000  1.0 0.0620541145
C  C34  1  0.21080000  0.58830000  0.63385000  1.0 0.0620541145
C  C35  1  0.71190000  0.35840000  0.31754000  1.0 -0.1590556297
C  C36  1  0.28810000  0.64160000  0.68246000  1.0 -0.1590556297
C  C37  1  0.74580000  0.38930000  0.26095000  1.0 -0.0980785861
C  C38  1  0.25420000  0.61070000  0.73905000  1.0 -0.0980785861
C  C39  1  0.85880000  0.47570000  0.25269000  1.0 -0.0111758979
C  C40  1  0.14120000  0.52430000  0.74731000  1.0 -0.0111758979
C  C41  1  0.93380000  0.53050000  0.30148000  1.0 -0.0932921873
C  C42  1  0.06620000  0.46950000  0.69852000  1.0 -0.0932921873
C  C43  1  0.90340000  0.50660000  0.19132000  1.0 0.5407848675
C  C44  1  0.09660000  0.49340000  0.80868000  1.0 0.5407848675
C  C45  1  0.74320000  0.37520000  0.02284000  1.0 0.6220440585
C  C46  1  0.25680000  0.62480000  0.97716000  1.0 0.6220440585
C  C47  1  0.74550000  0.26980000  0.02497000  1.0 -0.0196333215
C  C48  1  0.25450000  0.73020000  0.97503000  1.0 -0.0196333215
C  C49  1  0.74820000  0.21180000  0.97467000  1.0 -0.0377615504
C  C50  1  0.25180000  0.78820000  0.02533000  1.0 -0.0377615504
C  C51  1  0.74950000  0.11520000  0.98069000  1.0 -0.1496614826
C  C52  1  0.25050000  0.88480000  0.01931000  1.0 -0.1496614826
C  C53  1  0.74930000  0.07470000  0.03466000  1.0 0.0196098919
C  C54  1  0.25070000  0.92530000  0.96534000  1.0 0.0196098919
C  C55  1  0.73910000  0.13170000  0.08553000  1.0 0.0312828888
C  C56  1  0.26090000  0.86830000  0.91447000  1.0 0.0312828888
C  C57  1  0.73960000  0.22890000  0.07957000  1.0 -0.1590556297
C  C58  1  0.26040000  0.77110000  0.92043000  1.0 -0.1590556297
C  C59  1  0.74480000  0.24790000  0.91346000  1.0 0.5705828238
C  C60  1  0.25520000  0.75210000  0.08654000  1.0 0.5705828238
C  C61  1  0.71510000  0.08990000  0.14516000  1.0 0.0721004003
C  C62  1  0.28490000  0.91010000  0.85484000  1.0 0.0721004003
C  C63  1  0.79660000  0.13900000  0.19442000  1.0 -0.1496614826
C  C64  1  0.20340000  0.86100000  0.80558000  1.0 -0.1496614826
C  C65  1  0.76740000  0.10110000  0.24965000  1.0 -0.0980785861
C  C66  1  0.23260000  0.89890000  0.75035000  1.0 -0.0980785861
C  C67  1  0.65650000  0.01180000  0.25529000  1.0 -0.0377615504
C  C68  1  0.34350000  0.98820000  0.74471000  1.0 -0.0377615504
C  C69  1  0.57790000  0.96200000  0.20590000  1.0 -0.0932921873
C  C70  1  0.42210000  0.03800000  0.79410000  1.0 -0.0932921873
C  C71  1  0.60570000  0.00040000  0.15104000  1.0 -0.1229000967
C  C72  1  0.39430000  0.99960000  0.84896000  1.0 -0.1229000967
C  C73  1  0.76000000  0.97190000  0.03600000  1.0 0.0721004003
C  C74  1  0.24000000  0.02810000  0.96400000  1.0 0.0721004003
C  C75  1  0.87270000  0.94760000  0.07145000  1.0 -0.1496614826
C  C76  1  0.12730000  0.05240000  0.92855000  1.0 -0.1496614826
C  C77  1  0.88590000  0.85290000  0.07103000  1.0 -0.0845186617
C  C78  1  0.11410000  0.14710000  0.92897000  1.0 -0.0845186617
C  C79  1  0.78640000  0.78010000  0.03470000  1.0 -0.0196333215
C  C80  1  0.21360000  0.21990000  0.96530000  1.0 -0.0196333215
C  C81  1  0.67480000  0.80470000  0.99901000  1.0 -0.0932921873
C  C82  1  0.32520000  0.19530000  0.00099000  1.0 -0.0932921873
C  C83  1  0.66260000  0.89940000  0.99987000  1.0 -0.1496614826
C  C84  1  0.33740000  0.10060000  0.00013000  1.0 -0.1496614826
C  C85  1  0.80040000  0.67790000  0.03322000  1.0 0.5902736355
C  C86  1  0.19960000  0.32210000  0.96678000  1.0 0.5902736355
C  C87  1  0.61540000  0.97590000  0.31516000  1.0 0.5816238243
C  C88  1  0.38460000  0.02410000  0.68484000  1.0 0.5816238243
O  O1  1  0.59730000  0.83653000  0.44125000  1.0 -0.5594697874
O  O2  1  0.40270000  0.16347000  0.55875000  1.0 -0.5594697874
O  O3  1  0.78210000  0.88580000  0.51261000  1.0 -0.5863346737
O  O4  1  0.21790000  0.11420000  0.48739000  1.0 -0.5863346737
O  O5  1  0.75000000  0.30171000  0.64014000  1.0 -0.5033871215
O  O6  1  0.25000000  0.69829000  0.35986000  1.0 -0.5033871215
O  O7  1  0.74430000  0.15869000  0.59958000  1.0 -0.5829496812
O  O8  1  0.25570000  0.84131000  0.40042000  1.0 -0.5829496812
O  O9  1  0.62760000  0.06523000  0.48983000  1.0 -0.5829496812
O  O10  1  0.37240000  0.93477000  0.51017000  1.0 -0.5829496812
O  O11  1  0.88690000  0.10772000  0.47782000  1.0 -0.5302868168
O  O12  1  0.11310000  0.89228000  0.52218000  1.0 -0.5302868168
O  O13  1  0.02470000  0.57510000  0.18502000  1.0 -0.5302868168
O  O14  1  0.97530000  0.42490000  0.81498000  1.0 -0.5302868168
O  O15  1  0.82140000  0.46290000  0.14815000  1.0 -0.5410506259
O  O16  1  0.17860000  0.53710000  0.85185000  1.0 -0.5410506259
O  O17  1  0.61480000  0.39331000  0.03158000  1.0 -0.5302868168
O  O18  1  0.38520000  0.60669000  0.96842000  1.0 -0.5302868168
O  O19  1  0.87150000  0.43776000  0.01425000  1.0 -0.5594697874
O  O20  1  0.12850000  0.56224000  0.98575000  1.0 -0.5594697874
O  O21  1  0.75870000  0.33701000  0.90786000  1.0 -0.5064152759
O  O22  1  0.24130000  0.66299000  0.09214000  1.0 -0.5064152759
O  O23  1  0.72730000  0.18537000  0.87171000  1.0 -0.5466677825
O  O24  1  0.27270000  0.81463000  0.12829000  1.0 -0.5466677825
O  O25  1  0.71730000  0.61720000  0.99543000  1.0 -0.5739590209
O  O26  1  0.28270000  0.38280000  0.00457000  1.0 -0.5739590209
O  O27  1  0.89780000  0.65980000  0.06879000  1.0 -0.5410506259
O  O28  1  0.10220000  0.34020000  0.93121000  1.0 -0.5410506259
O  O29  1  0.49800000  0.90280000  0.32065000  1.0 -0.6023805719
O  O30  1  0.50200000  0.09720000  0.67935000  1.0 -0.6023805719
O  O31  1  0.69370000  0.01790000  0.35958000  1.0 -0.5302868168
O  O32  1  0.30630000  0.98210000  0.64042000  1.0 -0.5302868168
