# DDEC6 charges by PACMAN v1.1 (https://github.com/mtap-research/PACMAN-charge/)
data_NAJZII_FSR_pacman
_symmetry_space_group_name_H-M   'P 1'
_cell_length_a   22.59200000
_cell_length_b   22.59200000
_cell_length_c   22.59200000
_cell_angle_alpha   90.00000000
_cell_angle_beta   90.00000000
_cell_angle_gamma   90.00000000
_symmetry_Int_Tables_number   1
_chemical_formula_structural   Zn14Ni3P12H132C108(N4O15)6
_chemical_formula_sum   'Zn28 Ni6 P24 H264 C216 N48 O180'
_cell_volume   11530.92209869
_cell_formula_units_Z   2
loop_
 _symmetry_equiv_pos_site_id
 _symmetry_equiv_pos_as_xyz
  1  'x, y, z'
loop_
 _atom_site_type_symbol
 _atom_site_label
 _atom_site_symmetry_multiplicity
 _atom_site_fract_x
 _atom_site_fract_y
 _atom_site_fract_z
 _atom_site_occupancy
 _atom_site_charge
Zn  Zn1  1  0.75000000  0.25000000  0.75000000  1.0 1.1913676673
Zn  Zn2  1  0.75000000  0.75000000  0.25000000  1.0 1.1913676673
Zn  Zn3  1  0.25000000  0.75000000  0.75000000  1.0 1.1913676673
Zn  Zn4  1  0.25000000  0.25000000  0.25000000  1.0 1.1913676673
Zn  Zn5  1  0.67517000  0.19238000  0.88408000  1.0 0.9466311548
Zn  Zn6  1  0.88408000  0.67517000  0.19238000  1.0 0.9466311548
Zn  Zn7  1  0.19238000  0.88408000  0.67517000  1.0 0.9466311548
Zn  Zn8  1  0.32483000  0.80762000  0.88408000  1.0 0.9466311548
Zn  Zn9  1  0.32483000  0.19238000  0.11592000  1.0 0.9466311548
Zn  Zn10  1  0.67517000  0.80762000  0.11592000  1.0 0.9466311548
Zn  Zn11  1  0.88408000  0.32483000  0.80762000  1.0 0.9466311548
Zn  Zn12  1  0.11592000  0.32483000  0.19238000  1.0 0.9466311548
Zn  Zn13  1  0.11592000  0.67517000  0.80762000  1.0 0.9466311548
Zn  Zn14  1  0.80762000  0.88408000  0.32483000  1.0 0.9466311548
Zn  Zn15  1  0.19238000  0.11592000  0.32483000  1.0 0.9466311548
Zn  Zn16  1  0.80762000  0.11592000  0.67517000  1.0 0.9466311548
Zn  Zn17  1  0.82483000  0.30762000  0.61592000  1.0 0.9466311548
Zn  Zn18  1  0.61592000  0.82483000  0.30762000  1.0 0.9466311548
Zn  Zn19  1  0.30762000  0.61592000  0.82483000  1.0 0.9466311548
Zn  Zn20  1  0.17517000  0.69238000  0.61592000  1.0 0.9466311548
Zn  Zn21  1  0.17517000  0.30762000  0.38408000  1.0 0.9466311548
Zn  Zn22  1  0.82483000  0.69238000  0.38408000  1.0 0.9466311548
Zn  Zn23  1  0.61592000  0.17517000  0.69238000  1.0 0.9466311548
Zn  Zn24  1  0.38408000  0.17517000  0.30762000  1.0 0.9466311548
Zn  Zn25  1  0.38408000  0.82483000  0.69238000  1.0 0.9466311548
Zn  Zn26  1  0.69238000  0.61592000  0.17517000  1.0 0.9466311548
Zn  Zn27  1  0.30762000  0.38408000  0.17517000  1.0 0.9466311548
Zn  Zn28  1  0.69238000  0.38408000  0.82483000  1.0 0.9466311548
Ni  Ni1  1  0.50000000  0.00000000  0.00000000  1.0 0.6018187139
Ni  Ni2  1  0.00000000  0.50000000  0.00000000  1.0 0.6018187139
Ni  Ni3  1  0.00000000  0.00000000  0.50000000  1.0 0.6018187139
Ni  Ni4  1  0.00000000  0.50000000  0.50000000  1.0 0.6018187139
Ni  Ni5  1  0.50000000  0.00000000  0.50000000  1.0 0.6018187139
Ni  Ni6  1  0.50000000  0.50000000  0.00000000  1.0 0.6018187139
P  P1  1  0.77232000  0.29245000  0.88627000  1.0 1.3143470699
P  P2  1  0.88627000  0.77232000  0.29245000  1.0 1.3143470699
P  P3  1  0.29245000  0.88627000  0.77232000  1.0 1.3143470699
P  P4  1  0.22768000  0.70755000  0.88627000  1.0 1.3143470699
P  P5  1  0.22768000  0.29245000  0.11373000  1.0 1.3143470699
P  P6  1  0.77232000  0.70755000  0.11373000  1.0 1.3143470699
P  P7  1  0.88627000  0.22768000  0.70755000  1.0 1.3143470699
P  P8  1  0.11373000  0.22768000  0.29245000  1.0 1.3143470699
P  P9  1  0.11373000  0.77232000  0.70755000  1.0 1.3143470699
P  P10  1  0.70755000  0.88627000  0.22768000  1.0 1.3143470699
P  P11  1  0.29245000  0.11373000  0.22768000  1.0 1.3143470699
P  P12  1  0.70755000  0.11373000  0.77232000  1.0 1.3143470699
P  P13  1  0.72768000  0.20755000  0.61373000  1.0 1.3143470699
P  P14  1  0.61373000  0.72768000  0.20755000  1.0 1.3143470699
P  P15  1  0.20755000  0.61373000  0.72768000  1.0 1.3143470699
P  P16  1  0.27232000  0.79245000  0.61373000  1.0 1.3143470699
P  P17  1  0.27232000  0.20755000  0.38627000  1.0 1.3143470699
P  P18  1  0.72768000  0.79245000  0.38627000  1.0 1.3143470699
P  P19  1  0.61373000  0.27232000  0.79245000  1.0 1.3143470699
P  P20  1  0.38627000  0.27232000  0.20755000  1.0 1.3143470699
P  P21  1  0.38627000  0.72768000  0.79245000  1.0 1.3143470699
P  P22  1  0.79245000  0.61373000  0.27232000  1.0 1.3143470699
P  P23  1  0.20755000  0.38627000  0.27232000  1.0 1.3143470699
P  P24  1  0.79245000  0.38627000  0.72768000  1.0 1.3143470699
H  H1  1  0.70440000  0.19410000  0.04760000  1.0 0.1323858638
H  H2  1  0.04760000  0.70440000  0.19410000  1.0 0.1323858638
H  H3  1  0.19410000  0.04760000  0.70440000  1.0 0.1323858638
H  H4  1  0.29560000  0.80590000  0.04760000  1.0 0.1323858638
H  H5  1  0.29560000  0.19410000  0.95240000  1.0 0.1323858638
H  H6  1  0.70440000  0.80590000  0.95240000  1.0 0.1323858638
H  H7  1  0.04760000  0.29560000  0.80590000  1.0 0.1323858638
H  H8  1  0.95240000  0.29560000  0.19410000  1.0 0.1323858638
H  H9  1  0.95240000  0.70440000  0.80590000  1.0 0.1323858638
H  H10  1  0.80590000  0.04760000  0.29560000  1.0 0.1323858638
H  H11  1  0.19410000  0.95240000  0.29560000  1.0 0.1323858638
H  H12  1  0.80590000  0.95240000  0.70440000  1.0 0.1323858638
H  H13  1  0.79560000  0.30590000  0.45240000  1.0 0.1323858638
H  H14  1  0.45240000  0.79560000  0.30590000  1.0 0.1323858638
H  H15  1  0.30590000  0.45240000  0.79560000  1.0 0.1323858638
H  H16  1  0.20440000  0.69410000  0.45240000  1.0 0.1323858638
H  H17  1  0.20440000  0.30590000  0.54760000  1.0 0.1323858638
H  H18  1  0.79560000  0.69410000  0.54760000  1.0 0.1323858638
H  H19  1  0.45240000  0.20440000  0.69410000  1.0 0.1323858638
H  H20  1  0.54760000  0.20440000  0.30590000  1.0 0.1323858638
H  H21  1  0.54760000  0.79560000  0.69410000  1.0 0.1323858638
H  H22  1  0.69410000  0.45240000  0.20440000  1.0 0.1323858638
H  H23  1  0.30590000  0.54760000  0.20440000  1.0 0.1323858638
H  H24  1  0.69410000  0.54760000  0.79560000  1.0 0.1323858638
H  H25  1  0.74900000  0.16060000  0.00620000  1.0 0.1323858638
H  H26  1  0.00620000  0.74900000  0.16060000  1.0 0.1323858638
H  H27  1  0.16060000  0.00620000  0.74900000  1.0 0.1323858638
H  H28  1  0.25100000  0.83940000  0.00620000  1.0 0.1323858638
H  H29  1  0.25100000  0.16060000  0.99380000  1.0 0.1323858638
H  H30  1  0.74900000  0.83940000  0.99380000  1.0 0.1323858638
H  H31  1  0.00620000  0.25100000  0.83940000  1.0 0.1323858638
H  H32  1  0.99380000  0.25100000  0.16060000  1.0 0.1323858638
H  H33  1  0.99380000  0.74900000  0.83940000  1.0 0.1323858638
H  H34  1  0.83940000  0.00620000  0.25100000  1.0 0.1323858638
H  H35  1  0.16060000  0.99380000  0.25100000  1.0 0.1323858638
H  H36  1  0.83940000  0.99380000  0.74900000  1.0 0.1323858638
H  H37  1  0.75100000  0.33940000  0.49380000  1.0 0.1323858638
H  H38  1  0.49380000  0.75100000  0.33940000  1.0 0.1323858638
H  H39  1  0.33940000  0.49380000  0.75100000  1.0 0.1323858638
H  H40  1  0.24900000  0.66060000  0.49380000  1.0 0.1323858638
H  H41  1  0.24900000  0.33940000  0.50620000  1.0 0.1323858638
H  H42  1  0.75100000  0.66060000  0.50620000  1.0 0.1323858638
H  H43  1  0.49380000  0.24900000  0.66060000  1.0 0.1323858638
H  H44  1  0.50620000  0.24900000  0.33940000  1.0 0.1323858638
H  H45  1  0.50620000  0.75100000  0.66060000  1.0 0.1323858638
H  H46  1  0.66060000  0.49380000  0.24900000  1.0 0.1323858638
H  H47  1  0.33940000  0.50620000  0.24900000  1.0 0.1323858638
H  H48  1  0.66060000  0.50620000  0.75100000  1.0 0.1323858638
H  H49  1  0.79800000  0.22720000  0.96070000  1.0 0.1734786147
H  H50  1  0.96070000  0.79800000  0.22720000  1.0 0.1734786147
H  H51  1  0.22720000  0.96070000  0.79800000  1.0 0.1734786147
H  H52  1  0.20200000  0.77280000  0.96070000  1.0 0.1734786147
H  H53  1  0.20200000  0.22720000  0.03930000  1.0 0.1734786147
H  H54  1  0.79800000  0.77280000  0.03930000  1.0 0.1734786147
H  H55  1  0.96070000  0.20200000  0.77280000  1.0 0.1734786147
H  H56  1  0.03930000  0.20200000  0.22720000  1.0 0.1734786147
H  H57  1  0.03930000  0.79800000  0.77280000  1.0 0.1734786147
H  H58  1  0.77280000  0.96070000  0.20200000  1.0 0.1734786147
H  H59  1  0.22720000  0.03930000  0.20200000  1.0 0.1734786147
H  H60  1  0.77280000  0.03930000  0.79800000  1.0 0.1734786147
H  H61  1  0.70200000  0.27280000  0.53930000  1.0 0.1734786147
H  H62  1  0.53930000  0.70200000  0.27280000  1.0 0.1734786147
H  H63  1  0.27280000  0.53930000  0.70200000  1.0 0.1734786147
H  H64  1  0.29800000  0.72720000  0.53930000  1.0 0.1734786147
H  H65  1  0.29800000  0.27280000  0.46070000  1.0 0.1734786147
H  H66  1  0.70200000  0.72720000  0.46070000  1.0 0.1734786147
H  H67  1  0.53930000  0.29800000  0.72720000  1.0 0.1734786147
H  H68  1  0.46070000  0.29800000  0.27280000  1.0 0.1734786147
H  H69  1  0.46070000  0.70200000  0.72720000  1.0 0.1734786147
H  H70  1  0.72720000  0.53930000  0.29800000  1.0 0.1734786147
H  H71  1  0.27280000  0.46070000  0.29800000  1.0 0.1734786147
H  H72  1  0.72720000  0.46070000  0.70200000  1.0 0.1734786147
H  H73  1  0.77340000  0.28610000  0.98830000  1.0 0.1582769273
H  H74  1  0.98830000  0.77340000  0.28610000  1.0 0.1582769273
H  H75  1  0.28610000  0.98830000  0.77340000  1.0 0.1582769273
H  H76  1  0.22660000  0.71390000  0.98830000  1.0 0.1582769273
H  H77  1  0.22660000  0.28610000  0.01170000  1.0 0.1582769273
H  H78  1  0.77340000  0.71390000  0.01170000  1.0 0.1582769273
H  H79  1  0.98830000  0.22660000  0.71390000  1.0 0.1582769273
H  H80  1  0.01170000  0.22660000  0.28610000  1.0 0.1582769273
H  H81  1  0.01170000  0.77340000  0.71390000  1.0 0.1582769273
H  H82  1  0.71390000  0.98830000  0.22660000  1.0 0.1582769273
H  H83  1  0.28610000  0.01170000  0.22660000  1.0 0.1582769273
H  H84  1  0.71390000  0.01170000  0.77340000  1.0 0.1582769273
H  H85  1  0.72660000  0.21390000  0.51170000  1.0 0.1582769273
H  H86  1  0.51170000  0.72660000  0.21390000  1.0 0.1582769273
H  H87  1  0.21390000  0.51170000  0.72660000  1.0 0.1582769273
H  H88  1  0.27340000  0.78610000  0.51170000  1.0 0.1582769273
H  H89  1  0.27340000  0.21390000  0.48830000  1.0 0.1582769273
H  H90  1  0.72660000  0.78610000  0.48830000  1.0 0.1582769273
H  H91  1  0.51170000  0.27340000  0.78610000  1.0 0.1582769273
H  H92  1  0.48830000  0.27340000  0.21390000  1.0 0.1582769273
H  H93  1  0.48830000  0.72660000  0.78610000  1.0 0.1582769273
H  H94  1  0.78610000  0.51170000  0.27340000  1.0 0.1582769273
H  H95  1  0.21390000  0.48830000  0.27340000  1.0 0.1582769273
H  H96  1  0.78610000  0.48830000  0.72660000  1.0 0.1582769273
H  H97  1  0.67760000  0.28990000  0.02210000  1.0 0.1480684095
H  H98  1  0.02210000  0.67760000  0.28990000  1.0 0.1480684095
H  H99  1  0.28990000  0.02210000  0.67760000  1.0 0.1480684095
H  H100  1  0.32240000  0.71010000  0.02210000  1.0 0.1480684095
H  H101  1  0.32240000  0.28990000  0.97790000  1.0 0.1480684095
H  H102  1  0.67760000  0.71010000  0.97790000  1.0 0.1480684095
H  H103  1  0.02210000  0.32240000  0.71010000  1.0 0.1480684095
H  H104  1  0.97790000  0.32240000  0.28990000  1.0 0.1480684095
H  H105  1  0.97790000  0.67760000  0.71010000  1.0 0.1480684095
H  H106  1  0.71010000  0.02210000  0.32240000  1.0 0.1480684095
H  H107  1  0.28990000  0.97790000  0.32240000  1.0 0.1480684095
H  H108  1  0.71010000  0.97790000  0.67760000  1.0 0.1480684095
H  H109  1  0.82240000  0.21010000  0.47790000  1.0 0.1480684095
H  H110  1  0.47790000  0.82240000  0.21010000  1.0 0.1480684095
H  H111  1  0.21010000  0.47790000  0.82240000  1.0 0.1480684095
H  H112  1  0.17760000  0.78990000  0.47790000  1.0 0.1480684095
H  H113  1  0.17760000  0.21010000  0.52210000  1.0 0.1480684095
H  H114  1  0.82240000  0.78990000  0.52210000  1.0 0.1480684095
H  H115  1  0.47790000  0.17760000  0.78990000  1.0 0.1480684095
H  H116  1  0.52210000  0.17760000  0.21010000  1.0 0.1480684095
H  H117  1  0.52210000  0.82240000  0.78990000  1.0 0.1480684095
H  H118  1  0.78990000  0.47790000  0.17760000  1.0 0.1480684095
H  H119  1  0.21010000  0.52210000  0.17760000  1.0 0.1480684095
H  H120  1  0.78990000  0.52210000  0.82240000  1.0 0.1480684095
H  H121  1  0.62690000  0.25360000  0.99170000  1.0 0.1403826589
H  H122  1  0.99170000  0.62690000  0.25360000  1.0 0.1403826589
H  H123  1  0.25360000  0.99170000  0.62690000  1.0 0.1403826589
H  H124  1  0.37310000  0.74640000  0.99170000  1.0 0.1403826589
H  H125  1  0.37310000  0.25360000  0.00830000  1.0 0.1403826589
H  H126  1  0.62690000  0.74640000  0.00830000  1.0 0.1403826589
H  H127  1  0.99170000  0.37310000  0.74640000  1.0 0.1403826589
H  H128  1  0.00830000  0.37310000  0.25360000  1.0 0.1403826589
H  H129  1  0.00830000  0.62690000  0.74640000  1.0 0.1403826589
H  H130  1  0.74640000  0.99170000  0.37310000  1.0 0.1403826589
H  H131  1  0.25360000  0.00830000  0.37310000  1.0 0.1403826589
H  H132  1  0.74640000  0.00830000  0.62690000  1.0 0.1403826589
H  H133  1  0.87310000  0.24640000  0.50830000  1.0 0.1403826589
H  H134  1  0.50830000  0.87310000  0.24640000  1.0 0.1403826589
H  H135  1  0.24640000  0.50830000  0.87310000  1.0 0.1403826589
H  H136  1  0.12690000  0.75360000  0.50830000  1.0 0.1403826589
H  H137  1  0.12690000  0.24640000  0.49170000  1.0 0.1403826589
H  H138  1  0.87310000  0.75360000  0.49170000  1.0 0.1403826589
H  H139  1  0.50830000  0.12690000  0.75360000  1.0 0.1403826589
H  H140  1  0.49170000  0.12690000  0.24640000  1.0 0.1403826589
H  H141  1  0.49170000  0.87310000  0.75360000  1.0 0.1403826589
H  H142  1  0.75360000  0.50830000  0.12690000  1.0 0.1403826589
H  H143  1  0.24640000  0.49170000  0.12690000  1.0 0.1403826589
H  H144  1  0.75360000  0.49170000  0.87310000  1.0 0.1403826589
H  H145  1  0.66030000  0.30300000  0.95610000  1.0 0.1582769273
H  H146  1  0.95610000  0.66030000  0.30300000  1.0 0.1582769273
H  H147  1  0.30300000  0.95610000  0.66030000  1.0 0.1582769273
H  H148  1  0.33970000  0.69700000  0.95610000  1.0 0.1582769273
H  H149  1  0.33970000  0.30300000  0.04390000  1.0 0.1582769273
H  H150  1  0.66030000  0.69700000  0.04390000  1.0 0.1582769273
H  H151  1  0.95610000  0.33970000  0.69700000  1.0 0.1582769273
H  H152  1  0.04390000  0.33970000  0.30300000  1.0 0.1582769273
H  H153  1  0.04390000  0.66030000  0.69700000  1.0 0.1582769273
H  H154  1  0.69700000  0.95610000  0.33970000  1.0 0.1582769273
H  H155  1  0.30300000  0.04390000  0.33970000  1.0 0.1582769273
H  H156  1  0.69700000  0.04390000  0.66030000  1.0 0.1582769273
H  H157  1  0.83970000  0.19700000  0.54390000  1.0 0.1582769273
H  H158  1  0.54390000  0.83970000  0.19700000  1.0 0.1582769273
H  H159  1  0.19700000  0.54390000  0.83970000  1.0 0.1582769273
H  H160  1  0.16030000  0.80300000  0.54390000  1.0 0.1582769273
H  H161  1  0.16030000  0.19700000  0.45610000  1.0 0.1582769273
H  H162  1  0.83970000  0.80300000  0.45610000  1.0 0.1582769273
H  H163  1  0.54390000  0.16030000  0.80300000  1.0 0.1582769273
H  H164  1  0.45610000  0.16030000  0.19700000  1.0 0.1582769273
H  H165  1  0.45610000  0.83970000  0.80300000  1.0 0.1582769273
H  H166  1  0.80300000  0.54390000  0.16030000  1.0 0.1582769273
H  H167  1  0.19700000  0.45610000  0.16030000  1.0 0.1582769273
H  H168  1  0.80300000  0.45610000  0.83970000  1.0 0.1582769273
H  H169  1  0.53530000  0.10530000  0.07830000  1.0 0.1115555653
H  H170  1  0.07830000  0.53530000  0.10530000  1.0 0.1115555653
H  H171  1  0.10530000  0.07830000  0.53530000  1.0 0.1115555653
H  H172  1  0.46470000  0.89470000  0.07830000  1.0 0.1115555653
H  H173  1  0.46470000  0.10530000  0.92170000  1.0 0.1115555653
H  H174  1  0.53530000  0.89470000  0.92170000  1.0 0.1115555653
H  H175  1  0.07830000  0.46470000  0.89470000  1.0 0.1115555653
H  H176  1  0.92170000  0.46470000  0.10530000  1.0 0.1115555653
H  H177  1  0.92170000  0.53530000  0.89470000  1.0 0.1115555653
H  H178  1  0.89470000  0.07830000  0.46470000  1.0 0.1115555653
H  H179  1  0.10530000  0.92170000  0.46470000  1.0 0.1115555653
H  H180  1  0.89470000  0.92170000  0.53530000  1.0 0.1115555653
H  H181  1  0.96470000  0.39470000  0.42170000  1.0 0.1115555653
H  H182  1  0.42170000  0.96470000  0.39470000  1.0 0.1115555653
H  H183  1  0.39470000  0.42170000  0.96470000  1.0 0.1115555653
H  H184  1  0.03530000  0.60530000  0.42170000  1.0 0.1115555653
H  H185  1  0.03530000  0.39470000  0.57830000  1.0 0.1115555653
H  H186  1  0.96470000  0.60530000  0.57830000  1.0 0.1115555653
H  H187  1  0.42170000  0.03530000  0.60530000  1.0 0.1115555653
H  H188  1  0.57830000  0.03530000  0.39470000  1.0 0.1115555653
H  H189  1  0.57830000  0.96470000  0.60530000  1.0 0.1115555653
H  H190  1  0.60530000  0.42170000  0.03530000  1.0 0.1115555653
H  H191  1  0.39470000  0.57830000  0.03530000  1.0 0.1115555653
H  H192  1  0.60530000  0.57830000  0.96470000  1.0 0.1115555653
H  H193  1  0.53420000  0.20570000  0.08110000  1.0 0.1480684095
H  H194  1  0.08110000  0.53420000  0.20570000  1.0 0.1480684095
H  H195  1  0.20570000  0.08110000  0.53420000  1.0 0.1480684095
H  H196  1  0.46580000  0.79430000  0.08110000  1.0 0.1480684095
H  H197  1  0.46580000  0.20570000  0.91890000  1.0 0.1480684095
H  H198  1  0.53420000  0.79430000  0.91890000  1.0 0.1480684095
H  H199  1  0.08110000  0.46580000  0.79430000  1.0 0.1480684095
H  H200  1  0.91890000  0.46580000  0.20570000  1.0 0.1480684095
H  H201  1  0.91890000  0.53420000  0.79430000  1.0 0.1480684095
H  H202  1  0.79430000  0.08110000  0.46580000  1.0 0.1480684095
H  H203  1  0.20570000  0.91890000  0.46580000  1.0 0.1480684095
H  H204  1  0.79430000  0.91890000  0.53420000  1.0 0.1480684095
H  H205  1  0.96580000  0.29430000  0.41890000  1.0 0.1480684095
H  H206  1  0.41890000  0.96580000  0.29430000  1.0 0.1480684095
H  H207  1  0.29430000  0.41890000  0.96580000  1.0 0.1480684095
H  H208  1  0.03420000  0.70570000  0.41890000  1.0 0.1480684095
H  H209  1  0.03420000  0.29430000  0.58110000  1.0 0.1480684095
H  H210  1  0.96580000  0.70570000  0.58110000  1.0 0.1480684095
H  H211  1  0.41890000  0.03420000  0.70570000  1.0 0.1480684095
H  H212  1  0.58110000  0.03420000  0.29430000  1.0 0.1480684095
H  H213  1  0.58110000  0.96580000  0.70570000  1.0 0.1480684095
H  H214  1  0.70570000  0.41890000  0.03420000  1.0 0.1480684095
H  H215  1  0.29430000  0.58110000  0.03420000  1.0 0.1480684095
H  H216  1  0.70570000  0.58110000  0.96580000  1.0 0.1480684095
H  H217  1  0.46380000  0.29560000  0.08080000  1.0 0.1582769273
H  H218  1  0.08080000  0.46380000  0.29560000  1.0 0.1582769273
H  H219  1  0.29560000  0.08080000  0.46380000  1.0 0.1582769273
H  H220  1  0.53620000  0.70440000  0.08080000  1.0 0.1582769273
H  H221  1  0.53620000  0.29560000  0.91920000  1.0 0.1582769273
H  H222  1  0.46380000  0.70440000  0.91920000  1.0 0.1582769273
H  H223  1  0.08080000  0.53620000  0.70440000  1.0 0.1582769273
H  H224  1  0.91920000  0.53620000  0.29560000  1.0 0.1582769273
H  H225  1  0.91920000  0.46380000  0.70440000  1.0 0.1582769273
H  H226  1  0.70440000  0.08080000  0.53620000  1.0 0.1582769273
H  H227  1  0.29560000  0.91920000  0.53620000  1.0 0.1582769273
H  H228  1  0.70440000  0.91920000  0.46380000  1.0 0.1582769273
H  H229  1  0.03620000  0.20440000  0.41920000  1.0 0.1582769273
H  H230  1  0.41920000  0.03620000  0.20440000  1.0 0.1582769273
H  H231  1  0.20440000  0.41920000  0.03620000  1.0 0.1582769273
H  H232  1  0.96380000  0.79560000  0.41920000  1.0 0.1582769273
H  H233  1  0.96380000  0.20440000  0.58080000  1.0 0.1582769273
H  H234  1  0.03620000  0.79560000  0.58080000  1.0 0.1582769273
H  H235  1  0.41920000  0.96380000  0.79560000  1.0 0.1582769273
H  H236  1  0.58080000  0.96380000  0.20440000  1.0 0.1582769273
H  H237  1  0.58080000  0.03620000  0.79560000  1.0 0.1582769273
H  H238  1  0.79560000  0.41920000  0.96380000  1.0 0.1582769273
H  H239  1  0.20440000  0.58080000  0.96380000  1.0 0.1582769273
H  H240  1  0.79560000  0.58080000  0.03620000  1.0 0.1582769273
H  H241  1  0.57850000  0.03680000  0.89630000  1.0 0.1403826589
H  H242  1  0.89630000  0.57850000  0.03680000  1.0 0.1403826589
H  H243  1  0.03680000  0.89630000  0.57850000  1.0 0.1403826589
H  H244  1  0.42150000  0.96320000  0.89630000  1.0 0.1403826589
H  H245  1  0.42150000  0.03680000  0.10370000  1.0 0.1403826589
H  H246  1  0.57850000  0.96320000  0.10370000  1.0 0.1403826589
H  H247  1  0.89630000  0.42150000  0.96320000  1.0 0.1403826589
H  H248  1  0.10370000  0.42150000  0.03680000  1.0 0.1403826589
H  H249  1  0.10370000  0.57850000  0.96320000  1.0 0.1403826589
H  H250  1  0.96320000  0.89630000  0.42150000  1.0 0.1403826589
H  H251  1  0.03680000  0.10370000  0.42150000  1.0 0.1403826589
H  H252  1  0.96320000  0.10370000  0.57850000  1.0 0.1403826589
H  H253  1  0.92150000  0.46320000  0.60370000  1.0 0.1403826589
H  H254  1  0.60370000  0.92150000  0.46320000  1.0 0.1403826589
H  H255  1  0.46320000  0.60370000  0.92150000  1.0 0.1403826589
H  H256  1  0.07850000  0.53680000  0.60370000  1.0 0.1403826589
H  H257  1  0.07850000  0.46320000  0.39630000  1.0 0.1403826589
H  H258  1  0.92150000  0.53680000  0.39630000  1.0 0.1403826589
H  H259  1  0.60370000  0.07850000  0.53680000  1.0 0.1403826589
H  H260  1  0.39630000  0.07850000  0.46320000  1.0 0.1403826589
H  H261  1  0.39630000  0.92150000  0.53680000  1.0 0.1403826589
H  H262  1  0.53680000  0.60370000  0.07850000  1.0 0.1403826589
H  H263  1  0.46320000  0.39630000  0.07850000  1.0 0.1403826589
H  H264  1  0.53680000  0.39630000  0.92150000  1.0 0.1403826589
C  C1  1  0.71020000  0.17900000  0.00780000  1.0 -0.2733738607
C  C2  1  0.00780000  0.71020000  0.17900000  1.0 -0.2733738607
C  C3  1  0.17900000  0.00780000  0.71020000  1.0 -0.2733738607
C  C4  1  0.28980000  0.82100000  0.00780000  1.0 -0.2733738607
C  C5  1  0.28980000  0.17900000  0.99220000  1.0 -0.2733738607
C  C6  1  0.71020000  0.82100000  0.99220000  1.0 -0.2733738607
C  C7  1  0.00780000  0.28980000  0.82100000  1.0 -0.2733738607
C  C8  1  0.99220000  0.28980000  0.17900000  1.0 -0.2733738607
C  C9  1  0.99220000  0.71020000  0.82100000  1.0 -0.2733738607
C  C10  1  0.82100000  0.00780000  0.28980000  1.0 -0.2733738607
C  C11  1  0.17900000  0.99220000  0.28980000  1.0 -0.2733738607
C  C12  1  0.82100000  0.99220000  0.71020000  1.0 -0.2733738607
C  C13  1  0.78980000  0.32100000  0.49220000  1.0 -0.2733738607
C  C14  1  0.49220000  0.78980000  0.32100000  1.0 -0.2733738607
C  C15  1  0.32100000  0.49220000  0.78980000  1.0 -0.2733738607
C  C16  1  0.21020000  0.67900000  0.49220000  1.0 -0.2733738607
C  C17  1  0.21020000  0.32100000  0.50780000  1.0 -0.2733738607
C  C18  1  0.78980000  0.67900000  0.50780000  1.0 -0.2733738607
C  C19  1  0.49220000  0.21020000  0.67900000  1.0 -0.2733738607
C  C20  1  0.50780000  0.21020000  0.32100000  1.0 -0.2733738607
C  C21  1  0.50780000  0.78980000  0.67900000  1.0 -0.2733738607
C  C22  1  0.67900000  0.49220000  0.21020000  1.0 -0.2733738607
C  C23  1  0.32100000  0.50780000  0.21020000  1.0 -0.2733738607
C  C24  1  0.67900000  0.50780000  0.78980000  1.0 -0.2733738607
C  C25  1  0.66290000  0.13240000  0.99450000  1.0 0.6018187139
C  C26  1  0.99450000  0.66290000  0.13240000  1.0 0.6018187139
C  C27  1  0.13240000  0.99450000  0.66290000  1.0 0.6018187139
C  C28  1  0.33710000  0.86760000  0.99450000  1.0 0.6018187139
C  C29  1  0.33710000  0.13240000  0.00550000  1.0 0.6018187139
C  C30  1  0.66290000  0.86760000  0.00550000  1.0 0.6018187139
C  C31  1  0.99450000  0.33710000  0.86760000  1.0 0.6018187139
C  C32  1  0.00550000  0.33710000  0.13240000  1.0 0.6018187139
C  C33  1  0.00550000  0.66290000  0.86760000  1.0 0.6018187139
C  C34  1  0.86760000  0.99450000  0.33710000  1.0 0.6018187139
C  C35  1  0.13240000  0.00550000  0.33710000  1.0 0.6018187139
C  C36  1  0.86760000  0.00550000  0.66290000  1.0 0.6018187139
C  C37  1  0.83710000  0.36760000  0.50550000  1.0 0.6018187139
C  C38  1  0.50550000  0.83710000  0.36760000  1.0 0.6018187139
C  C39  1  0.36760000  0.50550000  0.83710000  1.0 0.6018187139
C  C40  1  0.16290000  0.63240000  0.50550000  1.0 0.6018187139
C  C41  1  0.16290000  0.36760000  0.49450000  1.0 0.6018187139
C  C42  1  0.83710000  0.63240000  0.49450000  1.0 0.6018187139
C  C43  1  0.50550000  0.16290000  0.63240000  1.0 0.6018187139
C  C44  1  0.49450000  0.16290000  0.36760000  1.0 0.6018187139
C  C45  1  0.49450000  0.83710000  0.63240000  1.0 0.6018187139
C  C46  1  0.63240000  0.50550000  0.16290000  1.0 0.6018187139
C  C47  1  0.36760000  0.49450000  0.16290000  1.0 0.6018187139
C  C48  1  0.63240000  0.49450000  0.83710000  1.0 0.6018187139
C  C49  1  0.76720000  0.25700000  0.95740000  1.0 -0.4385923406
C  C50  1  0.95740000  0.76720000  0.25700000  1.0 -0.4385923406
C  C51  1  0.25700000  0.95740000  0.76720000  1.0 -0.4385923406
C  C52  1  0.23280000  0.74300000  0.95740000  1.0 -0.4385923406
C  C53  1  0.23280000  0.25700000  0.04260000  1.0 -0.4385923406
C  C54  1  0.76720000  0.74300000  0.04260000  1.0 -0.4385923406
C  C55  1  0.95740000  0.23280000  0.74300000  1.0 -0.4385923406
C  C56  1  0.04260000  0.23280000  0.25700000  1.0 -0.4385923406
C  C57  1  0.04260000  0.76720000  0.74300000  1.0 -0.4385923406
C  C58  1  0.74300000  0.95740000  0.23280000  1.0 -0.4385923406
C  C59  1  0.25700000  0.04260000  0.23280000  1.0 -0.4385923406
C  C60  1  0.74300000  0.04260000  0.76720000  1.0 -0.4385923406
C  C61  1  0.73280000  0.24300000  0.54260000  1.0 -0.4385923406
C  C62  1  0.54260000  0.73280000  0.24300000  1.0 -0.4385923406
C  C63  1  0.24300000  0.54260000  0.73280000  1.0 -0.4385923406
C  C64  1  0.26720000  0.75700000  0.54260000  1.0 -0.4385923406
C  C65  1  0.26720000  0.24300000  0.45740000  1.0 -0.4385923406
C  C66  1  0.73280000  0.75700000  0.45740000  1.0 -0.4385923406
C  C67  1  0.54260000  0.26720000  0.75700000  1.0 -0.4385923406
C  C68  1  0.45740000  0.26720000  0.24300000  1.0 -0.4385923406
C  C69  1  0.45740000  0.73280000  0.75700000  1.0 -0.4385923406
C  C70  1  0.75700000  0.54260000  0.26720000  1.0 -0.4385923406
C  C71  1  0.24300000  0.45740000  0.26720000  1.0 -0.4385923406
C  C72  1  0.75700000  0.45740000  0.73280000  1.0 -0.4385923406
C  C73  1  0.66440000  0.27260000  0.98560000  1.0 -0.3460681052
C  C74  1  0.98560000  0.66440000  0.27260000  1.0 -0.3460681052
C  C75  1  0.27260000  0.98560000  0.66440000  1.0 -0.3460681052
C  C76  1  0.33560000  0.72740000  0.98560000  1.0 -0.3460681052
C  C77  1  0.33560000  0.27260000  0.01440000  1.0 -0.3460681052
C  C78  1  0.66440000  0.72740000  0.01440000  1.0 -0.3460681052
C  C79  1  0.98560000  0.33560000  0.72740000  1.0 -0.3460681052
C  C80  1  0.01440000  0.33560000  0.27260000  1.0 -0.3460681052
C  C81  1  0.01440000  0.66440000  0.72740000  1.0 -0.3460681052
C  C82  1  0.72740000  0.98560000  0.33560000  1.0 -0.3460681052
C  C83  1  0.27260000  0.01440000  0.33560000  1.0 -0.3460681052
C  C84  1  0.72740000  0.01440000  0.66440000  1.0 -0.3460681052
C  C85  1  0.83560000  0.22740000  0.51440000  1.0 -0.3460681052
C  C86  1  0.51440000  0.83560000  0.22740000  1.0 -0.3460681052
C  C87  1  0.22740000  0.51440000  0.83560000  1.0 -0.3460681052
C  C88  1  0.16440000  0.77260000  0.51440000  1.0 -0.3460681052
C  C89  1  0.16440000  0.22740000  0.48560000  1.0 -0.3460681052
C  C90  1  0.83560000  0.77260000  0.48560000  1.0 -0.3460681052
C  C91  1  0.51440000  0.16440000  0.77260000  1.0 -0.3460681052
C  C92  1  0.48560000  0.16440000  0.22740000  1.0 -0.3460681052
C  C93  1  0.48560000  0.83560000  0.77260000  1.0 -0.3460681052
C  C94  1  0.77260000  0.51440000  0.16440000  1.0 -0.3460681052
C  C95  1  0.22740000  0.48560000  0.16440000  1.0 -0.3460681052
C  C96  1  0.77260000  0.48560000  0.83560000  1.0 -0.3460681052
C  C97  1  0.52040000  0.12580000  0.04590000  1.0 0.1030174905
C  C98  1  0.04590000  0.52040000  0.12580000  1.0 0.1030174905
C  C99  1  0.12580000  0.04590000  0.52040000  1.0 0.1030174905
C  C100  1  0.47960000  0.87420000  0.04590000  1.0 0.1030174905
C  C101  1  0.47960000  0.12580000  0.95410000  1.0 0.1030174905
C  C102  1  0.52040000  0.87420000  0.95410000  1.0 0.1030174905
C  C103  1  0.04590000  0.47960000  0.87420000  1.0 0.1030174905
C  C104  1  0.95410000  0.47960000  0.12580000  1.0 0.1030174905
C  C105  1  0.95410000  0.52040000  0.87420000  1.0 0.1030174905
C  C106  1  0.87420000  0.04590000  0.47960000  1.0 0.1030174905
C  C107  1  0.12580000  0.95410000  0.47960000  1.0 0.1030174905
C  C108  1  0.87420000  0.95410000  0.52040000  1.0 0.1030174905
C  C109  1  0.97960000  0.37420000  0.45410000  1.0 0.1030174905
C  C110  1  0.45410000  0.97960000  0.37420000  1.0 0.1030174905
C  C111  1  0.37420000  0.45410000  0.97960000  1.0 0.1030174905
C  C112  1  0.02040000  0.62580000  0.45410000  1.0 0.1030174905
C  C113  1  0.02040000  0.37420000  0.54590000  1.0 0.1030174905
C  C114  1  0.97960000  0.62580000  0.54590000  1.0 0.1030174905
C  C115  1  0.45410000  0.02040000  0.62580000  1.0 0.1030174905
C  C116  1  0.54590000  0.02040000  0.37420000  1.0 0.1030174905
C  C117  1  0.54590000  0.97960000  0.62580000  1.0 0.1030174905
C  C118  1  0.62580000  0.45410000  0.02040000  1.0 0.1030174905
C  C119  1  0.37420000  0.54590000  0.02040000  1.0 0.1030174905
C  C120  1  0.62580000  0.54590000  0.97960000  1.0 0.1030174905
C  C121  1  0.52040000  0.18600000  0.04760000  1.0 -0.1708739237
C  C122  1  0.04760000  0.52040000  0.18600000  1.0 -0.1708739237
C  C123  1  0.18600000  0.04760000  0.52040000  1.0 -0.1708739237
C  C124  1  0.47960000  0.81400000  0.04760000  1.0 -0.1708739237
C  C125  1  0.47960000  0.18600000  0.95240000  1.0 -0.1708739237
C  C126  1  0.52040000  0.81400000  0.95240000  1.0 -0.1708739237
C  C127  1  0.04760000  0.47960000  0.81400000  1.0 -0.1708739237
C  C128  1  0.95240000  0.47960000  0.18600000  1.0 -0.1708739237
C  C129  1  0.95240000  0.52040000  0.81400000  1.0 -0.1708739237
C  C130  1  0.81400000  0.04760000  0.47960000  1.0 -0.1708739237
C  C131  1  0.18600000  0.95240000  0.47960000  1.0 -0.1708739237
C  C132  1  0.81400000  0.95240000  0.52040000  1.0 -0.1708739237
C  C133  1  0.97960000  0.31400000  0.45240000  1.0 -0.1708739237
C  C134  1  0.45240000  0.97960000  0.31400000  1.0 -0.1708739237
C  C135  1  0.31400000  0.45240000  0.97960000  1.0 -0.1708739237
C  C136  1  0.02040000  0.68600000  0.45240000  1.0 -0.1708739237
C  C137  1  0.02040000  0.31400000  0.54760000  1.0 -0.1708739237
C  C138  1  0.97960000  0.68600000  0.54760000  1.0 -0.1708739237
C  C139  1  0.45240000  0.02040000  0.68600000  1.0 -0.1708739237
C  C140  1  0.54760000  0.02040000  0.31400000  1.0 -0.1708739237
C  C141  1  0.54760000  0.97960000  0.68600000  1.0 -0.1708739237
C  C142  1  0.68600000  0.45240000  0.02040000  1.0 -0.1708739237
C  C143  1  0.31400000  0.54760000  0.02040000  1.0 -0.1708739237
C  C144  1  0.68600000  0.54760000  0.97960000  1.0 -0.1708739237
C  C145  1  0.50000000  0.21770000  0.00000000  1.0 0.1198729688
C  C146  1  0.00000000  0.50000000  0.21770000  1.0 0.1198729688
C  C147  1  0.21770000  0.00000000  0.50000000  1.0 0.1198729688
C  C148  1  0.50000000  0.78230000  0.00000000  1.0 0.1198729688
C  C149  1  0.00000000  0.50000000  0.78230000  1.0 0.1198729688
C  C150  1  0.78230000  0.00000000  0.50000000  1.0 0.1198729688
C  C151  1  0.00000000  0.28230000  0.50000000  1.0 0.1198729688
C  C152  1  0.50000000  0.00000000  0.28230000  1.0 0.1198729688
C  C153  1  0.28230000  0.50000000  0.00000000  1.0 0.1198729688
C  C154  1  0.00000000  0.71770000  0.50000000  1.0 0.1198729688
C  C155  1  0.50000000  0.00000000  0.71770000  1.0 0.1198729688
C  C156  1  0.71770000  0.50000000  0.00000000  1.0 0.1198729688
C  C157  1  0.50000000  0.28320000  0.00000000  1.0 0.1198729688
C  C158  1  0.00000000  0.50000000  0.28320000  1.0 0.1198729688
C  C159  1  0.28320000  0.00000000  0.50000000  1.0 0.1198729688
C  C160  1  0.50000000  0.71680000  0.00000000  1.0 0.1198729688
C  C161  1  0.00000000  0.50000000  0.71680000  1.0 0.1198729688
C  C162  1  0.71680000  0.00000000  0.50000000  1.0 0.1198729688
C  C163  1  0.00000000  0.21680000  0.50000000  1.0 0.1198729688
C  C164  1  0.50000000  0.00000000  0.21680000  1.0 0.1198729688
C  C165  1  0.21680000  0.50000000  0.00000000  1.0 0.1198729688
C  C166  1  0.00000000  0.78320000  0.50000000  1.0 0.1198729688
C  C167  1  0.50000000  0.00000000  0.78320000  1.0 0.1198729688
C  C168  1  0.78320000  0.50000000  0.00000000  1.0 0.1198729688
C  C169  1  0.47840000  0.31530000  0.04770000  1.0 -0.1779410279
C  C170  1  0.04770000  0.47840000  0.31530000  1.0 -0.1779410279
C  C171  1  0.31530000  0.04770000  0.47840000  1.0 -0.1779410279
C  C172  1  0.52160000  0.68470000  0.04770000  1.0 -0.1779410279
C  C173  1  0.52160000  0.31530000  0.95230000  1.0 -0.1779410279
C  C174  1  0.47840000  0.68470000  0.95230000  1.0 -0.1779410279
C  C175  1  0.04770000  0.52160000  0.68470000  1.0 -0.1779410279
C  C176  1  0.95230000  0.52160000  0.31530000  1.0 -0.1779410279
C  C177  1  0.95230000  0.47840000  0.68470000  1.0 -0.1779410279
C  C178  1  0.68470000  0.04770000  0.52160000  1.0 -0.1779410279
C  C179  1  0.31530000  0.95230000  0.52160000  1.0 -0.1779410279
C  C180  1  0.68470000  0.95230000  0.47840000  1.0 -0.1779410279
C  C181  1  0.02160000  0.18470000  0.45230000  1.0 -0.1779410279
C  C182  1  0.45230000  0.02160000  0.18470000  1.0 -0.1779410279
C  C183  1  0.18470000  0.45230000  0.02160000  1.0 -0.1779410279
C  C184  1  0.97840000  0.81530000  0.45230000  1.0 -0.1779410279
C  C185  1  0.97840000  0.18470000  0.54770000  1.0 -0.1779410279
C  C186  1  0.02160000  0.81530000  0.54770000  1.0 -0.1779410279
C  C187  1  0.45230000  0.97840000  0.81530000  1.0 -0.1779410279
C  C188  1  0.54770000  0.97840000  0.18470000  1.0 -0.1779410279
C  C189  1  0.54770000  0.02160000  0.81530000  1.0 -0.1779410279
C  C190  1  0.81530000  0.45230000  0.97840000  1.0 -0.1779410279
C  C191  1  0.18470000  0.54770000  0.97840000  1.0 -0.1779410279
C  C192  1  0.81530000  0.54770000  0.02160000  1.0 -0.1779410279
C  C193  1  0.54630000  0.02150000  0.87570000  1.0 0.0907099634
C  C194  1  0.87570000  0.54630000  0.02150000  1.0 0.0907099634
C  C195  1  0.02150000  0.87570000  0.54630000  1.0 0.0907099634
C  C196  1  0.45370000  0.97850000  0.87570000  1.0 0.0907099634
C  C197  1  0.45370000  0.02150000  0.12430000  1.0 0.0907099634
C  C198  1  0.54630000  0.97850000  0.12430000  1.0 0.0907099634
C  C199  1  0.87570000  0.45370000  0.97850000  1.0 0.0907099634
C  C200  1  0.12430000  0.45370000  0.02150000  1.0 0.0907099634
C  C201  1  0.12430000  0.54630000  0.97850000  1.0 0.0907099634
C  C202  1  0.97850000  0.87570000  0.45370000  1.0 0.0907099634
C  C203  1  0.02150000  0.12430000  0.45370000  1.0 0.0907099634
C  C204  1  0.97850000  0.12430000  0.54630000  1.0 0.0907099634
C  C205  1  0.95370000  0.47850000  0.62430000  1.0 0.0907099634
C  C206  1  0.62430000  0.95370000  0.47850000  1.0 0.0907099634
C  C207  1  0.47850000  0.62430000  0.95370000  1.0 0.0907099634
C  C208  1  0.04630000  0.52150000  0.62430000  1.0 0.0907099634
C  C209  1  0.04630000  0.47850000  0.37570000  1.0 0.0907099634
C  C210  1  0.95370000  0.52150000  0.37570000  1.0 0.0907099634
C  C211  1  0.62430000  0.04630000  0.52150000  1.0 0.0907099634
C  C212  1  0.37570000  0.04630000  0.47850000  1.0 0.0907099634
C  C213  1  0.37570000  0.95370000  0.52150000  1.0 0.0907099634
C  C214  1  0.52150000  0.62430000  0.04630000  1.0 0.0907099634
C  C215  1  0.47850000  0.37570000  0.04630000  1.0 0.0907099634
C  C216  1  0.52150000  0.37570000  0.95370000  1.0 0.0907099634
N  N1  1  0.70810000  0.22850000  0.96540000  1.0 0.0325045569
N  N2  1  0.96540000  0.70810000  0.22850000  1.0 0.0325045569
N  N3  1  0.22850000  0.96540000  0.70810000  1.0 0.0325045569
N  N4  1  0.29190000  0.77150000  0.96540000  1.0 0.0325045569
N  N5  1  0.29190000  0.22850000  0.03460000  1.0 0.0325045569
N  N6  1  0.70810000  0.77150000  0.03460000  1.0 0.0325045569
N  N7  1  0.96540000  0.29190000  0.77150000  1.0 0.0325045569
N  N8  1  0.03460000  0.29190000  0.22850000  1.0 0.0325045569
N  N9  1  0.03460000  0.70810000  0.77150000  1.0 0.0325045569
N  N10  1  0.77150000  0.96540000  0.29190000  1.0 0.0325045569
N  N11  1  0.22850000  0.03460000  0.29190000  1.0 0.0325045569
N  N12  1  0.77150000  0.03460000  0.70810000  1.0 0.0325045569
N  N13  1  0.79190000  0.27150000  0.53460000  1.0 0.0325045569
N  N14  1  0.53460000  0.79190000  0.27150000  1.0 0.0325045569
N  N15  1  0.27150000  0.53460000  0.79190000  1.0 0.0325045569
N  N16  1  0.20810000  0.72850000  0.53460000  1.0 0.0325045569
N  N17  1  0.20810000  0.27150000  0.46540000  1.0 0.0325045569
N  N18  1  0.79190000  0.72850000  0.46540000  1.0 0.0325045569
N  N19  1  0.53460000  0.20810000  0.72850000  1.0 0.0325045569
N  N20  1  0.46540000  0.20810000  0.27150000  1.0 0.0325045569
N  N21  1  0.46540000  0.79190000  0.72850000  1.0 0.0325045569
N  N22  1  0.72850000  0.53460000  0.20810000  1.0 0.0325045569
N  N23  1  0.27150000  0.46540000  0.20810000  1.0 0.0325045569
N  N24  1  0.72850000  0.46540000  0.79190000  1.0 0.0325045569
N  N25  1  0.50000000  0.09460000  0.00000000  1.0 -0.193503469
N  N26  1  0.00000000  0.50000000  0.09460000  1.0 -0.193503469
N  N27  1  0.09460000  0.00000000  0.50000000  1.0 -0.193503469
N  N28  1  0.50000000  0.90540000  0.00000000  1.0 -0.193503469
N  N29  1  0.00000000  0.50000000  0.90540000  1.0 -0.193503469
N  N30  1  0.90540000  0.00000000  0.50000000  1.0 -0.193503469
N  N31  1  0.00000000  0.40540000  0.50000000  1.0 -0.193503469
N  N32  1  0.50000000  0.00000000  0.40540000  1.0 -0.193503469
N  N33  1  0.40540000  0.50000000  0.00000000  1.0 -0.193503469
N  N34  1  0.00000000  0.59460000  0.50000000  1.0 -0.193503469
N  N35  1  0.50000000  0.00000000  0.59460000  1.0 -0.193503469
N  N36  1  0.59460000  0.50000000  0.00000000  1.0 -0.193503469
N  N37  1  0.50000000  0.00000000  0.90650000  1.0 -0.2291009461
N  N38  1  0.90650000  0.50000000  0.00000000  1.0 -0.2291009461
N  N39  1  0.00000000  0.90650000  0.50000000  1.0 -0.2291009461
N  N40  1  0.50000000  0.00000000  0.09350000  1.0 -0.2291009461
N  N41  1  0.09350000  0.50000000  0.00000000  1.0 -0.2291009461
N  N42  1  0.00000000  0.09350000  0.50000000  1.0 -0.2291009461
N  N43  1  0.00000000  0.50000000  0.59350000  1.0 -0.2291009461
N  N44  1  0.59350000  0.00000000  0.50000000  1.0 -0.2291009461
N  N45  1  0.50000000  0.59350000  0.00000000  1.0 -0.2291009461
N  N46  1  0.00000000  0.50000000  0.40650000  1.0 -0.2291009461
N  N47  1  0.40650000  0.00000000  0.50000000  1.0 -0.2291009461
N  N48  1  0.50000000  0.40650000  0.00000000  1.0 -0.2291009461
O  O1  1  0.63730000  0.13510000  0.94630000  1.0 -0.5135736253
O  O2  1  0.94630000  0.63730000  0.13510000  1.0 -0.5135736253
O  O3  1  0.13510000  0.94630000  0.63730000  1.0 -0.5135736253
O  O4  1  0.36270000  0.86490000  0.94630000  1.0 -0.5135736253
O  O5  1  0.36270000  0.13510000  0.05370000  1.0 -0.5135736253
O  O6  1  0.63730000  0.86490000  0.05370000  1.0 -0.5135736253
O  O7  1  0.94630000  0.36270000  0.86490000  1.0 -0.5135736253
O  O8  1  0.05370000  0.36270000  0.13510000  1.0 -0.5135736253
O  O9  1  0.05370000  0.63730000  0.86490000  1.0 -0.5135736253
O  O10  1  0.86490000  0.94630000  0.36270000  1.0 -0.5135736253
O  O11  1  0.13510000  0.05370000  0.36270000  1.0 -0.5135736253
O  O12  1  0.86490000  0.05370000  0.63730000  1.0 -0.5135736253
O  O13  1  0.86270000  0.36490000  0.55370000  1.0 -0.5135736253
O  O14  1  0.55370000  0.86270000  0.36490000  1.0 -0.5135736253
O  O15  1  0.36490000  0.55370000  0.86270000  1.0 -0.5135736253
O  O16  1  0.13730000  0.63510000  0.55370000  1.0 -0.5135736253
O  O17  1  0.13730000  0.36490000  0.44630000  1.0 -0.5135736253
O  O18  1  0.86270000  0.63510000  0.44630000  1.0 -0.5135736253
O  O19  1  0.55370000  0.13730000  0.63510000  1.0 -0.5135736253
O  O20  1  0.44630000  0.13730000  0.36490000  1.0 -0.5135736253
O  O21  1  0.44630000  0.86270000  0.63510000  1.0 -0.5135736253
O  O22  1  0.63510000  0.55370000  0.13730000  1.0 -0.5135736253
O  O23  1  0.36490000  0.44630000  0.13730000  1.0 -0.5135736253
O  O24  1  0.63510000  0.44630000  0.86270000  1.0 -0.5135736253
O  O25  1  0.65590000  0.09330000  0.03320000  1.0 -0.4536012596
O  O26  1  0.03320000  0.65590000  0.09330000  1.0 -0.4536012596
O  O27  1  0.09330000  0.03320000  0.65590000  1.0 -0.4536012596
O  O28  1  0.34410000  0.90670000  0.03320000  1.0 -0.4536012596
O  O29  1  0.34410000  0.09330000  0.96680000  1.0 -0.4536012596
O  O30  1  0.65590000  0.90670000  0.96680000  1.0 -0.4536012596
O  O31  1  0.03320000  0.34410000  0.90670000  1.0 -0.4536012596
O  O32  1  0.96680000  0.34410000  0.09330000  1.0 -0.4536012596
O  O33  1  0.96680000  0.65590000  0.90670000  1.0 -0.4536012596
O  O34  1  0.90670000  0.03320000  0.34410000  1.0 -0.4536012596
O  O35  1  0.09330000  0.96680000  0.34410000  1.0 -0.4536012596
O  O36  1  0.90670000  0.96680000  0.65590000  1.0 -0.4536012596
O  O37  1  0.84410000  0.40670000  0.46680000  1.0 -0.4536012596
O  O38  1  0.46680000  0.84410000  0.40670000  1.0 -0.4536012596
O  O39  1  0.40670000  0.46680000  0.84410000  1.0 -0.4536012596
O  O40  1  0.15590000  0.59330000  0.46680000  1.0 -0.4536012596
O  O41  1  0.15590000  0.40670000  0.53320000  1.0 -0.4536012596
O  O42  1  0.84410000  0.59330000  0.53320000  1.0 -0.4536012596
O  O43  1  0.46680000  0.15590000  0.59330000  1.0 -0.4536012596
O  O44  1  0.53320000  0.15590000  0.40670000  1.0 -0.4536012596
O  O45  1  0.53320000  0.84410000  0.59330000  1.0 -0.4536012596
O  O46  1  0.59330000  0.46680000  0.15590000  1.0 -0.4536012596
O  O47  1  0.40670000  0.53320000  0.15590000  1.0 -0.4536012596
O  O48  1  0.59330000  0.53320000  0.84410000  1.0 -0.4536012596
O  O49  1  0.69860000  0.12290000  0.83840000  1.0 -0.7258759922
O  O50  1  0.83840000  0.69860000  0.12290000  1.0 -0.7258759922
O  O51  1  0.12290000  0.83840000  0.69860000  1.0 -0.7258759922
O  O52  1  0.30140000  0.87710000  0.83840000  1.0 -0.7258759922
O  O53  1  0.30140000  0.12290000  0.16160000  1.0 -0.7258759922
O  O54  1  0.69860000  0.87710000  0.16160000  1.0 -0.7258759922
O  O55  1  0.83840000  0.30140000  0.87710000  1.0 -0.7258759922
O  O56  1  0.16160000  0.30140000  0.12290000  1.0 -0.7258759922
O  O57  1  0.16160000  0.69860000  0.87710000  1.0 -0.7258759922
O  O58  1  0.87710000  0.83840000  0.30140000  1.0 -0.7258759922
O  O59  1  0.12290000  0.16160000  0.30140000  1.0 -0.7258759922
O  O60  1  0.87710000  0.16160000  0.69860000  1.0 -0.7258759922
O  O61  1  0.80140000  0.37710000  0.66160000  1.0 -0.7258759922
O  O62  1  0.66160000  0.80140000  0.37710000  1.0 -0.7258759922
O  O63  1  0.37710000  0.66160000  0.80140000  1.0 -0.7258759922
O  O64  1  0.19860000  0.62290000  0.66160000  1.0 -0.7258759922
O  O65  1  0.19860000  0.37710000  0.33840000  1.0 -0.7258759922
O  O66  1  0.80140000  0.62290000  0.33840000  1.0 -0.7258759922
O  O67  1  0.66160000  0.19860000  0.62290000  1.0 -0.7258759922
O  O68  1  0.33840000  0.19860000  0.37710000  1.0 -0.7258759922
O  O69  1  0.33840000  0.80140000  0.62290000  1.0 -0.7258759922
O  O70  1  0.62290000  0.66160000  0.19860000  1.0 -0.7258759922
O  O71  1  0.37710000  0.33840000  0.19860000  1.0 -0.7258759922
O  O72  1  0.62290000  0.33840000  0.80140000  1.0 -0.7258759922
O  O73  1  0.61100000  0.23850000  0.84980000  1.0 -0.7388164586
O  O74  1  0.84980000  0.61100000  0.23850000  1.0 -0.7388164586
O  O75  1  0.23850000  0.84980000  0.61100000  1.0 -0.7388164586
O  O76  1  0.38900000  0.76150000  0.84980000  1.0 -0.7388164586
O  O77  1  0.38900000  0.23850000  0.15020000  1.0 -0.7388164586
O  O78  1  0.61100000  0.76150000  0.15020000  1.0 -0.7388164586
O  O79  1  0.84980000  0.38900000  0.76150000  1.0 -0.7388164586
O  O80  1  0.15020000  0.38900000  0.23850000  1.0 -0.7388164586
O  O81  1  0.15020000  0.61100000  0.76150000  1.0 -0.7388164586
O  O82  1  0.76150000  0.84980000  0.38900000  1.0 -0.7388164586
O  O83  1  0.23850000  0.15020000  0.38900000  1.0 -0.7388164586
O  O84  1  0.76150000  0.15020000  0.61100000  1.0 -0.7388164586
O  O85  1  0.88900000  0.26150000  0.65020000  1.0 -0.7388164586
O  O86  1  0.65020000  0.88900000  0.26150000  1.0 -0.7388164586
O  O87  1  0.26150000  0.65020000  0.88900000  1.0 -0.7388164586
O  O88  1  0.11100000  0.73850000  0.65020000  1.0 -0.7388164586
O  O89  1  0.11100000  0.26150000  0.34980000  1.0 -0.7388164586
O  O90  1  0.88900000  0.73850000  0.34980000  1.0 -0.7388164586
O  O91  1  0.65020000  0.11100000  0.73850000  1.0 -0.7388164586
O  O92  1  0.34980000  0.11100000  0.26150000  1.0 -0.7388164586
O  O93  1  0.34980000  0.88900000  0.73850000  1.0 -0.7388164586
O  O94  1  0.73850000  0.65020000  0.11100000  1.0 -0.7388164586
O  O95  1  0.26150000  0.34980000  0.11100000  1.0 -0.7388164586
O  O96  1  0.73850000  0.34980000  0.88900000  1.0 -0.7388164586
O  O97  1  0.74490000  0.24730000  0.84350000  1.0 -0.7621955261
O  O98  1  0.84350000  0.74490000  0.24730000  1.0 -0.7621955261
O  O99  1  0.24730000  0.84350000  0.74490000  1.0 -0.7621955261
O  O100  1  0.25510000  0.75270000  0.84350000  1.0 -0.7621955261
O  O101  1  0.25510000  0.24730000  0.15650000  1.0 -0.7621955261
O  O102  1  0.74490000  0.75270000  0.15650000  1.0 -0.7621955261
O  O103  1  0.84350000  0.25510000  0.75270000  1.0 -0.7621955261
O  O104  1  0.15650000  0.25510000  0.24730000  1.0 -0.7621955261
O  O105  1  0.15650000  0.74490000  0.75270000  1.0 -0.7621955261
O  O106  1  0.75270000  0.84350000  0.25510000  1.0 -0.7621955261
O  O107  1  0.24730000  0.15650000  0.25510000  1.0 -0.7621955261
O  O108  1  0.75270000  0.15650000  0.74490000  1.0 -0.7621955261
O  O109  1  0.75510000  0.25270000  0.65650000  1.0 -0.7621955261
O  O110  1  0.65650000  0.75510000  0.25270000  1.0 -0.7621955261
O  O111  1  0.25270000  0.65650000  0.75510000  1.0 -0.7621955261
O  O112  1  0.24490000  0.74730000  0.65650000  1.0 -0.7621955261
O  O113  1  0.24490000  0.25270000  0.34350000  1.0 -0.7621955261
O  O114  1  0.75510000  0.74730000  0.34350000  1.0 -0.7621955261
O  O115  1  0.65650000  0.24490000  0.74730000  1.0 -0.7621955261
O  O116  1  0.34350000  0.24490000  0.25270000  1.0 -0.7621955261
O  O117  1  0.34350000  0.75510000  0.74730000  1.0 -0.7621955261
O  O118  1  0.74730000  0.65650000  0.24490000  1.0 -0.7621955261
O  O119  1  0.25270000  0.34350000  0.24490000  1.0 -0.7621955261
O  O120  1  0.74730000  0.34350000  0.75510000  1.0 -0.7621955261
O  O121  1  0.59120000  0.00000000  0.00000000  1.0 -0.2027362025
O  O122  1  0.00000000  0.59120000  0.00000000  1.0 -0.2027362025
O  O123  1  0.00000000  0.00000000  0.59120000  1.0 -0.2027362025
O  O124  1  0.40880000  0.00000000  0.00000000  1.0 -0.2027362025
O  O125  1  0.00000000  0.40880000  0.00000000  1.0 -0.2027362025
O  O126  1  0.00000000  0.00000000  0.40880000  1.0 -0.2027362025
O  O127  1  0.90880000  0.50000000  0.50000000  1.0 -0.2027362025
O  O128  1  0.50000000  0.90880000  0.50000000  1.0 -0.2027362025
O  O129  1  0.50000000  0.50000000  0.90880000  1.0 -0.2056204265
O  O130  1  0.09120000  0.50000000  0.50000000  1.0 -0.2027362025
O  O131  1  0.50000000  0.09120000  0.50000000  1.0 -0.2027362025
O  O132  1  0.50000000  0.50000000  0.09120000  1.0 -0.2027362025
O  O133  1  0.70500000  0.08900000  0.14100000  1.0 0.0652995893
O  O134  1  0.14100000  0.70500000  0.08900000  1.0 0.0602972143
O  O135  1  0.08900000  0.14100000  0.70500000  1.0 0.0602972143
O  O136  1  0.29500000  0.91100000  0.14100000  1.0 0.0602972143
O  O137  1  0.29500000  0.08900000  0.85900000  1.0 0.0602972143
O  O138  1  0.70500000  0.91100000  0.85900000  1.0 0.0602972143
O  O139  1  0.14100000  0.29500000  0.91100000  1.0 0.0602972143
O  O140  1  0.85900000  0.29500000  0.08900000  1.0 0.0602972143
O  O141  1  0.85900000  0.70500000  0.91100000  1.0 0.0602972143
O  O142  1  0.91100000  0.14100000  0.29500000  1.0 0.0602972143
O  O143  1  0.08900000  0.85900000  0.29500000  1.0 0.0602972143
O  O144  1  0.91100000  0.85900000  0.70500000  1.0 0.0602972143
O  O145  1  0.79500000  0.41100000  0.35900000  1.0 0.0652995893
O  O146  1  0.35900000  0.79500000  0.41100000  1.0 0.0602972143
O  O147  1  0.41100000  0.35900000  0.79500000  1.0 0.0602972143
O  O148  1  0.20500000  0.58900000  0.35900000  1.0 0.0602972143
O  O149  1  0.20500000  0.41100000  0.64100000  1.0 0.0602972143
O  O150  1  0.79500000  0.58900000  0.64100000  1.0 0.0602972143
O  O151  1  0.35900000  0.20500000  0.58900000  1.0 0.0602972143
O  O152  1  0.64100000  0.20500000  0.41100000  1.0 0.0602972143
O  O153  1  0.64100000  0.79500000  0.58900000  1.0 0.0602972143
O  O154  1  0.58900000  0.35900000  0.20500000  1.0 0.0602972143
O  O155  1  0.41100000  0.64100000  0.20500000  1.0 0.0602972143
O  O156  1  0.58900000  0.64100000  0.79500000  1.0 0.0602972143
O  O157  1  0.63150000  0.13370000  0.15310000  1.0 -0.3047115441
O  O158  1  0.15310000  0.63150000  0.13370000  1.0 -0.3070537185
O  O159  1  0.13370000  0.15310000  0.63150000  1.0 -0.3070537185
O  O160  1  0.36850000  0.86630000  0.15310000  1.0 -0.3070537185
O  O161  1  0.36850000  0.13370000  0.84690000  1.0 -0.3070537185
O  O162  1  0.63150000  0.86630000  0.84690000  1.0 -0.3070537185
O  O163  1  0.15310000  0.36850000  0.86630000  1.0 -0.3070537185
O  O164  1  0.84690000  0.36850000  0.13370000  1.0 -0.3047115441
O  O165  1  0.84690000  0.63150000  0.86630000  1.0 -0.3070537185
O  O166  1  0.86630000  0.15310000  0.36850000  1.0 -0.3047115441
O  O167  1  0.13370000  0.84690000  0.36850000  1.0 -0.3070537185
O  O168  1  0.86630000  0.84690000  0.63150000  1.0 -0.3070537185
O  O169  1  0.86850000  0.36630000  0.34690000  1.0 -0.3047115441
O  O170  1  0.34690000  0.86850000  0.36630000  1.0 -0.3070537185
O  O171  1  0.36630000  0.34690000  0.86850000  1.0 -0.3070537185
O  O172  1  0.13150000  0.63370000  0.34690000  1.0 -0.3070537185
O  O173  1  0.13150000  0.36630000  0.65310000  1.0 -0.3070537185
O  O174  1  0.86850000  0.63370000  0.65310000  1.0 -0.3047115441
O  O175  1  0.34690000  0.13150000  0.63370000  1.0 -0.3070537185
O  O176  1  0.65310000  0.13150000  0.36630000  1.0 -0.3047115441
O  O177  1  0.65310000  0.86850000  0.63370000  1.0 -0.3070537185
O  O178  1  0.63370000  0.34690000  0.13150000  1.0 -0.3070537185
O  O179  1  0.36630000  0.65310000  0.13150000  1.0 -0.3070537185
O  O180  1  0.63370000  0.65310000  0.86850000  1.0 -0.3070537185
