# DDEC6 charges by PACMAN v1.1 (https://github.com/mtap-research/PACMAN-charge/)
data_NALWOO_ASR_pacman
_symmetry_space_group_name_H-M   'P 1'
_cell_length_a   7.31620000
_cell_length_b   19.40400000
_cell_length_c   26.15500000
_cell_angle_alpha   90.00000000
_cell_angle_beta   90.00000000
_cell_angle_gamma   90.00000000
_symmetry_Int_Tables_number   1
_chemical_formula_structural   BaH16(C9O2)3
_chemical_formula_sum   'Ba4 H64 C108 O24'
_cell_volume   3713.05651424
_cell_formula_units_Z   4
loop_
 _symmetry_equiv_pos_site_id
 _symmetry_equiv_pos_as_xyz
  1  'x, y, z'
loop_
 _atom_site_type_symbol
 _atom_site_label
 _atom_site_symmetry_multiplicity
 _atom_site_fract_x
 _atom_site_fract_y
 _atom_site_fract_z
 _atom_site_occupancy
 _atom_site_charge
Ba  Ba1  1  0.60171000  0.30626000  0.00702000  1.0 1.4458597751
Ba  Ba2  1  0.39829000  0.69374000  0.50702000  1.0 1.4437414261
Ba  Ba3  1  0.89829000  0.80626000  0.50702000  1.0 1.4437414261
Ba  Ba4  1  0.10171000  0.19374000  0.00702000  1.0 1.4437414261
H  H1  1  0.86820000  0.87490000  0.97200000  1.0 0.1119531776
H  H2  1  0.13180000  0.12510000  0.47200000  1.0 0.1119531776
H  H3  1  0.63180000  0.37490000  0.47200000  1.0 0.1119531776
H  H4  1  0.36820000  0.62510000  0.97200000  1.0 0.1119531776
H  H5  1  0.87080000  0.77240000  0.01820000  1.0 0.1183020645
H  H6  1  0.12920000  0.22760000  0.51820000  1.0 0.1183020645
H  H7  1  0.62920000  0.27240000  0.51820000  1.0 0.1183020645
H  H8  1  0.37080000  0.72760000  0.01820000  1.0 0.1183020645
H  H9  1  0.02020000  0.68160000  0.05810000  1.0 0.1119531776
H  H10  1  0.97980000  0.31840000  0.55810000  1.0 0.1119531776
H  H11  1  0.47980000  0.18160000  0.55810000  1.0 0.1119531776
H  H12  1  0.52020000  0.81840000  0.05810000  1.0 0.1119531776
H  H13  1  0.72910000  0.59050000  0.24960000  1.0 0.1119531776
H  H14  1  0.27090000  0.40950000  0.74960000  1.0 0.1119531776
H  H15  1  0.77090000  0.09050000  0.74960000  1.0 0.1119531776
H  H16  1  0.22910000  0.90950000  0.24960000  1.0 0.1119531776
H  H17  1  0.93030000  0.78160000  0.27030000  1.0 0.1119531776
H  H18  1  0.06970000  0.21840000  0.77030000  1.0 0.1119531776
H  H19  1  0.56970000  0.28160000  0.77030000  1.0 0.1119531776
H  H20  1  0.43030000  0.71840000  0.27030000  1.0 0.1119531776
H  H21  1  0.97000000  0.58660000  0.19450000  1.0 0.1119531776
H  H22  1  0.03000000  0.41340000  0.69450000  1.0 0.1119531776
H  H23  1  0.53000000  0.08660000  0.69450000  1.0 0.1119531776
H  H24  1  0.47000000  0.91340000  0.19450000  1.0 0.1119531776
H  H25  1  0.62840000  0.58700000  0.33220000  1.0 0.1183020645
H  H26  1  0.37160000  0.41300000  0.83220000  1.0 0.1183020645
H  H27  1  0.87160000  0.08700000  0.83220000  1.0 0.1183020645
H  H28  1  0.12840000  0.91300000  0.33220000  1.0 0.1183020645
H  H29  1  0.86930000  0.79000000  0.18250000  1.0 0.1183020645
H  H30  1  0.13070000  0.21000000  0.68250000  1.0 0.1183020645
H  H31  1  0.63070000  0.29000000  0.68250000  1.0 0.1183020645
H  H32  1  0.36930000  0.71000000  0.18250000  1.0 0.1183020645
H  H33  1  0.83220000  0.77890000  0.35560000  1.0 0.1183020645
H  H34  1  0.16780000  0.22110000  0.85560000  1.0 0.1183020645
H  H35  1  0.66780000  0.27890000  0.85560000  1.0 0.1183020645
H  H36  1  0.33220000  0.72110000  0.35560000  1.0 0.1183020645
H  H37  1  0.97260000  0.02370000  0.93580000  1.0 0.3737937661
H  H38  1  0.02740000  0.97630000  0.43580000  1.0 0.3737937661
H  H39  1  0.52740000  0.52370000  0.43580000  1.0 0.3737937661
H  H40  1  0.47260000  0.47630000  0.93580000  1.0 0.3737937661
H  H41  1  0.06640000  0.87250000  0.14130000  1.0 0.1119531776
H  H42  1  0.93360000  0.12750000  0.64130000  1.0 0.1119531776
H  H43  1  0.43360000  0.37250000  0.64130000  1.0 0.1119531776
H  H44  1  0.56640000  0.62750000  0.14130000  1.0 0.1119531776
H  H45  1  0.20340000  0.52070000  0.15560000  1.0 0.1119531776
H  H46  1  0.79660000  0.47930000  0.65560000  1.0 0.1119531776
H  H47  1  0.29660000  0.02070000  0.65560000  1.0 0.1119531776
H  H48  1  0.70340000  0.97930000  0.15560000  1.0 0.1119531776
H  H49  1  0.91120000  0.57130000  0.03170000  1.0 0.1119531776
H  H50  1  0.08880000  0.42870000  0.53170000  1.0 0.1119531776
H  H51  1  0.58880000  0.07130000  0.53170000  1.0 0.1119531776
H  H52  1  0.41120000  0.92870000  0.03170000  1.0 0.1119531776
H  H53  1  0.24980000  0.41040000  0.12200000  1.0 0.1183020645
H  H54  1  0.75020000  0.58960000  0.62200000  1.0 0.1183020645
H  H55  1  0.25020000  0.91040000  0.62200000  1.0 0.1183020645
H  H56  1  0.74980000  0.08960000  0.12200000  1.0 0.1183020645
H  H57  1  0.07620000  0.97270000  0.09470000  1.0 0.1119531776
H  H58  1  0.92380000  0.02730000  0.59470000  1.0 0.1119531776
H  H59  1  0.42380000  0.47270000  0.59470000  1.0 0.1119531776
H  H60  1  0.57620000  0.52730000  0.09470000  1.0 0.1119531776
H  H61  1  0.94180000  0.46250000  0.00000000  1.0 0.1183020645
H  H62  1  0.05820000  0.53750000  0.50000000  1.0 0.1183020645
H  H63  1  0.55820000  0.96250000  0.50000000  1.0 0.1183020645
H  H64  1  0.44180000  0.03750000  0.00000000  1.0 0.1183020645
C  C1  1  0.90210000  0.68840000  0.19620000  1.0 0.079482183
C  C2  1  0.09790000  0.31160000  0.69620000  1.0 0.079482183
C  C3  1  0.59790000  0.18840000  0.69620000  1.0 0.079482183
C  C4  1  0.40210000  0.81160000  0.19620000  1.0 0.079482183
C  C5  1  0.91030000  0.87450000  0.00600000  1.0 -0.1019593755
C  C6  1  0.08970000  0.12550000  0.50600000  1.0 -0.1019593755
C  C7  1  0.58970000  0.37450000  0.50600000  1.0 -0.1019593755
C  C8  1  0.41030000  0.62550000  0.00600000  1.0 -0.1019593755
C  C9  1  0.90790000  0.81340000  0.03440000  1.0 -0.1596311279
C  C10  1  0.09210000  0.18660000  0.53440000  1.0 -0.1596311279
C  C11  1  0.59210000  0.31340000  0.53440000  1.0 -0.1596311279
C  C12  1  0.40790000  0.68660000  0.03440000  1.0 -0.1596311279
C  C13  1  0.84210000  0.68700000  0.25120000  1.0 0.0688135319
C  C14  1  0.15790000  0.31300000  0.75120000  1.0 0.0688135319
C  C15  1  0.65790000  0.18700000  0.75120000  1.0 0.0688135319
C  C16  1  0.34210000  0.81300000  0.25120000  1.0 0.0688135319
C  C17  1  0.73230000  0.68400000  0.35430000  1.0 -0.0228770832
C  C18  1  0.26770000  0.31600000  0.85430000  1.0 -0.0228770832
C  C19  1  0.76770000  0.18400000  0.85430000  1.0 -0.0228770832
C  C20  1  0.23230000  0.81600000  0.35430000  1.0 -0.0228770832
C  C21  1  0.99520000  0.68340000  0.09340000  1.0 -0.1906873135
C  C22  1  0.00480000  0.31660000  0.59340000  1.0 -0.1906873135
C  C23  1  0.50480000  0.18340000  0.59340000  1.0 -0.1906873135
C  C24  1  0.49520000  0.81660000  0.09340000  1.0 -0.1906873135
C  C25  1  0.75040000  0.62840000  0.27120000  1.0 -0.1596311279
C  C26  1  0.24960000  0.37160000  0.77120000  1.0 -0.1596311279
C  C27  1  0.74960000  0.12840000  0.77120000  1.0 -0.1596311279
C  C28  1  0.25040000  0.87160000  0.27120000  1.0 -0.1596311279
C  C29  1  0.87130000  0.74210000  0.28300000  1.0 -0.152057019
C  C30  1  0.12870000  0.25790000  0.78300000  1.0 -0.152057019
C  C31  1  0.62870000  0.24210000  0.78300000  1.0 -0.152057019
C  C32  1  0.37130000  0.75790000  0.28300000  1.0 -0.152057019
C  C33  1  0.96020000  0.62650000  0.17440000  1.0 -0.2151449991
C  C34  1  0.03980000  0.37350000  0.67440000  1.0 -0.2151449991
C  C35  1  0.53980000  0.12650000  0.67440000  1.0 -0.2151449991
C  C36  1  0.46020000  0.87350000  0.17440000  1.0 -0.2151449991
C  C37  1  0.00430000  0.62430000  0.12180000  1.0 0.0865669513
C  C38  1  0.99570000  0.37570000  0.62180000  1.0 0.0865669513
C  C39  1  0.49570000  0.12430000  0.62180000  1.0 0.0865669513
C  C40  1  0.50430000  0.87570000  0.12180000  1.0 0.0865669513
C  C41  1  0.69270000  0.62560000  0.32010000  1.0 -0.0912648787
C  C42  1  0.30730000  0.37440000  0.82010000  1.0 -0.0912648787
C  C43  1  0.80730000  0.12560000  0.82010000  1.0 -0.0912648787
C  C44  1  0.19270000  0.87440000  0.32010000  1.0 -0.0912648787
C  C45  1  0.90200000  0.74790000  0.16720000  1.0 -0.1906873135
C  C46  1  0.09800000  0.25210000  0.66720000  1.0 -0.1906873135
C  C47  1  0.59800000  0.24790000  0.66720000  1.0 -0.1906873135
C  C48  1  0.40200000  0.75210000  0.16720000  1.0 -0.1906873135
C  C49  1  0.94910000  0.74680000  0.11610000  1.0 0.079482183
C  C50  1  0.05090000  0.25320000  0.61610000  1.0 0.079482183
C  C51  1  0.55090000  0.24680000  0.61610000  1.0 0.079482183
C  C52  1  0.44910000  0.75320000  0.11610000  1.0 0.079482183
C  C53  1  0.95880000  0.81090000  0.08600000  1.0 0.079482183
C  C54  1  0.04120000  0.18910000  0.58600000  1.0 0.079482183
C  C55  1  0.54120000  0.31090000  0.58600000  1.0 0.079482183
C  C56  1  0.45880000  0.68910000  0.08600000  1.0 0.079482183
C  C57  1  0.81340000  0.74010000  0.33470000  1.0 -0.0912648787
C  C58  1  0.18660000  0.25990000  0.83470000  1.0 -0.0912648787
C  C59  1  0.68660000  0.24010000  0.83470000  1.0 -0.0912648787
C  C60  1  0.31340000  0.75990000  0.33470000  1.0 -0.0912648787
C  C61  1  0.66460000  0.68190000  0.40880000  1.0 0.5833166989
C  C62  1  0.33540000  0.31810000  0.90880000  1.0 0.5833166989
C  C63  1  0.83540000  0.18190000  0.90880000  1.0 0.5833166989
C  C64  1  0.16460000  0.81810000  0.40880000  1.0 0.5833166989
C  C65  1  0.98620000  0.00040000  0.00130000  1.0 0.5638829024
C  C66  1  0.01380000  0.99960000  0.50130000  1.0 0.5638829024
C  C67  1  0.51380000  0.50040000  0.50130000  1.0 0.5638829024
C  C68  1  0.48620000  0.49960000  0.00130000  1.0 0.5638829024
C  C69  1  0.97530000  0.93440000  0.02840000  1.0 -0.0658804959
C  C70  1  0.02470000  0.06560000  0.52840000  1.0 -0.0658804959
C  C71  1  0.52470000  0.43440000  0.52840000  1.0 -0.0658804959
C  C72  1  0.47530000  0.56560000  0.02840000  1.0 -0.0658804959
C  C73  1  0.04840000  0.55560000  0.09850000  1.0 0.0688135319
C  C74  1  0.95160000  0.44440000  0.59850000  1.0 0.0688135319
C  C75  1  0.45160000  0.05560000  0.59850000  1.0 0.0688135319
C  C76  1  0.54840000  0.94440000  0.09850000  1.0 0.0688135319
C  C77  1  0.02540000  0.87230000  0.10720000  1.0 -0.152057019
C  C78  1  0.97460000  0.12770000  0.60720000  1.0 -0.152057019
C  C79  1  0.47460000  0.37230000  0.60720000  1.0 -0.152057019
C  C80  1  0.52540000  0.62770000  0.10720000  1.0 -0.152057019
C  C81  1  0.15040000  0.50870000  0.12410000  1.0 -0.1596311279
C  C82  1  0.84960000  0.49130000  0.62410000  1.0 -0.152057019
C  C83  1  0.34960000  0.00870000  0.62410000  1.0 -0.152057019
C  C84  1  0.65040000  0.99130000  0.12410000  1.0 -0.152057019
C  C85  1  0.97540000  0.53810000  0.05070000  1.0 -0.1376426703
C  C86  1  0.02460000  0.46190000  0.55070000  1.0 -0.1376426703
C  C87  1  0.52460000  0.03810000  0.55070000  1.0 -0.1376426703
C  C88  1  0.47540000  0.96190000  0.05070000  1.0 -0.1376426703
C  C89  1  0.17780000  0.44250000  0.10420000  1.0 -0.0912648787
C  C90  1  0.82220000  0.55750000  0.60420000  1.0 -0.0912648787
C  C91  1  0.32220000  0.94250000  0.60420000  1.0 -0.0912648787
C  C92  1  0.67780000  0.05750000  0.10420000  1.0 -0.0912648787
C  C93  1  0.03220000  0.93220000  0.07920000  1.0 -0.0912648787
C  C94  1  0.96780000  0.06780000  0.57920000  1.0 -0.0912648787
C  C95  1  0.46780000  0.43220000  0.57920000  1.0 -0.0912648787
C  C96  1  0.53220000  0.56780000  0.07920000  1.0 -0.0912648787
C  C97  1  0.99640000  0.47390000  0.03140000  1.0 -0.083689153
C  C98  1  0.00360000  0.52610000  0.53140000  1.0 -0.083689153
C  C99  1  0.50360000  0.97390000  0.53140000  1.0 -0.083689153
C  C100  1  0.49640000  0.02610000  0.03140000  1.0 -0.083689153
C  C101  1  0.09780000  0.42430000  0.05760000  1.0 -0.0228770832
C  C102  1  0.90220000  0.57570000  0.55760000  1.0 -0.0228770832
C  C103  1  0.40220000  0.92430000  0.55760000  1.0 -0.0228770832
C  C104  1  0.59780000  0.07570000  0.05760000  1.0 -0.0228770832
C  C105  1  0.10920000  0.35030000  0.03920000  1.0 0.6002136918
C  C106  1  0.89080000  0.64970000  0.53920000  1.0 0.6002136918
C  C107  1  0.39080000  0.85030000  0.53920000  1.0 0.6002136918
C  C108  1  0.60920000  0.14970000  0.03920000  1.0 0.6002136918
O  O1  1  0.25030000  0.31690000  0.04830000  1.0 -0.6367515473
O  O2  1  0.74970000  0.68310000  0.54830000  1.0 -0.6367515473
O  O3  1  0.24970000  0.81690000  0.54830000  1.0 -0.6367515473
O  O4  1  0.75030000  0.18310000  0.04830000  1.0 -0.6367515473
O  O5  1  0.97320000  0.32830000  0.01430000  1.0 -0.655544564
O  O6  1  0.02680000  0.67170000  0.51430000  1.0 -0.655544564
O  O7  1  0.52680000  0.82830000  0.51430000  1.0 -0.655544564
O  O8  1  0.47320000  0.17170000  0.01430000  1.0 -0.655544564
O  O9  1  0.06090000  0.05190000  0.01990000  1.0 -0.5757567136
O  O10  1  0.93910000  0.94810000  0.51990000  1.0 -0.5757567136
O  O11  1  0.43910000  0.55190000  0.51990000  1.0 -0.5757567136
O  O12  1  0.56090000  0.44810000  0.01990000  1.0 -0.5757567136
O  O13  1  0.57080000  0.62960000  0.42290000  1.0 -0.6367515473
O  O14  1  0.42920000  0.37040000  0.92290000  1.0 -0.6367515473
O  O15  1  0.92920000  0.12960000  0.92290000  1.0 -0.6367515473
O  O16  1  0.07080000  0.87040000  0.42290000  1.0 -0.6367515473
O  O17  1  0.69310000  0.73320000  0.43613000  1.0 -0.6127627639
O  O18  1  0.30690000  0.26680000  0.93613000  1.0 -0.6127627639
O  O19  1  0.80690000  0.23320000  0.93613000  1.0 -0.6127627639
O  O20  1  0.19310000  0.76680000  0.43613000  1.0 -0.6127627639
O  O21  1  0.90740000  0.00180000  0.95610000  1.0 -0.4550927428
O  O22  1  0.09260000  0.99820000  0.45610000  1.0 -0.4531285463
O  O23  1  0.59260000  0.50180000  0.45610000  1.0 -0.4550927428
O  O24  1  0.40740000  0.49820000  0.95610000  1.0 -0.4531285463
