# DDEC6 charges by PACMAN v1.1 (https://github.com/mtap-research/PACMAN-charge/)
data_NAMGAN_ASR_pacman
_symmetry_space_group_name_H-M   'P 1'
_cell_length_a   27.30320000
_cell_length_b   27.30320000
_cell_length_c   20.75790000
_cell_angle_alpha   90.00000000
_cell_angle_beta   90.00000000
_cell_angle_gamma   90.00000000
_symmetry_Int_Tables_number   1
_chemical_formula_structural   Zn2H31(C27O4)2
_chemical_formula_sum   'Zn16 H248 C432 O64'
_cell_volume   15474.28232385
_cell_formula_units_Z   8
loop_
 _symmetry_equiv_pos_site_id
 _symmetry_equiv_pos_as_xyz
  1  'x, y, z'
loop_
 _atom_site_type_symbol
 _atom_site_label
 _atom_site_symmetry_multiplicity
 _atom_site_fract_x
 _atom_site_fract_y
 _atom_site_fract_z
 _atom_site_occupancy
 _atom_site_charge
Zn  Zn1  1  0.24355000  0.75796000  0.61299000  1.0 0.9351553964
Zn  Zn2  1  0.24751000  0.75532000  0.47111000  1.0 0.9337499614
Zn  Zn3  1  0.75645000  0.24204000  0.61299000  1.0 0.9351553964
Zn  Zn4  1  0.75249000  0.24468000  0.47111000  1.0 0.9337499614
Zn  Zn5  1  0.25796000  0.74355000  0.88701000  1.0 0.9337499614
Zn  Zn6  1  0.25532000  0.74751000  0.02889000  1.0 0.9337499614
Zn  Zn7  1  0.74204000  0.25645000  0.88701000  1.0 0.9337499614
Zn  Zn8  1  0.74468000  0.25249000  0.02889000  1.0 0.9337499614
Zn  Zn9  1  0.75796000  0.75645000  0.38701000  1.0 0.9337499614
Zn  Zn10  1  0.75532000  0.75249000  0.52889000  1.0 0.9337499614
Zn  Zn11  1  0.24204000  0.24355000  0.38701000  1.0 0.9337499614
Zn  Zn12  1  0.24468000  0.24751000  0.52889000  1.0 0.9337499614
Zn  Zn13  1  0.74355000  0.74204000  0.11299000  1.0 0.9337499614
Zn  Zn14  1  0.74751000  0.74468000  0.97111000  1.0 0.9337499614
Zn  Zn15  1  0.25645000  0.25796000  0.11299000  1.0 0.9337499614
Zn  Zn16  1  0.25249000  0.25532000  0.97111000  1.0 0.9337499614
H  H1  1  0.30743000  0.61113000  0.64858000  1.0 0.1281842167
H  H2  1  0.35697000  0.54157000  0.64953000  1.0 0.1105700091
H  H3  1  0.39980000  0.51823000  0.55656000  1.0 0.1037115397
H  H4  1  0.34356000  0.63307000  0.45983000  1.0 0.1200645108
H  H5  1  0.40460000  0.48661000  0.45749000  1.0 0.1105700091
H  H6  1  0.44923000  0.46460000  0.36655000  1.0 0.1105700091
H  H7  1  0.45493000  0.60785000  0.31263000  1.0 0.1200645108
H  H8  1  0.41114000  0.62912000  0.40615000  1.0 0.1200645108
H  H9  1  0.54143000  0.55250000  0.17796000  1.0 0.1105700091
H  H10  1  0.52297000  0.59127000  0.08114000  1.0 0.1105700091
H  H11  1  0.37896000  0.58431000  0.12380000  1.0 0.1200645108
H  H12  1  0.39689000  0.54632000  0.22025000  1.0 0.1200645108
H  H13  1  0.49442000  0.58953000  0.97614000  1.0 0.1105700091
H  H14  1  0.47506000  0.63001000  0.87896000  1.0 0.1200645108
H  H15  1  0.37651000  0.65234000  0.06158000  1.0 0.1281842167
H  H16  1  0.39357000  0.81691000  0.63737000  1.0 0.1281842167
H  H17  1  0.46700000  0.86269000  0.63389000  1.0 0.1105700091
H  H18  1  0.48891000  0.90329000  0.54073000  1.0 0.1105700091
H  H19  1  0.36589000  0.85274000  0.45345000  1.0 0.1281842167
H  H20  1  0.51574000  0.90682000  0.44079000  1.0 0.1105700091
H  H21  1  0.53816000  0.94841000  0.34674000  1.0 0.1105700091
H  H22  1  0.39547000  0.95627000  0.29390000  1.0 0.1200645108
H  H23  1  0.37305000  0.91467000  0.38794000  1.0 0.1200645108
H  H24  1  0.10141000  0.68819000  0.63330000  1.0 0.1281842167
H  H25  1  0.03261000  0.63625000  0.63135000  1.0 0.1105700091
H  H26  1  0.01161000  0.59387000  0.53911000  1.0 0.1105700091
H  H27  1  0.12726000  0.65397000  0.44593000  1.0 0.1200645108
H  H28  1  0.98216000  0.59370000  0.43483000  1.0 0.1105700091
H  H29  1  0.96109000  0.55301000  0.34178000  1.0 0.1105700091
H  H30  1  0.10496000  0.54310000  0.29220000  1.0 0.1200645108
H  H31  1  0.12605000  0.58428000  0.38630000  1.0 0.1200645108
H  H32  1  0.69257000  0.38887000  0.64858000  1.0 0.1281842167
H  H33  1  0.64303000  0.45843000  0.64953000  1.0 0.1105700091
H  H34  1  0.60020000  0.48177000  0.55656000  1.0 0.1037115397
H  H35  1  0.65644000  0.36693000  0.45983000  1.0 0.1200645108
H  H36  1  0.59540000  0.51339000  0.45749000  1.0 0.1105700091
H  H37  1  0.55077000  0.53540000  0.36655000  1.0 0.1105700091
H  H38  1  0.54507000  0.39215000  0.31263000  1.0 0.1200645108
H  H39  1  0.58886000  0.37088000  0.40615000  1.0 0.1200645108
H  H40  1  0.45857000  0.44750000  0.17796000  1.0 0.1105700091
H  H41  1  0.47703000  0.40873000  0.08114000  1.0 0.1105700091
H  H42  1  0.62104000  0.41569000  0.12380000  1.0 0.1200645108
H  H43  1  0.60311000  0.45368000  0.22025000  1.0 0.1200645108
H  H44  1  0.50558000  0.41047000  0.97614000  1.0 0.1105700091
H  H45  1  0.52494000  0.36999000  0.87896000  1.0 0.1200645108
H  H46  1  0.62349000  0.34766000  0.06158000  1.0 0.1281842167
H  H47  1  0.60643000  0.18309000  0.63737000  1.0 0.1281842167
H  H48  1  0.53300000  0.13731000  0.63389000  1.0 0.1105700091
H  H49  1  0.51109000  0.09671000  0.54073000  1.0 0.1105700091
H  H50  1  0.63411000  0.14726000  0.45345000  1.0 0.1281842167
H  H51  1  0.48426000  0.09318000  0.44079000  1.0 0.1105700091
H  H52  1  0.46184000  0.05159000  0.34674000  1.0 0.1105700091
H  H53  1  0.60453000  0.04373000  0.29390000  1.0 0.1200645108
H  H54  1  0.62695000  0.08533000  0.38794000  1.0 0.1200645108
H  H55  1  0.89859000  0.31181000  0.63330000  1.0 0.1281842167
H  H56  1  0.96739000  0.36375000  0.63135000  1.0 0.1105700091
H  H57  1  0.98839000  0.40613000  0.53911000  1.0 0.1105700091
H  H58  1  0.87274000  0.34603000  0.44593000  1.0 0.1200645108
H  H59  1  0.01784000  0.40630000  0.43483000  1.0 0.1105700091
H  H60  1  0.03891000  0.44699000  0.34178000  1.0 0.1105700091
H  H61  1  0.89504000  0.45690000  0.29220000  1.0 0.1200645108
H  H62  1  0.87395000  0.41572000  0.38630000  1.0 0.1200645108
H  H63  1  0.11113000  0.80743000  0.85142000  1.0 0.1281842167
H  H64  1  0.04157000  0.85697000  0.85047000  1.0 0.1105700091
H  H65  1  0.01823000  0.89980000  0.94344000  1.0 0.1037115397
H  H66  1  0.13307000  0.84356000  0.04017000  1.0 0.1200645108
H  H67  1  0.98661000  0.90460000  0.04251000  1.0 0.1105700091
H  H68  1  0.96460000  0.94923000  0.13345000  1.0 0.1105700091
H  H69  1  0.10785000  0.95493000  0.18737000  1.0 0.1200645108
H  H70  1  0.12912000  0.91114000  0.09385000  1.0 0.1200645108
H  H71  1  0.05250000  0.04143000  0.32204000  1.0 0.1105700091
H  H72  1  0.09127000  0.02297000  0.41886000  1.0 0.1105700091
H  H73  1  0.08431000  0.87896000  0.37620000  1.0 0.1200645108
H  H74  1  0.04632000  0.89689000  0.27975000  1.0 0.1200645108
H  H75  1  0.08953000  0.99442000  0.52386000  1.0 0.1105700091
H  H76  1  0.13001000  0.97506000  0.62104000  1.0 0.1200645108
H  H77  1  0.15234000  0.87651000  0.43842000  1.0 0.1281842167
H  H78  1  0.31691000  0.89357000  0.86263000  1.0 0.1281842167
H  H79  1  0.36269000  0.96700000  0.86611000  1.0 0.1105700091
H  H80  1  0.40329000  0.98891000  0.95927000  1.0 0.1105700091
H  H81  1  0.35274000  0.86589000  0.04655000  1.0 0.1281842167
H  H82  1  0.40682000  0.01574000  0.05921000  1.0 0.1105700091
H  H83  1  0.44841000  0.03816000  0.15326000  1.0 0.1105700091
H  H84  1  0.45627000  0.89547000  0.20610000  1.0 0.1200645108
H  H85  1  0.41467000  0.87305000  0.11206000  1.0 0.1200645108
H  H86  1  0.18819000  0.60141000  0.86670000  1.0 0.1281842167
H  H87  1  0.13625000  0.53261000  0.86865000  1.0 0.1105700091
H  H88  1  0.09387000  0.51161000  0.96089000  1.0 0.1105700091
H  H89  1  0.15397000  0.62726000  0.05407000  1.0 0.1200645108
H  H90  1  0.09370000  0.48216000  0.06517000  1.0 0.1105700091
H  H91  1  0.05301000  0.46109000  0.15822000  1.0 0.1105700091
H  H92  1  0.04310000  0.60496000  0.20780000  1.0 0.1200645108
H  H93  1  0.08428000  0.62605000  0.11370000  1.0 0.1200645108
H  H94  1  0.88887000  0.19257000  0.85142000  1.0 0.1281842167
H  H95  1  0.95843000  0.14303000  0.85047000  1.0 0.1105700091
H  H96  1  0.98177000  0.10020000  0.94344000  1.0 0.1037115397
H  H97  1  0.86693000  0.15644000  0.04017000  1.0 0.1200645108
H  H98  1  0.01339000  0.09540000  0.04251000  1.0 0.1105700091
H  H99  1  0.03540000  0.05077000  0.13345000  1.0 0.1037115397
H  H100  1  0.89215000  0.04507000  0.18737000  1.0 0.1200645108
H  H101  1  0.87088000  0.08886000  0.09385000  1.0 0.1200645108
H  H102  1  0.94750000  0.95857000  0.32204000  1.0 0.1105700091
H  H103  1  0.90873000  0.97703000  0.41886000  1.0 0.1105700091
H  H104  1  0.91569000  0.12104000  0.37620000  1.0 0.1200645108
H  H105  1  0.95368000  0.10311000  0.27975000  1.0 0.1200645108
H  H106  1  0.91047000  0.00558000  0.52386000  1.0 0.1105700091
H  H107  1  0.86999000  0.02494000  0.62104000  1.0 0.1200645108
H  H108  1  0.84766000  0.12349000  0.43842000  1.0 0.1281842167
H  H109  1  0.68309000  0.10643000  0.86263000  1.0 0.1281842167
H  H110  1  0.63731000  0.03300000  0.86611000  1.0 0.1105700091
H  H111  1  0.59671000  0.01109000  0.95927000  1.0 0.1105700091
H  H112  1  0.64726000  0.13411000  0.04655000  1.0 0.1281842167
H  H113  1  0.59318000  0.98426000  0.05921000  1.0 0.1105700091
H  H114  1  0.55159000  0.96184000  0.15326000  1.0 0.1105700091
H  H115  1  0.54373000  0.10453000  0.20610000  1.0 0.1200645108
H  H116  1  0.58533000  0.12695000  0.11206000  1.0 0.1200645108
H  H117  1  0.81181000  0.39859000  0.86670000  1.0 0.1281842167
H  H118  1  0.86375000  0.46739000  0.86865000  1.0 0.1105700091
H  H119  1  0.90613000  0.48839000  0.96089000  1.0 0.1105700091
H  H120  1  0.84603000  0.37274000  0.05407000  1.0 0.1200645108
H  H121  1  0.90630000  0.51784000  0.06517000  1.0 0.1105700091
H  H122  1  0.94699000  0.53891000  0.15822000  1.0 0.1105700091
H  H123  1  0.95690000  0.39504000  0.20780000  1.0 0.1200645108
H  H124  1  0.91572000  0.37395000  0.11370000  1.0 0.1200645108
H  H125  1  0.61113000  0.69257000  0.35142000  1.0 0.1281842167
H  H126  1  0.54157000  0.64303000  0.35047000  1.0 0.1105700091
H  H127  1  0.51823000  0.60020000  0.44344000  1.0 0.1037115397
H  H128  1  0.63307000  0.65644000  0.54017000  1.0 0.1200645108
H  H129  1  0.48661000  0.59540000  0.54251000  1.0 0.1105700091
H  H130  1  0.46460000  0.55077000  0.63345000  1.0 0.1105700091
H  H131  1  0.60785000  0.54507000  0.68737000  1.0 0.1200645108
H  H132  1  0.62912000  0.58886000  0.59385000  1.0 0.1200645108
H  H133  1  0.55250000  0.45857000  0.82204000  1.0 0.1105700091
H  H134  1  0.59127000  0.47703000  0.91886000  1.0 0.1105700091
H  H135  1  0.58431000  0.62104000  0.87620000  1.0 0.1200645108
H  H136  1  0.54632000  0.60311000  0.77975000  1.0 0.1200645108
H  H137  1  0.58953000  0.50558000  0.02386000  1.0 0.1105700091
H  H138  1  0.63001000  0.52494000  0.12104000  1.0 0.1200645108
H  H139  1  0.65234000  0.62349000  0.93842000  1.0 0.1281842167
H  H140  1  0.81691000  0.60643000  0.36263000  1.0 0.1281842167
H  H141  1  0.86269000  0.53300000  0.36611000  1.0 0.1105700091
H  H142  1  0.90329000  0.51109000  0.45927000  1.0 0.1105700091
H  H143  1  0.85274000  0.63411000  0.54655000  1.0 0.1281842167
H  H144  1  0.90682000  0.48426000  0.55921000  1.0 0.1105700091
H  H145  1  0.94841000  0.46184000  0.65326000  1.0 0.1105700091
H  H146  1  0.95627000  0.60453000  0.70610000  1.0 0.1200645108
H  H147  1  0.91467000  0.62695000  0.61206000  1.0 0.1200645108
H  H148  1  0.68819000  0.89859000  0.36670000  1.0 0.1281842167
H  H149  1  0.63625000  0.96739000  0.36865000  1.0 0.1105700091
H  H150  1  0.59387000  0.98839000  0.46089000  1.0 0.1105700091
H  H151  1  0.65397000  0.87274000  0.55407000  1.0 0.1200645108
H  H152  1  0.59370000  0.01784000  0.56517000  1.0 0.1105700091
H  H153  1  0.55301000  0.03891000  0.65822000  1.0 0.1105700091
H  H154  1  0.54310000  0.89504000  0.70780000  1.0 0.1200645108
H  H155  1  0.58428000  0.87395000  0.61370000  1.0 0.1200645108
H  H156  1  0.38887000  0.30743000  0.35142000  1.0 0.1281842167
H  H157  1  0.45843000  0.35697000  0.35047000  1.0 0.1105700091
H  H158  1  0.48177000  0.39980000  0.44344000  1.0 0.1037115397
H  H159  1  0.36693000  0.34356000  0.54017000  1.0 0.1200645108
H  H160  1  0.51339000  0.40460000  0.54251000  1.0 0.1105700091
H  H161  1  0.53540000  0.44923000  0.63345000  1.0 0.1105700091
H  H162  1  0.39215000  0.45493000  0.68737000  1.0 0.1200645108
H  H163  1  0.37088000  0.41114000  0.59385000  1.0 0.1200645108
H  H164  1  0.44750000  0.54143000  0.82204000  1.0 0.1105700091
H  H165  1  0.40873000  0.52297000  0.91886000  1.0 0.1105700091
H  H166  1  0.41569000  0.37896000  0.87620000  1.0 0.1200645108
H  H167  1  0.45368000  0.39689000  0.77975000  1.0 0.1200645108
H  H168  1  0.41047000  0.49442000  0.02386000  1.0 0.1105700091
H  H169  1  0.36999000  0.47506000  0.12104000  1.0 0.1200645108
H  H170  1  0.34766000  0.37651000  0.93842000  1.0 0.1281842167
H  H171  1  0.18309000  0.39357000  0.36263000  1.0 0.1281842167
H  H172  1  0.13731000  0.46700000  0.36611000  1.0 0.1105700091
H  H173  1  0.09671000  0.48891000  0.45927000  1.0 0.1105700091
H  H174  1  0.14726000  0.36589000  0.54655000  1.0 0.1281842167
H  H175  1  0.09318000  0.51574000  0.55921000  1.0 0.1105700091
H  H176  1  0.05159000  0.53816000  0.65326000  1.0 0.1105700091
H  H177  1  0.04373000  0.39547000  0.70610000  1.0 0.1200645108
H  H178  1  0.08533000  0.37305000  0.61206000  1.0 0.1200645108
H  H179  1  0.31181000  0.10141000  0.36670000  1.0 0.1281842167
H  H180  1  0.36375000  0.03261000  0.36865000  1.0 0.1105700091
H  H181  1  0.40613000  0.01161000  0.46089000  1.0 0.1105700091
H  H182  1  0.34603000  0.12726000  0.55407000  1.0 0.1200645108
H  H183  1  0.40630000  0.98216000  0.56517000  1.0 0.1105700091
H  H184  1  0.44699000  0.96109000  0.65822000  1.0 0.1105700091
H  H185  1  0.45690000  0.10496000  0.70780000  1.0 0.1200645108
H  H186  1  0.41572000  0.12605000  0.61370000  1.0 0.1200645108
H  H187  1  0.80743000  0.88887000  0.14858000  1.0 0.1281842167
H  H188  1  0.85697000  0.95843000  0.14953000  1.0 0.1105700091
H  H189  1  0.89980000  0.98177000  0.05656000  1.0 0.1037115397
H  H190  1  0.84356000  0.86693000  0.95983000  1.0 0.1200645108
H  H191  1  0.90460000  0.01339000  0.95749000  1.0 0.1105700091
H  H192  1  0.94923000  0.03540000  0.86655000  1.0 0.1037115397
H  H193  1  0.95493000  0.89215000  0.81263000  1.0 0.1200645108
H  H194  1  0.91114000  0.87088000  0.90615000  1.0 0.1200645108
H  H195  1  0.04143000  0.94750000  0.67796000  1.0 0.1105700091
H  H196  1  0.02297000  0.90873000  0.58114000  1.0 0.1105700091
H  H197  1  0.87896000  0.91569000  0.62380000  1.0 0.1200645108
H  H198  1  0.89689000  0.95368000  0.72025000  1.0 0.1200645108
H  H199  1  0.99442000  0.91047000  0.47614000  1.0 0.1105700091
H  H200  1  0.97506000  0.86999000  0.37896000  1.0 0.1200645108
H  H201  1  0.87651000  0.84766000  0.56158000  1.0 0.1281842167
H  H202  1  0.89357000  0.68309000  0.13737000  1.0 0.1281842167
H  H203  1  0.96700000  0.63731000  0.13389000  1.0 0.1105700091
H  H204  1  0.98891000  0.59671000  0.04073000  1.0 0.1105700091
H  H205  1  0.86589000  0.64726000  0.95345000  1.0 0.1281842167
H  H206  1  0.01574000  0.59318000  0.94079000  1.0 0.1105700091
H  H207  1  0.03816000  0.55159000  0.84674000  1.0 0.1105700091
H  H208  1  0.89547000  0.54373000  0.79390000  1.0 0.1200645108
H  H209  1  0.87305000  0.58533000  0.88794000  1.0 0.1200645108
H  H210  1  0.60141000  0.81181000  0.13330000  1.0 0.1281842167
H  H211  1  0.53261000  0.86375000  0.13135000  1.0 0.1105700091
H  H212  1  0.51161000  0.90613000  0.03911000  1.0 0.1105700091
H  H213  1  0.62726000  0.84603000  0.94593000  1.0 0.1200645108
H  H214  1  0.48216000  0.90630000  0.93483000  1.0 0.1105700091
H  H215  1  0.46109000  0.94699000  0.84178000  1.0 0.1105700091
H  H216  1  0.60496000  0.95690000  0.79220000  1.0 0.1200645108
H  H217  1  0.62605000  0.91572000  0.88630000  1.0 0.1200645108
H  H218  1  0.19257000  0.11113000  0.14858000  1.0 0.1281842167
H  H219  1  0.14303000  0.04157000  0.14953000  1.0 0.1105700091
H  H220  1  0.10020000  0.01823000  0.05656000  1.0 0.1037115397
H  H221  1  0.15644000  0.13307000  0.95983000  1.0 0.1200645108
H  H222  1  0.09540000  0.98661000  0.95749000  1.0 0.1105700091
H  H223  1  0.05077000  0.96460000  0.86655000  1.0 0.1105700091
H  H224  1  0.04507000  0.10785000  0.81263000  1.0 0.1200645108
H  H225  1  0.08886000  0.12912000  0.90615000  1.0 0.1200645108
H  H226  1  0.95857000  0.05250000  0.67796000  1.0 0.1105700091
H  H227  1  0.97703000  0.09127000  0.58114000  1.0 0.1105700091
H  H228  1  0.12104000  0.08431000  0.62380000  1.0 0.1200645108
H  H229  1  0.10311000  0.04632000  0.72025000  1.0 0.1200645108
H  H230  1  0.00558000  0.08953000  0.47614000  1.0 0.1105700091
H  H231  1  0.02494000  0.13001000  0.37896000  1.0 0.1200645108
H  H232  1  0.12349000  0.15234000  0.56158000  1.0 0.1281842167
H  H233  1  0.10643000  0.31691000  0.13737000  1.0 0.1281842167
H  H234  1  0.03300000  0.36269000  0.13389000  1.0 0.1105700091
H  H235  1  0.01109000  0.40329000  0.04073000  1.0 0.1105700091
H  H236  1  0.13411000  0.35274000  0.95345000  1.0 0.1281842167
H  H237  1  0.98426000  0.40682000  0.94079000  1.0 0.1105700091
H  H238  1  0.96184000  0.44841000  0.84674000  1.0 0.1105700091
H  H239  1  0.10453000  0.45627000  0.79390000  1.0 0.1200645108
H  H240  1  0.12695000  0.41467000  0.88794000  1.0 0.1200645108
H  H241  1  0.39859000  0.18819000  0.13330000  1.0 0.1281842167
H  H242  1  0.46739000  0.13625000  0.13135000  1.0 0.1105700091
H  H243  1  0.48839000  0.09387000  0.03911000  1.0 0.1105700091
H  H244  1  0.37274000  0.15397000  0.94593000  1.0 0.1200645108
H  H245  1  0.51784000  0.09370000  0.93483000  1.0 0.1105700091
H  H246  1  0.53891000  0.05301000  0.84178000  1.0 0.1105700091
H  H247  1  0.39504000  0.04310000  0.79220000  1.0 0.1200645108
H  H248  1  0.37395000  0.08428000  0.88630000  1.0 0.1200645108
C  C1  1  0.29171000  0.67513000  0.54423000  1.0 0.5790289538
C  C2  1  0.32010000  0.62928000  0.55365000  1.0 -0.0302895886
C  C3  1  0.32458000  0.60158000  0.61079000  1.0 -0.0940718493
C  C4  1  0.35405000  0.56049000  0.61131000  1.0 -0.0975046843
C  C5  1  0.37963000  0.54658000  0.55591000  1.0 -0.1498525436
C  C6  1  0.37565000  0.57375000  0.50073000  1.0 0.0706707902
C  C7  1  0.34621000  0.61470000  0.49855000  1.0 -0.1580962446
C  C8  1  0.40393000  0.55924000  0.44052000  1.0 0.0706707902
C  C9  1  0.41509000  0.51125000  0.42827000  1.0 -0.1416336462
C  C10  1  0.44143000  0.49803000  0.37398000  1.0 -0.1416336462
C  C11  1  0.45676000  0.53420000  0.32959000  1.0 0.0706707902
C  C12  1  0.44506000  0.58306000  0.34201000  1.0 -0.1580962446
C  C13  1  0.41879000  0.59579000  0.39766000  1.0 -0.1580962446
C  C14  1  0.48229000  0.51850000  0.26854000  1.0 -0.02087278
C  C15  1  0.47100000  0.54497000  0.20905000  1.0 0.0608964311
C  C16  1  0.50824000  0.55886000  0.16704000  1.0 -0.1416336462
C  C17  1  0.49717000  0.58195000  0.10930000  1.0 -0.1498525436
C  C18  1  0.44888000  0.59169000  0.09191000  1.0 0.0706707902
C  C19  1  0.41216000  0.57789000  0.13457000  1.0 -0.1498525436
C  C20  1  0.42275000  0.55517000  0.19194000  1.0 -0.1498525436
C  C21  1  0.43745000  0.61715000  0.02954000  1.0 0.0608964311
C  C22  1  0.46661000  0.61037000  0.97414000  1.0 -0.1416336462
C  C23  1  0.45498000  0.63413000  0.91594000  1.0 -0.1498525436
C  C24  1  0.41352000  0.66378000  0.91356000  1.0 0.0015460076
C  C25  1  0.38466000  0.67082000  0.96774000  1.0 -0.0692547513
C  C26  1  0.39662000  0.64752000  0.02477000  1.0 -0.1335363714
C  C27  1  0.34304000  0.70404000  0.95690000  1.0 0.6014640676
C  C28  1  0.32558000  0.80344000  0.53931000  1.0 0.6014640676
C  C29  1  0.37377000  0.83049000  0.54547000  1.0 -0.0116172972
C  C30  1  0.40280000  0.83338000  0.59894000  1.0 -0.0975046843
C  C31  1  0.44654000  0.86088000  0.59695000  1.0 -0.0975046843
C  C32  1  0.45937000  0.88490000  0.54168000  1.0 -0.1580962446
C  C33  1  0.43000000  0.88305000  0.48645000  1.0 0.0770153089
C  C34  1  0.38661000  0.85486000  0.49011000  1.0 -0.1498525436
C  C35  1  0.44229000  0.90684000  0.42321000  1.0 0.0706707902
C  C36  1  0.49132000  0.91686000  0.41097000  1.0 -0.1416336462
C  C37  1  0.50464000  0.94156000  0.35511000  1.0 -0.1416336462
C  C38  1  0.46893000  0.95625000  0.31148000  1.0 0.0706707902
C  C39  1  0.41989000  0.94623000  0.32371000  1.0 -0.1498525436
C  C40  1  0.40657000  0.92152000  0.37958000  1.0 -0.1498525436
C  C41  1  0.16432000  0.71022000  0.53898000  1.0 0.592255597
C  C42  1  0.12070000  0.67622000  0.54035000  1.0 -0.0116172972
C  C43  1  0.09301000  0.67103000  0.59505000  1.0 -0.0975046843
C  C44  1  0.05200000  0.63990000  0.59370000  1.0 -0.0940718493
C  C45  1  0.03944000  0.61475000  0.53901000  1.0 -0.1580962446
C  C46  1  0.06750000  0.61974000  0.48312000  1.0 0.0706707902
C  C47  1  0.10797000  0.65034000  0.48372000  1.0 -0.1498525436
C  C48  1  0.05685000  0.59359000  0.42106000  1.0 0.0706707902
C  C49  1  0.00715000  0.58356000  0.40591000  1.0 -0.1416336462
C  C50  1  0.99457000  0.55966000  0.35065000  1.0 -0.1335363714
C  C51  1  0.03053000  0.54492000  0.30710000  1.0 0.0706707902
C  C52  1  0.08015000  0.55373000  0.32108000  1.0 -0.1580962446
C  C53  1  0.09252000  0.57802000  0.37726000  1.0 -0.1498525436
C  C54  1  0.70829000  0.32487000  0.54423000  1.0 0.5790289538
C  C55  1  0.67990000  0.37072000  0.55365000  1.0 -0.0302895886
C  C56  1  0.67542000  0.39842000  0.61079000  1.0 -0.0940718493
C  C57  1  0.64595000  0.43951000  0.61131000  1.0 -0.0975046843
C  C58  1  0.62037000  0.45342000  0.55591000  1.0 -0.1498525436
C  C59  1  0.62435000  0.42625000  0.50073000  1.0 0.0706707902
C  C60  1  0.65379000  0.38530000  0.49855000  1.0 -0.1580962446
C  C61  1  0.59607000  0.44076000  0.44052000  1.0 0.0706707902
C  C62  1  0.58491000  0.48875000  0.42827000  1.0 -0.1416336462
C  C63  1  0.55857000  0.50197000  0.37398000  1.0 -0.1416336462
C  C64  1  0.54324000  0.46580000  0.32959000  1.0 0.0706707902
C  C65  1  0.55494000  0.41694000  0.34201000  1.0 -0.1580962446
C  C66  1  0.58121000  0.40421000  0.39766000  1.0 -0.1580962446
C  C67  1  0.51771000  0.48150000  0.26854000  1.0 -0.02087278
C  C68  1  0.52900000  0.45503000  0.20905000  1.0 0.0608964311
C  C69  1  0.49176000  0.44114000  0.16704000  1.0 -0.1416336462
C  C70  1  0.50283000  0.41805000  0.10930000  1.0 -0.1498525436
C  C71  1  0.55112000  0.40831000  0.09191000  1.0 0.0706707902
C  C72  1  0.58784000  0.42211000  0.13457000  1.0 -0.1498525436
C  C73  1  0.57725000  0.44483000  0.19194000  1.0 -0.1498525436
C  C74  1  0.56255000  0.38285000  0.02954000  1.0 0.0608964311
C  C75  1  0.53339000  0.38963000  0.97414000  1.0 -0.1416336462
C  C76  1  0.54502000  0.36587000  0.91594000  1.0 -0.1498525436
C  C77  1  0.58648000  0.33622000  0.91356000  1.0 0.0015460076
C  C78  1  0.61534000  0.32918000  0.96774000  1.0 -0.0692547513
C  C79  1  0.60338000  0.35248000  0.02477000  1.0 -0.1335363714
C  C80  1  0.65696000  0.29596000  0.95690000  1.0 0.6014640676
C  C81  1  0.67442000  0.19656000  0.53931000  1.0 0.6014640676
C  C82  1  0.62623000  0.16951000  0.54547000  1.0 -0.0116172972
C  C83  1  0.59720000  0.16662000  0.59894000  1.0 -0.0975046843
C  C84  1  0.55346000  0.13912000  0.59695000  1.0 -0.0975046843
C  C85  1  0.54063000  0.11510000  0.54168000  1.0 -0.1580962446
C  C86  1  0.57000000  0.11695000  0.48645000  1.0 0.0770153089
C  C87  1  0.61339000  0.14514000  0.49011000  1.0 -0.1498525436
C  C88  1  0.55771000  0.09316000  0.42321000  1.0 0.0706707902
C  C89  1  0.50868000  0.08314000  0.41097000  1.0 -0.1416336462
C  C90  1  0.49536000  0.05844000  0.35511000  1.0 -0.1416336462
C  C91  1  0.53107000  0.04375000  0.31148000  1.0 0.0706707902
C  C92  1  0.58011000  0.05377000  0.32371000  1.0 -0.1498525436
C  C93  1  0.59343000  0.07848000  0.37958000  1.0 -0.1498525436
C  C94  1  0.83568000  0.28978000  0.53898000  1.0 0.592255597
C  C95  1  0.87930000  0.32378000  0.54035000  1.0 -0.0116172972
C  C96  1  0.90699000  0.32897000  0.59505000  1.0 -0.0975046843
C  C97  1  0.94800000  0.36010000  0.59370000  1.0 -0.0940718493
C  C98  1  0.96056000  0.38525000  0.53901000  1.0 -0.1580962446
C  C99  1  0.93250000  0.38026000  0.48312000  1.0 0.0706707902
C  C100  1  0.89203000  0.34966000  0.48372000  1.0 -0.1498525436
C  C101  1  0.94315000  0.40641000  0.42106000  1.0 0.0706707902
C  C102  1  0.99285000  0.41644000  0.40591000  1.0 -0.1416336462
C  C103  1  0.00543000  0.44034000  0.35065000  1.0 -0.1335363714
C  C104  1  0.96947000  0.45508000  0.30710000  1.0 0.0706707902
C  C105  1  0.91985000  0.44627000  0.32108000  1.0 -0.1580962446
C  C106  1  0.90748000  0.42198000  0.37726000  1.0 -0.1498525436
C  C107  1  0.17513000  0.79171000  0.95577000  1.0 0.5790289538
C  C108  1  0.12928000  0.82010000  0.94635000  1.0 -0.0302895886
C  C109  1  0.10158000  0.82458000  0.88921000  1.0 -0.0940718493
C  C110  1  0.06049000  0.85405000  0.88869000  1.0 -0.0975046843
C  C111  1  0.04658000  0.87963000  0.94409000  1.0 -0.1498525436
C  C112  1  0.07375000  0.87565000  0.99927000  1.0 0.0706707902
C  C113  1  0.11470000  0.84621000  0.00145000  1.0 -0.1580962446
C  C114  1  0.05924000  0.90393000  0.05948000  1.0 0.0770153089
C  C115  1  0.01125000  0.91509000  0.07173000  1.0 -0.1498525436
C  C116  1  0.99803000  0.94143000  0.12602000  1.0 -0.1416336462
C  C117  1  0.03420000  0.95676000  0.17041000  1.0 0.0706707902
C  C118  1  0.08306000  0.94506000  0.15799000  1.0 -0.1580962446
C  C119  1  0.09579000  0.91879000  0.10234000  1.0 -0.1580962446
C  C120  1  0.01850000  0.98229000  0.23146000  1.0 -0.02087278
C  C121  1  0.04497000  0.97100000  0.29095000  1.0 0.0608964311
C  C122  1  0.05886000  0.00824000  0.33296000  1.0 -0.1416336462
C  C123  1  0.08195000  0.99717000  0.39070000  1.0 -0.1498525436
C  C124  1  0.09169000  0.94888000  0.40809000  1.0 0.0706707902
C  C125  1  0.07789000  0.91216000  0.36543000  1.0 -0.1498525436
C  C126  1  0.05517000  0.92275000  0.30806000  1.0 -0.1498525436
C  C127  1  0.11715000  0.93745000  0.47046000  1.0 0.0608964311
C  C128  1  0.11037000  0.96661000  0.52586000  1.0 -0.1416336462
C  C129  1  0.13413000  0.95498000  0.58406000  1.0 -0.1498525436
C  C130  1  0.16378000  0.91352000  0.58644000  1.0 0.0015460076
C  C131  1  0.17082000  0.88466000  0.53226000  1.0 -0.0692547513
C  C132  1  0.14752000  0.89662000  0.47523000  1.0 -0.1335363714
C  C133  1  0.20404000  0.84304000  0.54310000  1.0 0.6014640676
C  C134  1  0.30344000  0.82558000  0.96069000  1.0 0.6014640676
C  C135  1  0.33049000  0.87377000  0.95453000  1.0 -0.0116172972
C  C136  1  0.33338000  0.90280000  0.90106000  1.0 -0.0975046843
C  C137  1  0.36088000  0.94654000  0.90305000  1.0 -0.0975046843
C  C138  1  0.38490000  0.95937000  0.95832000  1.0 -0.1580962446
C  C139  1  0.38305000  0.93000000  0.01355000  1.0 0.0770153089
C  C140  1  0.35486000  0.88661000  0.00989000  1.0 -0.1498525436
C  C141  1  0.40684000  0.94229000  0.07679000  1.0 0.0706707902
C  C142  1  0.41686000  0.99132000  0.08903000  1.0 -0.1416336462
C  C143  1  0.44156000  0.00464000  0.14489000  1.0 -0.1416336462
C  C144  1  0.45625000  0.96893000  0.18852000  1.0 0.0706707902
C  C145  1  0.44623000  0.91989000  0.17629000  1.0 -0.1498525436
C  C146  1  0.42152000  0.90657000  0.12042000  1.0 -0.1498525436
C  C147  1  0.21022000  0.66432000  0.96102000  1.0 0.592255597
C  C148  1  0.17622000  0.62070000  0.95965000  1.0 -0.0116172972
C  C149  1  0.17103000  0.59301000  0.90495000  1.0 -0.0975046843
C  C150  1  0.13990000  0.55200000  0.90630000  1.0 -0.0940718493
C  C151  1  0.11475000  0.53944000  0.96099000  1.0 -0.1580962446
C  C152  1  0.11974000  0.56750000  0.01688000  1.0 0.0706707902
C  C153  1  0.15034000  0.60797000  0.01628000  1.0 -0.1498525436
C  C154  1  0.09359000  0.55685000  0.07894000  1.0 0.0706707902
C  C155  1  0.08356000  0.50715000  0.09409000  1.0 -0.1416336462
C  C156  1  0.05966000  0.49457000  0.14935000  1.0 -0.1335363714
C  C157  1  0.04492000  0.53053000  0.19290000  1.0 0.0706707902
C  C158  1  0.05373000  0.58015000  0.17892000  1.0 -0.1580962446
C  C159  1  0.07802000  0.59252000  0.12274000  1.0 -0.1498525436
C  C160  1  0.82487000  0.20829000  0.95577000  1.0 0.5790289538
C  C161  1  0.87072000  0.17990000  0.94635000  1.0 -0.0302895886
C  C162  1  0.89842000  0.17542000  0.88921000  1.0 -0.0940718493
C  C163  1  0.93951000  0.14595000  0.88869000  1.0 -0.0975046843
C  C164  1  0.95342000  0.12037000  0.94409000  1.0 -0.1498525436
C  C165  1  0.92625000  0.12435000  0.99927000  1.0 0.0706707902
C  C166  1  0.88530000  0.15379000  0.00145000  1.0 -0.1580962446
C  C167  1  0.94076000  0.09607000  0.05948000  1.0 0.0770153089
C  C168  1  0.98875000  0.08491000  0.07173000  1.0 -0.1416336462
C  C169  1  0.00197000  0.05857000  0.12602000  1.0 -0.1416336462
C  C170  1  0.96580000  0.04324000  0.17041000  1.0 0.0706707902
C  C171  1  0.91694000  0.05494000  0.15799000  1.0 -0.1580962446
C  C172  1  0.90421000  0.08121000  0.10234000  1.0 -0.1580962446
C  C173  1  0.98150000  0.01771000  0.23146000  1.0 -0.02087278
C  C174  1  0.95503000  0.02900000  0.29095000  1.0 0.0608964311
C  C175  1  0.94114000  0.99176000  0.33296000  1.0 -0.1416336462
C  C176  1  0.91805000  0.00283000  0.39070000  1.0 -0.1498525436
C  C177  1  0.90831000  0.05112000  0.40809000  1.0 0.0706707902
C  C178  1  0.92211000  0.08784000  0.36543000  1.0 -0.1498525436
C  C179  1  0.94483000  0.07725000  0.30806000  1.0 -0.1498525436
C  C180  1  0.88285000  0.06255000  0.47046000  1.0 0.0608964311
C  C181  1  0.88963000  0.03339000  0.52586000  1.0 -0.1416336462
C  C182  1  0.86587000  0.04502000  0.58406000  1.0 -0.1498525436
C  C183  1  0.83622000  0.08648000  0.58644000  1.0 0.0015460076
C  C184  1  0.82918000  0.11534000  0.53226000  1.0 -0.0692547513
C  C185  1  0.85248000  0.10338000  0.47523000  1.0 -0.1335363714
C  C186  1  0.79596000  0.15696000  0.54310000  1.0 0.6014640676
C  C187  1  0.69656000  0.17442000  0.96069000  1.0 0.6014640676
C  C188  1  0.66951000  0.12623000  0.95453000  1.0 -0.0116172972
C  C189  1  0.66666667  0.09720000  0.90106000  1.0 -0.0975046843
C  C190  1  0.63912000  0.05346000  0.90305000  1.0 -0.0975046843
C  C191  1  0.61510000  0.04063000  0.95832000  1.0 -0.1580962446
C  C192  1  0.61695000  0.07000000  0.01355000  1.0 0.0770153089
C  C193  1  0.64514000  0.11339000  0.00989000  1.0 -0.1498525436
C  C194  1  0.59316000  0.05771000  0.07679000  1.0 0.0706707902
C  C195  1  0.58314000  0.00868000  0.08903000  1.0 -0.1416336462
C  C196  1  0.55844000  0.99536000  0.14489000  1.0 -0.1416336462
C  C197  1  0.54375000  0.03107000  0.18852000  1.0 0.0706707902
C  C198  1  0.55377000  0.08011000  0.17629000  1.0 -0.1498525436
C  C199  1  0.57848000  0.09343000  0.12042000  1.0 -0.1498525436
C  C200  1  0.78978000  0.33568000  0.96102000  1.0 0.592255597
C  C201  1  0.82378000  0.37930000  0.95965000  1.0 -0.0116172972
C  C202  1  0.82897000  0.40699000  0.90495000  1.0 -0.0975046843
C  C203  1  0.86010000  0.44800000  0.90630000  1.0 -0.0940718493
C  C204  1  0.88525000  0.46056000  0.96099000  1.0 -0.1580962446
C  C205  1  0.88026000  0.43250000  0.01688000  1.0 0.0706707902
C  C206  1  0.84966000  0.39203000  0.01628000  1.0 -0.1498525436
C  C207  1  0.90641000  0.44315000  0.07894000  1.0 0.0706707902
C  C208  1  0.91644000  0.49285000  0.09409000  1.0 -0.1416336462
C  C209  1  0.94034000  0.50543000  0.14935000  1.0 -0.1335363714
C  C210  1  0.95508000  0.46947000  0.19290000  1.0 0.0706707902
C  C211  1  0.94627000  0.41985000  0.17892000  1.0 -0.1580962446
C  C212  1  0.92198000  0.40748000  0.12274000  1.0 -0.1498525436
C  C213  1  0.48207000  0.98207000  0.25000000  1.0 -0.02087278
C  C214  1  0.01783000  0.51783000  0.25000000  1.0 -0.0302895886
C  C215  1  0.51793000  0.01793000  0.25000000  1.0 -0.02087278
C  C216  1  0.98217000  0.48217000  0.25000000  1.0 -0.0302895886
C  C217  1  0.67513000  0.70829000  0.45577000  1.0 0.5790289538
C  C218  1  0.62928000  0.67990000  0.44635000  1.0 -0.0302895886
C  C219  1  0.60158000  0.67542000  0.38921000  1.0 -0.0940718493
C  C220  1  0.56049000  0.64595000  0.38869000  1.0 -0.0975046843
C  C221  1  0.54658000  0.62037000  0.44409000  1.0 -0.1498525436
C  C222  1  0.57375000  0.62435000  0.49927000  1.0 0.0706707902
C  C223  1  0.61470000  0.65379000  0.50145000  1.0 -0.1580962446
C  C224  1  0.55924000  0.59607000  0.55948000  1.0 0.0770153089
C  C225  1  0.51125000  0.58491000  0.57173000  1.0 -0.1498525436
C  C226  1  0.49803000  0.55857000  0.62602000  1.0 -0.1416336462
C  C227  1  0.53420000  0.54324000  0.67041000  1.0 0.0706707902
C  C228  1  0.58306000  0.55494000  0.65799000  1.0 -0.1580962446
C  C229  1  0.59579000  0.58121000  0.60234000  1.0 -0.1580962446
C  C230  1  0.51850000  0.51771000  0.73146000  1.0 -0.02087278
C  C231  1  0.54497000  0.52900000  0.79095000  1.0 0.0608964311
C  C232  1  0.55886000  0.49176000  0.83296000  1.0 -0.1416336462
C  C233  1  0.58195000  0.50283000  0.89070000  1.0 -0.1498525436
C  C234  1  0.59169000  0.55112000  0.90809000  1.0 0.0706707902
C  C235  1  0.57789000  0.58784000  0.86543000  1.0 -0.1498525436
C  C236  1  0.55517000  0.57725000  0.80806000  1.0 -0.1498525436
C  C237  1  0.61715000  0.56255000  0.97046000  1.0 0.0608964311
C  C238  1  0.61037000  0.53339000  0.02586000  1.0 -0.1416336462
C  C239  1  0.63413000  0.54502000  0.08406000  1.0 -0.1498525436
C  C240  1  0.66378000  0.58648000  0.08644000  1.0 0.0015460076
C  C241  1  0.67082000  0.61534000  0.03226000  1.0 -0.0692547513
C  C242  1  0.64752000  0.60338000  0.97523000  1.0 -0.1335363714
C  C243  1  0.70404000  0.65696000  0.04310000  1.0 0.6014640676
C  C244  1  0.80344000  0.67442000  0.46069000  1.0 0.6014640676
C  C245  1  0.83049000  0.62623000  0.45453000  1.0 -0.0116172972
C  C246  1  0.83338000  0.59720000  0.40106000  1.0 -0.0975046843
C  C247  1  0.86088000  0.55346000  0.40305000  1.0 -0.0975046843
C  C248  1  0.88490000  0.54063000  0.45832000  1.0 -0.1580962446
C  C249  1  0.88305000  0.57000000  0.51355000  1.0 0.0770153089
C  C250  1  0.85486000  0.61339000  0.50989000  1.0 -0.1498525436
C  C251  1  0.90684000  0.55771000  0.57679000  1.0 0.0706707902
C  C252  1  0.91686000  0.50868000  0.58903000  1.0 -0.1416336462
C  C253  1  0.94156000  0.49536000  0.64489000  1.0 -0.1416336462
C  C254  1  0.95625000  0.53107000  0.68852000  1.0 0.0706707902
C  C255  1  0.94623000  0.58011000  0.67629000  1.0 -0.1498525436
C  C256  1  0.92152000  0.59343000  0.62042000  1.0 -0.1498525436
C  C257  1  0.71022000  0.83568000  0.46102000  1.0 0.592255597
C  C258  1  0.67622000  0.87930000  0.45965000  1.0 -0.0116172972
C  C259  1  0.67103000  0.90699000  0.40495000  1.0 -0.0975046843
C  C260  1  0.63990000  0.94800000  0.40630000  1.0 -0.0940718493
C  C261  1  0.61475000  0.96056000  0.46099000  1.0 -0.1580962446
C  C262  1  0.61974000  0.93250000  0.51688000  1.0 0.0706707902
C  C263  1  0.65034000  0.89203000  0.51628000  1.0 -0.1498525436
C  C264  1  0.59359000  0.94315000  0.57894000  1.0 0.0706707902
C  C265  1  0.58356000  0.99285000  0.59409000  1.0 -0.1416336462
C  C266  1  0.55966000  0.00543000  0.64935000  1.0 -0.1335363714
C  C267  1  0.54492000  0.96947000  0.69290000  1.0 0.0706707902
C  C268  1  0.55373000  0.91985000  0.67892000  1.0 -0.1580962446
C  C269  1  0.57802000  0.90748000  0.62274000  1.0 -0.1498525436
C  C270  1  0.32487000  0.29171000  0.45577000  1.0 0.5790289538
C  C271  1  0.37072000  0.32010000  0.44635000  1.0 -0.0302895886
C  C272  1  0.39842000  0.32458000  0.38921000  1.0 -0.0940718493
C  C273  1  0.43951000  0.35405000  0.38869000  1.0 -0.0975046843
C  C274  1  0.45342000  0.37963000  0.44409000  1.0 -0.1498525436
C  C275  1  0.42625000  0.37565000  0.49927000  1.0 0.0706707902
C  C276  1  0.38530000  0.34621000  0.50145000  1.0 -0.1580962446
C  C277  1  0.44076000  0.40393000  0.55948000  1.0 0.0770153089
C  C278  1  0.48875000  0.41509000  0.57173000  1.0 -0.1498525436
C  C279  1  0.50197000  0.44143000  0.62602000  1.0 -0.1416336462
C  C280  1  0.46580000  0.45676000  0.67041000  1.0 0.0706707902
C  C281  1  0.41694000  0.44506000  0.65799000  1.0 -0.1580962446
C  C282  1  0.40421000  0.41879000  0.60234000  1.0 -0.1580962446
C  C283  1  0.48150000  0.48229000  0.73146000  1.0 -0.02087278
C  C284  1  0.45503000  0.47100000  0.79095000  1.0 0.0608964311
C  C285  1  0.44114000  0.50824000  0.83296000  1.0 -0.1416336462
C  C286  1  0.41805000  0.49717000  0.89070000  1.0 -0.1498525436
C  C287  1  0.40831000  0.44888000  0.90809000  1.0 0.0706707902
C  C288  1  0.42211000  0.41216000  0.86543000  1.0 -0.1498525436
C  C289  1  0.44483000  0.42275000  0.80806000  1.0 -0.1498525436
C  C290  1  0.38285000  0.43745000  0.97046000  1.0 0.0608964311
C  C291  1  0.38963000  0.46661000  0.02586000  1.0 -0.1416336462
C  C292  1  0.36587000  0.45498000  0.08406000  1.0 -0.1498525436
C  C293  1  0.33622000  0.41352000  0.08644000  1.0 0.0015460076
C  C294  1  0.32918000  0.38466000  0.03226000  1.0 -0.0692547513
C  C295  1  0.35248000  0.39662000  0.97523000  1.0 -0.1335363714
C  C296  1  0.29596000  0.34304000  0.04310000  1.0 0.6014640676
C  C297  1  0.19656000  0.32558000  0.46069000  1.0 0.6014640676
C  C298  1  0.16951000  0.37377000  0.45453000  1.0 -0.0116172972
C  C299  1  0.16662000  0.40280000  0.40106000  1.0 -0.0975046843
C  C300  1  0.13912000  0.44654000  0.40305000  1.0 -0.0975046843
C  C301  1  0.11510000  0.45937000  0.45832000  1.0 -0.1580962446
C  C302  1  0.11695000  0.43000000  0.51355000  1.0 0.0770153089
C  C303  1  0.14514000  0.38661000  0.50989000  1.0 -0.1498525436
C  C304  1  0.09316000  0.44229000  0.57679000  1.0 0.0706707902
C  C305  1  0.08314000  0.49132000  0.58903000  1.0 -0.1416336462
C  C306  1  0.05844000  0.50464000  0.64489000  1.0 -0.1416336462
C  C307  1  0.04375000  0.46893000  0.68852000  1.0 0.0706707902
C  C308  1  0.05377000  0.41989000  0.67629000  1.0 -0.1498525436
C  C309  1  0.07848000  0.40657000  0.62042000  1.0 -0.1498525436
C  C310  1  0.28978000  0.16432000  0.46102000  1.0 0.592255597
C  C311  1  0.32378000  0.12070000  0.45965000  1.0 -0.0116172972
C  C312  1  0.32897000  0.09301000  0.40495000  1.0 -0.0975046843
C  C313  1  0.36010000  0.05200000  0.40630000  1.0 -0.0940718493
C  C314  1  0.38525000  0.03944000  0.46099000  1.0 -0.1580962446
C  C315  1  0.38026000  0.06750000  0.51688000  1.0 0.0706707902
C  C316  1  0.34966000  0.10797000  0.51628000  1.0 -0.1498525436
C  C317  1  0.40641000  0.05685000  0.57894000  1.0 0.0706707902
C  C318  1  0.41644000  0.00715000  0.59409000  1.0 -0.1416336462
C  C319  1  0.44034000  0.99457000  0.64935000  1.0 -0.1335363714
C  C320  1  0.45508000  0.03053000  0.69290000  1.0 0.0706707902
C  C321  1  0.44627000  0.08015000  0.67892000  1.0 -0.1580962446
C  C322  1  0.42198000  0.09252000  0.62274000  1.0 -0.1498525436
C  C323  1  0.79171000  0.82487000  0.04423000  1.0 0.5790289538
C  C324  1  0.82010000  0.87072000  0.05365000  1.0 -0.0302895886
C  C325  1  0.82458000  0.89842000  0.11079000  1.0 -0.0940718493
C  C326  1  0.85405000  0.93951000  0.11131000  1.0 -0.0975046843
C  C327  1  0.87963000  0.95342000  0.05591000  1.0 -0.1498525436
C  C328  1  0.87565000  0.92625000  0.00073000  1.0 0.0706707902
C  C329  1  0.84621000  0.88530000  0.99855000  1.0 -0.1580962446
C  C330  1  0.90393000  0.94076000  0.94052000  1.0 0.0706707902
C  C331  1  0.91509000  0.98875000  0.92827000  1.0 -0.1416336462
C  C332  1  0.94143000  0.00197000  0.87398000  1.0 -0.1416336462
C  C333  1  0.95676000  0.96580000  0.82959000  1.0 0.0706707902
C  C334  1  0.94506000  0.91694000  0.84201000  1.0 -0.1580962446
C  C335  1  0.91879000  0.90421000  0.89766000  1.0 -0.1580962446
C  C336  1  0.98229000  0.98150000  0.76854000  1.0 -0.02087278
C  C337  1  0.97100000  0.95503000  0.70905000  1.0 0.0608964311
C  C338  1  0.00824000  0.94114000  0.66704000  1.0 -0.1416336462
C  C339  1  0.99717000  0.91805000  0.60930000  1.0 -0.1498525436
C  C340  1  0.94888000  0.90831000  0.59191000  1.0 0.0706707902
C  C341  1  0.91216000  0.92211000  0.63457000  1.0 -0.1498525436
C  C342  1  0.92275000  0.94483000  0.69194000  1.0 -0.1498525436
C  C343  1  0.93745000  0.88285000  0.52954000  1.0 0.0608964311
C  C344  1  0.96661000  0.88963000  0.47414000  1.0 -0.1416336462
C  C345  1  0.95498000  0.86587000  0.41594000  1.0 -0.1498525436
C  C346  1  0.91352000  0.83622000  0.41356000  1.0 -0.0004047605
C  C347  1  0.88466000  0.82918000  0.46774000  1.0 -0.0692547513
C  C348  1  0.89662000  0.85248000  0.52477000  1.0 -0.1335363714
C  C349  1  0.84304000  0.79596000  0.45690000  1.0 0.6014640676
C  C350  1  0.82558000  0.69656000  0.03931000  1.0 0.6014640676
C  C351  1  0.87377000  0.66951000  0.04547000  1.0 -0.0116172972
C  C352  1  0.90280000  0.66666667  0.09894000  1.0 -0.0975046843
C  C353  1  0.94654000  0.63912000  0.09695000  1.0 -0.0975046843
C  C354  1  0.95937000  0.61510000  0.04168000  1.0 -0.1580962446
C  C355  1  0.93000000  0.61695000  0.98645000  1.0 0.0770153089
C  C356  1  0.88661000  0.64514000  0.99011000  1.0 -0.1498525436
C  C357  1  0.94229000  0.59316000  0.92321000  1.0 0.0706707902
C  C358  1  0.99132000  0.58314000  0.91097000  1.0 -0.1416336462
C  C359  1  0.00464000  0.55844000  0.85511000  1.0 -0.1416336462
C  C360  1  0.96893000  0.54375000  0.81148000  1.0 0.0706707902
C  C361  1  0.91989000  0.55377000  0.82371000  1.0 -0.1580962446
C  C362  1  0.90657000  0.57848000  0.87958000  1.0 -0.1498525436
C  C363  1  0.66432000  0.78978000  0.03898000  1.0 0.592255597
C  C364  1  0.62070000  0.82378000  0.04035000  1.0 -0.0116172972
C  C365  1  0.59301000  0.82897000  0.09505000  1.0 -0.0975046843
C  C366  1  0.55200000  0.86010000  0.09370000  1.0 -0.0940718493
C  C367  1  0.53944000  0.88525000  0.03901000  1.0 -0.1580962446
C  C368  1  0.56750000  0.88026000  0.98312000  1.0 0.0706707902
C  C369  1  0.60797000  0.84966000  0.98372000  1.0 -0.1498525436
C  C370  1  0.55685000  0.90641000  0.92106000  1.0 0.0706707902
C  C371  1  0.50715000  0.91644000  0.90591000  1.0 -0.1416336462
C  C372  1  0.49457000  0.94034000  0.85065000  1.0 -0.1335363714
C  C373  1  0.53053000  0.95508000  0.80710000  1.0 0.0706707902
C  C374  1  0.58015000  0.94627000  0.82108000  1.0 -0.1580962446
C  C375  1  0.59252000  0.92198000  0.87726000  1.0 -0.1498525436
C  C376  1  0.20829000  0.17513000  0.04423000  1.0 0.5790289538
C  C377  1  0.17990000  0.12928000  0.05365000  1.0 -0.0302895886
C  C378  1  0.17542000  0.10158000  0.11079000  1.0 -0.0940718493
C  C379  1  0.14595000  0.06049000  0.11131000  1.0 -0.0975046843
C  C380  1  0.12037000  0.04658000  0.05591000  1.0 -0.1498525436
C  C381  1  0.12435000  0.07375000  0.00073000  1.0 0.0706707902
C  C382  1  0.15379000  0.11470000  0.99855000  1.0 -0.1580962446
C  C383  1  0.09607000  0.05924000  0.94052000  1.0 0.0770153089
C  C384  1  0.08491000  0.01125000  0.92827000  1.0 -0.1416336462
C  C385  1  0.05857000  0.99803000  0.87398000  1.0 -0.1416336462
C  C386  1  0.04324000  0.03420000  0.82959000  1.0 0.0706707902
C  C387  1  0.05494000  0.08306000  0.84201000  1.0 -0.1580962446
C  C388  1  0.08121000  0.09579000  0.89766000  1.0 -0.1580962446
C  C389  1  0.01771000  0.01850000  0.76854000  1.0 -0.02087278
C  C390  1  0.02900000  0.04497000  0.70905000  1.0 0.0608964311
C  C391  1  0.99176000  0.05886000  0.66704000  1.0 -0.1416336462
C  C392  1  0.00283000  0.08195000  0.60930000  1.0 -0.1498525436
C  C393  1  0.05112000  0.09169000  0.59191000  1.0 0.0706707902
C  C394  1  0.08784000  0.07789000  0.63457000  1.0 -0.1498525436
C  C395  1  0.07725000  0.05517000  0.69194000  1.0 -0.1498525436
C  C396  1  0.06255000  0.11715000  0.52954000  1.0 0.0608964311
C  C397  1  0.03339000  0.11037000  0.47414000  1.0 -0.1416336462
C  C398  1  0.04502000  0.13413000  0.41594000  1.0 -0.1498525436
C  C399  1  0.08648000  0.16378000  0.41356000  1.0 0.0015460076
C  C400  1  0.11534000  0.17082000  0.46774000  1.0 -0.0692547513
C  C401  1  0.10338000  0.14752000  0.52477000  1.0 -0.1335363714
C  C402  1  0.15696000  0.20404000  0.45690000  1.0 0.6014640676
C  C403  1  0.17442000  0.30344000  0.03931000  1.0 0.6014640676
C  C404  1  0.12623000  0.33049000  0.04547000  1.0 -0.0116172972
C  C405  1  0.09720000  0.33338000  0.09894000  1.0 -0.0975046843
C  C406  1  0.05346000  0.36088000  0.09695000  1.0 -0.0975046843
C  C407  1  0.04063000  0.38490000  0.04168000  1.0 -0.1580962446
C  C408  1  0.07000000  0.38305000  0.98645000  1.0 0.0770153089
C  C409  1  0.11339000  0.35486000  0.99011000  1.0 -0.1498525436
C  C410  1  0.05771000  0.40684000  0.92321000  1.0 0.0706707902
C  C411  1  0.00868000  0.41686000  0.91097000  1.0 -0.1416336462
C  C412  1  0.99536000  0.44156000  0.85511000  1.0 -0.1416336462
C  C413  1  0.03107000  0.45625000  0.81148000  1.0 0.0706707902
C  C414  1  0.08011000  0.44623000  0.82371000  1.0 -0.1498525436
C  C415  1  0.09343000  0.42152000  0.87958000  1.0 -0.1498525436
C  C416  1  0.33568000  0.21022000  0.03898000  1.0 0.592255597
C  C417  1  0.37930000  0.17622000  0.04035000  1.0 -0.0116172972
C  C418  1  0.40699000  0.17103000  0.09505000  1.0 -0.0975046843
C  C419  1  0.44800000  0.13990000  0.09370000  1.0 -0.0940718493
C  C420  1  0.46056000  0.11475000  0.03901000  1.0 -0.1580962446
C  C421  1  0.43250000  0.11974000  0.98312000  1.0 0.0706707902
C  C422  1  0.39203000  0.15034000  0.98372000  1.0 -0.1498525436
C  C423  1  0.44315000  0.09359000  0.92106000  1.0 0.0706707902
C  C424  1  0.49285000  0.08356000  0.90591000  1.0 -0.1416336462
C  C425  1  0.50543000  0.05966000  0.85065000  1.0 -0.1335363714
C  C426  1  0.46947000  0.04492000  0.80710000  1.0 0.0706707902
C  C427  1  0.41985000  0.05373000  0.82108000  1.0 -0.1580962446
C  C428  1  0.40748000  0.07802000  0.87726000  1.0 -0.1498525436
C  C429  1  0.98207000  0.51793000  0.75000000  1.0 -0.02087278
C  C430  1  0.51783000  0.98217000  0.75000000  1.0 -0.0302895886
C  C431  1  0.01793000  0.48207000  0.75000000  1.0 -0.02087278
C  C432  1  0.48217000  0.01783000  0.75000000  1.0 -0.0302895886
O  O1  1  0.27505000  0.68824000  0.59989000  1.0 -0.5539607471
O  O2  1  0.28505000  0.68587000  0.48760000  1.0 -0.4930558754
O  O3  1  0.32453000  0.70889000  0.01099000  1.0 -0.5095713901
O  O4  1  0.33311000  0.72372000  0.90415000  1.0 -0.5095713901
O  O5  1  0.31157000  0.78905000  0.59354000  1.0 -0.518815468
O  O6  1  0.30864000  0.79578000  0.48183000  1.0 -0.5575516475
O  O7  1  0.18715000  0.71228000  0.48609000  1.0 -0.5420072852
O  O8  1  0.17288000  0.72868000  0.59417000  1.0 -0.5539607471
O  O9  1  0.72495000  0.31176000  0.59989000  1.0 -0.5539607471
O  O10  1  0.71495000  0.31413000  0.48760000  1.0 -0.4930558754
O  O11  1  0.67547000  0.29111000  0.01099000  1.0 -0.5095713901
O  O12  1  0.66689000  0.27628000  0.90415000  1.0 -0.5095713901
O  O13  1  0.68843000  0.21095000  0.59354000  1.0 -0.518815468
O  O14  1  0.69136000  0.20422000  0.48183000  1.0 -0.5575516475
O  O15  1  0.81285000  0.28772000  0.48609000  1.0 -0.5420072852
O  O16  1  0.82712000  0.27132000  0.59417000  1.0 -0.5539607471
O  O17  1  0.18824000  0.77505000  0.90011000  1.0 -0.5539607471
O  O18  1  0.18587000  0.78505000  0.01240000  1.0 -0.4930558754
O  O19  1  0.20889000  0.82453000  0.48901000  1.0 -0.5095713901
O  O20  1  0.22372000  0.83311000  0.59585000  1.0 -0.5095713901
O  O21  1  0.28905000  0.81157000  0.90646000  1.0 -0.518815468
O  O22  1  0.29578000  0.80864000  0.01817000  1.0 -0.5575516475
O  O23  1  0.21228000  0.68715000  0.01391000  1.0 -0.5420072852
O  O24  1  0.22868000  0.67288000  0.90583000  1.0 -0.5539607471
O  O25  1  0.81176000  0.22495000  0.90011000  1.0 -0.5539607471
O  O26  1  0.81413000  0.21495000  0.01240000  1.0 -0.4930558754
O  O27  1  0.79111000  0.17547000  0.48901000  1.0 -0.5095713901
O  O28  1  0.77628000  0.16689000  0.59585000  1.0 -0.5095713901
O  O29  1  0.71095000  0.18843000  0.90646000  1.0 -0.518815468
O  O30  1  0.70422000  0.19136000  0.01817000  1.0 -0.5575516475
O  O31  1  0.78772000  0.31285000  0.01391000  1.0 -0.5420072852
O  O32  1  0.77132000  0.32712000  0.90583000  1.0 -0.5539607471
O  O33  1  0.68824000  0.72495000  0.40011000  1.0 -0.5539607471
O  O34  1  0.68587000  0.71495000  0.51240000  1.0 -0.4930558754
O  O35  1  0.70889000  0.67547000  0.98901000  1.0 -0.5095713901
O  O36  1  0.72372000  0.66689000  0.09585000  1.0 -0.5095713901
O  O37  1  0.78905000  0.68843000  0.40646000  1.0 -0.518815468
O  O38  1  0.79578000  0.69136000  0.51817000  1.0 -0.5575516475
O  O39  1  0.71228000  0.81285000  0.51391000  1.0 -0.5420072852
O  O40  1  0.72868000  0.82712000  0.40583000  1.0 -0.5539607471
O  O41  1  0.31176000  0.27505000  0.40011000  1.0 -0.5539607471
O  O42  1  0.31413000  0.28505000  0.51240000  1.0 -0.4930558754
O  O43  1  0.29111000  0.32453000  0.98901000  1.0 -0.5095713901
O  O44  1  0.27628000  0.33311000  0.09585000  1.0 -0.5095713901
O  O45  1  0.21095000  0.31157000  0.40646000  1.0 -0.518815468
O  O46  1  0.20422000  0.30864000  0.51817000  1.0 -0.5575516475
O  O47  1  0.28772000  0.18715000  0.51391000  1.0 -0.5420072852
O  O48  1  0.27132000  0.17288000  0.40583000  1.0 -0.5539607471
O  O49  1  0.77505000  0.81176000  0.09989000  1.0 -0.5539607471
O  O50  1  0.78505000  0.81413000  0.98760000  1.0 -0.4930558754
O  O51  1  0.82453000  0.79111000  0.51099000  1.0 -0.5095713901
O  O52  1  0.83311000  0.77628000  0.40415000  1.0 -0.5022549285
O  O53  1  0.81157000  0.71095000  0.09354000  1.0 -0.518815468
O  O54  1  0.80864000  0.70422000  0.98183000  1.0 -0.5575516475
O  O55  1  0.68715000  0.78772000  0.98609000  1.0 -0.5420072852
O  O56  1  0.67288000  0.77132000  0.09417000  1.0 -0.5539607471
O  O57  1  0.22495000  0.18824000  0.09989000  1.0 -0.5539607471
O  O58  1  0.21495000  0.18587000  0.98760000  1.0 -0.4930558754
O  O59  1  0.17547000  0.20889000  0.51099000  1.0 -0.5095713901
O  O60  1  0.16689000  0.22372000  0.40415000  1.0 -0.5022549285
O  O61  1  0.18843000  0.28905000  0.09354000  1.0 -0.518815468
O  O62  1  0.19136000  0.29578000  0.98183000  1.0 -0.5575516475
O  O63  1  0.31285000  0.21228000  0.98609000  1.0 -0.5420072852
O  O64  1  0.32712000  0.22868000  0.09417000  1.0 -0.5539607471
