# DDEC6 charges by PACMAN v1.1 (https://github.com/mtap-research/PACMAN-charge/)
data_NAPJIB_ASR_pacman
_symmetry_space_group_name_H-M   'P 1'
_cell_length_a   27.68250000
_cell_length_b   27.68250000
_cell_length_c   28.54500000
_cell_angle_alpha   84.40030000
_cell_angle_beta   95.59970000
_cell_angle_gamma   68.53340000
_symmetry_Int_Tables_number   1
_chemical_formula_structural   Zn4Cu3H126C123Br3N6O13
_chemical_formula_sum   'Zn16 Cu12 H504 C492 Br12 N24 O52'
_cell_volume   20049.17268286
_cell_formula_units_Z   4
loop_
 _symmetry_equiv_pos_site_id
 _symmetry_equiv_pos_as_xyz
  1  'x, y, z'
loop_
 _atom_site_type_symbol
 _atom_site_label
 _atom_site_symmetry_multiplicity
 _atom_site_fract_x
 _atom_site_fract_y
 _atom_site_fract_z
 _atom_site_occupancy
 _atom_site_charge
Zn  Zn1  1  0.78782000  0.65660000  0.38776000  1.0 0.9224062604
Zn  Zn2  1  0.88161000  0.54645000  0.41046000  1.0 0.9378061337
Zn  Zn3  1  0.80391000  0.58567000  0.48440000  1.0 0.9378061337
Zn  Zn4  1  0.88652000  0.64106000  0.46460000  1.0 0.9659212423
Zn  Zn5  1  0.65660000  0.78782000  0.11224000  1.0 0.9224062604
Zn  Zn6  1  0.54645000  0.88161000  0.08954000  1.0 0.9378061337
Zn  Zn7  1  0.58567000  0.80391000  0.01560000  1.0 0.9378061337
Zn  Zn8  1  0.64106000  0.88652000  0.03540000  1.0 0.9641299638
Zn  Zn9  1  0.21218000  0.34340000  0.61224000  1.0 0.9224062604
Zn  Zn10  1  0.11839000  0.45355000  0.58954000  1.0 0.9378061337
Zn  Zn11  1  0.19609000  0.41433000  0.51560000  1.0 0.9378061337
Zn  Zn12  1  0.11348000  0.35894000  0.53540000  1.0 0.9641299638
Zn  Zn13  1  0.34340000  0.21218000  0.88776000  1.0 0.9224062604
Zn  Zn14  1  0.45355000  0.11839000  0.91046000  1.0 0.9378061337
Zn  Zn15  1  0.41433000  0.19609000  0.98440000  1.0 0.9378061337
Zn  Zn16  1  0.35894000  0.11348000  0.96460000  1.0 0.9641299638
Cu  Cu1  1  0.79835000  0.12055000  0.43130000  1.0 0.0099040004
Cu  Cu2  1  0.35836000  0.57004000  0.42758000  1.0 0.0500612384
Cu  Cu3  1  0.86637000  0.56423000  0.93596000  1.0 0.0601495633
Cu  Cu4  1  0.12055000  0.79835000  0.06870000  1.0 0.0099040004
Cu  Cu5  1  0.57004000  0.35836000  0.07242000  1.0 0.0500612384
Cu  Cu6  1  0.56423000  0.86637000  0.56404000  1.0 0.0601495633
Cu  Cu7  1  0.20165000  0.87945000  0.56870000  1.0 0.0216307213
Cu  Cu8  1  0.64164000  0.42996000  0.57242000  1.0 0.0500612384
Cu  Cu9  1  0.13363000  0.43577000  0.06404000  1.0 0.0601495633
Cu  Cu10  1  0.87945000  0.20165000  0.93130000  1.0 0.0099040004
Cu  Cu11  1  0.42996000  0.64164000  0.92758000  1.0 0.0500612384
Cu  Cu12  1  0.43577000  0.13363000  0.43596000  1.0 0.0500612384
H  H1  1  0.66599000  0.56483000  0.46351000  1.0 0.1301904885
H  H2  1  0.55064000  0.66718000  0.33008000  1.0 0.1208516937
H  H3  1  0.58936000  0.55292000  0.44145000  1.0 0.1208516937
H  H4  1  0.62472000  0.68250000  0.35360000  1.0 0.1301904885
H  H5  1  0.74656000  0.96228000  0.48922000  1.0 0.1133468904
H  H6  1  0.73074000  0.98606000  0.34518000  1.0 0.1301904885
H  H7  1  0.88252000  0.72304000  0.98864000  1.0 0.1301904885
H  H8  1  0.77113000  0.45235000  0.50666000  1.0 0.1301904885
H  H9  1  0.89022000  0.73504000  0.90150000  1.0 0.14671192
H  H10  1  0.79185000  0.69785000  0.88522000  1.0 0.0711583723
H  H11  1  0.73756000  0.38674000  0.49867000  1.0 0.1208516937
H  H12  1  0.31486000  0.73264000  0.32657000  1.0 0.1301904885
H  H13  1  0.33636000  0.68028000  0.36445000  1.0 0.1208516937
H  H14  1  0.36849000  0.71795000  0.36165000  1.0 0.1301904885
H  H15  1  0.71003000  0.70361000  0.85280000  1.0 0.1301904885
H  H16  1  0.73239000  0.68571000  0.80501000  1.0 0.1208516937
H  H17  1  0.75332000  0.64606000  0.85384000  1.0 0.1384322621
H  H18  1  0.35256000  0.65902000  0.29193000  1.0 0.0711583723
H  H19  1  0.83193000  0.33607000  0.40032000  1.0 0.1208516937
H  H20  1  0.47170000  0.66970000  0.33569000  1.0 0.1133468904
H  H21  1  0.86098000  0.40438000  0.40780000  1.0 0.1208516937
H  H22  1  0.68032000  0.12660000  0.33159000  1.0 0.0785451529
H  H23  1  0.70302000  0.19190000  0.51165000  1.0 0.0711583723
H  H24  1  0.99563000  0.67189000  0.84356000  1.0 0.1208516937
H  H25  1  0.04618000  0.62158000  0.86729000  1.0 0.1208516937
H  H26  1  0.01939000  0.62415000  0.81435000  1.0 0.1208516937
H  H27  1  0.61282000  0.24108000  0.41456000  1.0 0.1384322621
H  H28  1  0.54759000  0.51577000  0.39409000  1.0 0.1208516937
H  H29  1  0.60867000  0.15387000  0.41716000  1.0 0.14671192
H  H30  1  0.63894000  0.06078000  0.50634000  1.0 0.1384322621
H  H31  1  0.68303000  0.01044000  0.53849000  1.0 0.1208516937
H  H32  1  0.66430000  0.06598000  0.55750000  1.0 0.1384322621
H  H33  1  0.43966000  0.47362000  0.36838000  1.0 0.0711583723
H  H34  1  0.79404000  0.77510000  0.83864000  1.0 0.1301904885
H  H35  1  0.75469000  0.77005000  0.79620000  1.0 0.1208516937
H  H36  1  0.73492000  0.78408000  0.84583000  1.0 0.1301904885
H  H37  1  0.79613000  0.15841000  0.52657000  1.0 0.1208516937
H  H38  1  0.79424000  0.20362000  0.55812000  1.0 0.1208516937
H  H39  1  0.77294000  0.15948000  0.57584000  1.0 0.1208516937
H  H40  1  0.44864000  0.49674000  0.44516000  1.0 0.1208516937
H  H41  1  0.47516000  0.43491000  0.44432000  1.0 0.1301904885
H  H42  1  0.51092000  0.46896000  0.44801000  1.0 0.1301904885
H  H43  1  0.78483000  0.05491000  0.51876000  1.0 0.1208516937
H  H44  1  0.75704000  0.06214000  0.56561000  1.0 0.1301904885
H  H45  1  0.77577000  0.00659000  0.54661000  1.0 0.1208516937
H  H46  1  0.62828000  0.08050000  0.30287000  1.0 0.1301904885
H  H47  1  0.65133000  0.10141000  0.25947000  1.0 0.1301904885
H  H48  1  0.67717000  0.04097000  0.28251000  1.0 0.1208516937
H  H49  1  0.69686000  0.09934000  0.50163000  1.0 0.0785451529
H  H50  1  0.76521000  0.31441000  0.37113000  1.0 0.1133468904
H  H51  1  0.74433000  0.11001000  0.28129000  1.0 0.1208516937
H  H52  1  0.76955000  0.09765000  0.33612000  1.0 0.1208516937
H  H53  1  0.77099000  0.05061000  0.30712000  1.0 0.1301904885
H  H54  1  0.89607000  0.52883000  0.26689000  1.0 0.1301904885
H  H55  1  0.78554000  0.66344000  0.96051000  1.0 0.0711583723
H  H56  1  0.76223000  0.66027000  0.23827000  1.0 0.1301904885
H  H57  1  0.96269000  0.63499000  0.02852000  1.0 0.0711583723
H  H58  1  0.90098000  0.53622000  0.18526000  1.0 0.1208516937
H  H59  1  0.02174000  0.54780000  0.01777000  1.0 0.1384322621
H  H60  1  0.98723000  0.52233000  0.04536000  1.0 0.1384322621
H  H61  1  0.96309000  0.55825000  0.99483000  1.0 0.1208516937
H  H62  1  0.75038000  0.29996000  0.50970000  1.0 0.1208516937
H  H63  1  0.29138000  0.55064000  0.26785000  1.0 0.1384322621
H  H64  1  0.25556000  0.65004000  0.33329000  1.0 0.0785451529
H  H65  1  0.18570000  0.65868000  0.27637000  1.0 0.1208516937
H  H66  1  0.14578000  0.69486000  0.30736000  1.0 0.1301904885
H  H67  1  0.18765000  0.71419000  0.28520000  1.0 0.1301904885
H  H68  1  0.24462000  0.67024000  0.40758000  1.0 0.1208516937
H  H69  1  0.22511000  0.72099000  0.36792000  1.0 0.1301904885
H  H70  1  0.18324000  0.70166000  0.39009000  1.0 0.1301904885
H  H71  1  0.37160000  0.56302000  0.25924000  1.0 0.14671192
H  H72  1  0.40555000  0.69465000  0.24463000  1.0 0.1301904885
H  H73  1  0.35223000  0.74061000  0.25130000  1.0 0.1301904885
H  H74  1  0.40620000  0.73306000  0.28290000  1.0 0.1301904885
H  H75  1  0.77311000  0.63701000  0.08364000  1.0 0.1208516937
H  H76  1  0.77037000  0.66595000  0.15857000  1.0 0.1301904885
H  H77  1  0.70750000  0.64922000  0.96387000  1.0 0.1301904885
H  H78  1  0.75780000  0.59742000  0.98480000  1.0 0.1301904885
H  H79  1  0.72309000  0.63193000  0.02017000  1.0 0.1208516937
H  H80  1  0.92687000  0.58601000  0.13221000  1.0 0.1208516937
H  H81  1  0.71139000  0.73673000  0.96795000  1.0 0.1384322621
H  H82  1  0.72776000  0.72574000  0.02446000  1.0 0.1301904885
H  H83  1  0.76441000  0.74125000  0.99088000  1.0 0.1301904885
H  H84  1  0.03928000  0.59208000  0.08628000  1.0 0.1301904885
H  H85  1  0.99270000  0.62792000  0.11172000  1.0 0.1208516937
H  H86  1  0.00802000  0.56580000  0.11758000  1.0 0.1301904885
H  H87  1  0.97936000  0.54012000  0.88086000  1.0 0.1301904885
H  H88  1  0.00958000  0.54512000  0.83674000  1.0 0.1208516937
H  H89  1  0.03637000  0.54255000  0.88969000  1.0 0.1301904885
H  H90  1  0.65284000  0.27236000  0.53217000  1.0 0.1301904885
H  H91  1  0.68258000  0.23120000  0.57895000  1.0 0.1301904885
H  H92  1  0.70388000  0.27534000  0.56124000  1.0 0.1208516937
H  H93  1  0.36183000  0.40419000  0.43499000  1.0 0.1384322621
H  H94  1  0.34031000  0.46233000  0.44856000  1.0 0.1301904885
H  H95  1  0.30383000  0.42889000  0.44844000  1.0 0.1384322621
H  H96  1  0.32910000  0.39324000  0.34292000  1.0 0.1384322621
H  H97  1  0.26843000  0.41513000  0.34947000  1.0 0.1208516937
H  H98  1  0.28842000  0.44450000  0.30918000  1.0 0.1208516937
H  H99  1  0.52436000  0.42828000  0.34600000  1.0 0.1208516937
H  H100  1  0.55066000  0.43296000  0.39695000  1.0 0.1208516937
H  H101  1  0.51489000  0.39893000  0.39327000  1.0 0.1133468904
H  H102  1  0.64431000  0.30187000  0.32195000  1.0 0.1301904885
H  H103  1  0.68644000  0.32484000  0.30605000  1.0 0.1301904885
H  H104  1  0.67256000  0.28410000  0.27671000  1.0 0.1208516937
H  H105  1  0.79306000  0.21252000  0.33712000  1.0 0.1301904885
H  H106  1  0.75971000  0.23211000  0.28509000  1.0 0.1301904885
H  H107  1  0.77358000  0.27286000  0.31444000  1.0 0.1133468904
H  H108  1  0.70720000  0.22112000  0.33881000  1.0 0.0711583723
H  H109  1  0.79076000  0.61124000  0.62668000  1.0 0.1208516937
H  H110  1  0.91774000  0.64668000  0.61239000  1.0 0.1301904885
H  H111  1  0.79370000  0.67744000  0.76319000  1.0 0.1208516937
H  H112  1  0.80958000  0.88730000  0.47390000  1.0 0.1208516937
H  H113  1  0.10230000  0.61458000  0.44350000  1.0 0.1208516937
H  H114  1  0.21499000  0.47381000  0.40524000  1.0 0.1301904885
H  H115  1  0.95255000  0.60503000  0.77327000  1.0 0.1208516937
H  H116  1  0.12748000  0.48470000  0.38240000  1.0 0.1133468904
H  H117  1  0.04867000  0.48241000  0.40272000  1.0 0.1301904885
H  H118  1  0.93089000  0.64983000  0.69352000  1.0 0.1208516937
H  H119  1  0.83813000  0.79632000  0.47422000  1.0 0.1208516937
H  H120  1  0.70544000  0.91462000  0.35570000  1.0 0.1208516937
H  H121  1  0.80307000  0.61511000  0.70853000  1.0 0.1208516937
H  H122  1  0.02984000  0.60782000  0.46891000  1.0 0.1301904885
H  H123  1  0.72934000  0.82386000  0.35691000  1.0 0.1208516937
H  H124  1  0.97490000  0.61948000  0.89664000  1.0 0.0895645498
H  H125  1  0.14590000  0.63242000  0.37916000  1.0 0.1301904885
H  H126  1  0.33502000  0.47186000  0.36499000  1.0 0.0711583723
H  H127  1  0.56483000  0.66599000  0.03649000  1.0 0.1301904885
H  H128  1  0.66718000  0.55064000  0.16992000  1.0 0.1208516937
H  H129  1  0.55292000  0.58936000  0.05855000  1.0 0.1208516937
H  H130  1  0.68250000  0.62472000  0.14640000  1.0 0.1301904885
H  H131  1  0.96228000  0.74656000  0.01078000  1.0 0.1133468904
H  H132  1  0.98606000  0.73074000  0.15482000  1.0 0.1301904885
H  H133  1  0.72304000  0.88252000  0.51136000  1.0 0.1301904885
H  H134  1  0.45235000  0.77113000  0.99334000  1.0 0.1301904885
H  H135  1  0.73504000  0.89022000  0.59850000  1.0 0.14671192
H  H136  1  0.69785000  0.79185000  0.61478000  1.0 0.0785451529
H  H137  1  0.38674000  0.73756000  0.00133000  1.0 0.1208516937
H  H138  1  0.73264000  0.31486000  0.17343000  1.0 0.1301904885
H  H139  1  0.68028000  0.33636000  0.13555000  1.0 0.1208516937
H  H140  1  0.71795000  0.36849000  0.13835000  1.0 0.1301904885
H  H141  1  0.70361000  0.71003000  0.64720000  1.0 0.1301904885
H  H142  1  0.68571000  0.73239000  0.69499000  1.0 0.1208516937
H  H143  1  0.64606000  0.75332000  0.64616000  1.0 0.1384322621
H  H144  1  0.65902000  0.35256000  0.20807000  1.0 0.0711583723
H  H145  1  0.33607000  0.83193000  0.09968000  1.0 0.1208516937
H  H146  1  0.66970000  0.47170000  0.16431000  1.0 0.1133468904
H  H147  1  0.40438000  0.86098000  0.09220000  1.0 0.1208516937
H  H148  1  0.12660000  0.68032000  0.16841000  1.0 0.0785451529
H  H149  1  0.19190000  0.70302000  0.98835000  1.0 0.0711583723
H  H150  1  0.67189000  0.99563000  0.65644000  1.0 0.1208516937
H  H151  1  0.62158000  0.04618000  0.63271000  1.0 0.1301904885
H  H152  1  0.62415000  0.01939000  0.68565000  1.0 0.1208516937
H  H153  1  0.24108000  0.61282000  0.08544000  1.0 0.1384322621
H  H154  1  0.51577000  0.54759000  0.10591000  1.0 0.1208516937
H  H155  1  0.15387000  0.60867000  0.08284000  1.0 0.14671192
H  H156  1  0.06078000  0.63894000  0.99366000  1.0 0.1384322621
H  H157  1  0.01045000  0.68303000  0.96151000  1.0 0.1208516937
H  H158  1  0.06598000  0.66430000  0.94250000  1.0 0.1384322621
H  H159  1  0.47362000  0.43966000  0.13162000  1.0 0.0711583723
H  H160  1  0.77510000  0.79404000  0.66136000  1.0 0.1301904885
H  H161  1  0.77005000  0.75469000  0.70380000  1.0 0.1208516937
H  H162  1  0.78408000  0.73492000  0.65417000  1.0 0.1301904885
H  H163  1  0.15841000  0.79613000  0.97343000  1.0 0.1208516937
H  H164  1  0.20362000  0.79424000  0.94188000  1.0 0.1208516937
H  H165  1  0.15948000  0.77294000  0.92416000  1.0 0.1208516937
H  H166  1  0.49674000  0.44864000  0.05484000  1.0 0.1208516937
H  H167  1  0.43492000  0.47517000  0.05568000  1.0 0.1301904885
H  H168  1  0.46896000  0.51092000  0.05199000  1.0 0.1301904885
H  H169  1  0.05491000  0.78483000  0.98124000  1.0 0.1208516937
H  H170  1  0.06214000  0.75704000  0.93439000  1.0 0.1301904885
H  H171  1  0.00659000  0.77577000  0.95339000  1.0 0.1208516937
H  H172  1  0.08050000  0.62828000  0.19713000  1.0 0.1301904885
H  H173  1  0.10141000  0.65133000  0.24053000  1.0 0.1301904885
H  H174  1  0.04097000  0.67717000  0.21749000  1.0 0.1208516937
H  H175  1  0.09934000  0.69686000  0.99837000  1.0 0.0785451529
H  H176  1  0.31441000  0.76521000  0.12887000  1.0 0.1133468904
H  H177  1  0.11001000  0.74433000  0.21871000  1.0 0.1208516937
H  H178  1  0.09765000  0.76955000  0.16388000  1.0 0.1208516937
H  H179  1  0.05061000  0.77099000  0.19288000  1.0 0.1301904885
H  H180  1  0.52883000  0.89607000  0.23311000  1.0 0.1208516937
H  H181  1  0.66344000  0.78554000  0.53949000  1.0 0.0711583723
H  H182  1  0.66027000  0.76223000  0.26173000  1.0 0.1301904885
H  H183  1  0.63499000  0.96269000  0.47148000  1.0 0.0711583723
H  H184  1  0.53622000  0.90098000  0.31474000  1.0 0.1208516937
H  H185  1  0.54780000  0.02174000  0.48223000  1.0 0.1384322621
H  H186  1  0.52233000  0.98723000  0.45464000  1.0 0.1384322621
H  H187  1  0.55825000  0.96309000  0.50517000  1.0 0.1208516937
H  H188  1  0.29996000  0.75038000  0.99030000  1.0 0.1208516937
H  H189  1  0.55064000  0.29138000  0.23215000  1.0 0.1384322621
H  H190  1  0.65004000  0.25556000  0.16671000  1.0 0.0785451529
H  H191  1  0.65868000  0.18570000  0.22363000  1.0 0.1208516937
H  H192  1  0.69486000  0.14578000  0.19264000  1.0 0.1301904885
H  H193  1  0.71419000  0.18765000  0.21480000  1.0 0.1301904885
H  H194  1  0.67024000  0.24462000  0.09242000  1.0 0.1208516937
H  H195  1  0.72099000  0.22511000  0.13208000  1.0 0.1301904885
H  H196  1  0.70166000  0.18324000  0.10991000  1.0 0.1301904885
H  H197  1  0.56302000  0.37160000  0.24076000  1.0 0.14671192
H  H198  1  0.69465000  0.40555000  0.25537000  1.0 0.1208516937
H  H199  1  0.74061000  0.35223000  0.24870000  1.0 0.1301904885
H  H200  1  0.73306000  0.40620000  0.21710000  1.0 0.1301904885
H  H201  1  0.63701000  0.77311000  0.41636000  1.0 0.1208516937
H  H202  1  0.66595000  0.77037000  0.34143000  1.0 0.1301904885
H  H203  1  0.64922000  0.70750000  0.53613000  1.0 0.1301904885
H  H204  1  0.59742000  0.75780000  0.51520000  1.0 0.1384322621
H  H205  1  0.63193000  0.72309000  0.47983000  1.0 0.1208516937
H  H206  1  0.58601000  0.92687000  0.36779000  1.0 0.1208516937
H  H207  1  0.73673000  0.71139000  0.53205000  1.0 0.1384322621
H  H208  1  0.72574000  0.72776000  0.47554000  1.0 0.1301904885
H  H209  1  0.74125000  0.76441000  0.50912000  1.0 0.1301904885
H  H210  1  0.59208000  0.03928000  0.41372000  1.0 0.1301904885
H  H211  1  0.62792000  0.99270000  0.38828000  1.0 0.1208516937
H  H212  1  0.56580000  0.00802000  0.38242000  1.0 0.1301904885
H  H213  1  0.54012000  0.97936000  0.61914000  1.0 0.1301904885
H  H214  1  0.54512000  0.00958000  0.66326000  1.0 0.1208516937
H  H215  1  0.54255000  0.03637000  0.61031000  1.0 0.1301904885
H  H216  1  0.27236000  0.65284000  0.96783000  1.0 0.1301904885
H  H217  1  0.23120000  0.68258000  0.92105000  1.0 0.1301904885
H  H218  1  0.27534000  0.70388000  0.93876000  1.0 0.1208516937
H  H219  1  0.40419000  0.36183000  0.06501000  1.0 0.1384322621
H  H220  1  0.46233000  0.34031000  0.05144000  1.0 0.1301904885
H  H221  1  0.42889000  0.30383000  0.05156000  1.0 0.1384322621
H  H222  1  0.39324000  0.32910000  0.15708000  1.0 0.1384322621
H  H223  1  0.41513000  0.26843000  0.15053000  1.0 0.1208516937
H  H224  1  0.44450000  0.28842000  0.19082000  1.0 0.1208516937
H  H225  1  0.42828000  0.52436000  0.15400000  1.0 0.1208516937
H  H226  1  0.43296000  0.55066000  0.10305000  1.0 0.1208516937
H  H227  1  0.39893000  0.51489000  0.10673000  1.0 0.1133468904
H  H228  1  0.30187000  0.64431000  0.17805000  1.0 0.1301904885
H  H229  1  0.32484000  0.68644000  0.19395000  1.0 0.1301904885
H  H230  1  0.28410000  0.67256000  0.22329000  1.0 0.1208516937
H  H231  1  0.21252000  0.79306000  0.16288000  1.0 0.1301904885
H  H232  1  0.23211000  0.75971000  0.21491000  1.0 0.1301904885
H  H233  1  0.27286000  0.77358000  0.18556000  1.0 0.1133468904
H  H234  1  0.22112000  0.70720000  0.16119000  1.0 0.0711583723
H  H235  1  0.61124000  0.79076000  0.87332000  1.0 0.1208516937
H  H236  1  0.64668000  0.91774000  0.88761000  1.0 0.1301904885
H  H237  1  0.67744000  0.79370000  0.73681000  1.0 0.1208516937
H  H238  1  0.88730000  0.80958000  0.02610000  1.0 0.1208516937
H  H239  1  0.61458000  0.10230000  0.05650000  1.0 0.1208516937
H  H240  1  0.47381000  0.21499000  0.09476000  1.0 0.1301904885
H  H241  1  0.60503000  0.95255000  0.72673000  1.0 0.1208516937
H  H242  1  0.48470000  0.12748000  0.11760000  1.0 0.1133468904
H  H243  1  0.48241000  0.04867000  0.09728000  1.0 0.1301904885
H  H244  1  0.64983000  0.93089000  0.80648000  1.0 0.1208516937
H  H245  1  0.79632000  0.83814000  0.02578000  1.0 0.1208516937
H  H246  1  0.91462000  0.70544000  0.14430000  1.0 0.1208516937
H  H247  1  0.61511000  0.80307000  0.79147000  1.0 0.1208516937
H  H248  1  0.60782000  0.02984000  0.03109000  1.0 0.1301904885
H  H249  1  0.82386000  0.72934000  0.14309000  1.0 0.1208516937
H  H250  1  0.61948000  0.97490000  0.60336000  1.0 0.0895645498
H  H251  1  0.63242000  0.14590000  0.12084000  1.0 0.1301904885
H  H252  1  0.47186000  0.33502000  0.13501000  1.0 0.0711583723
H  H253  1  0.33401000  0.43517000  0.53649000  1.0 0.1301904885
H  H254  1  0.44936000  0.33282000  0.66992000  1.0 0.1208516937
H  H255  1  0.41064000  0.44708000  0.55855000  1.0 0.1208516937
H  H256  1  0.37528000  0.31750000  0.64640000  1.0 0.1301904885
H  H257  1  0.25344000  0.03772000  0.51078000  1.0 0.1133468904
H  H258  1  0.26926000  0.01394000  0.65482000  1.0 0.1301904885
H  H259  1  0.11748000  0.27696000  0.01136000  1.0 0.1301904885
H  H260  1  0.22887000  0.54765000  0.49334000  1.0 0.1301904885
H  H261  1  0.10978000  0.26496000  0.09850000  1.0 0.14671192
H  H262  1  0.20815000  0.30215000  0.11478000  1.0 0.0711583723
H  H263  1  0.26244000  0.61326000  0.50133000  1.0 0.1208516937
H  H264  1  0.68514000  0.26736000  0.67343000  1.0 0.1208516937
H  H265  1  0.66364000  0.31972000  0.63555000  1.0 0.1208516937
H  H266  1  0.63151000  0.28205000  0.63835000  1.0 0.1301904885
H  H267  1  0.28997000  0.29639000  0.14720000  1.0 0.1301904885
H  H268  1  0.26761000  0.31429000  0.19499000  1.0 0.1208516937
H  H269  1  0.24668000  0.35394000  0.14616000  1.0 0.1384322621
H  H270  1  0.64744000  0.34098000  0.70807000  1.0 0.0711583723
H  H271  1  0.16807000  0.66393000  0.59968000  1.0 0.1208516937
H  H272  1  0.52830000  0.33030000  0.66431000  1.0 0.1133468904
H  H273  1  0.13902000  0.59562000  0.59220000  1.0 0.1208516937
H  H274  1  0.31968000  0.87340000  0.66841000  1.0 0.0785451529
H  H275  1  0.29698000  0.80810000  0.48835000  1.0 0.0711583723
H  H276  1  0.00437000  0.32811000  0.15644000  1.0 0.1208516937
H  H277  1  0.95382000  0.37842000  0.13271000  1.0 0.1301904885
H  H278  1  0.98061000  0.37585000  0.18565000  1.0 0.1208516937
H  H279  1  0.38718000  0.75892000  0.58544000  1.0 0.1384322621
H  H280  1  0.45241000  0.48423000  0.60591000  1.0 0.1208516937
H  H281  1  0.39133000  0.84613000  0.58284000  1.0 0.14671192
H  H282  1  0.36106000  0.93922000  0.49366000  1.0 0.1384322621
H  H283  1  0.31696000  0.98955000  0.46151000  1.0 0.1208516937
H  H284  1  0.33570000  0.93402000  0.44250000  1.0 0.1384322621
H  H285  1  0.56034000  0.52638000  0.63162000  1.0 0.0711583723
H  H286  1  0.20596000  0.22490000  0.16136000  1.0 0.1301904885
H  H287  1  0.24531000  0.22995000  0.20380000  1.0 0.1208516937
H  H288  1  0.26508000  0.21592000  0.15417000  1.0 0.1301904885
H  H289  1  0.20387000  0.84159000  0.47343000  1.0 0.1208516937
H  H290  1  0.20576000  0.79638000  0.44188000  1.0 0.1208516937
H  H291  1  0.22706000  0.84052000  0.42416000  1.0 0.1208516937
H  H292  1  0.55136000  0.50326000  0.55484000  1.0 0.1208516937
H  H293  1  0.52483000  0.56508000  0.55568000  1.0 0.1301904885
H  H294  1  0.48908000  0.53104000  0.55199000  1.0 0.1301904885
H  H295  1  0.21517000  0.94509000  0.48124000  1.0 0.1208516937
H  H296  1  0.24296000  0.93786000  0.43439000  1.0 0.1301904885
H  H297  1  0.22423000  0.99341000  0.45339000  1.0 0.1208516937
H  H298  1  0.37172000  0.91950000  0.69713000  1.0 0.1301904885
H  H299  1  0.34867000  0.89859000  0.74053000  1.0 0.1301904885
H  H300  1  0.32283000  0.95903000  0.71749000  1.0 0.1208516937
H  H301  1  0.30314000  0.90066000  0.49837000  1.0 0.0785451529
H  H302  1  0.23479000  0.68559000  0.62887000  1.0 0.1133468904
H  H303  1  0.25567000  0.88999000  0.71871000  1.0 0.1208516937
H  H304  1  0.23045000  0.90235000  0.66388000  1.0 0.1208516937
H  H305  1  0.22901000  0.94939000  0.69288000  1.0 0.1301904885
H  H306  1  0.10393000  0.47117000  0.73311000  1.0 0.1208516937
H  H307  1  0.21446000  0.33656000  0.03949000  1.0 0.0711583723
H  H308  1  0.23777000  0.33973000  0.76173000  1.0 0.1301904885
H  H309  1  0.03731000  0.36501000  0.97148000  1.0 0.0711583723
H  H310  1  0.09902000  0.46378000  0.81474000  1.0 0.1208516937
H  H311  1  0.97826000  0.45220000  0.98223000  1.0 0.1384322621
H  H312  1  0.01277000  0.47767000  0.95464000  1.0 0.1384322621
H  H313  1  0.03691000  0.44175000  0.00517000  1.0 0.1208516937
H  H314  1  0.24962000  0.70004000  0.49030000  1.0 0.1208516937
H  H315  1  0.70862000  0.44936000  0.73215000  1.0 0.1384322621
H  H316  1  0.74444000  0.34996000  0.66666667  1.0 0.0785451529
H  H317  1  0.81430000  0.34132000  0.72363000  1.0 0.1208516937
H  H318  1  0.85422000  0.30514000  0.69264000  1.0 0.1301904885
H  H319  1  0.81235000  0.28581000  0.71480000  1.0 0.1301904885
H  H320  1  0.75538000  0.32976000  0.59242000  1.0 0.1208516937
H  H321  1  0.77489000  0.27901000  0.63208000  1.0 0.1301904885
H  H322  1  0.81676000  0.29834000  0.60991000  1.0 0.1301904885
H  H323  1  0.62840000  0.43698000  0.74076000  1.0 0.14671192
H  H324  1  0.59445000  0.30535000  0.75537000  1.0 0.1208516937
H  H325  1  0.64777000  0.25939000  0.74870000  1.0 0.1301904885
H  H326  1  0.59380000  0.26694000  0.71710000  1.0 0.1301904885
H  H327  1  0.22689000  0.36299000  0.91636000  1.0 0.1208516937
H  H328  1  0.22963000  0.33405000  0.84143000  1.0 0.1301904885
H  H329  1  0.29250000  0.35078000  0.03613000  1.0 0.1301904885
H  H330  1  0.24220000  0.40258000  0.01520000  1.0 0.1301904885
H  H331  1  0.27691000  0.36807000  0.97983000  1.0 0.1208516937
H  H332  1  0.07313000  0.41399000  0.86779000  1.0 0.1208516937
H  H333  1  0.28861000  0.26327000  0.03205000  1.0 0.1384322621
H  H334  1  0.27224000  0.27426000  0.97554000  1.0 0.1301904885
H  H335  1  0.23559000  0.25875000  0.00912000  1.0 0.1301904885
H  H336  1  0.96072000  0.40792000  0.91372000  1.0 0.1301904885
H  H337  1  0.00730000  0.37208000  0.88828000  1.0 0.1208516937
H  H338  1  0.99198000  0.43420000  0.88242000  1.0 0.1301904885
H  H339  1  0.02064000  0.45988000  0.11914000  1.0 0.1301904885
H  H340  1  0.99042000  0.45488000  0.16326000  1.0 0.1208516937
H  H341  1  0.96363000  0.45745000  0.11031000  1.0 0.1301904885
H  H342  1  0.34716000  0.72764000  0.46783000  1.0 0.1301904885
H  H343  1  0.31742000  0.76880000  0.42105000  1.0 0.1301904885
H  H344  1  0.29612000  0.72466000  0.43876000  1.0 0.1208516937
H  H345  1  0.63817000  0.59581000  0.56501000  1.0 0.1384322621
H  H346  1  0.65969000  0.53767000  0.55144000  1.0 0.1301904885
H  H347  1  0.69617000  0.57111000  0.55156000  1.0 0.1384322621
H  H348  1  0.67090000  0.60676000  0.65708000  1.0 0.1384322621
H  H349  1  0.73157000  0.58487000  0.65053000  1.0 0.1208516937
H  H350  1  0.71158000  0.55550000  0.69082000  1.0 0.1208516937
H  H351  1  0.47564000  0.57172000  0.65400000  1.0 0.1208516937
H  H352  1  0.44934000  0.56704000  0.60305000  1.0 0.1208516937
H  H353  1  0.48511000  0.60107000  0.60673000  1.0 0.1133468904
H  H354  1  0.35569000  0.69813000  0.67805000  1.0 0.1301904885
H  H355  1  0.31356000  0.67516000  0.69395000  1.0 0.1301904885
H  H356  1  0.32744000  0.71590000  0.72329000  1.0 0.1208516937
H  H357  1  0.20694000  0.78748000  0.66288000  1.0 0.1301904885
H  H358  1  0.24029000  0.76789000  0.71491000  1.0 0.1301904885
H  H359  1  0.22642000  0.72714000  0.68556000  1.0 0.1133468904
H  H360  1  0.29280000  0.77888000  0.66119000  1.0 0.0711583723
H  H361  1  0.20924000  0.38876000  0.37332000  1.0 0.1208516937
H  H362  1  0.08226000  0.35332000  0.38761000  1.0 0.1301904885
H  H363  1  0.20630000  0.32256000  0.23681000  1.0 0.1208516937
H  H364  1  0.19042000  0.11270000  0.52610000  1.0 0.1208516937
H  H365  1  0.89770000  0.38542000  0.55650000  1.0 0.1208516937
H  H366  1  0.78501000  0.52619000  0.59476000  1.0 0.1301904885
H  H367  1  0.04745000  0.39497000  0.22673000  1.0 0.1208516937
H  H368  1  0.87252000  0.51530000  0.61760000  1.0 0.1133468904
H  H369  1  0.95133000  0.51759000  0.59728000  1.0 0.1301904885
H  H370  1  0.06911000  0.35017000  0.30648000  1.0 0.1208516937
H  H371  1  0.16186000  0.20367000  0.52578000  1.0 0.1208516937
H  H372  1  0.29456000  0.08538000  0.64430000  1.0 0.1208516937
H  H373  1  0.19693000  0.38489000  0.29147000  1.0 0.1208516937
H  H374  1  0.97016000  0.39218000  0.53109000  1.0 0.1301904885
H  H375  1  0.27066000  0.17614000  0.64309000  1.0 0.1208516937
H  H376  1  0.02510000  0.38052000  0.10336000  1.0 0.0895645498
H  H377  1  0.85410000  0.36758000  0.62084000  1.0 0.1301904885
H  H378  1  0.66498000  0.52814000  0.63501000  1.0 0.0711583723
H  H379  1  0.43517000  0.33401000  0.96351000  1.0 0.1301904885
H  H380  1  0.33282000  0.44936000  0.83008000  1.0 0.1208516937
H  H381  1  0.44708000  0.41064000  0.94145000  1.0 0.1208516937
H  H382  1  0.31750000  0.37528000  0.85360000  1.0 0.1301904885
H  H383  1  0.03772000  0.25344000  0.98922000  1.0 0.1133468904
H  H384  1  0.01394000  0.26926000  0.84518000  1.0 0.1301904885
H  H385  1  0.27696000  0.11748000  0.48864000  1.0 0.1301904885
H  H386  1  0.54765000  0.22887000  0.00666000  1.0 0.1301904885
H  H387  1  0.26496000  0.10978000  0.40150000  1.0 0.14671192
H  H388  1  0.30215000  0.20815000  0.38522000  1.0 0.0711583723
H  H389  1  0.61326000  0.26244000  0.99867000  1.0 0.1208516937
H  H390  1  0.26736000  0.68514000  0.82657000  1.0 0.1301904885
H  H391  1  0.31972000  0.66364000  0.86445000  1.0 0.1208516937
H  H392  1  0.28205000  0.63151000  0.86165000  1.0 0.1301904885
H  H393  1  0.29639000  0.28997000  0.35280000  1.0 0.1301904885
H  H394  1  0.31429000  0.26761000  0.30501000  1.0 0.1208516937
H  H395  1  0.35394000  0.24668000  0.35384000  1.0 0.1384322621
H  H396  1  0.34098000  0.64744000  0.79193000  1.0 0.0711583723
H  H397  1  0.66393000  0.16807000  0.90032000  1.0 0.1208516937
H  H398  1  0.33030000  0.52830000  0.83569000  1.0 0.1133468904
H  H399  1  0.59562000  0.13902000  0.90780000  1.0 0.1301904885
H  H400  1  0.87340000  0.31968000  0.83159000  1.0 0.0785451529
H  H401  1  0.80810000  0.29698000  0.01165000  1.0 0.0711583723
H  H402  1  0.32811000  0.00437000  0.34356000  1.0 0.1208516937
H  H403  1  0.37842000  0.95382000  0.36729000  1.0 0.1301904885
H  H404  1  0.37585000  0.98061000  0.31435000  1.0 0.1208516937
H  H405  1  0.75892000  0.38718000  0.91456000  1.0 0.1384322621
H  H406  1  0.48423000  0.45241000  0.89409000  1.0 0.1208516937
H  H407  1  0.84613000  0.39133000  0.91716000  1.0 0.14671192
H  H408  1  0.93922000  0.36106000  0.00634000  1.0 0.1384322621
H  H409  1  0.98955000  0.31696000  0.03849000  1.0 0.1208516937
H  H410  1  0.93402000  0.33570000  0.05750000  1.0 0.1384322621
H  H411  1  0.52638000  0.56034000  0.86838000  1.0 0.0711583723
H  H412  1  0.22490000  0.20596000  0.33864000  1.0 0.1301904885
H  H413  1  0.22995000  0.24531000  0.29620000  1.0 0.1208516937
H  H414  1  0.21592000  0.26508000  0.34583000  1.0 0.1301904885
H  H415  1  0.84159000  0.20387000  0.02657000  1.0 0.1208516937
H  H416  1  0.79638000  0.20576000  0.05812000  1.0 0.1208516937
H  H417  1  0.84052000  0.22706000  0.07584000  1.0 0.1208516937
H  H418  1  0.50326000  0.55136000  0.94516000  1.0 0.1208516937
H  H419  1  0.56508000  0.52484000  0.94432000  1.0 0.1301904885
H  H420  1  0.53104000  0.48908000  0.94801000  1.0 0.1301904885
H  H421  1  0.94509000  0.21517000  0.01876000  1.0 0.1208516937
H  H422  1  0.93786000  0.24296000  0.06561000  1.0 0.1301904885
H  H423  1  0.99341000  0.22423000  0.04661000  1.0 0.1208516937
H  H424  1  0.91950000  0.37172000  0.80287000  1.0 0.1301904885
H  H425  1  0.89859000  0.34867000  0.75947000  1.0 0.1301904885
H  H426  1  0.95903000  0.32283000  0.78251000  1.0 0.1208516937
H  H427  1  0.90066000  0.30314000  0.00163000  1.0 0.0785451529
H  H428  1  0.68559000  0.23479000  0.87113000  1.0 0.1133468904
H  H429  1  0.88999000  0.25567000  0.78129000  1.0 0.1208516937
H  H430  1  0.90235000  0.23045000  0.83612000  1.0 0.1208516937
H  H431  1  0.94939000  0.22901000  0.80712000  1.0 0.1301904885
H  H432  1  0.47117000  0.10393000  0.76689000  1.0 0.1208516937
H  H433  1  0.33656000  0.21446000  0.46051000  1.0 0.0711583723
H  H434  1  0.33973000  0.23777000  0.73827000  1.0 0.1301904885
H  H435  1  0.36501000  0.03731000  0.52852000  1.0 0.0711583723
H  H436  1  0.46378000  0.09902000  0.68526000  1.0 0.1208516937
H  H437  1  0.45220000  0.97826000  0.51777000  1.0 0.1384322621
H  H438  1  0.47767000  0.01277000  0.54536000  1.0 0.1384322621
H  H439  1  0.44175000  0.03691000  0.49483000  1.0 0.1208516937
H  H440  1  0.70004000  0.24962000  0.00970000  1.0 0.1208516937
H  H441  1  0.44936000  0.70862000  0.76785000  1.0 0.1384322621
H  H442  1  0.34996000  0.74444000  0.83329000  1.0 0.0785451529
H  H443  1  0.34132000  0.81430000  0.77637000  1.0 0.1208516937
H  H444  1  0.30514000  0.85422000  0.80736000  1.0 0.1301904885
H  H445  1  0.28581000  0.81235000  0.78520000  1.0 0.1301904885
H  H446  1  0.32976000  0.75538000  0.90758000  1.0 0.1208516937
H  H447  1  0.27901000  0.77489000  0.86792000  1.0 0.1301904885
H  H448  1  0.29834000  0.81676000  0.89009000  1.0 0.1301904885
H  H449  1  0.43698000  0.62840000  0.75924000  1.0 0.14671192
H  H450  1  0.30535000  0.59445000  0.74463000  1.0 0.1301904885
H  H451  1  0.25939000  0.64777000  0.75130000  1.0 0.1301904885
H  H452  1  0.26694000  0.59380000  0.78290000  1.0 0.1301904885
H  H453  1  0.36299000  0.22689000  0.58364000  1.0 0.1208516937
H  H454  1  0.33405000  0.22963000  0.65857000  1.0 0.1301904885
H  H455  1  0.35078000  0.29250000  0.46387000  1.0 0.1301904885
H  H456  1  0.40258000  0.24220000  0.48480000  1.0 0.1301904885
H  H457  1  0.36807000  0.27691000  0.52017000  1.0 0.1208516937
H  H458  1  0.41399000  0.07313000  0.63221000  1.0 0.1208516937
H  H459  1  0.26327000  0.28861000  0.46795000  1.0 0.1384322621
H  H460  1  0.27426000  0.27224000  0.52446000  1.0 0.1301904885
H  H461  1  0.25875000  0.23559000  0.49088000  1.0 0.1301904885
H  H462  1  0.40792000  0.96072000  0.58628000  1.0 0.1384322621
H  H463  1  0.37208000  0.00730000  0.61172000  1.0 0.1208516937
H  H464  1  0.43420000  0.99198000  0.61758000  1.0 0.1301904885
H  H465  1  0.45988000  0.02064000  0.38086000  1.0 0.1301904885
H  H466  1  0.45488000  0.99042000  0.33674000  1.0 0.1208516937
H  H467  1  0.45745000  0.96363000  0.38969000  1.0 0.1301904885
H  H468  1  0.72764000  0.34716000  0.03217000  1.0 0.1301904885
H  H469  1  0.76880000  0.31742000  0.07895000  1.0 0.1301904885
H  H470  1  0.72466000  0.29612000  0.06124000  1.0 0.1208516937
H  H471  1  0.59581000  0.63817000  0.93499000  1.0 0.1384322621
H  H472  1  0.53767000  0.65969000  0.94856000  1.0 0.1301904885
H  H473  1  0.57111000  0.69617000  0.94844000  1.0 0.1384322621
H  H474  1  0.60676000  0.67090000  0.84292000  1.0 0.1384322621
H  H475  1  0.58487000  0.73157000  0.84947000  1.0 0.1208516937
H  H476  1  0.55550000  0.71158000  0.80918000  1.0 0.1208516937
H  H477  1  0.57172000  0.47564000  0.84600000  1.0 0.1208516937
H  H478  1  0.56704000  0.44934000  0.89695000  1.0 0.1208516937
H  H479  1  0.60107000  0.48511000  0.89327000  1.0 0.1133468904
H  H480  1  0.69813000  0.35569000  0.82195000  1.0 0.1301904885
H  H481  1  0.67516000  0.31356000  0.80605000  1.0 0.1301904885
H  H482  1  0.71590000  0.32744000  0.77671000  1.0 0.1208516937
H  H483  1  0.78748000  0.20694000  0.83712000  1.0 0.1301904885
H  H484  1  0.76789000  0.24029000  0.78509000  1.0 0.1301904885
H  H485  1  0.72714000  0.22642000  0.81444000  1.0 0.1133468904
H  H486  1  0.77888000  0.29280000  0.83881000  1.0 0.0711583723
H  H487  1  0.38876000  0.20924000  0.12668000  1.0 0.1208516937
H  H488  1  0.35332000  0.08226000  0.11239000  1.0 0.1301904885
H  H489  1  0.32256000  0.20630000  0.26319000  1.0 0.1208516937
H  H490  1  0.11270000  0.19042000  0.97390000  1.0 0.1208516937
H  H491  1  0.38542000  0.89770000  0.94350000  1.0 0.1208516937
H  H492  1  0.52619000  0.78501000  0.90524000  1.0 0.1301904885
H  H493  1  0.39497000  0.04745000  0.27327000  1.0 0.1208516937
H  H494  1  0.51530000  0.87252000  0.88240000  1.0 0.1133468904
H  H495  1  0.51759000  0.95133000  0.90272000  1.0 0.1301904885
H  H496  1  0.35017000  0.06911000  0.19352000  1.0 0.1208516937
H  H497  1  0.20367000  0.16187000  0.97422000  1.0 0.1208516937
H  H498  1  0.08538000  0.29456000  0.85570000  1.0 0.1208516937
H  H499  1  0.38489000  0.19693000  0.20853000  1.0 0.1208516937
H  H500  1  0.39218000  0.97016000  0.96891000  1.0 0.1208516937
H  H501  1  0.17614000  0.27066000  0.85691000  1.0 0.1208516937
H  H502  1  0.38052000  0.02510000  0.39664000  1.0 0.0895645498
H  H503  1  0.36758000  0.85410000  0.87916000  1.0 0.1301904885
H  H504  1  0.52814000  0.66498000  0.86499000  1.0 0.0711583723
C  C1  1  0.65192000  0.62752000  0.41060000  1.0 -0.0360289447
C  C2  1  0.64186000  0.58646000  0.43680000  1.0 -0.090737897
C  C3  1  0.57363000  0.64623000  0.35760000  1.0 -0.1399081233
C  C4  1  0.56140000  0.60780000  0.38150000  1.0 0.0711583723
C  C5  1  0.73995000  0.96615000  0.41530000  1.0 0.0785451529
C  C6  1  0.59700000  0.57880000  0.42280000  1.0 -0.1320091272
C  C7  1  0.70254000  0.63334000  0.42420000  1.0 0.5806639833
C  C8  1  0.51630000  0.59750000  0.36890000  1.0 0.0711583723
C  C9  1  0.61797000  0.65557000  0.37170000  1.0 -0.090737897
C  C10  1  0.73580000  0.98520000  0.45990000  1.0 -0.1971851061
C  C11  1  0.70510000  0.07110000  0.41640000  1.0 0.0216307213
C  C12  1  0.72677000  0.99997000  0.37440000  1.0 -0.1699725024
C  C13  1  0.71440000  0.04120000  0.45790000  1.0 0.0290340398
C  C14  1  0.88210000  0.69910000  0.96710000  1.0 -0.0820801771
C  C15  1  0.81630000  0.43670000  0.45570000  1.0 -0.0558590269
C  C16  1  0.78237000  0.42957000  0.48370000  1.0 -0.0820801771
C  C17  1  0.87819000  0.62679000  0.93910000  1.0 -0.1087326444
C  C18  1  0.42380000  0.63060000  0.33230000  1.0 0.0290340398
C  C19  1  0.88690000  0.70610000  0.91970000  1.0 -0.1087326444
C  C20  1  0.78270000  0.70270000  0.84990000  1.0 0.0895645498
C  C21  1  0.76312000  0.38972000  0.47990000  1.0 -0.1399081233
C  C22  1  0.34640000  0.70380000  0.34310000  1.0 -0.4403575342
C  C23  1  0.74120000  0.68280000  0.83950000  1.0 -0.4471800032
C  C24  1  0.78230000  0.35410000  0.44810000  1.0 0.0895645498
C  C25  1  0.37540000  0.67480000  0.30850000  1.0 0.0601495633
C  C26  1  0.81820000  0.36000000  0.42180000  1.0 -0.1485141667
C  C27  1  0.47060000  0.63620000  0.34460000  1.0 -0.1877699395
C  C28  1  0.70810000  0.05310000  0.37310000  1.0 0.0216307213
C  C29  1  0.83520000  0.40120000  0.42620000  1.0 -0.099302364
C  C30  1  0.69910000  0.08990000  0.32540000  1.0 0.0895645498
C  C31  1  0.72070000  0.21570000  0.52150000  1.0 0.0895645498
C  C32  1  0.01290000  0.63370000  0.84600000  1.0 -0.3993266629
C  C33  1  0.75800000  0.31480000  0.44000000  1.0 0.0895645498
C  C34  1  0.64190000  0.20870000  0.41730000  1.0 -0.0820801771
C  C35  1  0.51690000  0.54430000  0.37920000  1.0 -0.1877699395
C  C36  1  0.72030000  0.15050000  0.42400000  1.0 -0.070125909
C  C37  1  0.63950000  0.16150000  0.41730000  1.0 -0.1087326444
C  C38  1  0.67120000  0.04840000  0.52930000  1.0 -0.4288459713
C  C39  1  0.47190000  0.47830000  0.38250000  1.0 0.0785451529
C  C40  1  0.42550000  0.57890000  0.33970000  1.0 0.0412765243
C  C41  1  0.72530000  0.25010000  0.47310000  1.0 0.0046332878
C  C42  1  0.72820000  0.26360000  0.38990000  1.0 0.0500612384
C  C43  1  0.76490000  0.76390000  0.83080000  1.0 -0.4403575342
C  C44  1  0.77610000  0.18110000  0.54790000  1.0 -0.419430979
C  C45  1  0.47710000  0.46890000  0.43420000  1.0 -0.419430979
C  C46  1  0.76110000  0.04470000  0.53710000  1.0 -0.419430979
C  C47  1  0.46770000  0.53730000  0.36530000  1.0 0.0290340398
C  C48  1  0.66030000  0.07690000  0.28910000  1.0 -0.419430979
C  C49  1  0.71480000  0.24120000  0.43090000  1.0 0.0216307213
C  C50  1  0.71040000  0.06020000  0.50830000  1.0 0.0711583723
C  C51  1  0.75280000  0.30040000  0.39690000  1.0 -0.1781990138
C  C52  1  0.75040000  0.08680000  0.31130000  1.0 -0.4403575342
C  C53  1  0.91200000  0.61100000  0.06060000  1.0 0.0099040004
C  C54  1  0.82870000  0.59590000  0.26110000  1.0 -0.0360289447
C  C55  1  0.87075000  0.55715000  0.24540000  1.0 -0.099302364
C  C56  1  0.77055000  0.66515000  0.99110000  1.0 0.0895645498
C  C57  1  0.79160000  0.63520000  0.22790000  1.0 -0.0820801771
C  C58  1  0.96490000  0.60370000  0.05060000  1.0 0.0895645498
C  C59  1  0.87338000  0.56238000  0.19670000  1.0 -0.1485141667
C  C60  1  0.82701000  0.59621000  0.31310000  1.0 0.6027960075
C  C61  1  0.81627000  0.64187000  0.03060000  1.0 0.0290340398
C  C62  1  0.86737000  0.63417000  0.02360000  1.0 0.0601495633
C  C63  1  0.98630000  0.55310000  0.02460000  1.0 -0.4403575342
C  C64  1  0.34710000  0.56770000  0.36350000  1.0 -0.1239358691
C  C65  1  0.74550000  0.29030000  0.47910000  1.0 -0.1699725024
C  C66  1  0.31370000  0.55630000  0.29230000  1.0 -0.090737897
C  C67  1  0.22040000  0.65760000  0.34360000  1.0 0.0711583723
C  C68  1  0.18140000  0.68360000  0.29930000  1.0 -0.4471800032
C  C69  1  0.21820000  0.69020000  0.38020000  1.0 -0.4471800032
C  C70  1  0.35670000  0.56310000  0.28780000  1.0 -0.099302364
C  C71  1  0.38590000  0.71490000  0.26770000  1.0 -0.4403575342
C  C72  1  0.80781000  0.63081000  0.07740000  1.0 -0.1699725024
C  C73  1  0.79630000  0.63870000  0.18060000  1.0 -0.1485141667
C  C74  1  0.73680000  0.63320000  0.98990000  1.0 -0.419430979
C  C75  1  0.83891000  0.60251000  0.16480000  1.0 0.0785451529
C  C76  1  0.84834000  0.61134000  0.11410000  1.0 0.0711583723
C  C77  1  0.89935000  0.60075000  0.10610000  1.0 -0.1877699395
C  C78  1  0.74100000  0.72220000  0.99380000  1.0 -0.4403575342
C  C79  1  0.00490000  0.59670000  0.09580000  1.0 -0.4471800032
C  C80  1  0.00310000  0.55530000  0.86810000  1.0 -0.4403575342
C  C81  1  0.68710000  0.25170000  0.55100000  1.0 -0.4403575342
C  C82  1  0.33070000  0.43650000  0.43280000  1.0 -0.4288459713
C  C83  1  0.29760000  0.42500000  0.34140000  1.0 -0.419430979
C  C84  1  0.51960000  0.43040000  0.37940000  1.0 -0.3993266629
C  C85  1  0.67710000  0.29390000  0.30840000  1.0 -0.4471800032
C  C86  1  0.76460000  0.24160000  0.31690000  1.0 -0.4288459713
C  C87  1  0.71660000  0.25280000  0.33750000  1.0 0.0711583723
C  C88  1  0.81965000  0.61845000  0.64030000  1.0 -0.1087326444
C  C89  1  0.87400000  0.63940000  0.75970000  1.0 0.0711583723
C  C90  1  0.83428000  0.47968000  0.45780000  1.0 0.5907299114
C  C91  1  0.89489000  0.63929000  0.63220000  1.0 -0.099302364
C  C92  1  0.84896000  0.62196000  0.56060000  1.0 0.5806639833
C  C93  1  0.82760000  0.66480000  0.78140000  1.0 -0.1877699395
C  C94  1  0.03024000  0.54604000  0.43710000  1.0 -0.0108612007
C  C95  1  0.12433000  0.54913000  0.41060000  1.0 0.0785451529
C  C96  1  0.79406000  0.87386000  0.44990000  1.0 -0.1614583986
C  C97  1  0.97600000  0.54980000  0.44500000  1.0 0.5806639833
C  C98  1  0.85456000  0.62596000  0.61240000  1.0 -0.0360289447
C  C99  1  0.86737000  0.63357000  0.70930000  1.0 0.0785451529
C  C100  1  0.93050000  0.62630000  0.83660000  1.0 -0.0236616248
C  C101  1  0.09248000  0.58648000  0.43590000  1.0 -0.1320091272
C  C102  1  0.78255000  0.80315000  0.41510000  1.0 -0.0236616248
C  C103  1  0.21638000  0.50658000  0.39380000  1.0 -0.1781990138
C  C104  1  0.92243000  0.62163000  0.78780000  1.0 -0.1877699395
C  C105  1  0.10694000  0.51094000  0.39930000  1.0 -0.1320091272
C  C106  1  0.79859000  0.74379000  0.41750000  1.0 0.5806639833
C  C107  1  0.05996000  0.50916000  0.41170000  1.0 -0.0820801771
C  C108  1  0.90225000  0.64205000  0.68020000  1.0 -0.1485141667
C  C109  1  0.17257000  0.55317000  0.39460000  1.0 0.0895645498
C  C110  1  0.81047000  0.82027000  0.45120000  1.0 -0.099302364
C  C111  1  0.83340000  0.67060000  0.82920000  1.0 0.0216307213
C  C112  1  0.88197000  0.65297000  0.85500000  1.0 0.0601495633
C  C113  1  0.75598000  0.90858000  0.41500000  1.0 0.0711583723
C  C114  1  0.73144000  0.89064000  0.37990000  1.0 -0.1614583986
C  C115  1  0.82668000  0.62148000  0.68910000  1.0 -0.1485141667
C  C116  1  0.04873000  0.58333000  0.44970000  1.0 -0.090737897
C  C117  1  0.26090000  0.55690000  0.35890000  1.0 0.0412765243
C  C118  1  0.21964000  0.60364000  0.36110000  1.0 0.0216307213
C  C119  1  0.74576000  0.83676000  0.38070000  1.0 -0.090737897
C  C120  1  0.98020000  0.61000000  0.86410000  1.0 0.0500612384
C  C121  1  0.26213000  0.50773000  0.37640000  1.0 0.0099040004
C  C122  1  0.17499000  0.60099000  0.37840000  1.0 -0.1877699395
C  C123  1  0.30810000  0.45990000  0.37740000  1.0 0.0785451529
C  C124  1  0.62752000  0.65192000  0.08940000  1.0 -0.0360289447
C  C125  1  0.58646000  0.64186000  0.06320000  1.0 -0.090737897
C  C126  1  0.64623000  0.57363000  0.14240000  1.0 -0.1399081233
C  C127  1  0.60780000  0.56140000  0.11850000  1.0 0.0711583723
C  C128  1  0.96615000  0.73995000  0.08470000  1.0 0.0785451529
C  C129  1  0.57880000  0.59700000  0.07720000  1.0 -0.1320091272
C  C130  1  0.63334000  0.70254000  0.07580000  1.0 0.5806639833
C  C131  1  0.59750000  0.51630000  0.13110000  1.0 0.0711583723
C  C132  1  0.65557000  0.61797000  0.12830000  1.0 -0.090737897
C  C133  1  0.98520000  0.73580000  0.04010000  1.0 -0.1971851061
C  C134  1  0.07110000  0.70510000  0.08360000  1.0 0.0216307213
C  C135  1  0.99997000  0.72677000  0.12560000  1.0 -0.1699725024
C  C136  1  0.04120000  0.71440000  0.04210000  1.0 0.0290340398
C  C137  1  0.69910000  0.88210000  0.53290000  1.0 -0.0820801771
C  C138  1  0.43670000  0.81630000  0.04430000  1.0 -0.0558590269
C  C139  1  0.42957000  0.78237000  0.01630000  1.0 -0.0820801771
C  C140  1  0.62679000  0.87819000  0.56090000  1.0 -0.1087326444
C  C141  1  0.63060000  0.42380000  0.16770000  1.0 0.0290340398
C  C142  1  0.70610000  0.88690000  0.58030000  1.0 -0.1087326444
C  C143  1  0.70270000  0.78270000  0.65010000  1.0 0.0895645498
C  C144  1  0.38972000  0.76312000  0.02010000  1.0 -0.1399081233
C  C145  1  0.70380000  0.34640000  0.15690000  1.0 -0.4403575342
C  C146  1  0.68280000  0.74120000  0.66050000  1.0 -0.4471800032
C  C147  1  0.35410000  0.78230000  0.05190000  1.0 0.0895645498
C  C148  1  0.67480000  0.37540000  0.19150000  1.0 0.0601495633
C  C149  1  0.36000000  0.81820000  0.07820000  1.0 -0.1485141667
C  C150  1  0.63620000  0.47060000  0.15540000  1.0 -0.1877699395
C  C151  1  0.05310000  0.70810000  0.12690000  1.0 0.0216307213
C  C152  1  0.40120000  0.83520000  0.07380000  1.0 -0.099302364
C  C153  1  0.08990000  0.69910000  0.17460000  1.0 0.0895645498
C  C154  1  0.21570000  0.72070000  0.97850000  1.0 0.0895645498
C  C155  1  0.63370000  0.01290000  0.65400000  1.0 -0.3993266629
C  C156  1  0.31480000  0.75800000  0.06000000  1.0 0.0895645498
C  C157  1  0.20870000  0.64190000  0.08270000  1.0 -0.0820801771
C  C158  1  0.54430000  0.51690000  0.12080000  1.0 -0.1877699395
C  C159  1  0.15050000  0.72030000  0.07600000  1.0 -0.070125909
C  C160  1  0.16150000  0.63950000  0.08270000  1.0 -0.1087326444
C  C161  1  0.04840000  0.67120000  0.97070000  1.0 -0.4288459713
C  C162  1  0.47830000  0.47190000  0.11750000  1.0 0.0785451529
C  C163  1  0.57890000  0.42550000  0.16030000  1.0 0.0412765243
C  C164  1  0.25010000  0.72530000  0.02690000  1.0 0.0046332878
C  C165  1  0.26360000  0.72820000  0.11010000  1.0 0.0500612384
C  C166  1  0.76390000  0.76490000  0.66920000  1.0 -0.4403575342
C  C167  1  0.18110000  0.77610000  0.95210000  1.0 -0.4288459713
C  C168  1  0.46890000  0.47710000  0.06580000  1.0 -0.419430979
C  C169  1  0.04470000  0.76110000  0.96290000  1.0 -0.419430979
C  C170  1  0.53730000  0.46770000  0.13470000  1.0 0.0290340398
C  C171  1  0.07690000  0.66030000  0.21090000  1.0 -0.419430979
C  C172  1  0.24120000  0.71480000  0.06910000  1.0 0.0216307213
C  C173  1  0.06020000  0.71040000  0.99170000  1.0 0.0711583723
C  C174  1  0.30040000  0.75280000  0.10310000  1.0 -0.1877699395
C  C175  1  0.08680000  0.75040000  0.18870000  1.0 -0.4403575342
C  C176  1  0.61100000  0.91200000  0.43940000  1.0 0.0099040004
C  C177  1  0.59590000  0.82870000  0.23890000  1.0 -0.0360289447
C  C178  1  0.55715000  0.87075000  0.25460000  1.0 -0.099302364
C  C179  1  0.66515000  0.77055000  0.50890000  1.0 0.0895645498
C  C180  1  0.63520000  0.79160000  0.27210000  1.0 -0.0820801771
C  C181  1  0.60370000  0.96490000  0.44940000  1.0 0.0895645498
C  C182  1  0.56238000  0.87338000  0.30330000  1.0 -0.1485141667
C  C183  1  0.59621000  0.82701000  0.18690000  1.0 0.6027960075
C  C184  1  0.64187000  0.81627000  0.46940000  1.0 0.0290340398
C  C185  1  0.63417000  0.86737000  0.47640000  1.0 0.0601495633
C  C186  1  0.55310000  0.98630000  0.47540000  1.0 -0.4403575342
C  C187  1  0.56770000  0.34710000  0.13650000  1.0 -0.1239358691
C  C188  1  0.29030000  0.74550000  0.02090000  1.0 -0.1699725024
C  C189  1  0.55630000  0.31370000  0.20770000  1.0 -0.090737897
C  C190  1  0.65760000  0.22040000  0.15640000  1.0 0.0711583723
C  C191  1  0.68360000  0.18140000  0.20070000  1.0 -0.4471800032
C  C192  1  0.69020000  0.21820000  0.11980000  1.0 -0.4471800032
C  C193  1  0.56310000  0.35670000  0.21220000  1.0 -0.099302364
C  C194  1  0.71490000  0.38590000  0.23230000  1.0 -0.4403575342
C  C195  1  0.63081000  0.80781000  0.42260000  1.0 -0.1699725024
C  C196  1  0.63870000  0.79630000  0.31940000  1.0 -0.1485141667
C  C197  1  0.63320000  0.73680000  0.51010000  1.0 -0.419430979
C  C198  1  0.60251000  0.83891000  0.33520000  1.0 0.0785451529
C  C199  1  0.61134000  0.84834000  0.38590000  1.0 0.0711583723
C  C200  1  0.60075000  0.89935000  0.39390000  1.0 -0.1877699395
C  C201  1  0.72220000  0.74100000  0.50620000  1.0 -0.4403575342
C  C202  1  0.59670000  0.00490000  0.40420000  1.0 -0.4471800032
C  C203  1  0.55530000  0.00310000  0.63190000  1.0 -0.4288459713
C  C204  1  0.25170000  0.68710000  0.94900000  1.0 -0.4403575342
C  C205  1  0.43650000  0.33070000  0.06720000  1.0 -0.4288459713
C  C206  1  0.42500000  0.29760000  0.15860000  1.0 -0.419430979
C  C207  1  0.43040000  0.51960000  0.12060000  1.0 -0.3993266629
C  C208  1  0.29390000  0.67710000  0.19160000  1.0 -0.4471800032
C  C209  1  0.24160000  0.76460000  0.18310000  1.0 -0.4288459713
C  C210  1  0.25280000  0.71660000  0.16250000  1.0 0.0711583723
C  C211  1  0.61845000  0.81965000  0.85970000  1.0 -0.1087326444
C  C212  1  0.63940000  0.87400000  0.74030000  1.0 0.0711583723
C  C213  1  0.47968000  0.83428000  0.04220000  1.0 0.5907299114
C  C214  1  0.63929000  0.89489000  0.86780000  1.0 -0.099302364
C  C215  1  0.62196000  0.84896000  0.93940000  1.0 0.5806639833
C  C216  1  0.66480000  0.82760000  0.71860000  1.0 -0.1877699395
C  C217  1  0.54604000  0.03024000  0.06290000  1.0 -0.0108612007
C  C218  1  0.54913000  0.12433000  0.08940000  1.0 0.0785451529
C  C219  1  0.87386000  0.79406000  0.05010000  1.0 -0.1614583986
C  C220  1  0.54980000  0.97600000  0.05500000  1.0 0.5806639833
C  C221  1  0.62596000  0.85456000  0.88760000  1.0 -0.0360289447
C  C222  1  0.63357000  0.86737000  0.79070000  1.0 0.0785451529
C  C223  1  0.62630000  0.93050000  0.66340000  1.0 -0.0236616248
C  C224  1  0.58648000  0.09248000  0.06410000  1.0 -0.1320091272
C  C225  1  0.80315000  0.78255000  0.08490000  1.0 -0.0236616248
C  C226  1  0.50658000  0.21638000  0.10620000  1.0 -0.1781990138
C  C227  1  0.62163000  0.92243000  0.71220000  1.0 -0.1877699395
C  C228  1  0.51094000  0.10694000  0.10070000  1.0 -0.1320091272
C  C229  1  0.74379000  0.79859000  0.08250000  1.0 0.5806639833
C  C230  1  0.50916000  0.05996000  0.08830000  1.0 -0.0820801771
C  C231  1  0.64205000  0.90225000  0.81980000  1.0 -0.1485141667
C  C232  1  0.55317000  0.17257000  0.10540000  1.0 0.0895645498
C  C233  1  0.82027000  0.81047000  0.04880000  1.0 -0.099302364
C  C234  1  0.67060000  0.83340000  0.67080000  1.0 0.0216307213
C  C235  1  0.65297000  0.88197000  0.64500000  1.0 0.0601495633
C  C236  1  0.90858000  0.75598000  0.08500000  1.0 0.0711583723
C  C237  1  0.89064000  0.73144000  0.12010000  1.0 -0.1614583986
C  C238  1  0.62148000  0.82668000  0.81090000  1.0 -0.1485141667
C  C239  1  0.58333000  0.04873000  0.05030000  1.0 -0.090737897
C  C240  1  0.55690000  0.26090000  0.14110000  1.0 0.0412765243
C  C241  1  0.60364000  0.21964000  0.13890000  1.0 0.0216307213
C  C242  1  0.83676000  0.74576000  0.11930000  1.0 -0.090737897
C  C243  1  0.61000000  0.98020000  0.63590000  1.0 0.0500612384
C  C244  1  0.50773000  0.26213000  0.12360000  1.0 0.0099040004
C  C245  1  0.60099000  0.17499000  0.12160000  1.0 -0.1877699395
C  C246  1  0.45990000  0.30810000  0.12260000  1.0 0.0785451529
C  C247  1  0.34808000  0.37248000  0.58940000  1.0 -0.0360289447
C  C248  1  0.35814000  0.41354000  0.56320000  1.0 -0.090737897
C  C249  1  0.42637000  0.35377000  0.64240000  1.0 -0.1399081233
C  C250  1  0.43860000  0.39220000  0.61850000  1.0 0.0711583723
C  C251  1  0.26005000  0.03385000  0.58470000  1.0 0.0785451529
C  C252  1  0.40300000  0.42120000  0.57720000  1.0 -0.1320091272
C  C253  1  0.29746000  0.36666000  0.57580000  1.0 0.5806639833
C  C254  1  0.48370000  0.40250000  0.63110000  1.0 0.0711583723
C  C255  1  0.38203000  0.34443000  0.62830000  1.0 -0.090737897
C  C256  1  0.26420000  0.01480000  0.54010000  1.0 -0.1971851061
C  C257  1  0.29490000  0.92890000  0.58360000  1.0 0.0290340398
C  C258  1  0.27323000  0.00003000  0.62560000  1.0 -0.1699725024
C  C259  1  0.28560000  0.95880000  0.54210000  1.0 0.0290340398
C  C260  1  0.11790000  0.30090000  0.03290000  1.0 -0.0820801771
C  C261  1  0.18370000  0.56330000  0.54430000  1.0 -0.0558590269
C  C262  1  0.21763000  0.57043000  0.51630000  1.0 -0.0820801771
C  C263  1  0.12181000  0.37321000  0.06090000  1.0 -0.1087326444
C  C264  1  0.57620000  0.36940000  0.66770000  1.0 0.0290340398
C  C265  1  0.11310000  0.29390000  0.08030000  1.0 -0.1087326444
C  C266  1  0.21730000  0.29730000  0.15010000  1.0 0.0895645498
C  C267  1  0.23688000  0.61028000  0.52010000  1.0 -0.1399081233
C  C268  1  0.65360000  0.29620000  0.65690000  1.0 -0.4403575342
C  C269  1  0.25880000  0.31720000  0.16050000  1.0 -0.4471800032
C  C270  1  0.21770000  0.64590000  0.55190000  1.0 0.0895645498
C  C271  1  0.62460000  0.32520000  0.69150000  1.0 0.0601495633
C  C272  1  0.18180000  0.64000000  0.57820000  1.0 -0.1485141667
C  C273  1  0.52940000  0.36380000  0.65540000  1.0 -0.1877699395
C  C274  1  0.29190000  0.94690000  0.62690000  1.0 0.0216307213
C  C275  1  0.16480000  0.59880000  0.57380000  1.0 -0.099302364
C  C276  1  0.30090000  0.91010000  0.67460000  1.0 0.0895645498
C  C277  1  0.27930000  0.78430000  0.47850000  1.0 0.0895645498
C  C278  1  0.98710000  0.36630000  0.15400000  1.0 -0.3993266629
C  C279  1  0.24200000  0.68520000  0.56000000  1.0 0.0895645498
C  C280  1  0.35810000  0.79130000  0.58270000  1.0 -0.0820801771
C  C281  1  0.48310000  0.45570000  0.62080000  1.0 -0.1877699395
C  C282  1  0.27970000  0.84950000  0.57600000  1.0 -0.070125909
C  C283  1  0.36050000  0.83850000  0.58270000  1.0 -0.1087326444
C  C284  1  0.32880000  0.95160000  0.47070000  1.0 -0.4288459713
C  C285  1  0.52810000  0.52170000  0.61750000  1.0 0.0785451529
C  C286  1  0.57450000  0.42110000  0.66030000  1.0 0.0412765243
C  C287  1  0.27470000  0.74990000  0.52690000  1.0 0.0046332878
C  C288  1  0.27180000  0.73640000  0.61010000  1.0 0.0500612384
C  C289  1  0.23510000  0.23610000  0.16920000  1.0 -0.4403575342
C  C290  1  0.22390000  0.81890000  0.45210000  1.0 -0.4288459713
C  C291  1  0.52290000  0.53110000  0.56580000  1.0 -0.419430979
C  C292  1  0.23890000  0.95530000  0.46290000  1.0 -0.419430979
C  C293  1  0.53230000  0.46270000  0.63470000  1.0 0.0290340398
C  C294  1  0.33970000  0.92310000  0.71090000  1.0 -0.419430979
C  C295  1  0.28520000  0.75880000  0.56910000  1.0 0.0216307213
C  C296  1  0.28960000  0.93980000  0.49170000  1.0 0.0711583723
C  C297  1  0.24720000  0.69960000  0.60310000  1.0 -0.1877699395
C  C298  1  0.24960000  0.91320000  0.68870000  1.0 -0.4403575342
C  C299  1  0.08800000  0.38900000  0.93940000  1.0 0.0099040004
C  C300  1  0.17130000  0.40410000  0.73890000  1.0 -0.0360289447
C  C301  1  0.12925000  0.44285000  0.75460000  1.0 -0.099302364
C  C302  1  0.22945000  0.33485000  0.00890000  1.0 0.0895645498
C  C303  1  0.20840000  0.36480000  0.77210000  1.0 -0.0820801771
C  C304  1  0.03510000  0.39630000  0.94940000  1.0 0.0895645498
C  C305  1  0.12662000  0.43762000  0.80330000  1.0 -0.1485141667
C  C306  1  0.17299000  0.40379000  0.68690000  1.0 0.6027960075
C  C307  1  0.18373000  0.35813000  0.96940000  1.0 0.0290340398
C  C308  1  0.13263000  0.36583000  0.97640000  1.0 0.0601495633
C  C309  1  0.01370000  0.44690000  0.97540000  1.0 -0.4403575342
C  C310  1  0.65290000  0.43230000  0.63650000  1.0 -0.1239358691
C  C311  1  0.25450000  0.70970000  0.52090000  1.0 -0.1699725024
C  C312  1  0.68630000  0.44370000  0.70770000  1.0 -0.090737897
C  C313  1  0.77960000  0.34240000  0.65640000  1.0 0.0711583723
C  C314  1  0.81860000  0.31640000  0.70070000  1.0 -0.4471800032
C  C315  1  0.78180000  0.30980000  0.61980000  1.0 -0.4471800032
C  C316  1  0.64330000  0.43690000  0.71220000  1.0 -0.099302364
C  C317  1  0.61410000  0.28510000  0.73230000  1.0 -0.4403575342
C  C318  1  0.19219000  0.36919000  0.92260000  1.0 -0.1699725024
C  C319  1  0.20370000  0.36130000  0.81940000  1.0 -0.1485141667
C  C320  1  0.26320000  0.36680000  0.01010000  1.0 -0.419430979
C  C321  1  0.16109000  0.39749000  0.83520000  1.0 0.0895645498
C  C322  1  0.15166000  0.38866000  0.88590000  1.0 0.0711583723
C  C323  1  0.10065000  0.39925000  0.89390000  1.0 -0.1877699395
C  C324  1  0.25900000  0.27780000  0.00620000  1.0 -0.4403575342
C  C325  1  0.99510000  0.40330000  0.90420000  1.0 -0.4471800032
C  C326  1  0.99690000  0.44470000  0.13190000  1.0 -0.4403575342
C  C327  1  0.31290000  0.74830000  0.44900000  1.0 -0.4403575342
C  C328  1  0.66930000  0.56350000  0.56720000  1.0 -0.4288459713
C  C329  1  0.70240000  0.57500000  0.65860000  1.0 -0.419430979
C  C330  1  0.48040000  0.56960000  0.62060000  1.0 -0.3993266629
C  C331  1  0.32290000  0.70610000  0.69160000  1.0 -0.4471800032
C  C332  1  0.23540000  0.75840000  0.68310000  1.0 -0.4288459713
C  C333  1  0.28340000  0.74720000  0.66250000  1.0 0.0711583723
C  C334  1  0.18035000  0.38155000  0.35970000  1.0 -0.1087326444
C  C335  1  0.12600000  0.36060000  0.24030000  1.0 0.0711583723
C  C336  1  0.16572000  0.52032000  0.54220000  1.0 0.5907299114
C  C337  1  0.10511000  0.36071000  0.36780000  1.0 -0.099302364
C  C338  1  0.15104000  0.37804000  0.43940000  1.0 0.5806639833
C  C339  1  0.17240000  0.33520000  0.21860000  1.0 -0.1877699395
C  C340  1  0.96976000  0.45396000  0.56290000  1.0 -0.0108612007
C  C341  1  0.87567000  0.45087000  0.58940000  1.0 0.0785451529
C  C342  1  0.20594000  0.12614000  0.55010000  1.0 -0.1614583986
C  C343  1  0.02400000  0.45020000  0.55500000  1.0 0.5806639833
C  C344  1  0.14544000  0.37404000  0.38760000  1.0 -0.0360289447
C  C345  1  0.13263000  0.36643000  0.29070000  1.0 0.0785451529
C  C346  1  0.06950000  0.37370000  0.16340000  1.0 -0.0236616248
C  C347  1  0.90752000  0.41352000  0.56410000  1.0 -0.1320091272
C  C348  1  0.21745000  0.19685000  0.58490000  1.0 -0.0236616248
C  C349  1  0.78362000  0.49342000  0.60620000  1.0 -0.1781990138
C  C350  1  0.07757000  0.37837000  0.21220000  1.0 -0.1877699395
C  C351  1  0.89306000  0.48906000  0.60070000  1.0 -0.1320091272
C  C352  1  0.20141000  0.25621000  0.58250000  1.0 0.5806639833
C  C353  1  0.94004000  0.49084000  0.58830000  1.0 -0.0820801771
C  C354  1  0.09775000  0.35795000  0.31980000  1.0 -0.1485141667
C  C355  1  0.82743000  0.44683000  0.60540000  1.0 0.0895645498
C  C356  1  0.18953000  0.17973000  0.54880000  1.0 -0.099302364
C  C357  1  0.16660000  0.32940000  0.17080000  1.0 0.0216307213
C  C358  1  0.11803000  0.34703000  0.14500000  1.0 0.0601495633
C  C359  1  0.24402000  0.09142000  0.58500000  1.0 0.0711583723
C  C360  1  0.26856000  0.10936000  0.62010000  1.0 -0.1614583986
C  C361  1  0.17332000  0.37852000  0.31090000  1.0 -0.1485141667
C  C362  1  0.95127000  0.41667000  0.55030000  1.0 -0.090737897
C  C363  1  0.73910000  0.44310000  0.64110000  1.0 0.0412765243
C  C364  1  0.78036000  0.39636000  0.63890000  1.0 0.0216307213
C  C365  1  0.25424000  0.16324000  0.61930000  1.0 -0.090737897
C  C366  1  0.01980000  0.39000000  0.13590000  1.0 0.0500612384
C  C367  1  0.73787000  0.49227000  0.62360000  1.0 0.0099040004
C  C368  1  0.82501000  0.39901000  0.62160000  1.0 -0.1877699395
C  C369  1  0.69190000  0.54010000  0.62260000  1.0 0.0785451529
C  C370  1  0.37248000  0.34808000  0.91060000  1.0 -0.0360289447
C  C371  1  0.41354000  0.35814000  0.93680000  1.0 -0.090737897
C  C372  1  0.35377000  0.42637000  0.85760000  1.0 -0.1399081233
C  C373  1  0.39220000  0.43860000  0.88150000  1.0 0.0711583723
C  C374  1  0.03385000  0.26005000  0.91530000  1.0 0.0785451529
C  C375  1  0.42120000  0.40300000  0.92280000  1.0 -0.1320091272
C  C376  1  0.36666000  0.29746000  0.92420000  1.0 0.5806639833
C  C377  1  0.40250000  0.48370000  0.86890000  1.0 0.0711583723
C  C378  1  0.34443000  0.38203000  0.87170000  1.0 -0.090737897
C  C379  1  0.01480000  0.26420000  0.95990000  1.0 -0.1971851061
C  C380  1  0.92890000  0.29490000  0.91640000  1.0 0.0216307213
C  C381  1  0.00003000  0.27323000  0.87440000  1.0 -0.1699725024
C  C382  1  0.95880000  0.28560000  0.95790000  1.0 0.0290340398
C  C383  1  0.30090000  0.11790000  0.46710000  1.0 -0.0820801771
C  C384  1  0.56330000  0.18370000  0.95570000  1.0 -0.0558590269
C  C385  1  0.57043000  0.21763000  0.98370000  1.0 -0.0820801771
C  C386  1  0.37321000  0.12181000  0.43910000  1.0 -0.1087326444
C  C387  1  0.36940000  0.57620000  0.83230000  1.0 0.0290340398
C  C388  1  0.29390000  0.11310000  0.41970000  1.0 -0.1087326444
C  C389  1  0.29730000  0.21730000  0.34990000  1.0 0.0895645498
C  C390  1  0.61028000  0.23688000  0.97990000  1.0 -0.1399081233
C  C391  1  0.29620000  0.65360000  0.84310000  1.0 -0.4403575342
C  C392  1  0.31720000  0.25880000  0.33950000  1.0 -0.4471800032
C  C393  1  0.64590000  0.21770000  0.94810000  1.0 0.0895645498
C  C394  1  0.32520000  0.62460000  0.80850000  1.0 0.0601495633
C  C395  1  0.64000000  0.18180000  0.92180000  1.0 -0.1485141667
C  C396  1  0.36380000  0.52940000  0.84460000  1.0 -0.1877699395
C  C397  1  0.94690000  0.29190000  0.87310000  1.0 0.0216307213
C  C398  1  0.59880000  0.16480000  0.92620000  1.0 -0.099302364
C  C399  1  0.91010000  0.30090000  0.82540000  1.0 0.0895645498
C  C400  1  0.78430000  0.27930000  0.02150000  1.0 0.0895645498
C  C401  1  0.36630000  0.98710000  0.34600000  1.0 -0.3993266629
C  C402  1  0.68520000  0.24200000  0.94000000  1.0 0.0895645498
C  C403  1  0.79130000  0.35810000  0.91730000  1.0 -0.0820801771
C  C404  1  0.45570000  0.48310000  0.87920000  1.0 -0.1877699395
C  C405  1  0.84950000  0.27970000  0.92400000  1.0 -0.070125909
C  C406  1  0.83850000  0.36050000  0.91730000  1.0 -0.1087326444
C  C407  1  0.95160000  0.32880000  0.02930000  1.0 -0.4288459713
C  C408  1  0.52170000  0.52810000  0.88250000  1.0 0.0785451529
C  C409  1  0.42110000  0.57450000  0.83970000  1.0 0.0412765243
C  C410  1  0.74990000  0.27470000  0.97310000  1.0 0.0099040004
C  C411  1  0.73640000  0.27180000  0.88990000  1.0 0.0500612384
C  C412  1  0.23610000  0.23510000  0.33080000  1.0 -0.4403575342
C  C413  1  0.81890000  0.22390000  0.04790000  1.0 -0.4288459713
C  C414  1  0.53110000  0.52290000  0.93420000  1.0 -0.419430979
C  C415  1  0.95530000  0.23890000  0.03710000  1.0 -0.419430979
C  C416  1  0.46270000  0.53230000  0.86530000  1.0 0.0290340398
C  C417  1  0.92310000  0.33970000  0.78910000  1.0 -0.419430979
C  C418  1  0.75880000  0.28520000  0.93090000  1.0 0.0216307213
C  C419  1  0.93980000  0.28960000  0.00830000  1.0 0.0711583723
C  C420  1  0.69960000  0.24720000  0.89690000  1.0 -0.1781990138
C  C421  1  0.91320000  0.24960000  0.81130000  1.0 -0.4403575342
C  C422  1  0.38900000  0.08800000  0.56060000  1.0 0.0099040004
C  C423  1  0.40410000  0.17130000  0.76110000  1.0 -0.0360289447
C  C424  1  0.44285000  0.12925000  0.74540000  1.0 -0.099302364
C  C425  1  0.33485000  0.22945000  0.49110000  1.0 0.0895645498
C  C426  1  0.36480000  0.20840000  0.72790000  1.0 -0.0820801771
C  C427  1  0.39630000  0.03510000  0.55060000  1.0 0.0895645498
C  C428  1  0.43762000  0.12662000  0.69670000  1.0 -0.1485141667
C  C429  1  0.40379000  0.17299000  0.81310000  1.0 0.6027960075
C  C430  1  0.35813000  0.18373000  0.53060000  1.0 0.0290340398
C  C431  1  0.36583000  0.13263000  0.52360000  1.0 0.0601495633
C  C432  1  0.44690000  0.01370000  0.52460000  1.0 -0.4403575342
C  C433  1  0.43230000  0.65290000  0.86350000  1.0 -0.1320091272
C  C434  1  0.70970000  0.25450000  0.97910000  1.0 -0.1699725024
C  C435  1  0.44370000  0.68630000  0.79230000  1.0 -0.090737897
C  C436  1  0.34240000  0.77960000  0.84360000  1.0 0.0711583723
C  C437  1  0.31640000  0.81860000  0.79930000  1.0 -0.4471800032
C  C438  1  0.30980000  0.78180000  0.88020000  1.0 -0.4471800032
C  C439  1  0.43690000  0.64330000  0.78780000  1.0 -0.099302364
C  C440  1  0.28510000  0.61410000  0.76770000  1.0 -0.4403575342
C  C441  1  0.36919000  0.19219000  0.57740000  1.0 -0.1699725024
C  C442  1  0.36130000  0.20370000  0.68060000  1.0 -0.1485141667
C  C443  1  0.36680000  0.26320000  0.48990000  1.0 -0.419430979
C  C444  1  0.39749000  0.16109000  0.66480000  1.0 0.0895645498
C  C445  1  0.38866000  0.15166000  0.61410000  1.0 0.0711583723
C  C446  1  0.39925000  0.10065000  0.60610000  1.0 -0.1877699395
C  C447  1  0.27780000  0.25900000  0.49380000  1.0 -0.4403575342
C  C448  1  0.40330000  0.99510000  0.59580000  1.0 -0.4471800032
C  C449  1  0.44470000  0.99690000  0.36810000  1.0 -0.4403575342
C  C450  1  0.74830000  0.31290000  0.05100000  1.0 -0.4403575342
C  C451  1  0.56350000  0.66930000  0.93280000  1.0 -0.4288459713
C  C452  1  0.57500000  0.70240000  0.84140000  1.0 -0.419430979
C  C453  1  0.56960000  0.48040000  0.87940000  1.0 -0.3993266629
C  C454  1  0.70610000  0.32290000  0.80840000  1.0 -0.4471800032
C  C455  1  0.75840000  0.23540000  0.81690000  1.0 -0.4288459713
C  C456  1  0.74720000  0.28340000  0.83750000  1.0 0.0711583723
C  C457  1  0.38155000  0.18035000  0.14030000  1.0 -0.1087326444
C  C458  1  0.36060000  0.12600000  0.25970000  1.0 0.0711583723
C  C459  1  0.52032000  0.16572000  0.95780000  1.0 0.5907299114
C  C460  1  0.36071000  0.10511000  0.13220000  1.0 -0.099302364
C  C461  1  0.37804000  0.15104000  0.06060000  1.0 0.5806639833
C  C462  1  0.33520000  0.17240000  0.28140000  1.0 -0.1877699395
C  C463  1  0.45396000  0.96976000  0.93710000  1.0 -0.0108612007
C  C464  1  0.45087000  0.87567000  0.91060000  1.0 0.0785451529
C  C465  1  0.12614000  0.20594000  0.94990000  1.0 -0.1614583986
C  C466  1  0.45020000  0.02400000  0.94500000  1.0 0.5806639833
C  C467  1  0.37404000  0.14544000  0.11240000  1.0 -0.0360289447
C  C468  1  0.36643000  0.13263000  0.20930000  1.0 0.0785451529
C  C469  1  0.37370000  0.06950000  0.33660000  1.0 -0.0236616248
C  C470  1  0.41352000  0.90752000  0.93590000  1.0 -0.1320091272
C  C471  1  0.19685000  0.21745000  0.91510000  1.0 -0.0236616248
C  C472  1  0.49342000  0.78362000  0.89380000  1.0 -0.1781990138
C  C473  1  0.37837000  0.07757000  0.28780000  1.0 -0.1877699395
C  C474  1  0.48906000  0.89306000  0.89930000  1.0 -0.1320091272
C  C475  1  0.25621000  0.20141000  0.91750000  1.0 0.5806639833
C  C476  1  0.49084000  0.94004000  0.91170000  1.0 -0.0820801771
C  C477  1  0.35795000  0.09775000  0.18020000  1.0 -0.1485141667
C  C478  1  0.44683000  0.82743000  0.89460000  1.0 0.0895645498
C  C479  1  0.17973000  0.18953000  0.95120000  1.0 -0.099302364
C  C480  1  0.32940000  0.16660000  0.32920000  1.0 0.0216307213
C  C481  1  0.34703000  0.11803000  0.35500000  1.0 0.0601495633
C  C482  1  0.09142000  0.24402000  0.91500000  1.0 0.0711583723
C  C483  1  0.10936000  0.26856000  0.87990000  1.0 -0.1614583986
C  C484  1  0.37852000  0.17332000  0.18910000  1.0 -0.1485141667
C  C485  1  0.41667000  0.95127000  0.94970000  1.0 -0.090737897
C  C486  1  0.44310000  0.73910000  0.85890000  1.0 0.0412765243
C  C487  1  0.39636000  0.78036000  0.86110000  1.0 0.0216307213
C  C488  1  0.16324000  0.25424000  0.88070000  1.0 -0.090737897
C  C489  1  0.39000000  0.01980000  0.36410000  1.0 0.0500612384
C  C490  1  0.49227000  0.73787000  0.87640000  1.0 0.0099040004
C  C491  1  0.39901000  0.82501000  0.87840000  1.0 -0.1877699395
C  C492  1  0.54010000  0.69190000  0.87740000  1.0 0.0785451529
Br  Br1  1  0.84791000  0.49341000  0.93257000  1.0 -0.478641169
Br  Br2  1  0.87946000  0.09526000  0.43630000  1.0 -0.3797214138
Br  Br3  1  0.37518000  0.56720000  0.50448000  1.0 -0.472666016
Br  Br4  1  0.49341000  0.84791000  0.56743000  1.0 -0.478641169
Br  Br5  1  0.09526000  0.87946000  0.06370000  1.0 -0.3797214138
Br  Br6  1  0.56720000  0.37518000  0.99552000  1.0 -0.478641169
Br  Br7  1  0.15209000  0.50659000  0.06743000  1.0 -0.478641169
Br  Br8  1  0.12054000  0.90474000  0.56370000  1.0 -0.3867395031
Br  Br9  1  0.62482000  0.43280000  0.49552000  1.0 -0.472666016
Br  Br10  1  0.50659000  0.15209000  0.43257000  1.0 -0.478641169
Br  Br11  1  0.90474000  0.12054000  0.93630000  1.0 -0.3797214138
Br  Br12  1  0.43280000  0.62482000  0.00448000  1.0 -0.472666016
N  N1  1  0.87676000  0.65256000  0.97844000  1.0 0.0046332878
N  N2  1  0.88574000  0.65914000  0.90480000  1.0 0.0099040004
N  N3  1  0.30613000  0.55853000  0.33820000  1.0 0.0216307213
N  N4  1  0.68950000  0.12550000  0.41740000  1.0 0.0099040004
N  N5  1  0.69210000  0.20230000  0.42190000  1.0 0.0216307213
N  N6  1  0.37727000  0.57027000  0.33060000  1.0 0.0290340398
N  N7  1  0.65256000  0.87676000  0.52156000  1.0 0.0046332878
N  N8  1  0.65914000  0.88574000  0.59520000  1.0 0.0099040004
N  N9  1  0.55853000  0.30613000  0.16180000  1.0 0.0216307213
N  N10  1  0.12550000  0.68950000  0.08260000  1.0 0.0099040004
N  N11  1  0.20230000  0.69210000  0.07810000  1.0 0.0216307213
N  N12  1  0.57027000  0.37727000  0.16940000  1.0 0.0290340398
N  N13  1  0.12324000  0.34744000  0.02156000  1.0 0.0046332878
N  N14  1  0.11426000  0.34086000  0.09520000  1.0 0.0099040004
N  N15  1  0.69387000  0.44147000  0.66180000  1.0 0.0216307213
N  N16  1  0.31050000  0.87450000  0.58260000  1.0 0.0099040004
N  N17  1  0.30790000  0.79770000  0.57810000  1.0 0.0216307213
N  N18  1  0.62273000  0.42973000  0.66940000  1.0 0.0290340398
N  N19  1  0.34744000  0.12324000  0.47844000  1.0 0.0046332878
N  N20  1  0.34086000  0.11426000  0.40480000  1.0 0.0099040004
N  N21  1  0.44147000  0.69387000  0.83820000  1.0 0.0216307213
N  N22  1  0.87450000  0.31050000  0.91740000  1.0 0.0099040004
N  N23  1  0.79770000  0.30790000  0.92190000  1.0 0.0216307213
N  N24  1  0.42973000  0.62273000  0.83060000  1.0 0.0290340398
O  O1  1  0.81388000  0.60460000  0.54681000  1.0 -0.5416894364
O  O2  1  0.81682000  0.51096000  0.48796000  1.0 -0.5416894364
O  O3  1  0.79245000  0.63619000  0.32478000  1.0 -0.5416894364
O  O4  1  0.83970000  0.60596000  0.43644000  1.0 -1.0123207974
O  O5  1  0.95621000  0.52473000  0.41926000  1.0 -0.523820694
O  O6  1  0.77894000  0.72896000  0.38288000  1.0 -0.5293517853
O  O7  1  0.71608000  0.65974000  0.39519000  1.0 -0.5099485251
O  O8  1  0.86330000  0.48620000  0.42911000  1.0 -0.5099485251
O  O9  1  0.72820000  0.60998000  0.46454000  1.0 -0.5293517853
O  O10  1  0.86103000  0.55763000  0.34053000  1.0 -0.5293517853
O  O11  1  0.87884000  0.63186000  0.53591000  1.0 -0.5039824652
O  O12  1  0.83049000  0.71529000  0.45180000  1.0 -0.5481990385
O  O13  1  0.95499000  0.57553000  0.47504000  1.0 -0.5293517853
O  O14  1  0.60460000  0.81388000  0.95319000  1.0 -0.5416894364
O  O15  1  0.51096000  0.81682000  0.01204000  1.0 -0.5416894364
O  O16  1  0.63619000  0.79245000  0.17522000  1.0 -0.5416894364
O  O17  1  0.60596000  0.83970000  0.06356000  1.0 -1.0123207974
O  O18  1  0.52473000  0.95621000  0.08074000  1.0 -0.523820694
O  O19  1  0.72896000  0.77894000  0.11712000  1.0 -0.5293517853
O  O20  1  0.65974000  0.71608000  0.10481000  1.0 -0.5099485251
O  O21  1  0.48620000  0.86330000  0.07089000  1.0 -0.5099485251
O  O22  1  0.60998000  0.72820000  0.03546000  1.0 -0.5293517853
O  O23  1  0.55763000  0.86103000  0.15947000  1.0 -0.5293517853
O  O24  1  0.63186000  0.87884000  0.96409000  1.0 -0.5039824652
O  O25  1  0.71529000  0.83049000  0.04820000  1.0 -0.5481990385
O  O26  1  0.57553000  0.95499000  0.02496000  1.0 -0.5293517853
O  O27  1  0.18612000  0.39540000  0.45319000  1.0 -0.5416894364
O  O28  1  0.18318000  0.48904000  0.51204000  1.0 -0.5416894364
O  O29  1  0.20755000  0.36381000  0.67522000  1.0 -0.5416894364
O  O30  1  0.16030000  0.39404000  0.56356000  1.0 -1.0123207974
O  O31  1  0.04379000  0.47527000  0.58074000  1.0 -0.523820694
O  O32  1  0.22106000  0.27104000  0.61712000  1.0 -0.5293517853
O  O33  1  0.28392000  0.34026000  0.60481000  1.0 -0.5099485251
O  O34  1  0.13670000  0.51380000  0.57089000  1.0 -0.5099485251
O  O35  1  0.27180000  0.39002000  0.53546000  1.0 -0.5293517853
O  O36  1  0.13897000  0.44237000  0.65947000  1.0 -0.5293517853
O  O37  1  0.12116000  0.36814000  0.46409000  1.0 -0.5039824652
O  O38  1  0.16951000  0.28471000  0.54820000  1.0 -0.5481990385
O  O39  1  0.04501000  0.42447000  0.52496000  1.0 -0.5293517853
O  O40  1  0.39540000  0.18612000  0.04681000  1.0 -0.5416894364
O  O41  1  0.48904000  0.18318000  0.98796000  1.0 -0.5416894364
O  O42  1  0.36381000  0.20755000  0.82478000  1.0 -0.5416894364
O  O43  1  0.39404000  0.16030000  0.93644000  1.0 -1.0123207974
O  O44  1  0.47527000  0.04379000  0.91926000  1.0 -0.523820694
O  O45  1  0.27104000  0.22106000  0.88288000  1.0 -0.5293517853
O  O46  1  0.34026000  0.28392000  0.89519000  1.0 -0.5099485251
O  O47  1  0.51380000  0.13670000  0.92911000  1.0 -0.5099485251
O  O48  1  0.39002000  0.27180000  0.96454000  1.0 -0.5293517853
O  O49  1  0.44237000  0.13897000  0.84053000  1.0 -0.5293517853
O  O50  1  0.36814000  0.12116000  0.03591000  1.0 -0.5039824652
O  O51  1  0.28471000  0.16951000  0.95180000  1.0 -0.5481990385
O  O52  1  0.42447000  0.04501000  0.97504000  1.0 -0.5293517853
