# DDEC6 charges by PACMAN v1.1 (https://github.com/mtap-research/PACMAN-charge/)
data_NASROR_ASR_pacman
_symmetry_space_group_name_H-M   'P 1'
_cell_length_a   19.40320000
_cell_length_b   19.40320000
_cell_length_c   26.78700000
_cell_angle_alpha   90.00000000
_cell_angle_beta   90.00000000
_cell_angle_gamma   90.00000000
_symmetry_Int_Tables_number   1
_chemical_formula_structural   ZnH9C13O4
_chemical_formula_sum   'Zn16 H144 C208 O64'
_cell_volume   10084.88146822
_cell_formula_units_Z   16
loop_
 _symmetry_equiv_pos_site_id
 _symmetry_equiv_pos_as_xyz
  1  'x, y, z'
loop_
 _atom_site_type_symbol
 _atom_site_label
 _atom_site_symmetry_multiplicity
 _atom_site_fract_x
 _atom_site_fract_y
 _atom_site_fract_z
 _atom_site_occupancy
 _atom_site_charge
Zn  Zn1  1  0.79185000  0.20815000  0.21478000  1.0 0.9511263434
Zn  Zn2  1  0.29185000  0.29185000  0.71478000  1.0 0.9511263434
Zn  Zn3  1  0.20815000  0.79185000  0.21478000  1.0 0.9511263434
Zn  Zn4  1  0.70815000  0.70815000  0.71478000  1.0 0.9511263434
Zn  Zn5  1  0.79185000  0.79185000  0.78522000  1.0 0.9511263434
Zn  Zn6  1  0.20815000  0.20815000  0.78522000  1.0 0.9511263434
Zn  Zn7  1  0.70815000  0.29185000  0.28522000  1.0 0.9511263434
Zn  Zn8  1  0.29185000  0.70815000  0.28522000  1.0 0.9511263434
Zn  Zn9  1  0.57637000  0.00000000  0.00000000  1.0 0.9435796504
Zn  Zn10  1  0.50000000  0.07637000  0.50000000  1.0 0.9435796504
Zn  Zn11  1  0.42363000  0.00000000  0.00000000  1.0 0.9435796504
Zn  Zn12  1  0.50000000  0.92363000  0.50000000  1.0 0.9435796504
Zn  Zn13  1  0.92363000  0.50000000  0.50000000  1.0 0.9435796504
Zn  Zn14  1  0.00000000  0.42363000  0.00000000  1.0 0.9435796504
Zn  Zn15  1  0.07637000  0.50000000  0.50000000  1.0 0.9435796504
Zn  Zn16  1  0.00000000  0.57637000  0.00000000  1.0 0.9435796504
H  H1  1  0.42210000  0.19520000  0.08850000  1.0 0.1310526737
H  H2  1  0.30480000  0.92210000  0.58850000  1.0 0.1310526737
H  H3  1  0.57790000  0.80480000  0.08850000  1.0 0.1310526737
H  H4  1  0.69520000  0.07790000  0.58850000  1.0 0.1310526737
H  H5  1  0.42210000  0.80480000  0.91150000  1.0 0.1310526737
H  H6  1  0.57790000  0.19520000  0.91150000  1.0 0.1310526737
H  H7  1  0.69520000  0.92210000  0.41150000  1.0 0.1310526737
H  H8  1  0.30480000  0.07790000  0.41150000  1.0 0.1310526737
H  H9  1  0.07790000  0.30480000  0.41150000  1.0 0.1310526737
H  H10  1  0.19520000  0.57790000  0.91150000  1.0 0.1310526737
H  H11  1  0.92210000  0.69520000  0.41150000  1.0 0.1310526737
H  H12  1  0.80480000  0.42210000  0.91150000  1.0 0.1310526737
H  H13  1  0.07790000  0.69520000  0.58850000  1.0 0.1310526737
H  H14  1  0.92210000  0.30480000  0.58850000  1.0 0.1310526737
H  H15  1  0.80480000  0.57790000  0.08850000  1.0 0.1310526737
H  H16  1  0.19520000  0.42210000  0.08850000  1.0 0.1310526737
H  H17  1  0.52870000  0.30110000  0.19040000  1.0 0.1310526737
H  H18  1  0.19890000  0.02870000  0.69040000  1.0 0.1310526737
H  H19  1  0.47130000  0.69890000  0.19040000  1.0 0.1310526737
H  H20  1  0.80110000  0.97130000  0.69040000  1.0 0.1310526737
H  H21  1  0.52870000  0.69890000  0.80960000  1.0 0.1310526737
H  H22  1  0.47130000  0.30110000  0.80960000  1.0 0.1310526737
H  H23  1  0.80110000  0.02870000  0.30960000  1.0 0.1310526737
H  H24  1  0.19890000  0.97130000  0.30960000  1.0 0.1310526737
H  H25  1  0.97130000  0.19890000  0.30960000  1.0 0.1310526737
H  H26  1  0.30110000  0.47130000  0.80960000  1.0 0.1310526737
H  H27  1  0.02870000  0.80110000  0.30960000  1.0 0.1310526737
H  H28  1  0.69890000  0.52870000  0.80960000  1.0 0.1310526737
H  H29  1  0.97130000  0.80110000  0.69040000  1.0 0.1310526737
H  H30  1  0.02870000  0.19890000  0.69040000  1.0 0.1310526737
H  H31  1  0.69890000  0.47130000  0.19040000  1.0 0.1310526737
H  H32  1  0.30110000  0.52870000  0.19040000  1.0 0.1310526737
H  H33  1  0.61300000  0.13230000  0.12710000  1.0 0.1366987367
H  H34  1  0.36770000  0.11300000  0.62710000  1.0 0.1366987367
H  H35  1  0.38700000  0.86770000  0.12710000  1.0 0.1366987367
H  H36  1  0.63230000  0.88700000  0.62710000  1.0 0.1366987367
H  H37  1  0.61300000  0.86770000  0.87290000  1.0 0.1366987367
H  H38  1  0.38700000  0.13230000  0.87290000  1.0 0.1366987367
H  H39  1  0.63230000  0.11300000  0.37290000  1.0 0.1366987367
H  H40  1  0.36770000  0.88700000  0.37290000  1.0 0.1366987367
H  H41  1  0.88700000  0.36770000  0.37290000  1.0 0.1366987367
H  H42  1  0.13230000  0.38700000  0.87290000  1.0 0.1366987367
H  H43  1  0.11300000  0.63230000  0.37290000  1.0 0.1366987367
H  H44  1  0.86770000  0.61300000  0.87290000  1.0 0.1366987367
H  H45  1  0.88700000  0.63230000  0.62710000  1.0 0.1366987367
H  H46  1  0.11300000  0.36770000  0.62710000  1.0 0.1366987367
H  H47  1  0.86770000  0.38700000  0.12710000  1.0 0.1366987367
H  H48  1  0.13230000  0.61300000  0.12710000  1.0 0.1366987367
H  H49  1  0.46110000  0.34900000  0.03560000  1.0 0.1366987367
H  H50  1  0.15100000  0.96110000  0.53560000  1.0 0.1366987367
H  H51  1  0.53890000  0.65100000  0.03560000  1.0 0.1366987367
H  H52  1  0.84900000  0.03890000  0.53560000  1.0 0.1366987367
H  H53  1  0.46110000  0.65100000  0.96440000  1.0 0.1366987367
H  H54  1  0.53890000  0.34900000  0.96440000  1.0 0.1366987367
H  H55  1  0.84900000  0.96110000  0.46440000  1.0 0.1366987367
H  H56  1  0.15100000  0.03890000  0.46440000  1.0 0.1366987367
H  H57  1  0.03890000  0.15100000  0.46440000  1.0 0.1366987367
H  H58  1  0.34900000  0.53890000  0.96440000  1.0 0.1366987367
H  H59  1  0.96110000  0.84900000  0.46440000  1.0 0.1366987367
H  H60  1  0.65100000  0.46110000  0.96440000  1.0 0.1366987367
H  H61  1  0.03890000  0.84900000  0.53560000  1.0 0.1366987367
H  H62  1  0.96110000  0.15100000  0.53560000  1.0 0.1366987367
H  H63  1  0.65100000  0.53890000  0.03560000  1.0 0.1366987367
H  H64  1  0.34900000  0.46110000  0.03560000  1.0 0.1366987367
H  H65  1  0.51320000  0.34190000  0.08000000  1.0 0.1215871905
H  H66  1  0.15810000  0.01320000  0.58000000  1.0 0.1215871905
H  H67  1  0.48680000  0.65810000  0.08000000  1.0 0.1215871905
H  H68  1  0.84190000  0.98680000  0.58000000  1.0 0.1215871905
H  H69  1  0.51320000  0.65810000  0.92000000  1.0 0.1215871905
H  H70  1  0.48680000  0.34190000  0.92000000  1.0 0.1215871905
H  H71  1  0.84190000  0.01320000  0.42000000  1.0 0.1215871905
H  H72  1  0.15810000  0.98680000  0.42000000  1.0 0.1215871905
H  H73  1  0.98680000  0.15810000  0.42000000  1.0 0.1215871905
H  H74  1  0.34190000  0.48680000  0.92000000  1.0 0.1215871905
H  H75  1  0.01320000  0.84190000  0.42000000  1.0 0.1215871905
H  H76  1  0.65810000  0.51320000  0.92000000  1.0 0.1215871905
H  H77  1  0.98680000  0.84190000  0.58000000  1.0 0.1215871905
H  H78  1  0.01320000  0.15810000  0.58000000  1.0 0.1215871905
H  H79  1  0.65810000  0.48680000  0.08000000  1.0 0.1215871905
H  H80  1  0.34190000  0.51320000  0.08000000  1.0 0.1215871905
H  H81  1  0.49000000  0.41510000  0.06180000  1.0 0.1215871905
H  H82  1  0.08490000  0.99000000  0.56180000  1.0 0.1215871905
H  H83  1  0.51000000  0.58490000  0.06180000  1.0 0.1215871905
H  H84  1  0.91510000  0.01000000  0.56180000  1.0 0.1215871905
H  H85  1  0.49000000  0.58490000  0.93820000  1.0 0.1215871905
H  H86  1  0.51000000  0.41510000  0.93820000  1.0 0.1215871905
H  H87  1  0.91510000  0.99000000  0.43820000  1.0 0.1215871905
H  H88  1  0.08490000  0.01000000  0.43820000  1.0 0.1215871905
H  H89  1  0.01000000  0.08490000  0.43820000  1.0 0.1215871905
H  H90  1  0.41510000  0.51000000  0.93820000  1.0 0.1215871905
H  H91  1  0.99000000  0.91510000  0.43820000  1.0 0.1215871905
H  H92  1  0.58490000  0.49000000  0.93820000  1.0 0.1215871905
H  H93  1  0.01000000  0.91510000  0.56180000  1.0 0.1215871905
H  H94  1  0.99000000  0.08490000  0.56180000  1.0 0.1215871905
H  H95  1  0.58490000  0.51000000  0.06180000  1.0 0.1215871905
H  H96  1  0.41510000  0.49000000  0.06180000  1.0 0.1215871905
H  H97  1  0.36430000  0.26850000  0.24360000  1.0 0.1310526737
H  H98  1  0.23150000  0.86430000  0.74360000  1.0 0.1310526737
H  H99  1  0.63570000  0.73150000  0.24360000  1.0 0.1310526737
H  H100  1  0.76850000  0.13570000  0.74360000  1.0 0.1310526737
H  H101  1  0.36430000  0.73150000  0.75640000  1.0 0.1310526737
H  H102  1  0.63570000  0.26850000  0.75640000  1.0 0.1310526737
H  H103  1  0.76850000  0.86430000  0.25640000  1.0 0.1310526737
H  H104  1  0.23150000  0.13570000  0.25640000  1.0 0.1310526737
H  H105  1  0.13570000  0.23150000  0.25640000  1.0 0.1310526737
H  H106  1  0.26850000  0.63570000  0.75640000  1.0 0.1310526737
H  H107  1  0.86430000  0.76850000  0.25640000  1.0 0.1310526737
H  H108  1  0.73150000  0.36430000  0.75640000  1.0 0.1310526737
H  H109  1  0.13570000  0.76850000  0.74360000  1.0 0.1310526737
H  H110  1  0.86430000  0.23150000  0.74360000  1.0 0.1310526737
H  H111  1  0.73150000  0.63570000  0.24360000  1.0 0.1310526737
H  H112  1  0.26850000  0.36430000  0.24360000  1.0 0.1310526737
H  H113  1  0.39510000  0.21930000  0.20280000  1.0 0.1215871905
H  H114  1  0.28070000  0.89510000  0.70280000  1.0 0.1215871905
H  H115  1  0.60490000  0.78070000  0.20280000  1.0 0.1215871905
H  H116  1  0.71930000  0.10490000  0.70280000  1.0 0.1215871905
H  H117  1  0.39510000  0.78070000  0.79720000  1.0 0.1215871905
H  H118  1  0.60490000  0.21930000  0.79720000  1.0 0.1215871905
H  H119  1  0.71930000  0.89510000  0.29720000  1.0 0.1215871905
H  H120  1  0.28070000  0.10490000  0.29720000  1.0 0.1215871905
H  H121  1  0.10490000  0.28070000  0.29720000  1.0 0.1215871905
H  H122  1  0.21930000  0.60490000  0.79720000  1.0 0.1215871905
H  H123  1  0.89510000  0.71930000  0.29720000  1.0 0.1215871905
H  H124  1  0.78070000  0.39510000  0.79720000  1.0 0.1215871905
H  H125  1  0.10490000  0.71930000  0.70280000  1.0 0.1215871905
H  H126  1  0.89510000  0.28070000  0.70280000  1.0 0.1215871905
H  H127  1  0.78070000  0.60490000  0.20280000  1.0 0.1215871905
H  H128  1  0.21930000  0.39510000  0.20280000  1.0 0.1215871905
H  H129  1  0.31500000  0.22700000  0.20830000  1.0 0.1215871905
H  H130  1  0.27300000  0.81500000  0.70830000  1.0 0.1215871905
H  H131  1  0.68500000  0.77300000  0.20830000  1.0 0.1215871905
H  H132  1  0.72700000  0.18500000  0.70830000  1.0 0.1215871905
H  H133  1  0.31500000  0.77300000  0.79170000  1.0 0.1215871905
H  H134  1  0.68500000  0.22700000  0.79170000  1.0 0.1215871905
H  H135  1  0.72700000  0.81500000  0.29170000  1.0 0.1215871905
H  H136  1  0.27300000  0.18500000  0.29170000  1.0 0.1215871905
H  H137  1  0.18500000  0.27300000  0.29170000  1.0 0.1215871905
H  H138  1  0.22700000  0.68500000  0.79170000  1.0 0.1215871905
H  H139  1  0.81500000  0.72700000  0.29170000  1.0 0.1215871905
H  H140  1  0.77300000  0.31500000  0.79170000  1.0 0.1215871905
H  H141  1  0.18500000  0.72700000  0.70830000  1.0 0.1215871905
H  H142  1  0.81500000  0.27300000  0.70830000  1.0 0.1215871905
H  H143  1  0.77300000  0.68500000  0.20830000  1.0 0.1215871905
H  H144  1  0.22700000  0.31500000  0.20830000  1.0 0.1215871905
C  C1  1  0.46280000  0.20150000  0.10630000  1.0 -0.1334058737
C  C2  1  0.29850000  0.96280000  0.60630000  1.0 -0.1334058737
C  C3  1  0.53720000  0.79850000  0.10630000  1.0 -0.1334058737
C  C4  1  0.70150000  0.03720000  0.60630000  1.0 -0.1334058737
C  C5  1  0.46280000  0.79850000  0.89370000  1.0 -0.1334058737
C  C6  1  0.53720000  0.20150000  0.89370000  1.0 -0.1334058737
C  C7  1  0.70150000  0.96280000  0.39370000  1.0 -0.1334058737
C  C8  1  0.29850000  0.03720000  0.39370000  1.0 -0.1334058737
C  C9  1  0.03720000  0.29850000  0.39370000  1.0 -0.1334058737
C  C10  1  0.20150000  0.53720000  0.89370000  1.0 -0.1334058737
C  C11  1  0.96280000  0.70150000  0.39370000  1.0 -0.1334058737
C  C12  1  0.79850000  0.46280000  0.89370000  1.0 -0.1334058737
C  C13  1  0.03720000  0.70150000  0.60630000  1.0 -0.1334058737
C  C14  1  0.96280000  0.29850000  0.60630000  1.0 -0.1334058737
C  C15  1  0.79850000  0.53720000  0.10630000  1.0 -0.1334058737
C  C16  1  0.20150000  0.46280000  0.10630000  1.0 -0.1334058737
C  C17  1  0.41510000  0.36670000  0.10390000  1.0 0.0495345179
C  C18  1  0.13330000  0.91510000  0.60390000  1.0 0.0495345179
C  C19  1  0.58490000  0.63330000  0.10390000  1.0 0.0495345179
C  C20  1  0.86670000  0.08490000  0.60390000  1.0 0.0495345179
C  C21  1  0.41510000  0.63330000  0.89610000  1.0 0.0495345179
C  C22  1  0.58490000  0.36670000  0.89610000  1.0 0.0495345179
C  C23  1  0.86670000  0.91510000  0.39610000  1.0 0.0495345179
C  C24  1  0.13330000  0.08490000  0.39610000  1.0 0.0495345179
C  C25  1  0.08490000  0.13330000  0.39610000  1.0 0.0495345179
C  C26  1  0.36670000  0.58490000  0.89610000  1.0 0.0495345179
C  C27  1  0.91510000  0.86670000  0.39610000  1.0 0.0495345179
C  C28  1  0.63330000  0.41510000  0.89610000  1.0 0.0495345179
C  C29  1  0.08490000  0.86670000  0.60390000  1.0 0.0495345179
C  C30  1  0.91510000  0.13330000  0.60390000  1.0 0.0495345179
C  C31  1  0.63330000  0.58490000  0.10390000  1.0 0.0495345179
C  C32  1  0.36670000  0.41510000  0.10390000  1.0 0.0495345179
C  C33  1  0.46860000  0.25810000  0.13750000  1.0 0.0813304697
C  C34  1  0.24190000  0.96860000  0.63750000  1.0 0.0813304697
C  C35  1  0.53140000  0.74190000  0.13750000  1.0 0.0813304697
C  C36  1  0.75810000  0.03140000  0.63750000  1.0 0.0813304697
C  C37  1  0.46860000  0.74190000  0.86250000  1.0 0.0813304697
C  C38  1  0.53140000  0.25810000  0.86250000  1.0 0.0813304697
C  C39  1  0.75810000  0.96860000  0.36250000  1.0 0.0813304697
C  C40  1  0.24190000  0.03140000  0.36250000  1.0 0.0813304697
C  C41  1  0.03140000  0.24190000  0.36250000  1.0 0.0813304697
C  C42  1  0.25810000  0.53140000  0.86250000  1.0 0.0813304697
C  C43  1  0.96860000  0.75810000  0.36250000  1.0 0.0813304697
C  C44  1  0.74190000  0.46860000  0.86250000  1.0 0.0813304697
C  C45  1  0.03140000  0.75810000  0.63750000  1.0 0.0813304697
C  C46  1  0.96860000  0.24190000  0.63750000  1.0 0.0813304697
C  C47  1  0.74190000  0.53140000  0.13750000  1.0 0.0813304697
C  C48  1  0.25810000  0.46860000  0.13750000  1.0 0.0813304697
C  C49  1  0.41350000  0.31360000  0.13820000  1.0 -0.0555637284
C  C50  1  0.18640000  0.91350000  0.63820000  1.0 -0.0555637284
C  C51  1  0.58650000  0.68640000  0.13820000  1.0 -0.0555637284
C  C52  1  0.81360000  0.08650000  0.63820000  1.0 -0.0555637284
C  C53  1  0.41350000  0.68640000  0.86180000  1.0 -0.0555637284
C  C54  1  0.58650000  0.31360000  0.86180000  1.0 -0.0555637284
C  C55  1  0.81360000  0.91350000  0.36180000  1.0 -0.0555637284
C  C56  1  0.18640000  0.08650000  0.36180000  1.0 -0.0555637284
C  C57  1  0.08650000  0.18640000  0.36180000  1.0 -0.0555637284
C  C58  1  0.31360000  0.58650000  0.86180000  1.0 -0.0555637284
C  C59  1  0.91350000  0.81360000  0.36180000  1.0 -0.0555637284
C  C60  1  0.68640000  0.41350000  0.86180000  1.0 -0.0555637284
C  C61  1  0.08650000  0.81360000  0.63820000  1.0 -0.0555637284
C  C62  1  0.91350000  0.18640000  0.63820000  1.0 -0.0555637284
C  C63  1  0.68640000  0.58650000  0.13820000  1.0 -0.0555637284
C  C64  1  0.31360000  0.41350000  0.13820000  1.0 -0.0555637284
C  C65  1  0.52590000  0.26510000  0.16750000  1.0 -0.149386678
C  C66  1  0.23490000  0.02590000  0.66750000  1.0 -0.149386678
C  C67  1  0.47410000  0.73490000  0.16750000  1.0 -0.149386678
C  C68  1  0.76510000  0.97410000  0.66750000  1.0 -0.149386678
C  C69  1  0.52590000  0.73490000  0.83250000  1.0 -0.149386678
C  C70  1  0.47410000  0.26510000  0.83250000  1.0 -0.149386678
C  C71  1  0.76510000  0.02590000  0.33250000  1.0 -0.149386678
C  C72  1  0.23490000  0.97410000  0.33250000  1.0 -0.149386678
C  C73  1  0.97410000  0.23490000  0.33250000  1.0 -0.149386678
C  C74  1  0.26510000  0.47410000  0.83250000  1.0 -0.149386678
C  C75  1  0.02590000  0.76510000  0.33250000  1.0 -0.149386678
C  C76  1  0.73490000  0.52590000  0.83250000  1.0 -0.149386678
C  C77  1  0.97410000  0.76510000  0.66750000  1.0 -0.149386678
C  C78  1  0.02590000  0.23490000  0.66750000  1.0 -0.149386678
C  C79  1  0.73490000  0.47410000  0.16750000  1.0 -0.149386678
C  C80  1  0.26510000  0.52590000  0.16750000  1.0 -0.149386678
C  C81  1  0.51490000  0.15460000  0.10060000  1.0 -0.0173330677
C  C82  1  0.34540000  0.01490000  0.60060000  1.0 -0.0173330677
C  C83  1  0.48510000  0.84540000  0.10060000  1.0 -0.0173330677
C  C84  1  0.65460000  0.98510000  0.60060000  1.0 -0.0173330677
C  C85  1  0.51490000  0.84540000  0.89940000  1.0 -0.0173330677
C  C86  1  0.48510000  0.15460000  0.89940000  1.0 -0.0173330677
C  C87  1  0.65460000  0.01490000  0.39940000  1.0 -0.0173330677
C  C88  1  0.34540000  0.98510000  0.39940000  1.0 -0.0173330677
C  C89  1  0.98510000  0.34540000  0.39940000  1.0 -0.0173330677
C  C90  1  0.15460000  0.48510000  0.89940000  1.0 -0.0173330677
C  C91  1  0.01490000  0.65460000  0.39940000  1.0 -0.0173330677
C  C92  1  0.84540000  0.51490000  0.89940000  1.0 -0.0173330677
C  C93  1  0.98510000  0.65460000  0.60060000  1.0 -0.0173330677
C  C94  1  0.01490000  0.34540000  0.60060000  1.0 -0.0173330677
C  C95  1  0.84540000  0.48510000  0.10060000  1.0 -0.0173330677
C  C96  1  0.15460000  0.51490000  0.10060000  1.0 -0.0173330677
C  C97  1  0.35920000  0.30920000  0.17370000  1.0 0.0495345179
C  C98  1  0.19080000  0.85920000  0.67370000  1.0 0.0495345179
C  C99  1  0.64080000  0.69080000  0.17370000  1.0 0.0495345179
C  C100  1  0.80920000  0.14080000  0.67370000  1.0 0.0495345179
C  C101  1  0.35920000  0.69080000  0.82630000  1.0 0.0495345179
C  C102  1  0.64080000  0.30920000  0.82630000  1.0 0.0495345179
C  C103  1  0.80920000  0.85920000  0.32630000  1.0 0.0495345179
C  C104  1  0.19080000  0.14080000  0.32630000  1.0 0.0495345179
C  C105  1  0.14080000  0.19080000  0.32630000  1.0 0.0495345179
C  C106  1  0.30920000  0.64080000  0.82630000  1.0 0.0495345179
C  C107  1  0.85920000  0.80920000  0.32630000  1.0 0.0495345179
C  C108  1  0.69080000  0.35920000  0.82630000  1.0 0.0495345179
C  C109  1  0.14080000  0.80920000  0.67370000  1.0 0.0495345179
C  C110  1  0.85920000  0.19080000  0.67370000  1.0 0.0495345179
C  C111  1  0.69080000  0.64080000  0.17370000  1.0 0.0495345179
C  C112  1  0.30920000  0.35920000  0.17370000  1.0 0.0495345179
C  C113  1  0.58130000  0.21630000  0.16320000  1.0 -0.0173330677
C  C114  1  0.28370000  0.08130000  0.66320000  1.0 -0.0173330677
C  C115  1  0.41870000  0.78370000  0.16320000  1.0 -0.0173330677
C  C116  1  0.71630000  0.91870000  0.66320000  1.0 -0.0173330677
C  C117  1  0.58130000  0.78370000  0.83680000  1.0 -0.0173330677
C  C118  1  0.41870000  0.21630000  0.83680000  1.0 -0.0173330677
C  C119  1  0.71630000  0.08130000  0.33680000  1.0 -0.0173330677
C  C120  1  0.28370000  0.91870000  0.33680000  1.0 -0.0173330677
C  C121  1  0.91870000  0.28370000  0.33680000  1.0 -0.0173330677
C  C122  1  0.21630000  0.41870000  0.83680000  1.0 -0.0173330677
C  C123  1  0.08130000  0.71630000  0.33680000  1.0 -0.0173330677
C  C124  1  0.78370000  0.58130000  0.83680000  1.0 -0.0173330677
C  C125  1  0.91870000  0.71630000  0.66320000  1.0 -0.0173330677
C  C126  1  0.08130000  0.28370000  0.66320000  1.0 -0.0173330677
C  C127  1  0.78370000  0.41870000  0.16320000  1.0 -0.0173330677
C  C128  1  0.21630000  0.58130000  0.16320000  1.0 -0.0173330677
C  C129  1  0.57660000  0.16310000  0.13040000  1.0 -0.1120167208
C  C130  1  0.33690000  0.07660000  0.63040000  1.0 -0.1120167208
C  C131  1  0.42340000  0.83690000  0.13040000  1.0 -0.1120167208
C  C132  1  0.66310000  0.92340000  0.63040000  1.0 -0.1120167208
C  C133  1  0.57660000  0.83690000  0.86960000  1.0 -0.1120167208
C  C134  1  0.42340000  0.16310000  0.86960000  1.0 -0.1120167208
C  C135  1  0.66310000  0.07660000  0.36960000  1.0 -0.1120167208
C  C136  1  0.33690000  0.92340000  0.36960000  1.0 -0.1120167208
C  C137  1  0.92340000  0.33690000  0.36960000  1.0 -0.1120167208
C  C138  1  0.16310000  0.42340000  0.86960000  1.0 -0.1120167208
C  C139  1  0.07660000  0.66310000  0.36960000  1.0 -0.1120167208
C  C140  1  0.83690000  0.57660000  0.86960000  1.0 -0.1120167208
C  C141  1  0.92340000  0.66310000  0.63040000  1.0 -0.1120167208
C  C142  1  0.07660000  0.33690000  0.63040000  1.0 -0.1120167208
C  C143  1  0.83690000  0.42340000  0.13040000  1.0 -0.1120167208
C  C144  1  0.16310000  0.57660000  0.13040000  1.0 -0.1120167208
C  C145  1  0.50860000  0.09470000  0.06600000  1.0 0.5934483063
C  C146  1  0.40530000  0.00860000  0.56600000  1.0 0.5934483063
C  C147  1  0.49140000  0.90530000  0.06600000  1.0 0.5934483063
C  C148  1  0.59470000  0.99140000  0.56600000  1.0 0.5934483063
C  C149  1  0.50860000  0.90530000  0.93400000  1.0 0.5934483063
C  C150  1  0.49140000  0.09470000  0.93400000  1.0 0.5934483063
C  C151  1  0.59470000  0.00860000  0.43400000  1.0 0.5934483063
C  C152  1  0.40530000  0.99140000  0.43400000  1.0 0.5934483063
C  C153  1  0.99140000  0.40530000  0.43400000  1.0 0.5934483063
C  C154  1  0.09470000  0.49140000  0.93400000  1.0 0.5934483063
C  C155  1  0.00860000  0.59470000  0.43400000  1.0 0.5934483063
C  C156  1  0.90530000  0.50860000  0.93400000  1.0 0.5934483063
C  C157  1  0.99140000  0.59470000  0.56600000  1.0 0.5934483063
C  C158  1  0.00860000  0.40530000  0.56600000  1.0 0.5934483063
C  C159  1  0.90530000  0.49140000  0.06600000  1.0 0.5934483063
C  C160  1  0.09470000  0.50860000  0.06600000  1.0 0.5934483063
C  C161  1  0.47550000  0.36830000  0.06680000  1.0 -0.438072906
C  C162  1  0.13170000  0.97550000  0.56680000  1.0 -0.438072906
C  C163  1  0.52450000  0.63170000  0.06680000  1.0 -0.438072906
C  C164  1  0.86830000  0.02450000  0.56680000  1.0 -0.438072906
C  C165  1  0.47550000  0.63170000  0.93320000  1.0 -0.438072906
C  C166  1  0.52450000  0.36830000  0.93320000  1.0 -0.438072906
C  C167  1  0.86830000  0.97550000  0.43320000  1.0 -0.438072906
C  C168  1  0.13170000  0.02450000  0.43320000  1.0 -0.438072906
C  C169  1  0.02450000  0.13170000  0.43320000  1.0 -0.438072906
C  C170  1  0.36830000  0.52450000  0.93320000  1.0 -0.438072906
C  C171  1  0.97550000  0.86830000  0.43320000  1.0 -0.438072906
C  C172  1  0.63170000  0.47550000  0.93320000  1.0 -0.438072906
C  C173  1  0.02450000  0.86830000  0.56680000  1.0 -0.438072906
C  C174  1  0.97550000  0.13170000  0.56680000  1.0 -0.438072906
C  C175  1  0.63170000  0.52450000  0.06680000  1.0 -0.438072906
C  C176  1  0.36830000  0.47550000  0.06680000  1.0 -0.438072906
C  C177  1  0.35830000  0.25070000  0.21040000  1.0 -0.432860029
C  C178  1  0.24930000  0.85830000  0.71040000  1.0 -0.432860029
C  C179  1  0.64170000  0.74930000  0.21040000  1.0 -0.432860029
C  C180  1  0.75070000  0.14170000  0.71040000  1.0 -0.432860029
C  C181  1  0.35830000  0.74930000  0.78960000  1.0 -0.432860029
C  C182  1  0.64170000  0.25070000  0.78960000  1.0 -0.432860029
C  C183  1  0.75070000  0.85830000  0.28960000  1.0 -0.432860029
C  C184  1  0.24930000  0.14170000  0.28960000  1.0 -0.432860029
C  C185  1  0.14170000  0.24930000  0.28960000  1.0 -0.432860029
C  C186  1  0.25070000  0.64170000  0.78960000  1.0 -0.432860029
C  C187  1  0.85830000  0.75070000  0.28960000  1.0 -0.432860029
C  C188  1  0.74930000  0.35830000  0.78960000  1.0 -0.432860029
C  C189  1  0.14170000  0.75070000  0.71040000  1.0 -0.432860029
C  C190  1  0.85830000  0.24930000  0.71040000  1.0 -0.432860029
C  C191  1  0.74930000  0.64170000  0.21040000  1.0 -0.432860029
C  C192  1  0.25070000  0.35830000  0.21040000  1.0 -0.432860029
C  C193  1  0.64350000  0.22560000  0.19630000  1.0 0.6013940264
C  C194  1  0.27440000  0.14350000  0.69630000  1.0 0.6013940264
C  C195  1  0.35650000  0.77440000  0.19630000  1.0 0.6013940264
C  C196  1  0.72560000  0.85650000  0.69630000  1.0 0.6013940264
C  C197  1  0.64350000  0.77440000  0.80370000  1.0 0.6013940264
C  C198  1  0.35650000  0.22560000  0.80370000  1.0 0.6013940264
C  C199  1  0.72560000  0.14350000  0.30370000  1.0 0.6013940264
C  C200  1  0.27440000  0.85650000  0.30370000  1.0 0.6013940264
C  C201  1  0.85650000  0.27440000  0.30370000  1.0 0.6013940264
C  C202  1  0.22560000  0.35650000  0.80370000  1.0 0.6013940264
C  C203  1  0.14350000  0.72560000  0.30370000  1.0 0.6013940264
C  C204  1  0.77440000  0.64350000  0.80370000  1.0 0.6013940264
C  C205  1  0.85650000  0.72560000  0.69630000  1.0 0.6013940264
C  C206  1  0.14350000  0.27440000  0.69630000  1.0 0.6013940264
C  C207  1  0.77440000  0.35650000  0.19630000  1.0 0.6013940264
C  C208  1  0.22560000  0.64350000  0.19630000  1.0 0.6013940264
O  O1  1  0.69850000  0.19730000  0.18200000  1.0 -0.5337637561
O  O2  1  0.30270000  0.19850000  0.68200000  1.0 -0.5337637561
O  O3  1  0.30150000  0.80270000  0.18200000  1.0 -0.5337637561
O  O4  1  0.69730000  0.80150000  0.68200000  1.0 -0.5337637561
O  O5  1  0.69850000  0.80270000  0.81800000  1.0 -0.5337637561
O  O6  1  0.30150000  0.19730000  0.81800000  1.0 -0.5337637561
O  O7  1  0.69730000  0.19850000  0.31800000  1.0 -0.5337637561
O  O8  1  0.30270000  0.80150000  0.31800000  1.0 -0.5337637561
O  O9  1  0.80150000  0.30270000  0.31800000  1.0 -0.5337637561
O  O10  1  0.19730000  0.30150000  0.81800000  1.0 -0.5337637561
O  O11  1  0.19850000  0.69730000  0.31800000  1.0 -0.5337637561
O  O12  1  0.80270000  0.69850000  0.81800000  1.0 -0.5337637561
O  O13  1  0.80150000  0.69730000  0.68200000  1.0 -0.5337637561
O  O14  1  0.19850000  0.30270000  0.68200000  1.0 -0.5337637561
O  O15  1  0.80270000  0.30150000  0.18200000  1.0 -0.5337637561
O  O16  1  0.19730000  0.69850000  0.18200000  1.0 -0.5337637561
O  O17  1  0.56360000  0.06050000  0.05890000  1.0 -0.5419049385
O  O18  1  0.43950000  0.06360000  0.55890000  1.0 -0.5419049385
O  O19  1  0.43640000  0.93950000  0.05890000  1.0 -0.5419049385
O  O20  1  0.56050000  0.93640000  0.55890000  1.0 -0.5419049385
O  O21  1  0.56360000  0.93950000  0.94110000  1.0 -0.5419049385
O  O22  1  0.43640000  0.06050000  0.94110000  1.0 -0.5419049385
O  O23  1  0.56050000  0.06360000  0.44110000  1.0 -0.5419049385
O  O24  1  0.43950000  0.93640000  0.44110000  1.0 -0.5419049385
O  O25  1  0.93640000  0.43950000  0.44110000  1.0 -0.5419049385
O  O26  1  0.06050000  0.43640000  0.94110000  1.0 -0.5419049385
O  O27  1  0.06360000  0.56050000  0.44110000  1.0 -0.5419049385
O  O28  1  0.93950000  0.56360000  0.94110000  1.0 -0.5419049385
O  O29  1  0.93640000  0.56050000  0.55890000  1.0 -0.5419049385
O  O30  1  0.06360000  0.43950000  0.55890000  1.0 -0.5419049385
O  O31  1  0.93950000  0.43640000  0.05890000  1.0 -0.5419049385
O  O32  1  0.06050000  0.56360000  0.05890000  1.0 -0.5419049385
O  O33  1  0.63700000  0.26120000  0.23390000  1.0 -0.5219291627
O  O34  1  0.23880000  0.13700000  0.73390000  1.0 -0.5219291627
O  O35  1  0.36300000  0.73880000  0.23390000  1.0 -0.5219291627
O  O36  1  0.76120000  0.86300000  0.73390000  1.0 -0.5219291627
O  O37  1  0.63700000  0.73880000  0.76610000  1.0 -0.5219291627
O  O38  1  0.36300000  0.26120000  0.76610000  1.0 -0.5219291627
O  O39  1  0.76120000  0.13700000  0.26610000  1.0 -0.5219291627
O  O40  1  0.23880000  0.86300000  0.26610000  1.0 -0.5219291627
O  O41  1  0.86300000  0.23880000  0.26610000  1.0 -0.5219291627
O  O42  1  0.26120000  0.36300000  0.76610000  1.0 -0.5219291627
O  O43  1  0.13700000  0.76120000  0.26610000  1.0 -0.5219291627
O  O44  1  0.73880000  0.63700000  0.76610000  1.0 -0.5219291627
O  O45  1  0.86300000  0.76120000  0.73390000  1.0 -0.5219291627
O  O46  1  0.13700000  0.23880000  0.73390000  1.0 -0.5219291627
O  O47  1  0.73880000  0.36300000  0.23390000  1.0 -0.5219291627
O  O48  1  0.26120000  0.63700000  0.23390000  1.0 -0.5219291627
O  O49  1  0.45290000  0.08480000  0.04570000  1.0 -0.5219291627
O  O50  1  0.41520000  0.95290000  0.54570000  1.0 -0.5219291627
O  O51  1  0.54710000  0.91520000  0.04570000  1.0 -0.5219291627
O  O52  1  0.58480000  0.04710000  0.54570000  1.0 -0.5219291627
O  O53  1  0.45290000  0.91520000  0.95430000  1.0 -0.5219291627
O  O54  1  0.54710000  0.08480000  0.95430000  1.0 -0.5219291627
O  O55  1  0.58480000  0.95290000  0.45430000  1.0 -0.5219291627
O  O56  1  0.41520000  0.04710000  0.45430000  1.0 -0.5219291627
O  O57  1  0.04710000  0.41520000  0.45430000  1.0 -0.5219291627
O  O58  1  0.08480000  0.54710000  0.95430000  1.0 -0.5219291627
O  O59  1  0.95290000  0.58480000  0.45430000  1.0 -0.5219291627
O  O60  1  0.91520000  0.45290000  0.95430000  1.0 -0.5219291627
O  O61  1  0.04710000  0.58480000  0.54570000  1.0 -0.5219291627
O  O62  1  0.95290000  0.41520000  0.54570000  1.0 -0.5219291627
O  O63  1  0.91520000  0.54710000  0.04570000  1.0 -0.5219291627
O  O64  1  0.08480000  0.45290000  0.04570000  1.0 -0.5219291627
