# DDEC6 charges by PACMAN v1.1 (https://github.com/mtap-research/PACMAN-charge/)
data_NATHOI_ASR_pacman
_symmetry_space_group_name_H-M   'P 1'
_cell_length_a   18.06230000
_cell_length_b   18.06230000
_cell_length_c   18.06230000
_cell_angle_alpha   92.43200000
_cell_angle_beta   92.43200000
_cell_angle_gamma   156.22500000
_symmetry_Int_Tables_number   1
_chemical_formula_structural   ZnSiH64C84(N2F3)2
_chemical_formula_sum   'Zn1 Si1 H64 C84 N4 F6'
_cell_volume   2324.69316893
_cell_formula_units_Z   1
loop_
 _symmetry_equiv_pos_site_id
 _symmetry_equiv_pos_as_xyz
  1  'x, y, z'
loop_
 _atom_site_type_symbol
 _atom_site_label
 _atom_site_symmetry_multiplicity
 _atom_site_fract_x
 _atom_site_fract_y
 _atom_site_fract_z
 _atom_site_occupancy
 _atom_site_charge
Zn  Zn1  1  0.00000000  0.00000000  0.00000000  1.0 0.6727701461
Si  Si1  1  0.50000000  0.50000000  0.00000000  1.0 1.5848032868
H  H1  1  0.74150000  0.69510000  0.85960000  1.0 0.1013904856
H  H2  1  0.88190000  0.74150000  0.04640000  1.0 0.1013904856
H  H3  1  0.83550000  0.88190000  0.14040000  1.0 0.1013904856
H  H4  1  0.69510000  0.83550000  0.95360000  1.0 0.1013904856
H  H5  1  0.16450000  0.30490000  0.04640000  1.0 0.1013904856
H  H6  1  0.25850000  0.11810000  0.95360000  1.0 0.1013904856
H  H7  1  0.11810000  0.16450000  0.85960000  1.0 0.1013904856
H  H8  1  0.30490000  0.25850000  0.14040000  1.0 0.1013904856
H  H9  1  0.25850000  0.30490000  0.14040000  1.0 0.1013904856
H  H10  1  0.11810000  0.25850000  0.95360000  1.0 0.1013904856
H  H11  1  0.16450000  0.11810000  0.85960000  1.0 0.1013904856
H  H12  1  0.30490000  0.16450000  0.04640000  1.0 0.1013904856
H  H13  1  0.83550000  0.69510000  0.95360000  1.0 0.1013904856
H  H14  1  0.74150000  0.88190000  0.04640000  1.0 0.1013904856
H  H15  1  0.88190000  0.83550000  0.14040000  1.0 0.1013904856
H  H16  1  0.69510000  0.74150000  0.85960000  1.0 0.1013904856
H  H17  1  0.73610000  0.60160000  0.76430000  1.0 0.1013904856
H  H18  1  0.97180000  0.73610000  0.13450000  1.0 0.1013904856
H  H19  1  0.83730000  0.97180000  0.23570000  1.0 0.1013904856
H  H20  1  0.60160000  0.83730000  0.86550000  1.0 0.1013904856
H  H21  1  0.16270000  0.39840000  0.13450000  1.0 0.1013904856
H  H22  1  0.26390000  0.02820000  0.86550000  1.0 0.1013904856
H  H23  1  0.02820000  0.16270000  0.76430000  1.0 0.1013904856
H  H24  1  0.39840000  0.26390000  0.23570000  1.0 0.1013904856
H  H25  1  0.26390000  0.39840000  0.23570000  1.0 0.1013904856
H  H26  1  0.02820000  0.26390000  0.86550000  1.0 0.1013904856
H  H27  1  0.16270000  0.02820000  0.76430000  1.0 0.1013904856
H  H28  1  0.39840000  0.16270000  0.13450000  1.0 0.1013904856
H  H29  1  0.83730000  0.60160000  0.86550000  1.0 0.1013904856
H  H30  1  0.73610000  0.97180000  0.13450000  1.0 0.1013904856
H  H31  1  0.97180000  0.83730000  0.23570000  1.0 0.1013904856
H  H32  1  0.60160000  0.73610000  0.76430000  1.0 0.1013904856
H  H33  1  0.82380000  0.53040000  0.55760000  1.0 0.0920682883
H  H34  1  0.26620000  0.82380000  0.29340000  1.0 0.0920682883
H  H35  1  0.97280000  0.26620000  0.44240000  1.0 0.0920682883
H  H36  1  0.53040000  0.97280000  0.70660000  1.0 0.0920682883
H  H37  1  0.02720000  0.46960000  0.29340000  1.0 0.0920682883
H  H38  1  0.17620000  0.73380000  0.70660000  1.0 0.0920682883
H  H39  1  0.73380000  0.02720000  0.55760000  1.0 0.0920682883
H  H40  1  0.46960000  0.17620000  0.44240000  1.0 0.0920682883
H  H41  1  0.17620000  0.46960000  0.44240000  1.0 0.0920682883
H  H42  1  0.73380000  0.17620000  0.70660000  1.0 0.0920682883
H  H43  1  0.02720000  0.73380000  0.55760000  1.0 0.0920682883
H  H44  1  0.46960000  0.02720000  0.29340000  1.0 0.0920682883
H  H45  1  0.97280000  0.53040000  0.70660000  1.0 0.0920682883
H  H46  1  0.82380000  0.26620000  0.29340000  1.0 0.0920682883
H  H47  1  0.26620000  0.97280000  0.44240000  1.0 0.0920682883
H  H48  1  0.53040000  0.82380000  0.55760000  1.0 0.0920682883
H  H49  1  0.82580000  0.44080000  0.46440000  1.0 0.068192046
H  H50  1  0.36140000  0.82580000  0.38500000  1.0 0.068192046
H  H51  1  0.97640000  0.36140000  0.53560000  1.0 0.068192046
H  H52  1  0.44080000  0.97640000  0.61500000  1.0 0.068192046
H  H53  1  0.02360000  0.55920000  0.38500000  1.0 0.068192046
H  H54  1  0.17420000  0.63860000  0.61500000  1.0 0.068192046
H  H55  1  0.63860000  0.02360000  0.46440000  1.0 0.068192046
H  H56  1  0.55920000  0.17420000  0.53560000  1.0 0.068192046
H  H57  1  0.17420000  0.55920000  0.53560000  1.0 0.068192046
H  H58  1  0.63860000  0.17420000  0.61500000  1.0 0.068192046
H  H59  1  0.02360000  0.63860000  0.46440000  1.0 0.068192046
H  H60  1  0.55920000  0.02360000  0.38500000  1.0 0.068192046
H  H61  1  0.97640000  0.44080000  0.61500000  1.0 0.068192046
H  H62  1  0.82580000  0.36140000  0.38500000  1.0 0.068192046
H  H63  1  0.36140000  0.97640000  0.53560000  1.0 0.068192046
H  H64  1  0.44080000  0.82580000  0.46440000  1.0 0.068192046
C  C1  1  0.84980000  0.76490000  0.85970000  1.0 -0.0033750079
C  C2  1  0.99010000  0.84980000  0.08490000  1.0 -0.0033750079
C  C3  1  0.90520000  0.99010000  0.14030000  1.0 -0.0033750079
C  C4  1  0.76490000  0.90520000  0.91510000  1.0 -0.0033750079
C  C5  1  0.09480000  0.23510000  0.08490000  1.0 -0.0033750079
C  C6  1  0.15020000  0.00990000  0.91510000  1.0 -0.0033750079
C  C7  1  0.00990000  0.09480000  0.85970000  1.0 -0.0033750079
C  C8  1  0.23510000  0.15020000  0.14030000  1.0 -0.0033750079
C  C9  1  0.15020000  0.23510000  0.14030000  1.0 -0.0033750079
C  C10  1  0.00990000  0.15020000  0.91510000  1.0 -0.0033750079
C  C11  1  0.09480000  0.00990000  0.85970000  1.0 -0.0033750079
C  C12  1  0.23510000  0.09480000  0.08490000  1.0 -0.0033750079
C  C13  1  0.90520000  0.76490000  0.91510000  1.0 -0.0033750079
C  C14  1  0.84980000  0.99010000  0.08490000  1.0 -0.0033750079
C  C15  1  0.99010000  0.90520000  0.14030000  1.0 -0.0033750079
C  C16  1  0.76490000  0.84980000  0.85970000  1.0 -0.0033750079
C  C17  1  0.84440000  0.70680000  0.80340000  1.0 -0.0982281716
C  C18  1  0.04100000  0.84440000  0.13760000  1.0 -0.0982281716
C  C19  1  0.90340000  0.04100000  0.19660000  1.0 -0.0982281716
C  C20  1  0.70680000  0.90340000  0.86240000  1.0 -0.0982281716
C  C21  1  0.09660000  0.29320000  0.13760000  1.0 -0.0982281716
C  C22  1  0.15560000  0.95900000  0.86240000  1.0 -0.0982281716
C  C23  1  0.95900000  0.09660000  0.80340000  1.0 -0.0982281716
C  C24  1  0.29320000  0.15560000  0.19660000  1.0 -0.0982281716
C  C25  1  0.15560000  0.29320000  0.19660000  1.0 -0.0982281716
C  C26  1  0.95900000  0.15560000  0.86240000  1.0 -0.0982281716
C  C27  1  0.09660000  0.95900000  0.80340000  1.0 -0.0982281716
C  C28  1  0.29320000  0.09660000  0.13760000  1.0 -0.0982281716
C  C29  1  0.90340000  0.70680000  0.86240000  1.0 -0.0982281716
C  C30  1  0.84440000  0.04100000  0.13760000  1.0 -0.0982281716
C  C31  1  0.04100000  0.90340000  0.19660000  1.0 -0.0982281716
C  C32  1  0.70680000  0.84440000  0.80340000  1.0 -0.0982281716
C  C33  1  0.00000000  0.80390000  0.80390000  1.0 0.1013904856
C  C34  1  0.19610000  0.00000000  0.19610000  1.0 0.1013904856
C  C35  1  0.00000000  0.19610000  0.19610000  1.0 0.1013904856
C  C36  1  0.80390000  0.00000000  0.80390000  1.0 0.1013904856
C  C37  1  0.00000000  0.74630000  0.74630000  1.0 -0.1051631776
C  C38  1  0.25370000  0.00000000  0.25370000  1.0 -0.1051631776
C  C39  1  0.00000000  0.25370000  0.25370000  1.0 -0.1051631776
C  C40  1  0.74630000  0.00000000  0.74630000  1.0 -0.1051631776
C  C41  1  0.00000000  0.69900000  0.69900000  1.0 -0.2493150571
C  C42  1  0.30100000  0.00000000  0.30100000  1.0 -0.2493150571
C  C43  1  0.00000000  0.30100000  0.30100000  1.0 -0.2493150571
C  C44  1  0.69900000  0.00000000  0.69900000  1.0 -0.2493150571
C  C45  1  0.00000000  0.64120000  0.64120000  1.0 0.0418149791
C  C46  1  0.35880000  0.00000000  0.35880000  1.0 0.0418149791
C  C47  1  0.00000000  0.35880000  0.35880000  1.0 0.0418149791
C  C48  1  0.64120000  0.00000000  0.64120000  1.0 0.0418149791
C  C49  1  0.89640000  0.55360000  0.56920000  1.0 -0.0604085998
C  C50  1  0.32720000  0.89640000  0.34280000  1.0 -0.0604085998
C  C51  1  0.98440000  0.32720000  0.43080000  1.0 -0.0604085998
C  C52  1  0.55360000  0.98440000  0.65720000  1.0 -0.0604085998
C  C53  1  0.01560000  0.44640000  0.34280000  1.0 -0.0604085998
C  C54  1  0.10360000  0.67280000  0.65720000  1.0 -0.0604085998
C  C55  1  0.67280000  0.01560000  0.56920000  1.0 -0.0604085998
C  C56  1  0.44640000  0.10360000  0.43080000  1.0 -0.0604085998
C  C57  1  0.10360000  0.44640000  0.43080000  1.0 -0.0604085998
C  C58  1  0.67280000  0.10360000  0.65720000  1.0 -0.0604085998
C  C59  1  0.01560000  0.67280000  0.56920000  1.0 -0.0604085998
C  C60  1  0.44640000  0.01560000  0.34280000  1.0 -0.0604085998
C  C61  1  0.98440000  0.55360000  0.65720000  1.0 -0.0604085998
C  C62  1  0.89640000  0.32720000  0.34280000  1.0 -0.0604085998
C  C63  1  0.32720000  0.98440000  0.43080000  1.0 -0.0604085998
C  C64  1  0.55360000  0.89640000  0.56920000  1.0 -0.0604085998
C  C65  1  0.89680000  0.49950000  0.51390000  1.0 -0.0745025288
C  C66  1  0.38290000  0.89680000  0.39730000  1.0 -0.0745025288
C  C67  1  0.98560000  0.38290000  0.48610000  1.0 -0.0745025288
C  C68  1  0.49950000  0.98560000  0.60270000  1.0 -0.0745025288
C  C69  1  0.01440000  0.50050000  0.39730000  1.0 -0.0745025288
C  C70  1  0.10320000  0.61710000  0.60270000  1.0 -0.0745025288
C  C71  1  0.61710000  0.01440000  0.51390000  1.0 -0.0745025288
C  C72  1  0.50050000  0.10320000  0.48610000  1.0 -0.0745025288
C  C73  1  0.10320000  0.50050000  0.48610000  1.0 -0.0745025288
C  C74  1  0.61710000  0.10320000  0.60270000  1.0 -0.0745025288
C  C75  1  0.01440000  0.61710000  0.51390000  1.0 -0.0745025288
C  C76  1  0.50050000  0.01440000  0.39730000  1.0 -0.0745025288
C  C77  1  0.98560000  0.49950000  0.60270000  1.0 -0.0745025288
C  C78  1  0.89680000  0.38290000  0.39730000  1.0 -0.0745025288
C  C79  1  0.38290000  0.98560000  0.48610000  1.0 -0.0745025288
C  C80  1  0.49950000  0.89680000  0.51390000  1.0 -0.0745025288
C  C81  1  0.00000000  0.52970000  0.52970000  1.0 -0.0281712125
C  C82  1  0.47030000  0.00000000  0.47030000  1.0 -0.0281712125
C  C83  1  0.00000000  0.47030000  0.47030000  1.0 -0.0281712125
C  C84  1  0.52970000  0.00000000  0.52970000  1.0 -0.0281712125
N  N1  1  0.00000000  0.91503000  0.91503000  1.0 -0.0281712125
N  N2  1  0.08497000  0.00000000  0.08497000  1.0 -0.0281712125
N  N3  1  0.00000000  0.08497000  0.08497000  1.0 -0.0281712125
N  N4  1  0.91503000  0.00000000  0.91503000  1.0 -0.0281712125
F  F1  1  0.72770000  0.72770000  0.00000000  1.0 -0.5384153688
F  F2  1  0.27230000  0.27230000  0.00000000  1.0 -0.5384153688
F  F3  1  0.54544000  0.54544000  0.09088000  1.0 -0.5336784685
F  F4  1  0.45456000  0.54544000  0.00000000  1.0 -0.5336784685
F  F5  1  0.45456000  0.45456000  0.90912000  1.0 -0.5336784685
F  F6  1  0.54544000  0.45456000  0.00000000  1.0 -0.5336784685
