# DDEC6 charges by PACMAN v1.1 (https://github.com/mtap-research/PACMAN-charge/)
data_NATXUC_ASR_pacman
_symmetry_space_group_name_H-M   'P 1'
_cell_length_a   15.45160000
_cell_length_b   51.31900000
_cell_length_c   11.34240000
_cell_angle_alpha   90.00000000
_cell_angle_beta   96.00900000
_cell_angle_gamma   90.00000000
_symmetry_Int_Tables_number   1
_chemical_formula_structural   Ag20H17C57N11(O5F8)5
_chemical_formula_sum   'Ag80 H68 C228 N44 O100 F160'
_cell_volume   8944.65871295
_cell_formula_units_Z   4
loop_
 _symmetry_equiv_pos_site_id
 _symmetry_equiv_pos_as_xyz
  1  'x, y, z'
loop_
 _atom_site_type_symbol
 _atom_site_label
 _atom_site_symmetry_multiplicity
 _atom_site_fract_x
 _atom_site_fract_y
 _atom_site_fract_z
 _atom_site_occupancy
 _atom_site_charge
Ag  Ag1  1  0.79515000  0.14168000  0.55226000  1.0 0.4613364029
Ag  Ag2  1  0.20485000  0.85832000  0.44774000  1.0 0.4613364029
Ag  Ag3  1  0.20485000  0.64168000  0.94774000  1.0 0.4613364029
Ag  Ag4  1  0.79515000  0.35832000  0.05226000  1.0 0.4613364029
Ag  Ag5  1  0.82096000  0.19075000  0.72593000  1.0 0.470742793
Ag  Ag6  1  0.17904000  0.80925000  0.27407000  1.0 0.470742793
Ag  Ag7  1  0.17904000  0.69075000  0.77407000  1.0 0.470742793
Ag  Ag8  1  0.82096000  0.30925000  0.22593000  1.0 0.470742793
Ag  Ag9  1  0.00435000  0.19472000  0.69337000  1.0 0.4069398429
Ag  Ag10  1  0.99565000  0.80528000  0.30663000  1.0 0.4069398429
Ag  Ag11  1  0.99565000  0.69472000  0.80663000  1.0 0.4069398429
Ag  Ag12  1  0.00435000  0.30528000  0.19337000  1.0 0.4069398429
Ag  Ag13  1  0.97892000  0.14609000  0.54387000  1.0 0.2641813096
Ag  Ag14  1  0.02108000  0.85391000  0.45613000  1.0 0.266086572
Ag  Ag15  1  0.02108000  0.64609000  0.95613000  1.0 0.2641813096
Ag  Ag16  1  0.97892000  0.35391000  0.04387000  1.0 0.2641813096
Ag  Ag17  1  0.89075000  0.10627000  0.70062000  1.0 0.4008457076
Ag  Ag18  1  0.10925000  0.89373000  0.29938000  1.0 0.4008457076
Ag  Ag19  1  0.10925000  0.60627000  0.79938000  1.0 0.4008457076
Ag  Ag20  1  0.89075000  0.39373000  0.20062000  1.0 0.4008457076
Ag  Ag21  1  0.89406000  0.16183000  0.96292000  1.0 0.4613364029
Ag  Ag22  1  0.10594000  0.83817000  0.03708000  1.0 0.4613364029
Ag  Ag23  1  0.10594000  0.66183000  0.53708000  1.0 0.4613364029
Ag  Ag24  1  0.89406000  0.33817000  0.46292000  1.0 0.4613364029
Ag  Ag25  1  0.06246000  0.15798000  0.87901000  1.0 0.3610411223
Ag  Ag26  1  0.93754000  0.84202000  0.12099000  1.0 0.3610411223
Ag  Ag27  1  0.93754000  0.65798000  0.62099000  1.0 0.3610411223
Ag  Ag28  1  0.06246000  0.34202000  0.37901000  1.0 0.3610411223
Ag  Ag29  1  0.12194000  0.11596000  0.63744000  1.0 0.4982165184
Ag  Ag30  1  0.87806000  0.88404000  0.36256000  1.0 0.4982165184
Ag  Ag31  1  0.87806000  0.61596000  0.86256000  1.0 0.4982165184
Ag  Ag32  1  0.12194000  0.38404000  0.13744000  1.0 0.4982165184
Ag  Ag33  1  0.93111000  0.05921000  0.82341000  1.0 0.4008457076
Ag  Ag34  1  0.06889000  0.94079000  0.17659000  1.0 0.4008457076
Ag  Ag35  1  0.06889000  0.55921000  0.67659000  1.0 0.4008457076
Ag  Ag36  1  0.93111000  0.44079000  0.32341000  1.0 0.4008457076
Ag  Ag37  1  0.97668000  0.11031000  0.98550000  1.0 0.3099233743
Ag  Ag38  1  0.02332000  0.88969000  0.01450000  1.0 0.3099233743
Ag  Ag39  1  0.02332000  0.61031000  0.51450000  1.0 0.3099233743
Ag  Ag40  1  0.97668000  0.38969000  0.48550000  1.0 0.3099233743
Ag  Ag41  1  0.15783000  0.11337000  0.97979000  1.0 0.4613364029
Ag  Ag42  1  0.84217000  0.88663000  0.02021000  1.0 0.4613364029
Ag  Ag43  1  0.84217000  0.61337000  0.52021000  1.0 0.4613364029
Ag  Ag44  1  0.15783000  0.38663000  0.47979000  1.0 0.4613364029
Ag  Ag45  1  0.13166000  0.05820000  0.83584000  1.0 0.4504371579
Ag  Ag46  1  0.86834000  0.94180000  0.16416000  1.0 0.4613364029
Ag  Ag47  1  0.86834000  0.55820000  0.66416000  1.0 0.4613364029
Ag  Ag48  1  0.13166000  0.44180000  0.33584000  1.0 0.4613364029
Ag  Ag49  1  0.01947000  0.06786000  0.60444000  1.0 0.3866568293
Ag  Ag50  1  0.98053000  0.93214000  0.39556000  1.0 0.3866568293
Ag  Ag51  1  0.98053000  0.56786000  0.89556000  1.0 0.3866568293
Ag  Ag52  1  0.01947000  0.43214000  0.10444000  1.0 0.3866568293
Ag  Ag53  1  0.87215000  0.08461000  0.19531000  1.0 0.470742793
Ag  Ag54  1  0.12785000  0.91539000  0.80469000  1.0 0.470742793
Ag  Ag55  1  0.12785000  0.58461000  0.30469000  1.0 0.470742793
Ag  Ag56  1  0.87215000  0.41539000  0.69531000  1.0 0.470742793
Ag  Ag57  1  0.99248000  0.12834000  0.25779000  1.0 0.3817014929
Ag  Ag58  1  0.00752000  0.87166000  0.74221000  1.0 0.3817014929
Ag  Ag59  1  0.00752000  0.62834000  0.24221000  1.0 0.3817014929
Ag  Ag60  1  0.99248000  0.37166000  0.75779000  1.0 0.3817014929
Ag  Ag61  1  0.70851000  0.12476000  0.23494000  1.0 0.4198412907
Ag  Ag62  1  0.29149000  0.87524000  0.76506000  1.0 0.4198412907
Ag  Ag63  1  0.29149000  0.62476000  0.26506000  1.0 0.4198412907
Ag  Ag64  1  0.70851000  0.37524000  0.73494000  1.0 0.4198412907
Ag  Ag65  1  0.82681000  0.16734000  0.23553000  1.0 0.4359138843
Ag  Ag66  1  0.17319000  0.83266000  0.76447000  1.0 0.4359138843
Ag  Ag67  1  0.17319000  0.66734000  0.26447000  1.0 0.4359138843
Ag  Ag68  1  0.82681000  0.33266000  0.73553000  1.0 0.4359138843
Ag  Ag69  1  0.10283000  0.17101000  0.39250000  1.0 0.4613364029
Ag  Ag70  1  0.89717000  0.82899000  0.60750000  1.0 0.4613364029
Ag  Ag71  1  0.89717000  0.67101000  0.10750000  1.0 0.4613364029
Ag  Ag72  1  0.10283000  0.32899000  0.89250000  1.0 0.4613364029
Ag  Ag73  1  0.24315000  0.12070000  0.31567000  1.0 0.4613364029
Ag  Ag74  1  0.75685000  0.87930000  0.68433000  1.0 0.4613364029
Ag  Ag75  1  0.75685000  0.62070000  0.18433000  1.0 0.4613364029
Ag  Ag76  1  0.24315000  0.37930000  0.81567000  1.0 0.4613364029
Ag  Ag77  1  0.12293000  0.07860000  0.32985000  1.0 0.4504371579
Ag  Ag78  1  0.87707000  0.92140000  0.67015000  1.0 0.4504371579
Ag  Ag79  1  0.87707000  0.57860000  0.17015000  1.0 0.4504371579
Ag  Ag80  1  0.12293000  0.42140000  0.82985000  1.0 0.4504371579
H  H1  1  0.98455000  0.24715000  0.10776000  1.0 0.1172212771
H  H2  1  0.01545000  0.75285000  0.89224000  1.0 0.1172212771
H  H3  1  0.01545000  0.74715000  0.39224000  1.0 0.1172212771
H  H4  1  0.98455000  0.25285000  0.60776000  1.0 0.1172212771
H  H5  1  0.11460000  0.27531000  0.42298000  1.0 0.1097582793
H  H6  1  0.88540000  0.72469000  0.57702000  1.0 0.1097582793
H  H7  1  0.88540000  0.77531000  0.07702000  1.0 0.1097582793
H  H8  1  0.11460000  0.22469000  0.92298000  1.0 0.1097582793
H  H9  1  0.14644000  0.22832000  0.48986000  1.0 0.1097582793
H  H10  1  0.85356000  0.77168000  0.51014000  1.0 0.1097582793
H  H11  1  0.85356000  0.72832000  0.01014000  1.0 0.1097582793
H  H12  1  0.14644000  0.27168000  0.98986000  1.0 0.1097582793
H  H13  1  0.88086000  0.26097000  0.42771000  1.0 0.1172212771
H  H14  1  0.11914000  0.73903000  0.57229000  1.0 0.1172212771
H  H15  1  0.11914000  0.76097000  0.07229000  1.0 0.1172212771
H  H16  1  0.88086000  0.23903000  0.92771000  1.0 0.1172212771
H  H17  1  0.73719000  0.26350000  0.09543000  1.0 0.1097582793
H  H18  1  0.26281000  0.73650000  0.90457000  1.0 0.1097582793
H  H19  1  0.26281000  0.76350000  0.40457000  1.0 0.1097582793
H  H20  1  0.73719000  0.23650000  0.59543000  1.0 0.1097582793
H  H21  1  0.74326000  0.21347000  0.08399000  1.0 0.1097582793
H  H22  1  0.25674000  0.78653000  0.91601000  1.0 0.1097582793
H  H23  1  0.25674000  0.71347000  0.41601000  1.0 0.1097582793
H  H24  1  0.74326000  0.28653000  0.58399000  1.0 0.1097582793
H  H25  1  0.05095000  0.99615000  0.06379000  1.0 0.1097582793
H  H26  1  0.94905000  0.00385000  0.93621000  1.0 0.1097582793
H  H27  1  0.94905000  0.49615000  0.43621000  1.0 0.1097582793
H  H28  1  0.05095000  0.50385000  0.56379000  1.0 0.1097582793
H  H29  1  0.17426000  0.97608000  0.39473000  1.0 0.1097582793
H  H30  1  0.82574000  0.02392000  0.60527000  1.0 0.1097582793
H  H31  1  0.82574000  0.47608000  0.10527000  1.0 0.1097582793
H  H32  1  0.17426000  0.52392000  0.89473000  1.0 0.1097582793
H  H33  1  0.19015000  0.02472000  0.44760000  1.0 0.1172212771
H  H34  1  0.80985000  0.97528000  0.55240000  1.0 0.1172212771
H  H35  1  0.80985000  0.52472000  0.05240000  1.0 0.1172212771
H  H36  1  0.19015000  0.47528000  0.94760000  1.0 0.1172212771
H  H37  1  0.93376000  0.99013000  0.37957000  1.0 0.1172212771
H  H38  1  0.06624000  0.00987000  0.62043000  1.0 0.1172212771
H  H39  1  0.06624000  0.49013000  0.12043000  1.0 0.1172212771
H  H40  1  0.93376000  0.50987000  0.87957000  1.0 0.1172212771
H  H41  1  0.78728000  0.98794000  0.04804000  1.0 0.1097582793
H  H42  1  0.21272000  0.01206000  0.95196000  1.0 0.1097582793
H  H43  1  0.21272000  0.48794000  0.45196000  1.0 0.1097582793
H  H44  1  0.78728000  0.51206000  0.54804000  1.0 0.1097582793
H  H45  1  0.78702000  0.03781000  0.04153000  1.0 0.1172212771
H  H46  1  0.21298000  0.96219000  0.95847000  1.0 0.1172212771
H  H47  1  0.21298000  0.53781000  0.45847000  1.0 0.1172212771
H  H48  1  0.78702000  0.46219000  0.54153000  1.0 0.1172212771
H  H49  1  0.44788000  0.12808000  0.67855000  1.0 0.3525127482
H  H50  1  0.55212000  0.87192000  0.32145000  1.0 0.3525127482
H  H51  1  0.55212000  0.62808000  0.82145000  1.0 0.3525127482
H  H52  1  0.44788000  0.37192000  0.17855000  1.0 0.3525127482
H  H53  1  0.53595000  0.12914000  0.59488000  1.0 0.3280500334
H  H54  1  0.46405000  0.87086000  0.40512000  1.0 0.3280500334
H  H55  1  0.46405000  0.62914000  0.90512000  1.0 0.3280500334
H  H56  1  0.53595000  0.37086000  0.09488000  1.0 0.3280500334
H  H57  1  0.58846000  0.12587000  0.44260000  1.0 0.1097582793
H  H58  1  0.41154000  0.87413000  0.55740000  1.0 0.1097582793
H  H59  1  0.41154000  0.62587000  0.05740000  1.0 0.1097582793
H  H60  1  0.58846000  0.37413000  0.94260000  1.0 0.1097582793
H  H61  1  0.53129000  0.12105000  0.07767000  1.0 0.1097582793
H  H62  1  0.46871000  0.87895000  0.92233000  1.0 0.1097582793
H  H63  1  0.46871000  0.62105000  0.42233000  1.0 0.1097582793
H  H64  1  0.53129000  0.37895000  0.57767000  1.0 0.1097582793
H  H65  1  0.36962000  0.12003000  0.10080000  1.0 0.1172212771
H  H66  1  0.63038000  0.87997000  0.89920000  1.0 0.1172212771
H  H67  1  0.63038000  0.62003000  0.39920000  1.0 0.1172212771
H  H68  1  0.36962000  0.37997000  0.60080000  1.0 0.1172212771
C  C1  1  0.89437000  0.15127000  0.68704000  1.0 -0.3421595234
C  C2  1  0.10563000  0.84873000  0.31296000  1.0 -0.3421595234
C  C3  1  0.10563000  0.65127000  0.81296000  1.0 -0.3421595234
C  C4  1  0.89437000  0.34873000  0.18704000  1.0 -0.3421595234
C  C5  1  0.93666000  0.16175000  0.77927000  1.0 -0.3938715745
C  C6  1  0.06334000  0.83825000  0.22073000  1.0 -0.3938715745
C  C7  1  0.06334000  0.66175000  0.72073000  1.0 -0.3938715745
C  C8  1  0.93666000  0.33825000  0.27927000  1.0 -0.3938715745
C  C9  1  0.02411000  0.08961000  0.76089000  1.0 -0.398560046
C  C10  1  0.97589000  0.91039000  0.23911000  1.0 -0.398560046
C  C11  1  0.97589000  0.58961000  0.73911000  1.0 -0.398560046
C  C12  1  0.02411000  0.41039000  0.26089000  1.0 -0.398560046
C  C13  1  0.06740000  0.09976000  0.85212000  1.0 -0.3699977949
C  C14  1  0.93260000  0.90024000  0.14788000  1.0 -0.3699977949
C  C15  1  0.93260000  0.59976000  0.64788000  1.0 -0.3699977949
C  C16  1  0.06740000  0.40024000  0.35212000  1.0 -0.3699977949
C  C17  1  0.88880000  0.12451000  0.10042000  1.0 -0.329191244
C  C18  1  0.11120000  0.87549000  0.89958000  1.0 -0.329191244
C  C19  1  0.11120000  0.62451000  0.39958000  1.0 -0.329191244
C  C20  1  0.88880000  0.37549000  0.60042000  1.0 -0.329191244
C  C21  1  0.82940000  0.12875000  0.16975000  1.0 -0.3699977949
C  C22  1  0.17060000  0.87125000  0.83025000  1.0 -0.3756316368
C  C23  1  0.17060000  0.62875000  0.33025000  1.0 -0.3756316368
C  C24  1  0.82940000  0.37125000  0.66975000  1.0 -0.3699977949
C  C25  1  0.11968000  0.11751000  0.37721000  1.0 -0.3643186057
C  C26  1  0.88032000  0.88249000  0.62279000  1.0 -0.3699977949
C  C27  1  0.88032000  0.61751000  0.12279000  1.0 -0.3643186057
C  C28  1  0.11968000  0.38249000  0.87721000  1.0 -0.3643186057
C  C29  1  0.08048000  0.13155000  0.44938000  1.0 -0.3699977949
C  C30  1  0.91952000  0.86845000  0.55062000  1.0 -0.3699977949
C  C31  1  0.91952000  0.63155000  0.05062000  1.0 -0.3699977949
C  C32  1  0.08048000  0.36845000  0.94938000  1.0 -0.3699977949
C  C33  1  0.75936000  0.08737000  0.88949000  1.0 0.4913338195
C  C34  1  0.24064000  0.91263000  0.11051000  1.0 0.4913338195
C  C35  1  0.24064000  0.58737000  0.61051000  1.0 0.4913338195
C  C36  1  0.75936000  0.41263000  0.38949000  1.0 0.4913338195
C  C37  1  0.67127000  0.08750000  0.94656000  1.0 0.21086163
C  C38  1  0.32873000  0.91250000  0.05344000  1.0 0.21086163
C  C39  1  0.32873000  0.58750000  0.55344000  1.0 0.21086163
C  C40  1  0.67127000  0.41250000  0.44656000  1.0 0.21086163
C  C41  1  0.59883000  0.07113000  0.87627000  1.0 0.5920639896
C  C42  1  0.40117000  0.92887000  0.12373000  1.0 0.5953383144
C  C43  1  0.40117000  0.57113000  0.62373000  1.0 0.5920639896
C  C44  1  0.59883000  0.42887000  0.37627000  1.0 0.5953383144
C  C45  1  0.24646000  0.06986000  0.62463000  1.0 0.4807475146
C  C46  1  0.75354000  0.93014000  0.37537000  1.0 0.4807475146
C  C47  1  0.75354000  0.56986000  0.87537000  1.0 0.4807475146
C  C48  1  0.24646000  0.43014000  0.12463000  1.0 0.4807475146
C  C49  1  0.34197000  0.05975000  0.61853000  1.0 0.2174264936
C  C50  1  0.65803000  0.94025000  0.38147000  1.0 0.2174264936
C  C51  1  0.65803000  0.55975000  0.88147000  1.0 0.2174264936
C  C52  1  0.34197000  0.44025000  0.11853000  1.0 0.2174264936
C  C53  1  0.35992000  0.03196000  0.67071000  1.0 0.5920639896
C  C54  1  0.64008000  0.96804000  0.32929000  1.0 0.5920639896
C  C55  1  0.64008000  0.53196000  0.82929000  1.0 0.5920639896
C  C56  1  0.35992000  0.46804000  0.17071000  1.0 0.5920639896
C  C57  1  0.19887000  0.17435000  0.66376000  1.0 0.4807475146
C  C58  1  0.80113000  0.82565000  0.33624000  1.0 0.4807475146
C  C59  1  0.80113000  0.67435000  0.83624000  1.0 0.4807475146
C  C60  1  0.19887000  0.32565000  0.16376000  1.0 0.4807475146
C  C61  1  0.29372000  0.18336000  0.64669000  1.0 0.2253265728
C  C62  1  0.70628000  0.81664000  0.35331000  1.0 0.2253265728
C  C63  1  0.70628000  0.68336000  0.85331000  1.0 0.2253265728
C  C64  1  0.29372000  0.31664000  0.14669000  1.0 0.2253265728
C  C65  1  0.31015000  0.21269000  0.68004000  1.0 0.5953383144
C  C66  1  0.68985000  0.78731000  0.31996000  1.0 0.5953383144
C  C67  1  0.68985000  0.71269000  0.81996000  1.0 0.5953383144
C  C68  1  0.31015000  0.28731000  0.18004000  1.0 0.5953383144
C  C69  1  0.69035000  0.17537000  0.90155000  1.0 0.4913338195
C  C70  1  0.30965000  0.82463000  0.09845000  1.0 0.4913338195
C  C71  1  0.30965000  0.67537000  0.59845000  1.0 0.4913338195
C  C72  1  0.69035000  0.32463000  0.40155000  1.0 0.4913338195
C  C73  1  0.59612000  0.17736000  0.93918000  1.0 0.21086163
C  C74  1  0.40388000  0.82264000  0.06082000  1.0 0.21086163
C  C75  1  0.40388000  0.67736000  0.56082000  1.0 0.21086163
C  C76  1  0.59612000  0.32264000  0.43918000  1.0 0.21086163
C  C77  1  0.55749000  0.20527000  0.92007000  1.0 0.5920639896
C  C78  1  0.44251000  0.79473000  0.07993000  1.0 0.5920639896
C  C79  1  0.44251000  0.70527000  0.57993000  1.0 0.5920639896
C  C80  1  0.55749000  0.29473000  0.42007000  1.0 0.5920639896
C  C81  1  0.68626000  0.18643000  0.45560000  1.0 0.4913338195
C  C82  1  0.31374000  0.81357000  0.54440000  1.0 0.4913338195
C  C83  1  0.31374000  0.68643000  0.04440000  1.0 0.4913338195
C  C84  1  0.68626000  0.31357000  0.95560000  1.0 0.4913338195
C  C85  1  0.61214000  0.20242000  0.38442000  1.0 0.2174264936
C  C86  1  0.38786000  0.79758000  0.61558000  1.0 0.2174264936
C  C87  1  0.38786000  0.70242000  0.11558000  1.0 0.2174264936
C  C88  1  0.61214000  0.29758000  0.88442000  1.0 0.2174264936
C  C89  1  0.53465000  0.20746000  0.45894000  1.0 0.5920639896
C  C90  1  0.46535000  0.79254000  0.54106000  1.0 0.5920639896
C  C91  1  0.46535000  0.70746000  0.04106000  1.0 0.5920639896
C  C92  1  0.53465000  0.29254000  0.95894000  1.0 0.5920639896
C  C93  1  0.75623000  0.08219000  0.49035000  1.0 0.4982165184
C  C94  1  0.24377000  0.91781000  0.50965000  1.0 0.4982165184
C  C95  1  0.24377000  0.58219000  0.00965000  1.0 0.4982165184
C  C96  1  0.75623000  0.41781000  0.99035000  1.0 0.4982165184
C  C97  1  0.70106000  0.06007000  0.42364000  1.0 0.21086163
C  C98  1  0.29894000  0.93993000  0.57636000  1.0 0.21086163
C  C99  1  0.29894000  0.56007000  0.07636000  1.0 0.21086163
C  C100  1  0.70106000  0.43993000  0.92364000  1.0 0.21086163
C  C101  1  0.61972000  0.05228000  0.48539000  1.0 0.5920639896
C  C102  1  0.38028000  0.94772000  0.51461000  1.0 0.5920639896
C  C103  1  0.38028000  0.55228000  0.01461000  1.0 0.5920639896
C  C104  1  0.61972000  0.44772000  0.98539000  1.0 0.5920639896
C  C105  1  0.27265000  0.06525000  0.07700000  1.0 0.4913338195
C  C106  1  0.72735000  0.93475000  0.92300000  1.0 0.4913338195
C  C107  1  0.72735000  0.56525000  0.42300000  1.0 0.4913338195
C  C108  1  0.27265000  0.43475000  0.57700000  1.0 0.4913338195
C  C109  1  0.35054000  0.05316000  0.15901000  1.0 0.21086163
C  C110  1  0.64946000  0.94684000  0.84099000  1.0 0.21086163
C  C111  1  0.64946000  0.55316000  0.34099000  1.0 0.21086163
C  C112  1  0.35054000  0.44684000  0.65901000  1.0 0.21086163
C  C113  1  0.36897000  0.02349000  0.14319000  1.0 0.5920639896
C  C114  1  0.63103000  0.97651000  0.85681000  1.0 0.5920639896
C  C115  1  0.63103000  0.52349000  0.35681000  1.0 0.5920639896
C  C116  1  0.36897000  0.47651000  0.64319000  1.0 0.5920639896
C  C117  1  0.21831000  0.16685000  0.06914000  1.0 0.4913338195
C  C118  1  0.78169000  0.83315000  0.93086000  1.0 0.4913338195
C  C119  1  0.78169000  0.66685000  0.43086000  1.0 0.4913338195
C  C120  1  0.21831000  0.33315000  0.56914000  1.0 0.4913338195
C  C121  1  0.28781000  0.18331000  0.14616000  1.0 0.2174264936
C  C122  1  0.71219000  0.81669000  0.85384000  1.0 0.2174264936
C  C123  1  0.71219000  0.68331000  0.35384000  1.0 0.2174264936
C  C124  1  0.28781000  0.31669000  0.64616000  1.0 0.2174264936
C  C125  1  0.28969000  0.21326000  0.12343000  1.0 0.5953383144
C  C126  1  0.71031000  0.78674000  0.87657000  1.0 0.5953383144
C  C127  1  0.71031000  0.71326000  0.37657000  1.0 0.5953383144
C  C128  1  0.28969000  0.28674000  0.62343000  1.0 0.5953383144
C  C129  1  0.01119000  0.19489000  0.14524000  1.0 0.5211712208
C  C130  1  0.98881000  0.80511000  0.85476000  1.0 0.5211712208
C  C131  1  0.98881000  0.69489000  0.35476000  1.0 0.5211712208
C  C132  1  0.01119000  0.30511000  0.64524000  1.0 0.5211712208
C  C133  1  0.04230000  0.21740000  0.22676000  1.0 0.0687630535
C  C134  1  0.95770000  0.78260000  0.77324000  1.0 0.0586228011
C  C135  1  0.95770000  0.71740000  0.27324000  1.0 0.0586228011
C  C136  1  0.04230000  0.28260000  0.72676000  1.0 0.0687630535
C  C137  1  0.02264000  0.24313000  0.19213000  1.0 0.0511785799
C  C138  1  0.97736000  0.75687000  0.80787000  1.0 0.0511785799
C  C139  1  0.97736000  0.74313000  0.30787000  1.0 0.0511785799
C  C140  1  0.02264000  0.25687000  0.69213000  1.0 0.0511785799
C  C141  1  0.09353000  0.25862000  0.36713000  1.0 0.0586228011
C  C142  1  0.90647000  0.74138000  0.63287000  1.0 0.0586228011
C  C143  1  0.90647000  0.75862000  0.13287000  1.0 0.0586228011
C  C144  1  0.09353000  0.24138000  0.86713000  1.0 0.0586228011
C  C145  1  0.11218000  0.23290000  0.40330000  1.0 0.0586228011
C  C146  1  0.88782000  0.76710000  0.59670000  1.0 0.0586228011
C  C147  1  0.88782000  0.73290000  0.09670000  1.0 0.0586228011
C  C148  1  0.11218000  0.26710000  0.90330000  1.0 0.0586228011
C  C149  1  0.90209000  0.20701000  0.44057000  1.0 0.5325283685
C  C150  1  0.09791000  0.79299000  0.55943000  1.0 0.5325283685
C  C151  1  0.09791000  0.70701000  0.05943000  1.0 0.5355837878
C  C152  1  0.90209000  0.29299000  0.94057000  1.0 0.5325283685
C  C153  1  0.85250000  0.22321000  0.34447000  1.0 0.0586228011
C  C154  1  0.14750000  0.77679000  0.65553000  1.0 0.0586228011
C  C155  1  0.14750000  0.72321000  0.15553000  1.0 0.0586228011
C  C156  1  0.85250000  0.27679000  0.84447000  1.0 0.0586228011
C  C157  1  0.84926000  0.25056000  0.35110000  1.0 0.042778462
C  C158  1  0.15074000  0.74944000  0.64890000  1.0 0.042778462
C  C159  1  0.15074000  0.75056000  0.14890000  1.0 0.042778462
C  C160  1  0.84926000  0.24944000  0.85110000  1.0 0.042778462
C  C161  1  0.77003000  0.25169000  0.16670000  1.0 0.0687630535
C  C162  1  0.22997000  0.74831000  0.83330000  1.0 0.0687630535
C  C163  1  0.22997000  0.75169000  0.33333333  1.0 0.0687630535
C  C164  1  0.77003000  0.24831000  0.66666667  1.0 0.0687630535
C  C165  1  0.77287000  0.22446000  0.16015000  1.0 0.0586228011
C  C166  1  0.22713000  0.77554000  0.83985000  1.0 0.0586228011
C  C167  1  0.22713000  0.72446000  0.33985000  1.0 0.0586228011
C  C168  1  0.77287000  0.27554000  0.66015000  1.0 0.0586228011
C  C169  1  0.04425000  0.04873000  0.09231000  1.0 0.5355837878
C  C170  1  0.95575000  0.95127000  0.90769000  1.0 0.5355837878
C  C171  1  0.95575000  0.54873000  0.40769000  1.0 0.5355837878
C  C172  1  0.04425000  0.45127000  0.59231000  1.0 0.5355837878
C  C173  1  0.08728000  0.02890000  0.17930000  1.0 0.0586228011
C  C174  1  0.91272000  0.97110000  0.82070000  1.0 0.0586228011
C  C175  1  0.91272000  0.52890000  0.32070000  1.0 0.0586228011
C  C176  1  0.08728000  0.47110000  0.67930000  1.0 0.0586228011
C  C177  1  0.08221000  0.00243000  0.14948000  1.0 0.042778462
C  C178  1  0.91779000  0.99757000  0.85052000  1.0 0.042778462
C  C179  1  0.91779000  0.50243000  0.35052000  1.0 0.042778462
C  C180  1  0.08221000  0.49757000  0.64948000  1.0 0.042778462
C  C181  1  0.15049000  0.99139000  0.33267000  1.0 0.0687630535
C  C182  1  0.84951000  0.00861000  0.66733000  1.0 0.0687630535
C  C183  1  0.84951000  0.49139000  0.16733000  1.0 0.0687630535
C  C184  1  0.15049000  0.50861000  0.83267000  1.0 0.0687630535
C  C185  1  0.15887000  0.01785000  0.36216000  1.0 0.0511785799
C  C186  1  0.84113000  0.98215000  0.63784000  1.0 0.0511785799
C  C187  1  0.84113000  0.51785000  0.13784000  1.0 0.0511785799
C  C188  1  0.15887000  0.48215000  0.86216000  1.0 0.0511785799
C  C189  1  0.94414000  0.04377000  0.40154000  1.0 0.5147697713
C  C190  1  0.05586000  0.95623000  0.59846000  1.0 0.5147697713
C  C191  1  0.05586000  0.54377000  0.09846000  1.0 0.5147697713
C  C192  1  0.94414000  0.45623000  0.90154000  1.0 0.5147697713
C  C193  1  0.89984000  0.02780000  0.30039000  1.0 0.0687630535
C  C194  1  0.10016000  0.97220000  0.69961000  1.0 0.0687630535
C  C195  1  0.10016000  0.52780000  0.19961000  1.0 0.0687630535
C  C196  1  0.89984000  0.47220000  0.80039000  1.0 0.0687630535
C  C197  1  0.90026000  0.00036000  0.30352000  1.0 0.042778462
C  C198  1  0.09974000  0.99964000  0.69648000  1.0 0.042778462
C  C199  1  0.09974000  0.50036000  0.19648000  1.0 0.042778462
C  C200  1  0.90026000  0.49964000  0.80352000  1.0 0.042778462
C  C201  1  0.81946000  0.99957000  0.12023000  1.0 0.0511785799
C  C202  1  0.18054000  0.00043000  0.87977000  1.0 0.0511785799
C  C203  1  0.18054000  0.49957000  0.37977000  1.0 0.0511785799
C  C204  1  0.81946000  0.50043000  0.62023000  1.0 0.0511785799
C  C205  1  0.81846000  0.02687000  0.11714000  1.0 0.0586228011
C  C206  1  0.18154000  0.97313000  0.88286000  1.0 0.0586228011
C  C207  1  0.18154000  0.52687000  0.38286000  1.0 0.0586228011
C  C208  1  0.81846000  0.47313000  0.61714000  1.0 0.0586228011
C  C209  1  0.41290000  0.12507000  0.50107000  1.0 0.5325283685
C  C210  1  0.58710000  0.87493000  0.49893000  1.0 0.5325283685
C  C211  1  0.58710000  0.62507000  0.99893000  1.0 0.5325283685
C  C212  1  0.41290000  0.37493000  0.00107000  1.0 0.5325283685
C  C213  1  0.44866000  0.12416000  0.38126000  1.0 0.0586228011
C  C214  1  0.55134000  0.87584000  0.61874000  1.0 0.0586228011
C  C215  1  0.55134000  0.62416000  0.11874000  1.0 0.0586228011
C  C216  1  0.44866000  0.37584000  0.88126000  1.0 0.0586228011
C  C217  1  0.53806000  0.12472000  0.36714000  1.0 0.0329094838
C  C218  1  0.46194000  0.87528000  0.63286000  1.0 0.0329094838
C  C219  1  0.46194000  0.62472000  0.13286000  1.0 0.0329094838
C  C220  1  0.53806000  0.37528000  0.86714000  1.0 0.0329094838
C  C221  1  0.50747000  0.12206000  0.16428000  1.0 0.0511785799
C  C222  1  0.49253000  0.87794000  0.83572000  1.0 0.0511785799
C  C223  1  0.49253000  0.62206000  0.33572000  1.0 0.0511785799
C  C224  1  0.50747000  0.37794000  0.66428000  1.0 0.0511785799
C  C225  1  0.41843000  0.12151000  0.17746000  1.0 0.0687630535
C  C226  1  0.58157000  0.87849000  0.82254000  1.0 0.0687630535
C  C227  1  0.58157000  0.62151000  0.32254000  1.0 0.0687630535
C  C228  1  0.41843000  0.37849000  0.67746000  1.0 0.0687630535
N  N1  1  0.08774000  0.21231000  0.33337000  1.0 -0.1607583475
N  N2  1  0.91226000  0.78769000  0.66666667  1.0 -0.1607583475
N  N3  1  0.91226000  0.71231000  0.16663000  1.0 -0.1607583475
N  N4  1  0.08774000  0.28769000  0.83337000  1.0 -0.1607583475
N  N5  1  0.04827000  0.26390000  0.26109000  1.0 -0.1685367749
N  N6  1  0.95173000  0.73610000  0.73891000  1.0 -0.1685367749
N  N7  1  0.95173000  0.76390000  0.23891000  1.0 -0.1685367749
N  N8  1  0.04827000  0.23610000  0.76109000  1.0 -0.1685367749
N  N9  1  0.81485000  0.21023000  0.24838000  1.0 -0.1498627835
N  N10  1  0.18515000  0.78977000  0.75162000  1.0 -0.1498627835
N  N11  1  0.18515000  0.71023000  0.25162000  1.0 -0.1498627835
N  N12  1  0.81485000  0.28977000  0.74838000  1.0 -0.1498627835
N  N13  1  0.80897000  0.26496000  0.26076000  1.0 -0.1685367749
N  N14  1  0.19103000  0.73504000  0.73924000  1.0 -0.1685367749
N  N15  1  0.19103000  0.76496000  0.23924000  1.0 -0.1685367749
N  N16  1  0.80897000  0.23504000  0.76076000  1.0 -0.1685367749
N  N17  1  0.12586000  0.03674000  0.28660000  1.0 -0.1685367749
N  N18  1  0.87414000  0.96326000  0.71340000  1.0 -0.1685367749
N  N19  1  0.87414000  0.53674000  0.21340000  1.0 -0.1685367749
N  N20  1  0.12586000  0.46326000  0.78660000  1.0 -0.1685367749
N  N21  1  0.11166000  0.98342000  0.22623000  1.0 -0.1607583475
N  N22  1  0.88834000  0.01658000  0.77377000  1.0 -0.1607583475
N  N23  1  0.88834000  0.48342000  0.27377000  1.0 -0.1607583475
N  N24  1  0.11166000  0.51658000  0.72623000  1.0 -0.1607583475
N  N25  1  0.85969000  0.04105000  0.20651000  1.0 -0.1607583475
N  N26  1  0.14031000  0.95895000  0.79349000  1.0 -0.1607583475
N  N27  1  0.14031000  0.54105000  0.29349000  1.0 -0.1607583475
N  N28  1  0.85969000  0.45895000  0.70651000  1.0 -0.1607583475
N  N29  1  0.86087000  0.98610000  0.21207000  1.0 -0.1814862817
N  N30  1  0.13913000  0.01390000  0.78793000  1.0 -0.1814862817
N  N31  1  0.13913000  0.48610000  0.28793000  1.0 -0.1814862817
N  N32  1  0.86087000  0.51390000  0.71207000  1.0 -0.1814862817
N  N33  1  0.38847000  0.12242000  0.28510000  1.0 -0.1607583475
N  N34  1  0.61153000  0.87758000  0.71490000  1.0 -0.1607583475
N  N35  1  0.61153000  0.62242000  0.21490000  1.0 -0.1607583475
N  N36  1  0.38847000  0.37758000  0.78510000  1.0 -0.1607583475
N  N37  1  0.56828000  0.12362000  0.25859000  1.0 -0.1266170095
N  N38  1  0.43172000  0.87638000  0.74141000  1.0 -0.1266170095
N  N39  1  0.43172000  0.62362000  0.24141000  1.0 -0.1266170095
N  N40  1  0.56828000  0.37638000  0.75859000  1.0 -0.1266170095
N  N41  1  0.47024000  0.12782000  0.59779000  1.0 -0.6038889948
N  N42  1  0.52976000  0.87218000  0.40221000  1.0 -0.6038889948
N  N43  1  0.52976000  0.62782000  0.90221000  1.0 -0.6038889948
N  N44  1  0.47024000  0.37218000  0.09779000  1.0 -0.6038889948
O  O1  1  0.76516000  0.10410000  0.80991000  1.0 -0.4826619862
O  O2  1  0.23484000  0.89590000  0.19009000  1.0 -0.4826619862
O  O3  1  0.23484000  0.60410000  0.69009000  1.0 -0.4826619862
O  O4  1  0.76516000  0.39590000  0.30991000  1.0 -0.4826619862
O  O5  1  0.81253000  0.07005000  0.93125000  1.0 -0.5116778129
O  O6  1  0.18747000  0.92995000  0.06875000  1.0 -0.5116778129
O  O7  1  0.18747000  0.57005000  0.56875000  1.0 -0.5116778129
O  O8  1  0.81253000  0.42995000  0.43125000  1.0 -0.5116778129
O  O9  1  0.23884000  0.08799000  0.69861000  1.0 -0.498685275
O  O10  1  0.76116000  0.91201000  0.30139000  1.0 -0.498685275
O  O11  1  0.76116000  0.58799000  0.80139000  1.0 -0.498685275
O  O12  1  0.23884000  0.41201000  0.19861000  1.0 -0.498685275
O  O13  1  0.18857000  0.05873000  0.55513000  1.0 -0.5496888224
O  O14  1  0.81143000  0.94127000  0.44487000  1.0 -0.5496888224
O  O15  1  0.81143000  0.55873000  0.94487000  1.0 -0.5496888224
O  O16  1  0.18857000  0.44127000  0.05513000  1.0 -0.5496888224
O  O17  1  0.19092000  0.15507000  0.73066000  1.0 -0.498685275
O  O18  1  0.80908000  0.84493000  0.26934000  1.0 -0.498685275
O  O19  1  0.80908000  0.65507000  0.76934000  1.0 -0.498685275
O  O20  1  0.19092000  0.34493000  0.23066000  1.0 -0.498685275
O  O21  1  0.14030000  0.18811000  0.60591000  1.0 -0.5395438884
O  O22  1  0.85970000  0.81189000  0.39409000  1.0 -0.5395438884
O  O23  1  0.85970000  0.68811000  0.89409000  1.0 -0.5395438884
O  O24  1  0.14030000  0.31189000  0.10591000  1.0 -0.5395438884
O  O25  1  0.75147000  0.17765000  0.98515000  1.0 -0.5395438884
O  O26  1  0.24853000  0.82235000  0.01485000  1.0 -0.5395438884
O  O27  1  0.24853000  0.67765000  0.51485000  1.0 -0.5395438884
O  O28  1  0.75147000  0.32235000  0.48515000  1.0 -0.5395438884
O  O29  1  0.69294000  0.17314000  0.79173000  1.0 -0.4826619862
O  O30  1  0.30706000  0.82686000  0.20827000  1.0 -0.4826619862
O  O31  1  0.30706000  0.67314000  0.70827000  1.0 -0.4826619862
O  O32  1  0.69294000  0.32686000  0.29173000  1.0 -0.4826619862
O  O33  1  0.72554000  0.19851000  0.54108000  1.0 -0.498685275
O  O34  1  0.27446000  0.80149000  0.45892000  1.0 -0.498685275
O  O35  1  0.27446000  0.69851000  0.95892000  1.0 -0.498685275
O  O36  1  0.72554000  0.30149000  0.04108000  1.0 -0.498685275
O  O37  1  0.69716000  0.16316000  0.42068000  1.0 -0.521699574
O  O38  1  0.30284000  0.83684000  0.57932000  1.0 -0.521699574
O  O39  1  0.30284000  0.66316000  0.07932000  1.0 -0.521699574
O  O40  1  0.69716000  0.33684000  0.92068000  1.0 -0.5254618589
O  O41  1  0.80644000  0.07456000  0.57742000  1.0 -0.498685275
O  O42  1  0.19356000  0.92544000  0.42258000  1.0 -0.498685275
O  O43  1  0.19356000  0.57456000  0.92258000  1.0 -0.498685275
O  O44  1  0.80644000  0.42544000  0.07742000  1.0 -0.498685275
O  O45  1  0.74051000  0.10514000  0.45048000  1.0 -0.521699574
O  O46  1  0.25949000  0.89486000  0.54952000  1.0 -0.521699574
O  O47  1  0.25949000  0.60514000  0.04952000  1.0 -0.521699574
O  O48  1  0.74051000  0.39486000  0.95048000  1.0 -0.521699574
O  O49  1  0.23936000  0.05076000  0.99462000  1.0 -0.5116778129
O  O50  1  0.76064000  0.94924000  0.00538000  1.0 -0.5116778129
O  O51  1  0.76064000  0.55076000  0.50538000  1.0 -0.5116778129
O  O52  1  0.23936000  0.44924000  0.49462000  1.0 -0.5116778129
O  O53  1  0.25370000  0.08833000  0.10399000  1.0 -0.521699574
O  O54  1  0.74630000  0.91167000  0.89601000  1.0 -0.521699574
O  O55  1  0.74630000  0.58833000  0.39601000  1.0 -0.521699574
O  O56  1  0.25370000  0.41167000  0.60399000  1.0 -0.521699574
O  O57  1  0.21976000  0.14292000  0.09933000  1.0 -0.4826619862
O  O58  1  0.78024000  0.85708000  0.90067000  1.0 -0.4826619862
O  O59  1  0.78024000  0.64292000  0.40067000  1.0 -0.4826619862
O  O60  1  0.21976000  0.35708000  0.59933000  1.0 -0.4826619862
O  O61  1  0.17323000  0.17834000  0.98620000  1.0 -0.4526810922
O  O62  1  0.82677000  0.82166000  0.01380000  1.0 -0.4526810922
O  O63  1  0.82677000  0.67834000  0.51380000  1.0 -0.4526810922
O  O64  1  0.17323000  0.32166000  0.48620000  1.0 -0.4526810922
O  O65  1  0.04160000  0.17233000  0.17091000  1.0 -0.5496888224
O  O66  1  0.95840000  0.82767000  0.82909000  1.0 -0.5496888224
O  O67  1  0.95840000  0.67233000  0.32909000  1.0 -0.5496888224
O  O68  1  0.04160000  0.32767000  0.67091000  1.0 -0.5496888224
O  O69  1  0.95581000  0.20097000  0.05826000  1.0 -0.5395438884
O  O70  1  0.04419000  0.79903000  0.94174000  1.0 -0.5395438884
O  O71  1  0.04419000  0.70097000  0.44174000  1.0 -0.5395438884
O  O72  1  0.95581000  0.29903000  0.55826000  1.0 -0.5395438884
O  O73  1  0.91319000  0.18296000  0.41699000  1.0 -0.5395438884
O  O74  1  0.08681000  0.81704000  0.58301000  1.0 -0.5395438884
O  O75  1  0.08681000  0.68296000  0.08301000  1.0 -0.5395438884
O  O76  1  0.91319000  0.31704000  0.91699000  1.0 -0.5395438884
O  O77  1  0.93016000  0.21892000  0.53494000  1.0 -0.5116778129
O  O78  1  0.06984000  0.78108000  0.46506000  1.0 -0.5116778129
O  O79  1  0.06984000  0.71892000  0.96506000  1.0 -0.5116778129
O  O80  1  0.93016000  0.28108000  0.03494000  1.0 -0.5116778129
O  O81  1  0.03832000  0.07222000  0.12661000  1.0 -0.5571409974
O  O82  1  0.96168000  0.92778000  0.87339000  1.0 -0.5571409974
O  O83  1  0.96168000  0.57222000  0.37339000  1.0 -0.5571409974
O  O84  1  0.03832000  0.42778000  0.62661000  1.0 -0.5571409974
O  O85  1  0.01584000  0.03932000  0.99194000  1.0 -0.521699574
O  O86  1  0.98416000  0.96068000  0.00806000  1.0 -0.521699574
O  O87  1  0.98416000  0.53932000  0.50806000  1.0 -0.521699574
O  O88  1  0.01584000  0.46068000  0.49194000  1.0 -0.521699574
O  O89  1  0.94768000  0.06843000  0.38944000  1.0 -0.5395438884
O  O90  1  0.05232000  0.93157000  0.61056000  1.0 -0.5395438884
O  O91  1  0.05232000  0.56843000  0.11056000  1.0 -0.5395438884
O  O92  1  0.94768000  0.43157000  0.88944000  1.0 -0.5395438884
O  O93  1  0.97610000  0.03159000  0.49446000  1.0 -0.4735143621
O  O94  1  0.02390000  0.96841000  0.50554000  1.0 -0.4735143621
O  O95  1  0.02390000  0.53159000  0.00554000  1.0 -0.4735143621
O  O96  1  0.97610000  0.46841000  0.99446000  1.0 -0.4735143621
O  O97  1  0.33283000  0.12328000  0.50601000  1.0 -0.4526810922
O  O98  1  0.66717000  0.87672000  0.49399000  1.0 -0.455341107
O  O99  1  0.66717000  0.62328000  0.99399000  1.0 -0.4526810922
O  O100  1  0.33283000  0.37672000  0.00601000  1.0 -0.4526810922
F  F1  1  0.63995000  0.11266000  0.95631000  1.0 -0.1607583475
F  F2  1  0.36005000  0.88734000  0.04369000  1.0 -0.1607583475
F  F3  1  0.36005000  0.61266000  0.54369000  1.0 -0.1607583475
F  F4  1  0.63995000  0.38734000  0.45631000  1.0 -0.1607583475
F  F5  1  0.68154000  0.07718000  0.06075000  1.0 -0.1814862817
F  F6  1  0.31846000  0.92282000  0.93925000  1.0 -0.1814862817
F  F7  1  0.31846000  0.57718000  0.43925000  1.0 -0.1814862817
F  F8  1  0.68154000  0.42282000  0.56075000  1.0 -0.1814862817
F  F9  1  0.52380000  0.07166000  0.93062000  1.0 -0.1965351869
F  F10  1  0.47620000  0.92834000  0.06938000  1.0 -0.1965351869
F  F11  1  0.47620000  0.57166000  0.56938000  1.0 -0.1965351869
F  F12  1  0.52380000  0.42834000  0.43062000  1.0 -0.1965351869
F  F13  1  0.62561000  0.04577000  0.87008000  1.0 -0.1898838971
F  F14  1  0.37439000  0.95423000  0.12992000  1.0 -0.1898838971
F  F15  1  0.37439000  0.54577000  0.62992000  1.0 -0.1898838971
F  F16  1  0.62561000  0.45423000  0.37008000  1.0 -0.1898838971
F  F17  1  0.58163000  0.08081000  0.76433000  1.0 -0.1898838971
F  F18  1  0.41837000  0.91919000  0.23567000  1.0 -0.1898838971
F  F19  1  0.41837000  0.58081000  0.73567000  1.0 -0.1898838971
F  F20  1  0.58163000  0.41919000  0.26433000  1.0 -0.1898838971
F  F21  1  0.36158000  0.05930000  0.50185000  1.0 -0.1498627835
F  F22  1  0.63842000  0.94070000  0.49815000  1.0 -0.1498627835
F  F23  1  0.63842000  0.55930000  0.99815000  1.0 -0.1498627835
F  F24  1  0.36158000  0.44070000  0.00185000  1.0 -0.1498627835
F  F25  1  0.40115000  0.07620000  0.68055000  1.0 -0.1447008018
F  F26  1  0.59885000  0.92380000  0.31945000  1.0 -0.1447008018
F  F27  1  0.59885000  0.57620000  0.81945000  1.0 -0.1447008018
F  F28  1  0.40115000  0.42380000  0.18055000  1.0 -0.1447008018
F  F29  1  0.30993000  0.01345000  0.60851000  1.0 -0.1898838971
F  F30  1  0.69007000  0.98655000  0.39149000  1.0 -0.1898838971
F  F31  1  0.69007000  0.51345000  0.89149000  1.0 -0.1898838971
F  F32  1  0.30993000  0.48655000  0.10851000  1.0 -0.1898838971
F  F33  1  0.34062000  0.03133000  0.78598000  1.0 -0.1814862817
F  F34  1  0.65938000  0.96867000  0.21402000  1.0 -0.1814862817
F  F35  1  0.65938000  0.53133000  0.71402000  1.0 -0.1814862817
F  F36  1  0.34062000  0.46867000  0.28598000  1.0 -0.1814862817
F  F37  1  0.44538000  0.02541000  0.66864000  1.0 -0.1898838971
F  F38  1  0.55462000  0.97459000  0.33136000  1.0 -0.1898838971
F  F39  1  0.55462000  0.52541000  0.83136000  1.0 -0.1898838971
F  F40  1  0.44538000  0.47459000  0.16864000  1.0 -0.1898838971
F  F41  1  0.35512000  0.16878000  0.71432000  1.0 -0.1498627835
F  F42  1  0.64488000  0.83122000  0.28568000  1.0 -0.1498627835
F  F43  1  0.64488000  0.66878000  0.78568000  1.0 -0.1498627835
F  F44  1  0.35512000  0.33122000  0.21432000  1.0 -0.1498627835
F  F45  1  0.30919000  0.18052000  0.52871000  1.0 -0.1498627835
F  F46  1  0.69081000  0.81948000  0.47129000  1.0 -0.1498627835
F  F47  1  0.69081000  0.68052000  0.97129000  1.0 -0.1498627835
F  F48  1  0.30919000  0.31948000  0.02871000  1.0 -0.1498627835
F  F49  1  0.26618000  0.22845000  0.59665000  1.0 -0.1898838971
F  F50  1  0.73382000  0.77155000  0.40335000  1.0 -0.1898838971
F  F51  1  0.73382000  0.72845000  0.90335000  1.0 -0.1898838971
F  F52  1  0.26618000  0.27155000  0.09665000  1.0 -0.1898838971
F  F53  1  0.28077000  0.21846000  0.78663000  1.0 -0.1898838971
F  F54  1  0.71923000  0.78154000  0.21337000  1.0 -0.1898838971
F  F55  1  0.71923000  0.71846000  0.71337000  1.0 -0.1898838971
F  F56  1  0.28077000  0.28154000  0.28663000  1.0 -0.1898838971
F  F57  1  0.39619000  0.21871000  0.68628000  1.0 -0.1898838971
F  F58  1  0.60381000  0.78129000  0.31372000  1.0 -0.1898838971
F  F59  1  0.60381000  0.71871000  0.81372000  1.0 -0.1898838971
F  F60  1  0.39619000  0.28129000  0.18628000  1.0 -0.1898838971
F  F61  1  0.59356000  0.17142000  0.05818000  1.0 -0.1498627835
F  F62  1  0.40644000  0.82858000  0.94182000  1.0 -0.1498627835
F  F63  1  0.40644000  0.67142000  0.44182000  1.0 -0.1498627835
F  F64  1  0.59356000  0.32858000  0.55818000  1.0 -0.1498627835
F  F65  1  0.54059000  0.16012000  0.87424000  1.0 -0.1607583475
F  F66  1  0.45941000  0.83988000  0.12576000  1.0 -0.1498627835
F  F67  1  0.45941000  0.66012000  0.62576000  1.0 -0.1498627835
F  F68  1  0.54059000  0.33988000  0.37424000  1.0 -0.1607583475
F  F69  1  0.55409000  0.21268000  0.80468000  1.0 -0.1814862817
F  F70  1  0.44591000  0.78732000  0.19532000  1.0 -0.1814862817
F  F71  1  0.44591000  0.71268000  0.69532000  1.0 -0.1814862817
F  F72  1  0.55409000  0.28732000  0.30468000  1.0 -0.1814862817
F  F73  1  0.47618000  0.20632000  0.95633000  1.0 -0.1898838971
F  F74  1  0.52382000  0.79368000  0.04367000  1.0 -0.1898838971
F  F75  1  0.52382000  0.70632000  0.54367000  1.0 -0.1898838971
F  F76  1  0.47618000  0.29368000  0.45633000  1.0 -0.1898838971
F  F77  1  0.60923000  0.22293000  0.98593000  1.0 -0.1965351869
F  F78  1  0.39077000  0.77707000  0.01407000  1.0 -0.1965351869
F  F79  1  0.39077000  0.72293000  0.51407000  1.0 -0.1965351869
F  F80  1  0.60923000  0.27707000  0.48593000  1.0 -0.1965351869
F  F81  1  0.57986000  0.18991000  0.28170000  1.0 -0.1498627835
F  F82  1  0.42014000  0.81009000  0.71830000  1.0 -0.1498627835
F  F83  1  0.42014000  0.68991000  0.21830000  1.0 -0.1498627835
F  F84  1  0.57986000  0.31009000  0.78170000  1.0 -0.1498627835
F  F85  1  0.64353000  0.22657000  0.35281000  1.0 -0.1498627835
F  F86  1  0.35647000  0.77343000  0.64719000  1.0 -0.1498627835
F  F87  1  0.35647000  0.72657000  0.14719000  1.0 -0.1498627835
F  F88  1  0.64353000  0.27343000  0.85281000  1.0 -0.1498627835
F  F89  1  0.50748000  0.18393000  0.50063000  1.0 -0.1965351869
F  F90  1  0.49252000  0.81607000  0.49937000  1.0 -0.1965351869
F  F91  1  0.49252000  0.68393000  0.99937000  1.0 -0.1965351869
F  F92  1  0.50748000  0.31607000  0.00063000  1.0 -0.1965351869
F  F93  1  0.46668000  0.21868000  0.39167000  1.0 -0.1814862817
F  F94  1  0.53332000  0.78132000  0.60833000  1.0 -0.1814862817
F  F95  1  0.53332000  0.71868000  0.10833000  1.0 -0.1814862817
F  F96  1  0.46668000  0.28132000  0.89167000  1.0 -0.1814862817
F  F97  1  0.55852000  0.22326000  0.55301000  1.0 -0.1814862817
F  F98  1  0.44148000  0.77674000  0.44699000  1.0 -0.1814862817
F  F99  1  0.44148000  0.72326000  0.94699000  1.0 -0.1814862817
F  F100  1  0.55852000  0.27674000  0.05301000  1.0 -0.1814862817
F  F101  1  0.67167000  0.06723000  0.30876000  1.0 -0.1607583475
F  F102  1  0.32833000  0.93277000  0.69124000  1.0 -0.1607583475
F  F103  1  0.32833000  0.56723000  0.19124000  1.0 -0.1607583475
F  F104  1  0.67167000  0.43277000  0.80876000  1.0 -0.1607583475
F  F105  1  0.75044000  0.03759000  0.41705000  1.0 -0.1447008018
F  F106  1  0.24956000  0.96241000  0.58295000  1.0 -0.1498627835
F  F107  1  0.24956000  0.53759000  0.08295000  1.0 -0.1498627835
F  F108  1  0.75044000  0.46241000  0.91705000  1.0 -0.1498627835
F  F109  1  0.57277000  0.07434000  0.50560000  1.0 -0.1965351869
F  F110  1  0.42723000  0.92566000  0.49440000  1.0 -0.1965351869
F  F111  1  0.42723000  0.57434000  0.99440000  1.0 -0.1965351869
F  F112  1  0.57277000  0.42566000  0.00560000  1.0 -0.1965351869
F  F113  1  0.64443000  0.04032000  0.59100000  1.0 -0.1898838971
F  F114  1  0.35557000  0.95968000  0.40900000  1.0 -0.1898838971
F  F115  1  0.35557000  0.54032000  0.90900000  1.0 -0.1898838971
F  F116  1  0.64443000  0.45968000  0.09100000  1.0 -0.1898838971
F  F117  1  0.56763000  0.03576000  0.41606000  1.0 -0.1814862817
F  F118  1  0.43237000  0.96424000  0.58394000  1.0 -0.1814862817
F  F119  1  0.43237000  0.53576000  0.08394000  1.0 -0.1814862817
F  F120  1  0.56763000  0.46424000  0.91606000  1.0 -0.1814862817
F  F121  1  0.42681000  0.06632000  0.14079000  1.0 -0.1498627835
F  F122  1  0.57319000  0.93368000  0.85921000  1.0 -0.1498627835
F  F123  1  0.57319000  0.56632000  0.35921000  1.0 -0.1498627835
F  F124  1  0.42681000  0.43368000  0.64079000  1.0 -0.1498627835
F  F125  1  0.33696000  0.05694000  0.27628000  1.0 -0.1498627835
F  F126  1  0.66304000  0.94306000  0.72372000  1.0 -0.1498627835
F  F127  1  0.66304000  0.55694000  0.22372000  1.0 -0.1498627835
F  F128  1  0.33696000  0.44306000  0.77628000  1.0 -0.1498627835
F  F129  1  0.43675000  0.01588000  0.22226000  1.0 -0.1814862817
F  F130  1  0.56325000  0.98412000  0.77774000  1.0 -0.1814862817
F  F131  1  0.56325000  0.51588000  0.27774000  1.0 -0.1814862817
F  F132  1  0.43675000  0.48412000  0.72226000  1.0 -0.1814862817
F  F133  1  0.29734000  0.00903000  0.16518000  1.0 -0.1898838971
F  F134  1  0.70266000  0.99097000  0.83482000  1.0 -0.1898838971
F  F135  1  0.70266000  0.50903000  0.33482000  1.0 -0.1898838971
F  F136  1  0.29734000  0.49097000  0.66518000  1.0 -0.1898838971
F  F137  1  0.38858000  0.01795000  0.03156000  1.0 -0.1814862817
F  F138  1  0.61142000  0.98205000  0.96844000  1.0 -0.1814862817
F  F139  1  0.61142000  0.51795000  0.46844000  1.0 -0.1814862817
F  F140  1  0.38858000  0.48205000  0.53156000  1.0 -0.1814862817
F  F141  1  0.36902000  0.17362000  0.12739000  1.0 -0.1498627835
F  F142  1  0.63098000  0.82638000  0.87261000  1.0 -0.1498627835
F  F143  1  0.63098000  0.67362000  0.37261000  1.0 -0.1498627835
F  F144  1  0.36902000  0.32638000  0.62739000  1.0 -0.1498627835
F  F145  1  0.27741000  0.18000000  0.26565000  1.0 -0.1607583475
F  F146  1  0.72259000  0.82000000  0.73435000  1.0 -0.1685367749
F  F147  1  0.72259000  0.68000000  0.23435000  1.0 -0.1607583475
F  F148  1  0.27741000  0.32000000  0.76565000  1.0 -0.1607583475
F  F149  1  0.35156000  0.22448000  0.20148000  1.0 -0.1814862817
F  F150  1  0.64844000  0.77552000  0.79852000  1.0 -0.1814862817
F  F151  1  0.64844000  0.72448000  0.29852000  1.0 -0.1814862817
F  F152  1  0.35156000  0.27552000  0.70148000  1.0 -0.1814862817
F  F153  1  0.21072000  0.22386000  0.14188000  1.0 -0.1965351869
F  F154  1  0.78928000  0.77614000  0.85812000  1.0 -0.1965351869
F  F155  1  0.78928000  0.72386000  0.35812000  1.0 -0.1965351869
F  F156  1  0.21072000  0.27614000  0.64188000  1.0 -0.1965351869
F  F157  1  0.30674000  0.21884000  0.01151000  1.0 -0.1814862817
F  F158  1  0.69326000  0.78116000  0.98849000  1.0 -0.1814862817
F  F159  1  0.69326000  0.71884000  0.48849000  1.0 -0.1814862817
F  F160  1  0.30674000  0.28116000  0.51151000  1.0 -0.1814862817
