# DDEC6 charges by PACMAN v1.1 (https://github.com/mtap-research/PACMAN-charge/)
data_NAVPEI_ASR_pacman
_symmetry_space_group_name_H-M   'P 1'
_cell_length_a   21.57320000
_cell_length_b   21.57320000
_cell_length_c   21.57320000
_cell_angle_alpha   54.26520000
_cell_angle_beta   54.26520000
_cell_angle_gamma   54.26520000
_symmetry_Int_Tables_number   1
_chemical_formula_structural   HfH7C15O8
_chemical_formula_sum   'Hf12 H84 C180 O96'
_cell_volume   6149.47023587
_cell_formula_units_Z   12
loop_
 _symmetry_equiv_pos_site_id
 _symmetry_equiv_pos_as_xyz
  1  'x, y, z'
loop_
 _atom_site_type_symbol
 _atom_site_label
 _atom_site_symmetry_multiplicity
 _atom_site_fract_x
 _atom_site_fract_y
 _atom_site_fract_z
 _atom_site_occupancy
 _atom_site_charge
Hf  Hf1  1  0.05050000  0.71400000  0.77029000  1.0 1.3657720851
Hf  Hf2  1  0.44935000  0.72390000  0.78298000  1.0 1.3475376931
Hf  Hf3  1  0.77029000  0.05050000  0.71400000  1.0 1.3657720851
Hf  Hf4  1  0.78298000  0.44935000  0.72390000  1.0 1.3475376931
Hf  Hf5  1  0.71400000  0.77029000  0.05050000  1.0 1.3638928401
Hf  Hf6  1  0.72390000  0.78298000  0.44935000  1.0 1.3475376931
Hf  Hf7  1  0.94950000  0.28600000  0.22971000  1.0 1.3638928401
Hf  Hf8  1  0.55065000  0.27610000  0.21702000  1.0 1.3475376931
Hf  Hf9  1  0.22971000  0.94950000  0.28600000  1.0 1.3638928401
Hf  Hf10  1  0.21702000  0.55065000  0.27610000  1.0 1.3475376931
Hf  Hf11  1  0.28600000  0.22971000  0.94950000  1.0 1.3638928401
Hf  Hf12  1  0.27610000  0.21702000  0.55065000  1.0 1.3475376931
H  H1  1  0.94780000  0.62990000  0.69000000  1.0 0.120559901
H  H2  1  0.93890000  0.63130000  0.58410000  1.0 0.120559901
H  H3  1  0.02650000  0.66530000  0.45350000  1.0 0.120559901
H  H4  1  0.10850000  0.73280000  0.40780000  1.0 0.1020692529
H  H5  1  0.12570000  0.72800000  0.50970000  1.0 0.1310013152
H  H6  1  0.56010000  0.81530000  0.83580000  1.0 0.1392060475
H  H7  1  0.56940000  0.86260000  0.89800000  1.0 0.1310013152
H  H8  1  0.43580000  0.95600000  0.96130000  1.0 0.1136812684
H  H9  1  0.32050000  0.99110000  0.95150000  1.0 0.1392060475
H  H10  1  0.32450000  0.92930000  0.88420000  1.0 0.1310013152
H  H11  1  0.31640000  0.64840000  0.68960000  1.0 0.1392060475
H  H12  1  0.17970000  0.81190000  0.83740000  1.0 0.1515051459
H  H13  1  0.13630000  0.44470000  0.92310000  1.0 0.1515051459
H  H14  1  0.63470000  0.41750000  0.94810000  1.0 0.1515051459
H  H15  1  0.69000000  0.94780000  0.62990000  1.0 0.120559901
H  H16  1  0.58410000  0.93890000  0.63130000  1.0 0.120559901
H  H17  1  0.45350000  0.02650000  0.66530000  1.0 0.120559901
H  H18  1  0.40780000  0.10850000  0.73280000  1.0 0.1020692529
H  H19  1  0.50970000  0.12570000  0.72800000  1.0 0.1310013152
H  H20  1  0.83580000  0.56010000  0.81530000  1.0 0.1392060475
H  H21  1  0.89800000  0.56940000  0.86260000  1.0 0.1310013152
H  H22  1  0.96130000  0.43580000  0.95600000  1.0 0.1136812684
H  H23  1  0.95150000  0.32050000  0.99110000  1.0 0.1310013152
H  H24  1  0.88420000  0.32450000  0.92930000  1.0 0.1310013152
H  H25  1  0.68960000  0.31640000  0.64840000  1.0 0.1392060475
H  H26  1  0.83740000  0.17970000  0.81190000  1.0 0.1515051459
H  H27  1  0.92310000  0.13630000  0.44470000  1.0 0.1515051459
H  H28  1  0.94810000  0.63470000  0.41750000  1.0 0.1515051459
H  H29  1  0.62990000  0.69000000  0.94780000  1.0 0.120559901
H  H30  1  0.63130000  0.58410000  0.93890000  1.0 0.120559901
H  H31  1  0.66530000  0.45350000  0.02650000  1.0 0.120559901
H  H32  1  0.73280000  0.40780000  0.10850000  1.0 0.1020692529
H  H33  1  0.72800000  0.50970000  0.12570000  1.0 0.1310013152
H  H34  1  0.81530000  0.83580000  0.56010000  1.0 0.1392060475
H  H35  1  0.86260000  0.89800000  0.56940000  1.0 0.1310013152
H  H36  1  0.95600000  0.96130000  0.43580000  1.0 0.1136812684
H  H37  1  0.99110000  0.95150000  0.32050000  1.0 0.1310013152
H  H38  1  0.92930000  0.88420000  0.32450000  1.0 0.1310013152
H  H39  1  0.64840000  0.68960000  0.31640000  1.0 0.1392060475
H  H40  1  0.81190000  0.83740000  0.17970000  1.0 0.1515051459
H  H41  1  0.44470000  0.92310000  0.13630000  1.0 0.1515051459
H  H42  1  0.41750000  0.94810000  0.63470000  1.0 0.1515051459
H  H43  1  0.05220000  0.37010000  0.31000000  1.0 0.120559901
H  H44  1  0.06110000  0.36870000  0.41590000  1.0 0.120559901
H  H45  1  0.97350000  0.33470000  0.54650000  1.0 0.120559901
H  H46  1  0.89150000  0.26720000  0.59220000  1.0 0.1020692529
H  H47  1  0.87430000  0.27200000  0.49030000  1.0 0.1310013152
H  H48  1  0.43990000  0.18470000  0.16420000  1.0 0.1392060475
H  H49  1  0.43060000  0.13740000  0.10200000  1.0 0.1310013152
H  H50  1  0.56420000  0.04400000  0.03870000  1.0 0.1136812684
H  H51  1  0.67950000  0.00890000  0.04850000  1.0 0.1310013152
H  H52  1  0.67550000  0.07070000  0.11580000  1.0 0.1310013152
H  H53  1  0.68360000  0.35160000  0.31040000  1.0 0.1392060475
H  H54  1  0.82030000  0.18810000  0.16260000  1.0 0.1515051459
H  H55  1  0.86370000  0.55530000  0.07690000  1.0 0.1515051459
H  H56  1  0.36530000  0.58250000  0.05190000  1.0 0.1515051459
H  H57  1  0.31000000  0.05220000  0.37010000  1.0 0.120559901
H  H58  1  0.41590000  0.06110000  0.36870000  1.0 0.120559901
H  H59  1  0.54650000  0.97350000  0.33470000  1.0 0.120559901
H  H60  1  0.59220000  0.89150000  0.26720000  1.0 0.1020692529
H  H61  1  0.49030000  0.87430000  0.27200000  1.0 0.1310013152
H  H62  1  0.16420000  0.43990000  0.18470000  1.0 0.1392060475
H  H63  1  0.10200000  0.43060000  0.13740000  1.0 0.1310013152
H  H64  1  0.03870000  0.56420000  0.04400000  1.0 0.1136812684
H  H65  1  0.04850000  0.67950000  0.00890000  1.0 0.1392060475
H  H66  1  0.11580000  0.67550000  0.07070000  1.0 0.1310013152
H  H67  1  0.31040000  0.68360000  0.35160000  1.0 0.1392060475
H  H68  1  0.16260000  0.82030000  0.18810000  1.0 0.1515051459
H  H69  1  0.07690000  0.86370000  0.55530000  1.0 0.1554203199
H  H70  1  0.05190000  0.36530000  0.58250000  1.0 0.1515051459
H  H71  1  0.37010000  0.31000000  0.05220000  1.0 0.120559901
H  H72  1  0.36870000  0.41590000  0.06110000  1.0 0.120559901
H  H73  1  0.33470000  0.54650000  0.97350000  1.0 0.120559901
H  H74  1  0.26720000  0.59220000  0.89150000  1.0 0.1020692529
H  H75  1  0.27200000  0.49030000  0.87430000  1.0 0.1310013152
H  H76  1  0.18470000  0.16420000  0.43990000  1.0 0.1392060475
H  H77  1  0.13740000  0.10200000  0.43060000  1.0 0.1310013152
H  H78  1  0.04400000  0.03870000  0.56420000  1.0 0.1136812684
H  H79  1  0.00890000  0.04850000  0.67950000  1.0 0.1392060475
H  H80  1  0.07070000  0.11580000  0.67550000  1.0 0.1310013152
H  H81  1  0.35160000  0.31040000  0.68360000  1.0 0.1392060475
H  H82  1  0.18810000  0.16260000  0.82030000  1.0 0.1515051459
H  H83  1  0.55530000  0.07690000  0.86370000  1.0 0.1515051459
H  H84  1  0.58250000  0.05190000  0.36530000  1.0 0.1515051459
C  C1  1  0.04524000  0.68214000  0.67244000  1.0 0.5459431477
C  C2  1  0.03956000  0.67766000  0.60916000  1.0 -0.0074266439
C  C3  1  0.98156000  0.64836000  0.63466000  1.0 -0.0716767543
C  C4  1  0.97788000  0.64878000  0.57048000  1.0 -0.0794868335
C  C5  1  0.02724000  0.67294000  0.49174000  1.0 -0.0876885756
C  C6  1  0.07992000  0.70912000  0.46402000  1.0 -0.0428407667
C  C7  1  0.08805000  0.70815000  0.52505000  1.0 -0.0716767543
C  C8  1  0.44994000  0.81814000  0.82204000  1.0 0.5459431477
C  C9  1  0.44467000  0.85797000  0.86167000  1.0 -0.0428407667
C  C10  1  0.51024000  0.84854000  0.86394000  1.0 -0.1010081099
C  C11  1  0.51960000  0.87640000  0.89740000  1.0 -0.0794868335
C  C12  1  0.43880000  0.93280000  0.93350000  1.0 -0.0532506624
C  C13  1  0.37000000  0.95290000  0.92940000  1.0 -0.0876885756
C  C14  1  0.37177000  0.91487000  0.88997000  1.0 -0.057297428
C  C15  1  0.07592000  0.80082000  0.82722000  1.0 0.582375841
C  C16  1  0.16633000  0.76653000  0.79033000  1.0 -0.1010081099
C  C17  1  0.20699000  0.71759000  0.74419000  1.0 0.2671196924
C  C18  1  0.28869000  0.68279000  0.71859000  1.0 -0.1863223769
C  C19  1  0.33650000  0.69640000  0.73400000  1.0 -0.1554925648
C  C20  1  0.29689000  0.74909000  0.77279000  1.0 0.3077305125
C  C21  1  0.20859000  0.78049000  0.80509000  1.0 -0.1535104981
C  C22  1  0.42299000  0.65089000  0.70949000  1.0 0.5578238037
C  C23  1  0.90391000  0.67271000  0.94251000  1.0 0.6268230842
C  C24  1  0.95412000  0.58432000  0.97112000  1.0 -0.1382778866
C  C25  1  0.03653000  0.55263000  0.92253000  1.0 0.3077305125
C  C26  1  0.08077000  0.46687000  0.95457000  1.0 -0.1535104981
C  C27  1  0.59409000  0.55289000  0.82419000  1.0 0.6117335922
C  C28  1  0.54463000  0.52693000  0.91413000  1.0 -0.0876885756
C  C29  1  0.46018000  0.57748000  0.94848000  1.0 0.2910382218
C  C30  1  0.57989000  0.45039000  0.96999000  1.0 -0.218277783
C  C31  1  0.67244000  0.04524000  0.68214000  1.0 0.5459431477
C  C32  1  0.60916000  0.03956000  0.67766000  1.0 -0.0074266439
C  C33  1  0.63466000  0.98156000  0.64836000  1.0 -0.0716767543
C  C34  1  0.57048000  0.97788000  0.64878000  1.0 -0.0794868335
C  C35  1  0.49174000  0.02724000  0.67294000  1.0 -0.0876885756
C  C36  1  0.46402000  0.07992000  0.70912000  1.0 -0.0428407667
C  C37  1  0.52505000  0.08805000  0.70815000  1.0 -0.0716767543
C  C38  1  0.82204000  0.44994000  0.81814000  1.0 0.5459431477
C  C39  1  0.86167000  0.44467000  0.85797000  1.0 -0.0428407667
C  C40  1  0.86394000  0.51024000  0.84854000  1.0 -0.1010081099
C  C41  1  0.89740000  0.51960000  0.87640000  1.0 -0.0794868335
C  C42  1  0.93350000  0.43880000  0.93280000  1.0 -0.0532506624
C  C43  1  0.92940000  0.37000000  0.95290000  1.0 -0.0876885756
C  C44  1  0.88997000  0.37177000  0.91487000  1.0 -0.057297428
C  C45  1  0.82722000  0.07592000  0.80082000  1.0 0.582375841
C  C46  1  0.79033000  0.16633000  0.76653000  1.0 -0.1010081099
C  C47  1  0.74419000  0.20699000  0.71759000  1.0 0.2671196924
C  C48  1  0.71859000  0.28869000  0.68279000  1.0 -0.1863223769
C  C49  1  0.73400000  0.33650000  0.69640000  1.0 -0.1554925648
C  C50  1  0.77279000  0.29689000  0.74909000  1.0 0.3077305125
C  C51  1  0.80509000  0.20859000  0.78049000  1.0 -0.1535104981
C  C52  1  0.70949000  0.42299000  0.65089000  1.0 0.5578238037
C  C53  1  0.94251000  0.90391000  0.67271000  1.0 0.6268230842
C  C54  1  0.97112000  0.95412000  0.58432000  1.0 -0.1382778866
C  C55  1  0.92253000  0.03653000  0.55263000  1.0 0.3077305125
C  C56  1  0.95457000  0.08077000  0.46687000  1.0 -0.1554925648
C  C57  1  0.82419000  0.59409000  0.55289000  1.0 0.6117335922
C  C58  1  0.91413000  0.54463000  0.52693000  1.0 -0.0876885756
C  C59  1  0.94848000  0.46018000  0.57748000  1.0 0.2910382218
C  C60  1  0.96999000  0.57989000  0.45039000  1.0 -0.218277783
C  C61  1  0.68214000  0.67244000  0.04524000  1.0 0.5459431477
C  C62  1  0.67766000  0.60916000  0.03956000  1.0 -0.0074266439
C  C63  1  0.64836000  0.63466000  0.98156000  1.0 -0.0716767543
C  C64  1  0.64878000  0.57048000  0.97788000  1.0 -0.0794868335
C  C65  1  0.67294000  0.49174000  0.02724000  1.0 -0.0876885756
C  C66  1  0.70912000  0.46402000  0.07992000  1.0 -0.0428407667
C  C67  1  0.70815000  0.52505000  0.08805000  1.0 -0.0716767543
C  C68  1  0.81814000  0.82204000  0.44994000  1.0 0.5459431477
C  C69  1  0.85797000  0.86167000  0.44467000  1.0 -0.0428407667
C  C70  1  0.84854000  0.86394000  0.51024000  1.0 -0.1010081099
C  C71  1  0.87640000  0.89740000  0.51960000  1.0 -0.0794868335
C  C72  1  0.93280000  0.93350000  0.43880000  1.0 -0.0532506624
C  C73  1  0.95290000  0.92940000  0.37000000  1.0 -0.0876885756
C  C74  1  0.91487000  0.88997000  0.37177000  1.0 -0.057297428
C  C75  1  0.80082000  0.82722000  0.07592000  1.0 0.582375841
C  C76  1  0.76653000  0.79033000  0.16633000  1.0 -0.1010081099
C  C77  1  0.71759000  0.74419000  0.20699000  1.0 0.2671196924
C  C78  1  0.68279000  0.71859000  0.28869000  1.0 -0.1863223769
C  C79  1  0.69640000  0.73400000  0.33650000  1.0 -0.1554925648
C  C80  1  0.74909000  0.77279000  0.29689000  1.0 0.3077305125
C  C81  1  0.78049000  0.80509000  0.20859000  1.0 -0.1535104981
C  C82  1  0.65089000  0.70949000  0.42299000  1.0 0.5578238037
C  C83  1  0.67271000  0.94251000  0.90391000  1.0 0.6268230842
C  C84  1  0.58432000  0.97112000  0.95412000  1.0 -0.1382778866
C  C85  1  0.55263000  0.92253000  0.03653000  1.0 0.3077305125
C  C86  1  0.46687000  0.95457000  0.08077000  1.0 -0.1554925648
C  C87  1  0.55289000  0.82419000  0.59409000  1.0 0.6117335922
C  C88  1  0.52693000  0.91413000  0.54463000  1.0 -0.0876885756
C  C89  1  0.57748000  0.94848000  0.46018000  1.0 0.2910382218
C  C90  1  0.45039000  0.96999000  0.57989000  1.0 -0.218277783
C  C91  1  0.95476000  0.31786000  0.32756000  1.0 0.5459431477
C  C92  1  0.96044000  0.32234000  0.39084000  1.0 -0.0074266439
C  C93  1  0.01844000  0.35164000  0.36534000  1.0 -0.0716767543
C  C94  1  0.02212000  0.35122000  0.42952000  1.0 -0.0794868335
C  C95  1  0.97276000  0.32706000  0.50826000  1.0 -0.0876885756
C  C96  1  0.92008000  0.29088000  0.53598000  1.0 -0.0428407667
C  C97  1  0.91195000  0.29185000  0.47495000  1.0 -0.0716767543
C  C98  1  0.55006000  0.18186000  0.17796000  1.0 0.5459431477
C  C99  1  0.55533000  0.14203000  0.13833000  1.0 -0.0428407667
C  C100  1  0.48976000  0.15146000  0.13606000  1.0 -0.1010081099
C  C101  1  0.48040000  0.12360000  0.10260000  1.0 -0.0794868335
C  C102  1  0.56120000  0.06720000  0.06650000  1.0 -0.0532506624
C  C103  1  0.63000000  0.04710000  0.07060000  1.0 -0.0876885756
C  C104  1  0.62823000  0.08513000  0.11003000  1.0 -0.057297428
C  C105  1  0.92408000  0.19918000  0.17278000  1.0 0.582375841
C  C106  1  0.83367000  0.23347000  0.20967000  1.0 -0.1010081099
C  C107  1  0.79301000  0.28241000  0.25581000  1.0 0.2671196924
C  C108  1  0.71131000  0.31721000  0.28141000  1.0 -0.1863223769
C  C109  1  0.66350000  0.30360000  0.26600000  1.0 -0.1554925648
C  C110  1  0.70311000  0.25091000  0.22721000  1.0 0.3077305125
C  C111  1  0.79141000  0.21951000  0.19491000  1.0 -0.1535104981
C  C112  1  0.57701000  0.34911000  0.29051000  1.0 0.5578238037
C  C113  1  0.09609000  0.32729000  0.05749000  1.0 0.6268230842
C  C114  1  0.04588000  0.41568000  0.02888000  1.0 -0.1382778866
C  C115  1  0.96347000  0.44737000  0.07747000  1.0 0.3077305125
C  C116  1  0.91923000  0.53313000  0.04543000  1.0 -0.1554925648
C  C117  1  0.40591000  0.44711000  0.17581000  1.0 0.6117335922
C  C118  1  0.45537000  0.47307000  0.08587000  1.0 -0.0876885756
C  C119  1  0.53982000  0.42252000  0.05152000  1.0 0.2910382218
C  C120  1  0.42011000  0.54961000  0.03001000  1.0 -0.218277783
C  C121  1  0.32756000  0.95476000  0.31786000  1.0 0.5459431477
C  C122  1  0.39084000  0.96044000  0.32234000  1.0 -0.0074266439
C  C123  1  0.36534000  0.01844000  0.35164000  1.0 -0.0716767543
C  C124  1  0.42952000  0.02212000  0.35122000  1.0 -0.0794868335
C  C125  1  0.50826000  0.97276000  0.32706000  1.0 -0.0876885756
C  C126  1  0.53598000  0.92008000  0.29088000  1.0 -0.0532506624
C  C127  1  0.47495000  0.91195000  0.29185000  1.0 -0.0716767543
C  C128  1  0.17796000  0.55006000  0.18186000  1.0 0.5459431477
C  C129  1  0.13833000  0.55533000  0.14203000  1.0 -0.0428407667
C  C130  1  0.13606000  0.48976000  0.15146000  1.0 -0.1010081099
C  C131  1  0.10260000  0.48040000  0.12360000  1.0 -0.0794868335
C  C132  1  0.06650000  0.56120000  0.06720000  1.0 -0.0532506624
C  C133  1  0.07060000  0.63000000  0.04710000  1.0 -0.0876885756
C  C134  1  0.11003000  0.62823000  0.08513000  1.0 -0.057297428
C  C135  1  0.17278000  0.92408000  0.19918000  1.0 0.582375841
C  C136  1  0.20967000  0.83367000  0.23347000  1.0 -0.1010081099
C  C137  1  0.25581000  0.79301000  0.28241000  1.0 0.2671196924
C  C138  1  0.28141000  0.71131000  0.31721000  1.0 -0.1863223769
C  C139  1  0.26600000  0.66350000  0.30360000  1.0 -0.1554925648
C  C140  1  0.22721000  0.70311000  0.25091000  1.0 0.3077305125
C  C141  1  0.19491000  0.79141000  0.21951000  1.0 -0.1535104981
C  C142  1  0.29051000  0.57701000  0.34911000  1.0 0.5578238037
C  C143  1  0.05749000  0.09609000  0.32729000  1.0 0.6268230842
C  C144  1  0.02888000  0.04588000  0.41568000  1.0 -0.1382778866
C  C145  1  0.07747000  0.96347000  0.44737000  1.0 0.3077305125
C  C146  1  0.04543000  0.91923000  0.53313000  1.0 -0.1535104981
C  C147  1  0.17581000  0.40591000  0.44711000  1.0 0.6117335922
C  C148  1  0.08587000  0.45537000  0.47307000  1.0 -0.0876885756
C  C149  1  0.05152000  0.53982000  0.42252000  1.0 0.2910382218
C  C150  1  0.03001000  0.42011000  0.54961000  1.0 -0.218277783
C  C151  1  0.31786000  0.32756000  0.95476000  1.0 0.5459431477
C  C152  1  0.32234000  0.39084000  0.96044000  1.0 -0.0074266439
C  C153  1  0.35164000  0.36534000  0.01844000  1.0 -0.0716767543
C  C154  1  0.35122000  0.42952000  0.02212000  1.0 -0.0794868335
C  C155  1  0.32706000  0.50826000  0.97276000  1.0 -0.0876885756
C  C156  1  0.29088000  0.53598000  0.92008000  1.0 -0.0428407667
C  C157  1  0.29185000  0.47495000  0.91195000  1.0 -0.0716767543
C  C158  1  0.18186000  0.17796000  0.55006000  1.0 0.5459431477
C  C159  1  0.14203000  0.13833000  0.55533000  1.0 -0.0428407667
C  C160  1  0.15146000  0.13606000  0.48976000  1.0 -0.1010081099
C  C161  1  0.12360000  0.10260000  0.48040000  1.0 -0.0794868335
C  C162  1  0.06720000  0.06650000  0.56120000  1.0 -0.0532506624
C  C163  1  0.04710000  0.07060000  0.63000000  1.0 -0.0876885756
C  C164  1  0.08513000  0.11003000  0.62823000  1.0 -0.057297428
C  C165  1  0.19918000  0.17278000  0.92408000  1.0 0.582375841
C  C166  1  0.23347000  0.20967000  0.83367000  1.0 -0.1010081099
C  C167  1  0.28241000  0.25581000  0.79301000  1.0 0.2671196924
C  C168  1  0.31721000  0.28141000  0.71131000  1.0 -0.1863223769
C  C169  1  0.30360000  0.26600000  0.66350000  1.0 -0.1554925648
C  C170  1  0.25091000  0.22721000  0.70311000  1.0 0.3077305125
C  C171  1  0.21951000  0.19491000  0.79141000  1.0 -0.1535104981
C  C172  1  0.34911000  0.29051000  0.57701000  1.0 0.5578238037
C  C173  1  0.32729000  0.05749000  0.09609000  1.0 0.6268230842
C  C174  1  0.41568000  0.02888000  0.04588000  1.0 -0.1382778866
C  C175  1  0.44737000  0.07747000  0.96347000  1.0 0.3077305125
C  C176  1  0.53313000  0.04543000  0.91923000  1.0 -0.1554925648
C  C177  1  0.44711000  0.17581000  0.40591000  1.0 0.6117335922
C  C178  1  0.47307000  0.08587000  0.45537000  1.0 -0.0876885756
C  C179  1  0.42252000  0.05152000  0.53982000  1.0 0.2910382218
C  C180  1  0.54961000  0.03001000  0.42011000  1.0 -0.218277783
O  O1  1  0.98578000  0.68408000  0.74028000  1.0 -0.5070836477
O  O2  1  0.10748000  0.69238000  0.65588000  1.0 -0.4786769284
O  O3  1  0.51497000  0.75707000  0.80647000  1.0 -0.45766646
O  O4  1  0.38803000  0.82953000  0.81853000  1.0 -0.45766646
O  O5  1  0.03476000  0.77356000  0.82916000  1.0 -0.440343351
O  O6  1  0.04168000  0.85088000  0.86078000  1.0 -0.3850732578
O  O7  1  0.16530000  0.70690000  0.72370000  1.0 -0.440343351
O  O8  1  0.46700000  0.65480000  0.73060000  1.0 -0.4314396389
O  O9  1  0.46041000  0.60041000  0.67521000  1.0 -0.3470915142
O  O10  1  0.33389000  0.76929000  0.78759000  1.0 -0.45766646
O  O11  1  0.93022000  0.72132000  0.87092000  1.0 -0.4314396389
O  O12  1  0.07834000  0.59764000  0.84894000  1.0 -0.4977360873
O  O13  1  0.83372000  0.69802000  0.99342000  1.0 -0.4786769284
O  O14  1  0.57046000  0.62466000  0.77626000  1.0 -0.4161013497
O  O15  1  0.42187000  0.64737000  0.89977000  1.0 -0.4977360873
O  O16  1  0.66265000  0.50085000  0.79885000  1.0 -0.4940182997
O  O17  1  0.74028000  0.98578000  0.68408000  1.0 -0.5070836477
O  O18  1  0.65588000  0.10748000  0.69238000  1.0 -0.4786769284
O  O19  1  0.80647000  0.51497000  0.75707000  1.0 -0.45766646
O  O20  1  0.81853000  0.38803000  0.82953000  1.0 -0.45766646
O  O21  1  0.82916000  0.03476000  0.77356000  1.0 -0.440343351
O  O22  1  0.86078000  0.04168000  0.85088000  1.0 -0.3850732578
O  O23  1  0.72370000  0.16530000  0.70690000  1.0 -0.440343351
O  O24  1  0.73060000  0.46700000  0.65480000  1.0 -0.4314396389
O  O25  1  0.67521000  0.46041000  0.60041000  1.0 -0.3470915142
O  O26  1  0.78759000  0.33389000  0.76929000  1.0 -0.45766646
O  O27  1  0.87092000  0.93022000  0.72132000  1.0 -0.4314396389
O  O28  1  0.84894000  0.07834000  0.59764000  1.0 -0.4977360873
O  O29  1  0.99342000  0.83372000  0.69802000  1.0 -0.4742095305
O  O30  1  0.77626000  0.57046000  0.62466000  1.0 -0.4161013497
O  O31  1  0.89977000  0.42187000  0.64737000  1.0 -0.4977360873
O  O32  1  0.79885000  0.66265000  0.50085000  1.0 -0.4940182997
O  O33  1  0.68408000  0.74028000  0.98578000  1.0 -0.5070836477
O  O34  1  0.69238000  0.65588000  0.10748000  1.0 -0.4786769284
O  O35  1  0.75707000  0.80647000  0.51497000  1.0 -0.45766646
O  O36  1  0.82953000  0.81853000  0.38803000  1.0 -0.45766646
O  O37  1  0.77356000  0.82916000  0.03476000  1.0 -0.440343351
O  O38  1  0.85088000  0.86078000  0.04168000  1.0 -0.3832651509
O  O39  1  0.70690000  0.72370000  0.16530000  1.0 -0.440343351
O  O40  1  0.65480000  0.73060000  0.46700000  1.0 -0.4314396389
O  O41  1  0.60041000  0.67521000  0.46041000  1.0 -0.3470915142
O  O42  1  0.76929000  0.78759000  0.33389000  1.0 -0.45766646
O  O43  1  0.72132000  0.87092000  0.93022000  1.0 -0.4314396389
O  O44  1  0.59764000  0.84894000  0.07834000  1.0 -0.4977360873
O  O45  1  0.69802000  0.99342000  0.83372000  1.0 -0.4786769284
O  O46  1  0.62466000  0.77626000  0.57046000  1.0 -0.4161013497
O  O47  1  0.64737000  0.89977000  0.42187000  1.0 -0.4977360873
O  O48  1  0.50085000  0.79885000  0.66265000  1.0 -0.4940182997
O  O49  1  0.01422000  0.31592000  0.25972000  1.0 -0.5070836477
O  O50  1  0.89252000  0.30762000  0.34412000  1.0 -0.4786769284
O  O51  1  0.48503000  0.24293000  0.19353000  1.0 -0.45766646
O  O52  1  0.61197000  0.17047000  0.18147000  1.0 -0.45766646
O  O53  1  0.96524000  0.22644000  0.17084000  1.0 -0.440343351
O  O54  1  0.95832000  0.14912000  0.13922000  1.0 -0.3832651509
O  O55  1  0.83470000  0.29310000  0.27630000  1.0 -0.440343351
O  O56  1  0.53300000  0.34520000  0.26940000  1.0 -0.4314396389
O  O57  1  0.53959000  0.39959000  0.32479000  1.0 -0.3470915142
O  O58  1  0.66611000  0.23071000  0.21241000  1.0 -0.45766646
O  O59  1  0.06978000  0.27868000  0.12908000  1.0 -0.4314396389
O  O60  1  0.92166000  0.40236000  0.15106000  1.0 -0.4977360873
O  O61  1  0.16628000  0.30198000  0.00658000  1.0 -0.4742095305
O  O62  1  0.42954000  0.37534000  0.22374000  1.0 -0.4161013497
O  O63  1  0.57813000  0.35263000  0.10023000  1.0 -0.4977360873
O  O64  1  0.33735000  0.49915000  0.20115000  1.0 -0.4940182997
O  O65  1  0.25972000  0.01422000  0.31592000  1.0 -0.5070836477
O  O66  1  0.34412000  0.89252000  0.30762000  1.0 -0.4786769284
O  O67  1  0.19353000  0.48503000  0.24293000  1.0 -0.45766646
O  O68  1  0.18147000  0.61197000  0.17047000  1.0 -0.45766646
O  O69  1  0.17084000  0.96524000  0.22644000  1.0 -0.440343351
O  O70  1  0.13922000  0.95832000  0.14912000  1.0 -0.3850732578
O  O71  1  0.27630000  0.83470000  0.29310000  1.0 -0.440343351
O  O72  1  0.26940000  0.53300000  0.34520000  1.0 -0.4314396389
O  O73  1  0.32479000  0.53959000  0.39959000  1.0 -0.3470915142
O  O74  1  0.21241000  0.66611000  0.23071000  1.0 -0.45766646
O  O75  1  0.12908000  0.06978000  0.27868000  1.0 -0.4314396389
O  O76  1  0.15106000  0.92166000  0.40236000  1.0 -0.4977360873
O  O77  1  0.00658000  0.16628000  0.30198000  1.0 -0.4786769284
O  O78  1  0.22374000  0.42954000  0.37534000  1.0 -0.4161013497
O  O79  1  0.10023000  0.57813000  0.35263000  1.0 -0.4977360873
O  O80  1  0.20115000  0.33735000  0.49915000  1.0 -0.4940182997
O  O81  1  0.31592000  0.25972000  0.01422000  1.0 -0.5070836477
O  O82  1  0.30762000  0.34412000  0.89252000  1.0 -0.4786769284
O  O83  1  0.24293000  0.19353000  0.48503000  1.0 -0.45766646
O  O84  1  0.17047000  0.18147000  0.61197000  1.0 -0.45766646
O  O85  1  0.22644000  0.17084000  0.96524000  1.0 -0.440343351
O  O86  1  0.14912000  0.13922000  0.95832000  1.0 -0.3850732578
O  O87  1  0.29310000  0.27630000  0.83470000  1.0 -0.440343351
O  O88  1  0.34520000  0.26940000  0.53300000  1.0 -0.4314396389
O  O89  1  0.39959000  0.32479000  0.53959000  1.0 -0.3470915142
O  O90  1  0.23071000  0.21241000  0.66611000  1.0 -0.45766646
O  O91  1  0.27868000  0.12908000  0.06978000  1.0 -0.4314396389
O  O92  1  0.40236000  0.15106000  0.92166000  1.0 -0.4977360873
O  O93  1  0.30198000  0.00658000  0.16628000  1.0 -0.4742095305
O  O94  1  0.37534000  0.22374000  0.42954000  1.0 -0.4161013497
O  O95  1  0.35263000  0.10023000  0.57813000  1.0 -0.4977360873
O  O96  1  0.49915000  0.20115000  0.33735000  1.0 -0.4940182997
