# DDEC6 charges by PACMAN v1.1 (https://github.com/mtap-research/PACMAN-charge/)
data_NAXKOO02_FSR_pacman
_symmetry_space_group_name_H-M   'P 1'
_cell_length_a   10.64210000
_cell_length_b   10.64210000
_cell_length_c   6.59340000
_cell_angle_alpha   74.75500000
_cell_angle_beta   105.24500000
_cell_angle_gamma   136.71700000
_symmetry_Int_Tables_number   1
_chemical_formula_structural   AlC8NO5
_chemical_formula_sum   'Al2 C16 N2 O10'
_cell_volume   491.04839550
_cell_formula_units_Z   2
loop_
 _symmetry_equiv_pos_site_id
 _symmetry_equiv_pos_as_xyz
  1  'x, y, z'
loop_
 _atom_site_type_symbol
 _atom_site_label
 _atom_site_symmetry_multiplicity
 _atom_site_fract_x
 _atom_site_fract_y
 _atom_site_fract_z
 _atom_site_occupancy
 _atom_site_charge
Al  Al1  1  0.00000000  0.00000000  0.00000000  1.0 1.6414014329
Al  Al2  1  0.00000000  0.00000000  0.50000000  1.0 1.6414014329
C  C1  1  0.94726000  0.58816000  0.89897000  1.0 -0.1640564869
C  C2  1  0.41184000  0.05274000  0.39897000  1.0 -0.1640564869
C  C3  1  0.91291000  0.50009000  0.10817000  1.0 0.1829787423
C  C4  1  0.49991000  0.08709000  0.60817000  1.0 0.1829787423
C  C5  1  0.94539000  0.38773000  0.18810000  1.0 -0.0031643095
C  C6  1  0.61227000  0.05461000  0.68810000  1.0 -0.0031643095
C  C7  1  0.01221000  0.36345000  0.05882000  1.0 -0.1431384007
C  C8  1  0.63655000  0.98779000  0.55882000  1.0 -0.1431384007
C  C9  1  0.04656000  0.45154000  0.84960000  1.0 0.0149589852
C  C10  1  0.54846000  0.95344000  0.34960000  1.0 0.0160854007
C  C11  1  0.01409000  0.56389000  0.76969000  1.0 0.0325836367
C  C12  1  0.43611000  0.98591000  0.26969000  1.0 0.0325836367
C  C13  1  0.91483000  0.70057000  0.81904000  1.0 0.6242944231
C  C14  1  0.29943000  0.08517000  0.31904000  1.0 0.6242944231
C  C15  1  0.04469000  0.25111000  0.13873000  1.0 0.6640102496
C  C16  1  0.74889000  0.95531000  0.63873000  1.0 0.6640102496
N  N1  1  0.84609000  0.52437000  0.23745000  1.0 -0.0651900689
N  N2  1  0.47563000  0.15391000  0.73745000  1.0 -0.0634085978
O  O1  1  0.85616000  0.72184000  0.93250000  1.0 -0.4264571885
O  O2  1  0.27816000  0.14384000  0.43250000  1.0 -0.4264571885
O  O3  1  0.94496000  0.77784000  0.63547000  1.0 -0.4829293261
O  O4  1  0.22216000  0.05504000  0.13547000  1.0 -0.4829293261
O  O5  1  0.01457000  0.17383000  0.32232000  1.0 -0.5204685996
O  O6  1  0.82617000  0.98543000  0.82232000  1.0 -0.5204685996
O  O7  1  0.10339000  0.22987000  0.02527000  1.0 -0.4994298587
O  O8  1  0.77013000  0.89661000  0.52527000  1.0 -0.4994298587
O  O9  1  0.89230000  0.88710000  0.26620000  1.0 -0.8568471739
O  O10  1  0.11290000  0.10770000  0.76620000  1.0 -0.8568471739
