# DDEC6 charges by PACMAN v1.1 (https://github.com/mtap-research/PACMAN-charge/)
data_NAYHAY_FSR_pacman
_symmetry_space_group_name_H-M   'P 1'
_cell_length_a   14.68200000
_cell_length_b   22.39900000
_cell_length_c   24.56900000
_cell_angle_alpha   90.00000000
_cell_angle_beta   90.00000000
_cell_angle_gamma   90.00000000
_symmetry_Int_Tables_number   1
_chemical_formula_structural   Cu6H30C24S7(N9O17)2
_chemical_formula_sum   'Cu24 H120 C96 S28 N72 O136'
_cell_volume   8079.81337714
_cell_formula_units_Z   4
loop_
 _symmetry_equiv_pos_site_id
 _symmetry_equiv_pos_as_xyz
  1  'x, y, z'
loop_
 _atom_site_type_symbol
 _atom_site_label
 _atom_site_symmetry_multiplicity
 _atom_site_fract_x
 _atom_site_fract_y
 _atom_site_fract_z
 _atom_site_occupancy
 _atom_site_charge
Cu  Cu1  1  0.40762000  0.14797000  0.40876000  1.0 0.8285708293
Cu  Cu2  1  0.59238000  0.14797000  0.09124000  1.0 0.8285708293
Cu  Cu3  1  0.90762000  0.35203000  0.09124000  1.0 0.8285708293
Cu  Cu4  1  0.09238000  0.35203000  0.40876000  1.0 0.8285708293
Cu  Cu5  1  0.59238000  0.85203000  0.59124000  1.0 0.8285708293
Cu  Cu6  1  0.40762000  0.85203000  0.90876000  1.0 0.8285708293
Cu  Cu7  1  0.09238000  0.64797000  0.90876000  1.0 0.8285708293
Cu  Cu8  1  0.90762000  0.64797000  0.59124000  1.0 0.8285708293
Cu  Cu9  1  0.39480000  0.01801000  0.47794000  1.0 0.8878285751
Cu  Cu10  1  0.60520000  0.01801000  0.02206000  1.0 0.8878285751
Cu  Cu11  1  0.89480000  0.48199000  0.02206000  1.0 0.8878285751
Cu  Cu12  1  0.10520000  0.48199000  0.47794000  1.0 0.8878285751
Cu  Cu13  1  0.60520000  0.98199000  0.52206000  1.0 0.8878285751
Cu  Cu14  1  0.39480000  0.98199000  0.97794000  1.0 0.8878285751
Cu  Cu15  1  0.10520000  0.51801000  0.97794000  1.0 0.8878285751
Cu  Cu16  1  0.89480000  0.51801000  0.52206000  1.0 0.8878285751
Cu  Cu17  1  0.40700000  0.01680000  0.34072000  1.0 0.8676998928
Cu  Cu18  1  0.59300000  0.01680000  0.15928000  1.0 0.8676998928
Cu  Cu19  1  0.90700000  0.48320000  0.15928000  1.0 0.8676998928
Cu  Cu20  1  0.09300000  0.48320000  0.34072000  1.0 0.8676998928
Cu  Cu21  1  0.59300000  0.98320000  0.65928000  1.0 0.8676998928
Cu  Cu22  1  0.40700000  0.98320000  0.84072000  1.0 0.8676998928
Cu  Cu23  1  0.09300000  0.51680000  0.84072000  1.0 0.8676998928
Cu  Cu24  1  0.90700000  0.51680000  0.65928000  1.0 0.8676998928
H  H1  1  0.38380000  0.07850000  0.22030000  1.0 0.1495819345
H  H2  1  0.61620000  0.07850000  0.27970000  1.0 0.1495819345
H  H3  1  0.88380000  0.42150000  0.27970000  1.0 0.1495819345
H  H4  1  0.11620000  0.42150000  0.22030000  1.0 0.1495819345
H  H5  1  0.61620000  0.92150000  0.77970000  1.0 0.1495819345
H  H6  1  0.38380000  0.92150000  0.72030000  1.0 0.1495819345
H  H7  1  0.11620000  0.57850000  0.72030000  1.0 0.1495819345
H  H8  1  0.88380000  0.57850000  0.77970000  1.0 0.1495819345
H  H9  1  0.38330000  0.23080000  0.51670000  1.0 0.1309658699
H  H10  1  0.61670000  0.23080000  0.98330000  1.0 0.1309658699
H  H11  1  0.88330000  0.26920000  0.98330000  1.0 0.1309658699
H  H12  1  0.11670000  0.26920000  0.51670000  1.0 0.1309658699
H  H13  1  0.61670000  0.76920000  0.48330000  1.0 0.1309658699
H  H14  1  0.38330000  0.76920000  0.01670000  1.0 0.1309658699
H  H15  1  0.11670000  0.73080000  0.01670000  1.0 0.1309658699
H  H16  1  0.88330000  0.73080000  0.48330000  1.0 0.1309658699
H  H17  1  0.38540000  0.87370000  0.48860000  1.0 0.1407426575
H  H18  1  0.61460000  0.87370000  0.01140000  1.0 0.1407426575
H  H19  1  0.88540000  0.62630000  0.01140000  1.0 0.1407426575
H  H20  1  0.11460000  0.62630000  0.48860000  1.0 0.1407426575
H  H21  1  0.61460000  0.12630000  0.51140000  1.0 0.1407426575
H  H22  1  0.38540000  0.12630000  0.98860000  1.0 0.1407426575
H  H23  1  0.11460000  0.37370000  0.98860000  1.0 0.1407426575
H  H24  1  0.88540000  0.37370000  0.51140000  1.0 0.1407426575
H  H25  1  0.38180000  0.22890000  0.30240000  1.0 0.1309658699
H  H26  1  0.61820000  0.22890000  0.19760000  1.0 0.1309658699
H  H27  1  0.88180000  0.27110000  0.19760000  1.0 0.1309658699
H  H28  1  0.11820000  0.27110000  0.30240000  1.0 0.1309658699
H  H29  1  0.61820000  0.77110000  0.69760000  1.0 0.1309658699
H  H30  1  0.38180000  0.77110000  0.80240000  1.0 0.1309658699
H  H31  1  0.11820000  0.72890000  0.80240000  1.0 0.1309658699
H  H32  1  0.88180000  0.72890000  0.69760000  1.0 0.1309658699
H  H33  1  0.38760000  0.87450000  0.33000000  1.0 0.1309658699
H  H34  1  0.61240000  0.87450000  0.17000000  1.0 0.1309658699
H  H35  1  0.88760000  0.62550000  0.17000000  1.0 0.1309658699
H  H36  1  0.11240000  0.62550000  0.33000000  1.0 0.1309658699
H  H37  1  0.61240000  0.12550000  0.67000000  1.0 0.1309658699
H  H38  1  0.38760000  0.12550000  0.83000000  1.0 0.1309658699
H  H39  1  0.11240000  0.37450000  0.83000000  1.0 0.1309658699
H  H40  1  0.88760000  0.37450000  0.67000000  1.0 0.1309658699
H  H41  1  0.38150000  0.08090000  0.59850000  1.0 0.1407426575
H  H42  1  0.61850000  0.08090000  0.90150000  1.0 0.1407426575
H  H43  1  0.88150000  0.41910000  0.90150000  1.0 0.1407426575
H  H44  1  0.11850000  0.41910000  0.59850000  1.0 0.1407426575
H  H45  1  0.61850000  0.91910000  0.40150000  1.0 0.1407426575
H  H46  1  0.38150000  0.91910000  0.09850000  1.0 0.1495819345
H  H47  1  0.11850000  0.58090000  0.09850000  1.0 0.1495819345
H  H48  1  0.88150000  0.58090000  0.40150000  1.0 0.1407426575
H  H49  1  0.39840000  0.23630000  0.62840000  1.0 0.1213623529
H  H50  1  0.60160000  0.23630000  0.87160000  1.0 0.1213623529
H  H51  1  0.89840000  0.26370000  0.87160000  1.0 0.1213623529
H  H52  1  0.10160000  0.26370000  0.62840000  1.0 0.1213623529
H  H53  1  0.60160000  0.76370000  0.37160000  1.0 0.1213623529
H  H54  1  0.39840000  0.76370000  0.12840000  1.0 0.1213623529
H  H55  1  0.10160000  0.73630000  0.12840000  1.0 0.1213623529
H  H56  1  0.89840000  0.73630000  0.37160000  1.0 0.1213623529
H  H57  1  0.36940000  0.17680000  0.65780000  1.0 0.1407426575
H  H58  1  0.63060000  0.17680000  0.84220000  1.0 0.1407426575
H  H59  1  0.86940000  0.32320000  0.84220000  1.0 0.1407426575
H  H60  1  0.13060000  0.32320000  0.65780000  1.0 0.1407426575
H  H61  1  0.63060000  0.82320000  0.34220000  1.0 0.1407426575
H  H62  1  0.36940000  0.82320000  0.15780000  1.0 0.1407426575
H  H63  1  0.13060000  0.67680000  0.15780000  1.0 0.1407426575
H  H64  1  0.86940000  0.67680000  0.34220000  1.0 0.1407426575
H  H65  1  0.21750000  0.19230000  0.62480000  1.0 0.1213623529
H  H66  1  0.78250000  0.19230000  0.87520000  1.0 0.1213623529
H  H67  1  0.71750000  0.30770000  0.87520000  1.0 0.1213623529
H  H68  1  0.28250000  0.30770000  0.62480000  1.0 0.1213623529
H  H69  1  0.78250000  0.80770000  0.37520000  1.0 0.1213623529
H  H70  1  0.21750000  0.80770000  0.12480000  1.0 0.1213623529
H  H71  1  0.28250000  0.69230000  0.12480000  1.0 0.1213623529
H  H72  1  0.71750000  0.69230000  0.37520000  1.0 0.1213623529
H  H73  1  0.39600000  0.76760000  0.37790000  1.0 0.1309658699
H  H74  1  0.60400000  0.76760000  0.12210000  1.0 0.1309658699
H  H75  1  0.89600000  0.73240000  0.12210000  1.0 0.1309658699
H  H76  1  0.10400000  0.73240000  0.37790000  1.0 0.1309658699
H  H77  1  0.60400000  0.23240000  0.62210000  1.0 0.1309658699
H  H78  1  0.39600000  0.23240000  0.87790000  1.0 0.1309658699
H  H79  1  0.10400000  0.26760000  0.87790000  1.0 0.1309658699
H  H80  1  0.89600000  0.26760000  0.62210000  1.0 0.1309658699
H  H81  1  0.39980000  0.76880000  0.44180000  1.0 0.1407426575
H  H82  1  0.60020000  0.76880000  0.05820000  1.0 0.1407426575
H  H83  1  0.89980000  0.73120000  0.05820000  1.0 0.1407426575
H  H84  1  0.10020000  0.73120000  0.44180000  1.0 0.1407426575
H  H85  1  0.60020000  0.23120000  0.55820000  1.0 0.1407426575
H  H86  1  0.39980000  0.23120000  0.94180000  1.0 0.1407426575
H  H87  1  0.10020000  0.26880000  0.94180000  1.0 0.1407426575
H  H88  1  0.89980000  0.26880000  0.55820000  1.0 0.1407426575
H  H89  1  0.23990000  0.80250000  0.41500000  1.0 0.1213623529
H  H90  1  0.76010000  0.80250000  0.08500000  1.0 0.1213623529
H  H91  1  0.73990000  0.69750000  0.08500000  1.0 0.1213623529
H  H92  1  0.26010000  0.69750000  0.41500000  1.0 0.1213623529
H  H93  1  0.76010000  0.19750000  0.58500000  1.0 0.1213623529
H  H94  1  0.23990000  0.19750000  0.91500000  1.0 0.1213623529
H  H95  1  0.26010000  0.30250000  0.91500000  1.0 0.1213623529
H  H96  1  0.73990000  0.30250000  0.58500000  1.0 0.1213623529
H  H97  1  0.21400000  0.19410000  0.19310000  1.0 0.1309658699
H  H98  1  0.78600000  0.19410000  0.30690000  1.0 0.1309658699
H  H99  1  0.71400000  0.30590000  0.30690000  1.0 0.1309658699
H  H100  1  0.28600000  0.30590000  0.19310000  1.0 0.1309658699
H  H101  1  0.78600000  0.80590000  0.80690000  1.0 0.1309658699
H  H102  1  0.21400000  0.80590000  0.69310000  1.0 0.1309658699
H  H103  1  0.28600000  0.69410000  0.69310000  1.0 0.1309658699
H  H104  1  0.71400000  0.69410000  0.80690000  1.0 0.1309658699
H  H105  1  0.39800000  0.23220000  0.18860000  1.0 0.1213623529
H  H106  1  0.60200000  0.23220000  0.31140000  1.0 0.1213623529
H  H107  1  0.89800000  0.26780000  0.31140000  1.0 0.1213623529
H  H108  1  0.10200000  0.26780000  0.18860000  1.0 0.1213623529
H  H109  1  0.60200000  0.76780000  0.81140000  1.0 0.1213623529
H  H110  1  0.39800000  0.76780000  0.68860000  1.0 0.1213623529
H  H111  1  0.10200000  0.73220000  0.68860000  1.0 0.1213623529
H  H112  1  0.89800000  0.73220000  0.81140000  1.0 0.1213623529
H  H113  1  0.36420000  0.17340000  0.16020000  1.0 0.1407426575
H  H114  1  0.63580000  0.17340000  0.33980000  1.0 0.1407426575
H  H115  1  0.86420000  0.32660000  0.33980000  1.0 0.1407426575
H  H116  1  0.13580000  0.32660000  0.16020000  1.0 0.1407426575
H  H117  1  0.63580000  0.82660000  0.83980000  1.0 0.1407426575
H  H118  1  0.36420000  0.82660000  0.66020000  1.0 0.1407426575
H  H119  1  0.13580000  0.67340000  0.66020000  1.0 0.1407426575
H  H120  1  0.86420000  0.67340000  0.83980000  1.0 0.1407426575
C  C1  1  0.38560000  0.10630000  0.24850000  1.0 0.1407426575
C  C2  1  0.61440000  0.10630000  0.25150000  1.0 0.1407426575
C  C3  1  0.88560000  0.39370000  0.25150000  1.0 0.1407426575
C  C4  1  0.11440000  0.39370000  0.24850000  1.0 0.1407426575
C  C5  1  0.61440000  0.89370000  0.75150000  1.0 0.1407426575
C  C6  1  0.38560000  0.89370000  0.74850000  1.0 0.1407426575
C  C7  1  0.11440000  0.60630000  0.74850000  1.0 0.1407426575
C  C8  1  0.88560000  0.60630000  0.75150000  1.0 0.1407426575
C  C9  1  0.38570000  0.19040000  0.52510000  1.0 0.0871676892
C  C10  1  0.61430000  0.19040000  0.97490000  1.0 0.0871676892
C  C11  1  0.88570000  0.30960000  0.97490000  1.0 0.0871676892
C  C12  1  0.11430000  0.30960000  0.52510000  1.0 0.0871676892
C  C13  1  0.61430000  0.80960000  0.47490000  1.0 0.0871676892
C  C14  1  0.38570000  0.80960000  0.02510000  1.0 0.0871676892
C  C15  1  0.11430000  0.69040000  0.02510000  1.0 0.0871676892
C  C16  1  0.88570000  0.69040000  0.47490000  1.0 0.0871676892
C  C17  1  0.38380000  0.88670000  0.45260000  1.0 0.1213623529
C  C18  1  0.61620000  0.88670000  0.04740000  1.0 0.1213623529
C  C19  1  0.88380000  0.61330000  0.04740000  1.0 0.1213623529
C  C20  1  0.11620000  0.61330000  0.45260000  1.0 0.1213623529
C  C21  1  0.61620000  0.11330000  0.54740000  1.0 0.1213623529
C  C22  1  0.38380000  0.11330000  0.95260000  1.0 0.1213623529
C  C23  1  0.11620000  0.38670000  0.95260000  1.0 0.1213623529
C  C24  1  0.88380000  0.38670000  0.54740000  1.0 0.1213623529
C  C25  1  0.38480000  0.18850000  0.29380000  1.0 0.1072662264
C  C26  1  0.61520000  0.18850000  0.20620000  1.0 0.1072662264
C  C27  1  0.88480000  0.31150000  0.20620000  1.0 0.1072662264
C  C28  1  0.11520000  0.31150000  0.29380000  1.0 0.1072662264
C  C29  1  0.61520000  0.81150000  0.70620000  1.0 0.1072662264
C  C30  1  0.38480000  0.81150000  0.79380000  1.0 0.1072662264
C  C31  1  0.11520000  0.68850000  0.79380000  1.0 0.1072662264
C  C32  1  0.88480000  0.68850000  0.70620000  1.0 0.1072662264
C  C33  1  0.38540000  0.88670000  0.36620000  1.0 0.1213623529
C  C34  1  0.61460000  0.88670000  0.13380000  1.0 0.1213623529
C  C35  1  0.88540000  0.61330000  0.13380000  1.0 0.1213623529
C  C36  1  0.11460000  0.61330000  0.36620000  1.0 0.1213623529
C  C37  1  0.61460000  0.11330000  0.63380000  1.0 0.1213623529
C  C38  1  0.38540000  0.11330000  0.86620000  1.0 0.1213623529
C  C39  1  0.11460000  0.38670000  0.86620000  1.0 0.1213623529
C  C40  1  0.88540000  0.38670000  0.63380000  1.0 0.1213623529
C  C41  1  0.38460000  0.10840000  0.57020000  1.0 0.1213623529
C  C42  1  0.61540000  0.10840000  0.92980000  1.0 0.1213623529
C  C43  1  0.88460000  0.39160000  0.92980000  1.0 0.1213623529
C  C44  1  0.11540000  0.39160000  0.57020000  1.0 0.1213623529
C  C45  1  0.61540000  0.89160000  0.42980000  1.0 0.1213623529
C  C46  1  0.38460000  0.89160000  0.07020000  1.0 0.1213623529
C  C47  1  0.11540000  0.60840000  0.07020000  1.0 0.1213623529
C  C48  1  0.88460000  0.60840000  0.42980000  1.0 0.1213623529
C  C49  1  0.35850000  0.20180000  0.62620000  1.0 -0.1085380636
C  C50  1  0.64150000  0.20180000  0.87380000  1.0 -0.1085380636
C  C51  1  0.85850000  0.29820000  0.87380000  1.0 -0.1085380636
C  C52  1  0.14150000  0.29820000  0.62620000  1.0 -0.1085380636
C  C53  1  0.64150000  0.79820000  0.37380000  1.0 -0.1085380636
C  C54  1  0.35850000  0.79820000  0.12620000  1.0 -0.1085380636
C  C55  1  0.14150000  0.70180000  0.12620000  1.0 -0.1085380636
C  C56  1  0.85850000  0.70180000  0.37380000  1.0 -0.1085380636
C  C57  1  0.26270000  0.22140000  0.62540000  1.0 -0.1085380636
C  C58  1  0.73730000  0.22140000  0.87460000  1.0 -0.1085380636
C  C59  1  0.76270000  0.27860000  0.87460000  1.0 -0.1085380636
C  C60  1  0.23730000  0.27860000  0.62540000  1.0 -0.1085380636
C  C61  1  0.73730000  0.77860000  0.37460000  1.0 -0.1085380636
C  C62  1  0.26270000  0.77860000  0.12540000  1.0 -0.1085380636
C  C63  1  0.23730000  0.72140000  0.12540000  1.0 -0.1085380636
C  C64  1  0.76270000  0.72140000  0.37460000  1.0 -0.1085380636
C  C65  1  0.36810000  0.78440000  0.41030000  1.0 -0.1295683034
C  C66  1  0.63190000  0.78440000  0.08970000  1.0 -0.1295683034
C  C67  1  0.86810000  0.71560000  0.08970000  1.0 -0.1295683034
C  C68  1  0.13190000  0.71560000  0.41030000  1.0 -0.1295683034
C  C69  1  0.63190000  0.21560000  0.58970000  1.0 -0.1295683034
C  C70  1  0.36810000  0.21560000  0.91030000  1.0 -0.1295683034
C  C71  1  0.13190000  0.28440000  0.91030000  1.0 -0.1295683034
C  C72  1  0.86810000  0.28440000  0.58970000  1.0 -0.1295683034
C  C73  1  0.27330000  0.76740000  0.41250000  1.0 -0.1085380636
C  C74  1  0.72670000  0.76740000  0.08750000  1.0 -0.1085380636
C  C75  1  0.77330000  0.73260000  0.08750000  1.0 -0.1085380636
C  C76  1  0.22670000  0.73260000  0.41250000  1.0 -0.1085380636
C  C77  1  0.72670000  0.23260000  0.58750000  1.0 -0.1085380636
C  C78  1  0.27330000  0.23260000  0.91250000  1.0 -0.1085380636
C  C79  1  0.22670000  0.26740000  0.91250000  1.0 -0.1085380636
C  C80  1  0.77330000  0.26740000  0.58750000  1.0 -0.1085380636
C  C81  1  0.26100000  0.22200000  0.19250000  1.0 -0.0943451137
C  C82  1  0.73900000  0.22200000  0.30750000  1.0 -0.0943451137
C  C83  1  0.76100000  0.27800000  0.30750000  1.0 -0.0943451137
C  C84  1  0.23900000  0.27800000  0.19250000  1.0 -0.0943451137
C  C85  1  0.73900000  0.77800000  0.80750000  1.0 -0.0943451137
C  C86  1  0.26100000  0.77800000  0.69250000  1.0 -0.0943451137
C  C87  1  0.23900000  0.72200000  0.69250000  1.0 -0.0943451137
C  C88  1  0.76100000  0.72200000  0.80750000  1.0 -0.0943451137
C  C89  1  0.35570000  0.19910000  0.19160000  1.0 -0.096365713
C  C90  1  0.64430000  0.19910000  0.30840000  1.0 -0.096365713
C  C91  1  0.85570000  0.30090000  0.30840000  1.0 -0.096365713
C  C92  1  0.14430000  0.30090000  0.19160000  1.0 -0.096365713
C  C93  1  0.64430000  0.80090000  0.80840000  1.0 -0.096365713
C  C94  1  0.35570000  0.80090000  0.69160000  1.0 -0.096365713
C  C95  1  0.14430000  0.69910000  0.69160000  1.0 -0.096365713
C  C96  1  0.85570000  0.69910000  0.80840000  1.0 -0.096365713
S  S1  1  0.18210000  0.15110000  0.37760000  1.0 0.6271653935
S  S2  1  0.81790000  0.15110000  0.12240000  1.0 0.6271653935
S  S3  1  0.68210000  0.34890000  0.12240000  1.0 0.6271653935
S  S4  1  0.31790000  0.34890000  0.37760000  1.0 0.6271653935
S  S5  1  0.81790000  0.84890000  0.62240000  1.0 0.6271653935
S  S6  1  0.18210000  0.84890000  0.87760000  1.0 0.6271653935
S  S7  1  0.31790000  0.65110000  0.87760000  1.0 0.6271653935
S  S8  1  0.68210000  0.65110000  0.62240000  1.0 0.6271653935
S  S9  1  0.59314000  0.05561000  0.40910000  1.0 1.4019082948
S  S10  1  0.40686000  0.05561000  0.09090000  1.0 1.4019082948
S  S11  1  0.09314000  0.44439000  0.09090000  1.0 1.4019082948
S  S12  1  0.90686000  0.44439000  0.40910000  1.0 1.4019082948
S  S13  1  0.40686000  0.94439000  0.59090000  1.0 1.4019082948
S  S14  1  0.59314000  0.94439000  0.90910000  1.0 1.4019082948
S  S15  1  0.90686000  0.55561000  0.90910000  1.0 1.4019082948
S  S16  1  0.09314000  0.55561000  0.59090000  1.0 1.4019082948
S  S17  1  0.50000000  0.93649000  0.25000000  1.0 1.4114585385
S  S18  1  0.00000000  0.56351000  0.25000000  1.0 1.4114585385
S  S19  1  0.50000000  0.06351000  0.75000000  1.0 1.4114585385
S  S20  1  0.00000000  0.43649000  0.75000000  1.0 1.4114585385
S  S21  1  0.17570000  0.15070000  0.44490000  1.0 0.5820951178
S  S22  1  0.82430000  0.15070000  0.05510000  1.0 0.5820951178
S  S23  1  0.67570000  0.34930000  0.05510000  1.0 0.5820951178
S  S24  1  0.32430000  0.34930000  0.44490000  1.0 0.5820951178
S  S25  1  0.82430000  0.84930000  0.55510000  1.0 0.5820951178
S  S26  1  0.17570000  0.84930000  0.94490000  1.0 0.5820951178
S  S27  1  0.32430000  0.65070000  0.94490000  1.0 0.5820951178
S  S28  1  0.67570000  0.65070000  0.55510000  1.0 0.5820951178
N  N1  1  0.38810000  0.94240000  0.43780000  1.0 -0.1665624907
N  N2  1  0.61190000  0.94240000  0.06220000  1.0 -0.1665624907
N  N3  1  0.88810000  0.55760000  0.06220000  1.0 -0.1665624907
N  N4  1  0.11190000  0.55760000  0.43780000  1.0 -0.1665624907
N  N5  1  0.61190000  0.05760000  0.56220000  1.0 -0.1665624907
N  N6  1  0.38810000  0.05760000  0.93780000  1.0 -0.1665624907
N  N7  1  0.11190000  0.44240000  0.93780000  1.0 -0.1665624907
N  N8  1  0.88810000  0.44240000  0.56220000  1.0 -0.1665624907
N  N9  1  0.39930000  0.09340000  0.30070000  1.0 -0.1972601687
N  N10  1  0.60070000  0.09340000  0.19930000  1.0 -0.1972601687
N  N11  1  0.89930000  0.40660000  0.19930000  1.0 -0.1972601687
N  N12  1  0.10070000  0.40660000  0.30070000  1.0 -0.1972601687
N  N13  1  0.60070000  0.90660000  0.69930000  1.0 -0.1972601687
N  N14  1  0.39930000  0.90660000  0.80070000  1.0 -0.1972601687
N  N15  1  0.10070000  0.59340000  0.80070000  1.0 -0.1972601687
N  N16  1  0.89930000  0.59340000  0.69930000  1.0 -0.1972601687
N  N17  1  0.39680000  0.09500000  0.51740000  1.0 -0.1972601687
N  N18  1  0.60320000  0.09500000  0.98260000  1.0 -0.1889732995
N  N19  1  0.89680000  0.40500000  0.98260000  1.0 -0.1972601687
N  N20  1  0.10320000  0.40500000  0.51740000  1.0 -0.1972601687
N  N21  1  0.60320000  0.90500000  0.48260000  1.0 -0.1972601687
N  N22  1  0.39680000  0.90500000  0.01740000  1.0 -0.1972601687
N  N23  1  0.10320000  0.59500000  0.01740000  1.0 -0.1972601687
N  N24  1  0.89680000  0.59500000  0.48260000  1.0 -0.1972601687
N  N25  1  0.39040000  0.94080000  0.38260000  1.0 -0.1665624907
N  N26  1  0.60960000  0.94080000  0.11740000  1.0 -0.1646062717
N  N27  1  0.89040000  0.55920000  0.11740000  1.0 -0.1646062717
N  N28  1  0.10960000  0.55920000  0.38260000  1.0 -0.1665624907
N  N29  1  0.60960000  0.05920000  0.61740000  1.0 -0.1646062717
N  N30  1  0.39040000  0.05920000  0.88260000  1.0 -0.1646062717
N  N31  1  0.10960000  0.44080000  0.88260000  1.0 -0.1665624907
N  N32  1  0.89040000  0.44080000  0.61740000  1.0 -0.1646062717
N  N33  1  0.39860000  0.14680000  0.32750000  1.0 -0.1889732995
N  N34  1  0.60140000  0.14680000  0.17250000  1.0 -0.1889732995
N  N35  1  0.89860000  0.35320000  0.17250000  1.0 -0.1889732995
N  N36  1  0.10140000  0.35320000  0.32750000  1.0 -0.1889732995
N  N37  1  0.60140000  0.85320000  0.67250000  1.0 -0.1889732995
N  N38  1  0.39860000  0.85320000  0.82750000  1.0 -0.1889732995
N  N39  1  0.10140000  0.64680000  0.82750000  1.0 -0.1889732995
N  N40  1  0.89860000  0.64680000  0.67250000  1.0 -0.1889732995
N  N41  1  0.37490000  0.16460000  0.24260000  1.0 0.0032878377
N  N42  1  0.62510000  0.16460000  0.25740000  1.0 0.0032878377
N  N43  1  0.87490000  0.33540000  0.25740000  1.0 0.0032878377
N  N44  1  0.12510000  0.33540000  0.24260000  1.0 0.0032878377
N  N45  1  0.62510000  0.83540000  0.75740000  1.0 0.0032878377
N  N46  1  0.37490000  0.83540000  0.74260000  1.0 0.0032878377
N  N47  1  0.12510000  0.66460000  0.74260000  1.0 0.0032878377
N  N48  1  0.87490000  0.66460000  0.75740000  1.0 0.0032878377
N  N49  1  0.39740000  0.14790000  0.48950000  1.0 -0.2065081395
N  N50  1  0.60260000  0.14790000  0.01050000  1.0 -0.2065081395
N  N51  1  0.89740000  0.35210000  0.01050000  1.0 -0.2065081395
N  N52  1  0.10260000  0.35210000  0.48950000  1.0 -0.2065081395
N  N53  1  0.60260000  0.85210000  0.51050000  1.0 -0.2065081395
N  N54  1  0.39740000  0.85210000  0.98950000  1.0 -0.2065081395
N  N55  1  0.10260000  0.64790000  0.98950000  1.0 -0.2065081395
N  N56  1  0.89740000  0.64790000  0.51050000  1.0 -0.2065081395
N  N57  1  0.37740000  0.16780000  0.57550000  1.0 -0.0082508842
N  N58  1  0.62260000  0.16780000  0.92450000  1.0 -0.0082508842
N  N59  1  0.87740000  0.33220000  0.92450000  1.0 -0.0082508842
N  N60  1  0.12260000  0.33220000  0.57550000  1.0 -0.0082508842
N  N61  1  0.62260000  0.83220000  0.42450000  1.0 -0.0082508842
N  N62  1  0.37740000  0.83220000  0.07550000  1.0 -0.0082508842
N  N63  1  0.12260000  0.66780000  0.07550000  1.0 -0.0082508842
N  N64  1  0.87740000  0.66780000  0.42450000  1.0 -0.0082508842
N  N65  1  0.37650000  0.85020000  0.40910000  1.0 -0.0082508842
N  N66  1  0.62350000  0.85020000  0.09090000  1.0 -0.0082508842
N  N67  1  0.87650000  0.64980000  0.09090000  1.0 -0.0082508842
N  N68  1  0.12350000  0.64980000  0.40910000  1.0 -0.0082508842
N  N69  1  0.62350000  0.14980000  0.59090000  1.0 -0.0082508842
N  N70  1  0.37650000  0.14980000  0.90910000  1.0 -0.0082508842
N  N71  1  0.12350000  0.35020000  0.90910000  1.0 -0.0082508842
N  N72  1  0.87650000  0.35020000  0.59090000  1.0 -0.0082508842
O  O1  1  0.19680000  0.07690000  0.38350000  1.0 -0.0780467162
O  O2  1  0.80320000  0.07690000  0.11650000  1.0 -0.0780467162
O  O3  1  0.69680000  0.42310000  0.11650000  1.0 -0.0780467162
O  O4  1  0.30320000  0.42310000  0.38350000  1.0 -0.0780467162
O  O5  1  0.80320000  0.92310000  0.61650000  1.0 -0.0780467162
O  O6  1  0.19680000  0.92310000  0.88350000  1.0 -0.0780467162
O  O7  1  0.30320000  0.57690000  0.88350000  1.0 -0.0780467162
O  O8  1  0.69680000  0.57690000  0.61650000  1.0 -0.0780467162
O  O9  1  0.25950000  0.19360000  0.40260000  1.0 -0.2442969218
O  O10  1  0.74050000  0.19360000  0.09740000  1.0 -0.2442969218
O  O11  1  0.75950000  0.30640000  0.09740000  1.0 -0.2442969218
O  O12  1  0.24050000  0.30640000  0.40260000  1.0 -0.2442969218
O  O13  1  0.74050000  0.80640000  0.59740000  1.0 -0.2442969218
O  O14  1  0.25950000  0.80640000  0.90260000  1.0 -0.2442969218
O  O15  1  0.24050000  0.69360000  0.90260000  1.0 -0.2442969218
O  O16  1  0.75950000  0.69360000  0.59740000  1.0 -0.2442969218
O  O17  1  0.16550000  0.16300000  0.31310000  1.0 -0.4576937356
O  O18  1  0.83450000  0.16300000  0.18690000  1.0 -0.4576937356
O  O19  1  0.66550000  0.33700000  0.18690000  1.0 -0.4576937356
O  O20  1  0.33450000  0.33700000  0.31310000  1.0 -0.4576937356
O  O21  1  0.83450000  0.83700000  0.68690000  1.0 -0.4576937356
O  O22  1  0.16550000  0.83700000  0.81310000  1.0 -0.4576937356
O  O23  1  0.33450000  0.66300000  0.81310000  1.0 -0.4576937356
O  O24  1  0.66550000  0.66300000  0.68690000  1.0 -0.4576937356
O  O25  1  0.09070000  0.16480000  0.39860000  1.0 -0.0405581188
O  O26  1  0.90930000  0.16480000  0.10140000  1.0 -0.0405581188
O  O27  1  0.59070000  0.33520000  0.10140000  1.0 -0.0405581188
O  O28  1  0.40930000  0.33520000  0.39860000  1.0 -0.0405581188
O  O29  1  0.90930000  0.83520000  0.60140000  1.0 -0.0405581188
O  O30  1  0.09070000  0.83520000  0.89860000  1.0 -0.0405581188
O  O31  1  0.40930000  0.66480000  0.89860000  1.0 -0.0405581188
O  O32  1  0.59070000  0.66480000  0.60140000  1.0 -0.0405581188
O  O33  1  0.55780000  0.02350000  0.45710000  1.0 -0.6962079242
O  O34  1  0.44220000  0.02350000  0.04290000  1.0 -0.6962079242
O  O35  1  0.05780000  0.47650000  0.04290000  1.0 -0.6962079242
O  O36  1  0.94220000  0.47650000  0.45710000  1.0 -0.6962079242
O  O37  1  0.44220000  0.97650000  0.54290000  1.0 -0.6962079242
O  O38  1  0.55780000  0.97650000  0.95710000  1.0 -0.6962079242
O  O39  1  0.94220000  0.52350000  0.95710000  1.0 -0.6962079242
O  O40  1  0.05780000  0.52350000  0.54290000  1.0 -0.6962079242
O  O41  1  0.55650000  0.02630000  0.36030000  1.0 -0.6676131621
O  O42  1  0.44350000  0.02630000  0.13970000  1.0 -0.6676131621
O  O43  1  0.05650000  0.47370000  0.13970000  1.0 -0.6676131621
O  O44  1  0.94350000  0.47370000  0.36030000  1.0 -0.6676131621
O  O45  1  0.44350000  0.97370000  0.63970000  1.0 -0.6676131621
O  O46  1  0.55650000  0.97370000  0.86030000  1.0 -0.6676131621
O  O47  1  0.94350000  0.52630000  0.86030000  1.0 -0.6676131621
O  O48  1  0.05650000  0.52630000  0.63970000  1.0 -0.6676131621
O  O49  1  0.56030000  0.11640000  0.41270000  1.0 -0.6614598319
O  O50  1  0.43970000  0.11640000  0.08730000  1.0 -0.6614598319
O  O51  1  0.06030000  0.38360000  0.08730000  1.0 -0.6614598319
O  O52  1  0.93970000  0.38360000  0.41270000  1.0 -0.6614598319
O  O53  1  0.43970000  0.88360000  0.58730000  1.0 -0.6614598319
O  O54  1  0.56030000  0.88360000  0.91270000  1.0 -0.6614598319
O  O55  1  0.93970000  0.61640000  0.91270000  1.0 -0.6614598319
O  O56  1  0.06030000  0.61640000  0.58730000  1.0 -0.6614598319
O  O57  1  0.69110000  0.05220000  0.40940000  1.0 -0.5746704474
O  O58  1  0.30890000  0.05220000  0.09060000  1.0 -0.5770026495
O  O59  1  0.19110000  0.44780000  0.09060000  1.0 -0.5770026495
O  O60  1  0.80890000  0.44780000  0.40940000  1.0 -0.5770026495
O  O61  1  0.30890000  0.94780000  0.59060000  1.0 -0.5770026495
O  O62  1  0.69110000  0.94780000  0.90940000  1.0 -0.5770026495
O  O63  1  0.80890000  0.55220000  0.90940000  1.0 -0.5770026495
O  O64  1  0.19110000  0.55220000  0.59060000  1.0 -0.5770026495
O  O65  1  0.36950000  0.06200000  0.40870000  1.0 -0.8059199289
O  O66  1  0.63050000  0.06200000  0.09130000  1.0 -0.8059199289
O  O67  1  0.86950000  0.43800000  0.09130000  1.0 -0.8059199289
O  O68  1  0.13050000  0.43800000  0.40870000  1.0 -0.8059199289
O  O69  1  0.63050000  0.93800000  0.59130000  1.0 -0.8059199289
O  O70  1  0.36950000  0.93800000  0.90870000  1.0 -0.8059199289
O  O71  1  0.13050000  0.56200000  0.90870000  1.0 -0.8059199289
O  O72  1  0.86950000  0.56200000  0.59130000  1.0 -0.8059199289
O  O73  1  0.42880000  0.97530000  0.27270000  1.0 -0.6614598319
O  O74  1  0.57120000  0.97530000  0.22730000  1.0 -0.6614598319
O  O75  1  0.92880000  0.52470000  0.22730000  1.0 -0.6614598319
O  O76  1  0.07120000  0.52470000  0.27270000  1.0 -0.6614598319
O  O77  1  0.57120000  0.02470000  0.72730000  1.0 -0.6614598319
O  O78  1  0.42880000  0.02470000  0.77270000  1.0 -0.6614598319
O  O79  1  0.07120000  0.47530000  0.77270000  1.0 -0.6614598319
O  O80  1  0.92880000  0.47530000  0.72730000  1.0 -0.6614598319
O  O81  1  0.45850000  0.90070000  0.20650000  1.0 -0.6840616599
O  O82  1  0.54150000  0.90070000  0.29350000  1.0 -0.6840616599
O  O83  1  0.95850000  0.59930000  0.29350000  1.0 -0.6840616599
O  O84  1  0.04150000  0.59930000  0.20650000  1.0 -0.6840616599
O  O85  1  0.54150000  0.09930000  0.79350000  1.0 -0.6840616599
O  O86  1  0.45850000  0.09930000  0.70650000  1.0 -0.6840616599
O  O87  1  0.04150000  0.40070000  0.70650000  1.0 -0.6840616599
O  O88  1  0.95850000  0.40070000  0.79350000  1.0 -0.6840616599
O  O89  1  0.23600000  0.01020000  0.49860000  1.0 -0.0082508842
O  O90  1  0.76400000  0.01020000  0.00140000  1.0 -0.0082508842
O  O91  1  0.73600000  0.48980000  0.00140000  1.0 0.0032878377
O  O92  1  0.26400000  0.48980000  0.49860000  1.0 -0.0017628211
O  O93  1  0.76400000  0.98980000  0.50140000  1.0 -0.0082508842
O  O94  1  0.23600000  0.98980000  0.99860000  1.0 -0.0082508842
O  O95  1  0.26400000  0.51020000  0.99860000  1.0 0.0032878377
O  O96  1  0.73600000  0.51020000  0.50140000  1.0 0.0032878377
O  O97  1  0.45860000  0.22910000  0.40770000  1.0 -0.4691538759
O  O98  1  0.54140000  0.22910000  0.09230000  1.0 -0.4691538759
O  O99  1  0.95860000  0.27090000  0.09230000  1.0 -0.4691538759
O  O100  1  0.04140000  0.27090000  0.40770000  1.0 -0.4691538759
O  O101  1  0.54140000  0.77090000  0.59230000  1.0 -0.4691538759
O  O102  1  0.45860000  0.77090000  0.90770000  1.0 -0.4691538759
O  O103  1  0.04140000  0.72910000  0.90770000  1.0 -0.4691538759
O  O104  1  0.95860000  0.72910000  0.59230000  1.0 -0.4691538759
O  O105  1  0.24980000  0.18190000  0.41530000  1.0 -0.2227041893
O  O106  1  0.75020000  0.18190000  0.08470000  1.0 -0.2227041893
O  O107  1  0.74980000  0.31810000  0.08470000  1.0 -0.2227041893
O  O108  1  0.25020000  0.31810000  0.41530000  1.0 -0.2227041893
O  O109  1  0.75020000  0.81810000  0.58470000  1.0 -0.2227041893
O  O110  1  0.24980000  0.81810000  0.91530000  1.0 -0.2227041893
O  O111  1  0.25020000  0.68190000  0.91530000  1.0 -0.2227041893
O  O112  1  0.74980000  0.68190000  0.58470000  1.0 -0.2227041893
O  O113  1  0.08720000  0.17400000  0.43300000  1.0 -0.0780467162
O  O114  1  0.91280000  0.17400000  0.06700000  1.0 -0.0780467162
O  O115  1  0.58720000  0.32600000  0.06700000  1.0 -0.0780467162
O  O116  1  0.41280000  0.32600000  0.43300000  1.0 -0.0780467162
O  O117  1  0.91280000  0.82600000  0.56700000  1.0 -0.0780467162
O  O118  1  0.08720000  0.82600000  0.93300000  1.0 -0.0780467162
O  O119  1  0.41280000  0.67400000  0.93300000  1.0 -0.0780467162
O  O120  1  0.58720000  0.67400000  0.56700000  1.0 -0.0780467162
O  O121  1  0.18700000  0.08720000  0.42550000  1.0 0.0032878377
O  O122  1  0.81300000  0.08720000  0.07450000  1.0 0.0032878377
O  O123  1  0.68700000  0.41280000  0.07450000  1.0 -0.0017628211
O  O124  1  0.31300000  0.41280000  0.42550000  1.0 0.0032878377
O  O125  1  0.81300000  0.91280000  0.57450000  1.0 -0.0017628211
O  O126  1  0.18700000  0.91280000  0.92550000  1.0 -0.0017628211
O  O127  1  0.31300000  0.58720000  0.92550000  1.0 -0.0017628211
O  O128  1  0.68700000  0.58720000  0.57450000  1.0 -0.0017628211
O  O129  1  0.17600000  0.14870000  0.50620000  1.0 -0.4691538759
O  O130  1  0.82400000  0.14870000  0.99380000  1.0 -0.4691538759
O  O131  1  0.67600000  0.35130000  0.99380000  1.0 -0.4691538759
O  O132  1  0.32400000  0.35130000  0.50620000  1.0 -0.4691538759
O  O133  1  0.82400000  0.85130000  0.49380000  1.0 -0.4691538759
O  O134  1  0.17600000  0.85130000  0.00620000  1.0 -0.4691538759
O  O135  1  0.32400000  0.64870000  0.00620000  1.0 -0.4691538759
O  O136  1  0.67600000  0.64870000  0.49380000  1.0 -0.4691538759
