# DDEC6 charges by PACMAN v1.1 (https://github.com/mtap-research/PACMAN-charge/)
data_NAYMOQ_FSR_pacman
_symmetry_space_group_name_H-M   'P 1'
_cell_length_a   12.37220000
_cell_length_b   12.37220000
_cell_length_c   8.90300000
_cell_angle_alpha   69.15610000
_cell_angle_beta   110.84400000
_cell_angle_gamma   86.90510000
_symmetry_Int_Tables_number   1
_chemical_formula_structural   Na2H10PbC14N2O13
_chemical_formula_sum   'Na4 H20 Pb2 C28 N4 O26'
_cell_volume   1164.52515020
_cell_formula_units_Z   2
loop_
 _symmetry_equiv_pos_site_id
 _symmetry_equiv_pos_as_xyz
  1  'x, y, z'
loop_
 _atom_site_type_symbol
 _atom_site_label
 _atom_site_symmetry_multiplicity
 _atom_site_fract_x
 _atom_site_fract_y
 _atom_site_fract_z
 _atom_site_occupancy
 _atom_site_charge
Na  Na1  1  0.47895000  0.69709000  0.16750000  1.0 0.8357785978
Na  Na2  1  0.30291000  0.52105000  0.66750000  1.0 0.8357785978
Na  Na3  1  0.58922000  0.42710000  0.18300000  1.0 0.8344618716
Na  Na4  1  0.57290000  0.41078000  0.68300000  1.0 0.8344618716
H  H1  1  0.36400000  0.57600000  0.02200000  1.0 0.2888793983
H  H2  1  0.42400000  0.63600000  0.52200000  1.0 0.2888793983
H  H3  1  0.35200000  0.50800000  0.15700000  1.0 0.3042690345
H  H4  1  0.49200000  0.64800000  0.65700000  1.0 0.3042690345
H  H5  1  0.68500000  0.62500000  0.09100000  1.0 0.313251216
H  H6  1  0.37500000  0.31500000  0.59100000  1.0 0.313251216
H  H7  1  0.59800000  0.67600000  0.93800000  1.0 0.3277339377
H  H8  1  0.32400000  0.40200000  0.43800000  1.0 0.3277339377
H  H9  1  0.65600000  0.82200000  0.15000000  1.0 0.3771123676
H  H10  1  0.17800000  0.34400000  0.65000000  1.0 0.3771123676
H  H11  1  0.63700000  0.82100000  0.30900000  1.0 0.3771123676
H  H12  1  0.17900000  0.36300000  0.80900000  1.0 0.3771123676
H  H13  1  0.68900000  0.53300000  0.45400000  1.0 0.3689281979
H  H14  1  0.46700000  0.31100000  0.95400000  1.0 0.3689281979
H  H15  1  0.63800000  0.61000000  0.51500000  1.0 0.3771123676
H  H16  1  0.39000000  0.36200000  0.01500000  1.0 0.3771123676
H  H17  1  0.79900000  0.39900000  0.34700000  1.0 0.3466628232
H  H18  1  0.60100000  0.20100000  0.84700000  1.0 0.3466628232
H  H19  1  0.83300000  0.37700000  0.52500000  1.0 0.3689281979
H  H20  1  0.62300000  0.16700000  0.02500000  1.0 0.3689281979
Pb  Pb1  1  0.47109000  0.96985000  0.74458000  1.0 0.9643803575
Pb  Pb2  1  0.03015000  0.52891000  0.24458000  1.0 0.9643803575
C  C1  1  0.60170000  0.95630000  0.49880000  1.0 -0.1552449129
C  C2  1  0.04370000  0.39830000  0.99880000  1.0 -0.1552449129
C  C3  1  0.60430000  0.82490000  0.59170000  1.0 0.5630515256
C  C4  1  0.17510000  0.39570000  0.09170000  1.0 0.5630515256
C  C5  1  0.49540000  0.15660000  0.38770000  1.0 -0.1234233937
C  C6  1  0.84340000  0.50460000  0.88770000  1.0 -0.1234233937
C  C7  1  0.56900000  0.19300000  0.53180000  1.0 0.5729550162
C  C8  1  0.80700000  0.43100000  0.03180000  1.0 0.5729550162
C  C9  1  0.38880000  0.00280000  0.32340000  1.0 0.148390513
C  C10  1  0.99720000  0.61120000  0.82340000  1.0 0.148390513
C  C11  1  0.38240000  0.06200000  0.13560000  1.0 -0.0190021302
C  C12  1  0.93800000  0.61760000  0.63560000  1.0 -0.0190021302
C  C13  1  0.28150000  0.03390000  0.00450000  1.0 0.099669505
C  C14  1  0.96610000  0.71850000  0.50450000  1.0 0.099669505
C  C15  1  0.16470000  0.07350000  0.00930000  1.0 0.0776244216
C  C16  1  0.92650000  0.83530000  0.50930000  1.0 0.0776244216
C  C17  1  0.16890000  0.01170000  0.19240000  1.0 0.0302839299
C  C18  1  0.98830000  0.83110000  0.69240000  1.0 0.0302839299
C  C19  1  0.27090000  0.03470000  0.33170000  1.0 0.148390513
C  C20  1  0.96530000  0.72910000  0.83170000  1.0 0.148390513
C  C21  1  0.18610000  0.03870000  0.53980000  1.0 -0.1491696946
C  C22  1  0.96130000  0.81390000  0.03980000  1.0 -0.1491696946
C  C23  1  0.21610000  0.15310000  0.55450000  1.0 0.5630515256
C  C24  1  0.84690000  0.78390000  0.05450000  1.0 0.5630515256
C  C25  1  0.25990000  0.84770000  0.55150000  1.0 -0.1330276094
C  C26  1  0.15230000  0.74010000  0.05150000  1.0 -0.1330276094
C  C27  1  0.30380000  0.76800000  0.74710000  1.0 0.5801624694
C  C28  1  0.23200000  0.69620000  0.24710000  1.0 0.5801624694
N  N1  1  0.48760000  0.02960000  0.45490000  1.0 0.0188625754
N  N2  1  0.97040000  0.51240000  0.95490000  1.0 0.0188625754
N  N3  1  0.27590000  0.97170000  0.51430000  1.0 0.010229514
N  N4  1  0.02830000  0.72410000  0.01430000  1.0 0.010229514
O  O1  1  0.55090000  0.79750000  0.69300000  1.0 -0.5453320108
O  O2  1  0.20250000  0.44910000  0.19300000  1.0 -0.5453320108
O  O3  1  0.65980000  0.75380000  0.56070000  1.0 -0.5099848769
O  O4  1  0.24620000  0.34020000  0.06070000  1.0 -0.5099848769
O  O5  1  0.59490000  0.12730000  0.68740000  1.0 -0.5243511758
O  O6  1  0.87270000  0.40510000  0.18740000  1.0 -0.5243511758
O  O7  1  0.59920000  0.29120000  0.48110000  1.0 -0.6156615279
O  O8  1  0.70880000  0.40080000  0.98110000  1.0 -0.6156615279
O  O9  1  0.32490000  0.16010000  0.60110000  1.0 -0.5624104402
O  O10  1  0.83990000  0.67510000  0.10110000  1.0 -0.5624104402
O  O11  1  0.13480000  0.22900000  0.53160000  1.0 -0.5099848769
O  O12  1  0.77100000  0.86520000  0.03160000  1.0 -0.5099848769
O  O13  1  0.35880000  0.80600000  0.85880000  1.0 -0.5921547971
O  O14  1  0.19400000  0.64120000  0.35880000  1.0 -0.5921547971
O  O15  1  0.28020000  0.66620000  0.78090000  1.0 -0.5768128
O  O16  1  0.33380000  0.71980000  0.28090000  1.0 -0.5768128
O  O17  1  0.40530000  0.53310000  0.13160000  1.0 -0.7770373187
O  O18  1  0.46690000  0.59470000  0.63160000  1.0 -0.7770373187
O  O19  1  0.61440000  0.62600000  0.05510000  1.0 -0.7706764004
O  O20  1  0.37400000  0.38560000  0.55510000  1.0 -0.7706764004
O  O21  1  0.60620000  0.83360000  0.19310000  1.0 -0.8126202784
O  O22  1  0.16640000  0.39380000  0.69310000  1.0 -0.8126202784
O  O23  1  0.62490000  0.55750000  0.46550000  1.0 -0.8126202784
O  O24  1  0.44250000  0.37510000  0.96550000  1.0 -0.8126202784
O  O25  1  0.79040000  0.43280000  0.41750000  1.0 -0.7077677212
O  O26  1  0.56720000  0.20960000  0.91750000  1.0 -0.7077677212
