# DDEC6 charges by PACMAN v1.1 (https://github.com/mtap-research/PACMAN-charge/)
data_NDAIAH_ion_pacman
_symmetry_space_group_name_H-M   'P 1'
_cell_length_a   8.73000000
_cell_length_b   18.33000000
_cell_length_c   9.31000000
_cell_angle_alpha   90.00000000
_cell_angle_beta   105.80000000
_cell_angle_gamma   90.00000000
_symmetry_Int_Tables_number   1
_chemical_formula_structural   Nd2C12N3(ClO8)2
_chemical_formula_sum   'Nd4 C24 N6 Cl4 O32'
_cell_volume   1433.50715058
_cell_formula_units_Z   2
loop_
 _symmetry_equiv_pos_site_id
 _symmetry_equiv_pos_as_xyz
  1  'x, y, z'
loop_
 _atom_site_type_symbol
 _atom_site_label
 _atom_site_symmetry_multiplicity
 _atom_site_fract_x
 _atom_site_fract_y
 _atom_site_fract_z
 _atom_site_occupancy
 _atom_site_charge
Nd  Nd1  1  0.99200000  0.02400000  0.21800000  1.0 2.087636125
Nd  Nd2  1  0.00800000  0.52400000  0.78200000  1.0 2.087636125
Nd  Nd3  1  0.00800000  0.97600000  0.78200000  1.0 2.087636125
Nd  Nd4  1  0.99200000  0.47600000  0.21800000  1.0 2.087636125
C  C1  1  0.24700000  0.95600000  0.55900000  1.0 0.6415041506
C  C2  1  0.75300000  0.45600000  0.44100000  1.0 0.6415041506
C  C3  1  0.75300000  0.04400000  0.44100000  1.0 0.6415041506
C  C4  1  0.24700000  0.54400000  0.55900000  1.0 0.6415041506
C  C5  1  0.42700000  0.91900000  0.59100000  1.0 0.021525144
C  C6  1  0.57300000  0.41900000  0.40900000  1.0 0.021525144
C  C7  1  0.57300000  0.08100000  0.40900000  1.0 0.021525144
C  C8  1  0.42700000  0.58100000  0.59100000  1.0 0.021525144
C  C9  1  0.70300000  0.93800000  0.91900000  1.0 0.6319693297
C  C10  1  0.29700000  0.43800000  0.08100000  1.0 0.6319693297
C  C11  1  0.29700000  0.06200000  0.08100000  1.0 0.6319693297
C  C12  1  0.70300000  0.56200000  0.91900000  1.0 0.6319693297
C  C13  1  0.51300000  0.91200000  0.88400000  1.0 -0.0020865213
C  C14  1  0.48700000  0.41200000  0.11600000  1.0 -0.0020865213
C  C15  1  0.48700000  0.08800000  0.11600000  1.0 -0.0020865213
C  C16  1  0.51300000  0.58800000  0.88400000  1.0 -0.0020865213
C  C17  1  0.84900000  0.11900000  0.95000000  1.0 0.5947350978
C  C18  1  0.15100000  0.61900000  0.05000000  1.0 0.5953447937
C  C19  1  0.15100000  0.88100000  0.05000000  1.0 0.5953447937
C  C20  1  0.84900000  0.38100000  0.95000000  1.0 0.5953447937
C  C21  1  0.78100000  0.18100000  0.82300000  1.0 0.0782011065
C  C22  1  0.21900000  0.68100000  0.17700000  1.0 0.0782011065
C  C23  1  0.21900000  0.81900000  0.17700000  1.0 0.0782011065
C  C24  1  0.78100000  0.31900000  0.82300000  1.0 0.0782011065
N  N1  1  0.46600000  0.87200000  0.73200000  1.0 0.0335258836
N  N2  1  0.53400000  0.37200000  0.26800000  1.0 0.0335258836
N  N3  1  0.53400000  0.12800000  0.26800000  1.0 0.0335258836
N  N4  1  0.46600000  0.62800000  0.73200000  1.0 0.0356860689
N  N5  1  0.78200000  0.25000000  0.91300000  1.0 0.021525144
N  N6  1  0.21800000  0.75000000  0.08700000  1.0 0.021525144
Cl  Cl1  1  0.81100000  0.25000000  0.40000000  1.0 -0.1487290989
Cl  Cl2  1  0.18900000  0.75000000  0.60000000  1.0 -0.1587158919
Cl  Cl3  1  0.36000000  0.25000000  0.41000000  1.0 -0.1487290989
Cl  Cl4  1  0.64000000  0.75000000  0.59000000  1.0 -0.1434907049
O  O1  1  0.22700000  0.99100000  0.43400000  1.0 -0.6168928922
O  O2  1  0.77300000  0.49100000  0.56600000  1.0 -0.6168928922
O  O3  1  0.77300000  0.00900000  0.56600000  1.0 -0.6168928922
O  O4  1  0.22700000  0.50900000  0.43400000  1.0 -0.6168928922
O  O5  1  0.17800000  0.95000000  0.64200000  1.0 -0.5219164819
O  O6  1  0.82200000  0.45000000  0.35800000  1.0 -0.5219164819
O  O7  1  0.82200000  0.05000000  0.35800000  1.0 -0.5219164819
O  O8  1  0.17800000  0.55000000  0.64200000  1.0 -0.5219164819
O  O9  1  0.74400000  0.96700000  0.05000000  1.0 -0.6144176305
O  O10  1  0.25600000  0.46700000  0.95000000  1.0 -0.6168928922
O  O11  1  0.25600000  0.03300000  0.95000000  1.0 -0.6168928922
O  O12  1  0.74400000  0.53300000  0.05000000  1.0 -0.6144176305
O  O13  1  0.77300000  0.92200000  0.83300000  1.0 -0.5270787209
O  O14  1  0.22700000  0.42200000  0.16700000  1.0 -0.5270787209
O  O15  1  0.22700000  0.07800000  0.16700000  1.0 -0.5270787209
O  O16  1  0.77300000  0.57800000  0.83300000  1.0 -0.5270787209
O  O17  1  0.91400000  0.06400000  0.91700000  1.0 -0.6843263985
O  O18  1  0.08600000  0.56400000  0.08300000  1.0 -0.6856559396
O  O19  1  0.08600000  0.93600000  0.08300000  1.0 -0.6843263985
O  O20  1  0.91400000  0.43600000  0.91700000  1.0 -0.6843263985
O  O21  1  0.83000000  0.13000000  0.07100000  1.0 -0.5120893896
O  O22  1  0.17000000  0.63000000  0.92900000  1.0 -0.5120893896
O  O23  1  0.17000000  0.87000000  0.92900000  1.0 -0.5120893896
O  O24  1  0.83000000  0.37000000  0.07100000  1.0 -0.5120893896
O  O25  1  0.06600000  0.13800000  0.37300000  1.0 -0.1692317158
O  O26  1  0.93400000  0.63800000  0.62700000  1.0 -0.1587158919
O  O27  1  0.93400000  0.86200000  0.62700000  1.0 -0.1487290989
O  O28  1  0.06600000  0.36200000  0.37300000  1.0 -0.1692317158
O  O29  1  0.93200000  0.90600000  0.31900000  1.0 -0.3090853721
O  O30  1  0.06800000  0.40600000  0.68100000  1.0 -0.3090853721
O  O31  1  0.06800000  0.09400000  0.68100000  1.0 -0.3090853721
O  O32  1  0.93200000  0.59400000  0.31900000  1.0 -0.3090853721
