# DDEC6 charges by PACMAN v1.1 (https://github.com/mtap-research/PACMAN-charge/)
data_NEBMOZ_ASR_pacman
_symmetry_space_group_name_H-M   'P 1'
_cell_length_a   39.46450000
_cell_length_b   39.46450000
_cell_length_c   39.46450000
_cell_angle_alpha   154.15300000
_cell_angle_beta   154.15300000
_cell_angle_gamma   36.87770000
_symmetry_Int_Tables_number   1
_chemical_formula_structural   Yb5H22(C35O13)2
_chemical_formula_sum   'Yb20 H88 C280 O104'
_cell_volume   11666.17832875
_cell_formula_units_Z   4
loop_
 _symmetry_equiv_pos_site_id
 _symmetry_equiv_pos_as_xyz
  1  'x, y, z'
loop_
 _atom_site_type_symbol
 _atom_site_label
 _atom_site_symmetry_multiplicity
 _atom_site_fract_x
 _atom_site_fract_y
 _atom_site_fract_z
 _atom_site_occupancy
 _atom_site_charge
Yb  Yb1  1  0.45154000  0.45154000  0.00000000  1.0 1.9338238054
Yb  Yb2  1  0.20154000  0.70154000  0.50000000  1.0 1.9338238054
Yb  Yb3  1  0.29846000  0.79846000  0.50000000  1.0 1.9338238054
Yb  Yb4  1  0.54846000  0.54846000  0.00000000  1.0 1.9338238054
Yb  Yb5  1  0.59775000  0.42356000  0.17419000  1.0 1.9886236602
Yb  Yb6  1  0.24937000  0.42356000  0.82581000  1.0 1.9886236602
Yb  Yb7  1  0.17356000  0.49937000  0.32581000  1.0 1.9886236602
Yb  Yb8  1  0.17356000  0.84775000  0.67419000  1.0 1.9886236602
Yb  Yb9  1  0.50063000  0.82644000  0.67419000  1.0 1.9886236602
Yb  Yb10  1  0.15225000  0.82644000  0.32581000  1.0 1.9886236602
Yb  Yb11  1  0.57644000  0.75063000  0.17419000  1.0 1.9886236602
Yb  Yb12  1  0.57644000  0.40225000  0.82581000  1.0 1.9886236602
Yb  Yb13  1  0.40822000  0.30455000  0.89633000  1.0 2.1639450603
Yb  Yb14  1  0.40822000  0.51189000  0.10367000  1.0 2.1639450603
Yb  Yb15  1  0.05455000  0.65822000  0.39633000  1.0 2.1639450603
Yb  Yb16  1  0.26189000  0.65822000  0.60367000  1.0 2.1639450603
Yb  Yb17  1  0.34178000  0.94545000  0.60367000  1.0 2.1639450603
Yb  Yb18  1  0.34178000  0.73811000  0.39633000  1.0 2.1639450603
Yb  Yb19  1  0.48811000  0.59178000  0.89633000  1.0 2.1639450603
Yb  Yb20  1  0.69545000  0.59178000  0.10367000  1.0 2.1639450603
H  H1  1  0.71860000  0.22632000  0.15892000  1.0 0.1207775454
H  H2  1  0.83230000  0.19250000  0.22900000  1.0 0.1207775454
H  H3  1  0.62910000  0.51710000  0.14640000  1.0 0.0753974292
H  H4  1  0.84800000  0.58000000  0.37620000  1.0 0.1076019867
H  H5  1  0.79470000  0.50970000  0.35980000  1.0 0.1076019867
H  H6  1  0.06740000  0.55968000  0.84108000  1.0 0.1207775454
H  H7  1  0.96350000  0.60330000  0.77100000  1.0 0.1207775454
H  H8  1  0.37070000  0.48270000  0.85360000  1.0 0.0753974292
H  H9  1  0.20380000  0.47180000  0.62380000  1.0 0.1076019867
H  H10  1  0.14990000  0.43490000  0.64020000  1.0 0.1076019867
H  H11  1  0.97632000  0.31740000  0.00772000  1.0 0.1207775454
H  H12  1  0.94250000  0.21350000  0.86020000  1.0 0.1207775454
H  H13  1  0.26710000  0.62070000  0.38800000  1.0 0.0753974292
H  H14  1  0.33000000  0.45380000  0.23200000  1.0 0.1076019867
H  H15  1  0.25970000  0.39990000  0.21500000  1.0 0.1076019867
H  H16  1  0.30968000  0.96860000  0.99228000  1.0 0.1207775454
H  H17  1  0.35330000  0.08230000  0.13980000  1.0 0.1207775454
H  H18  1  0.23270000  0.87910000  0.61200000  1.0 0.0753974292
H  H19  1  0.22180000  0.09800000  0.76800000  1.0 0.1076019867
H  H20  1  0.18490000  0.04470000  0.78500000  1.0 0.1076019867
H  H21  1  0.68260000  0.02368000  0.99228000  1.0 0.1207775454
H  H22  1  0.78650000  0.05750000  0.13980000  1.0 0.1207775454
H  H23  1  0.37930000  0.73290000  0.61200000  1.0 0.0753974292
H  H24  1  0.54620000  0.67000000  0.76800000  1.0 0.1076019867
H  H25  1  0.60010000  0.74030000  0.78500000  1.0 0.1076019867
H  H26  1  0.03140000  0.69032000  0.00772000  1.0 0.1207775454
H  H27  1  0.91770000  0.64670000  0.86020000  1.0 0.1207775454
H  H28  1  0.12090000  0.76730000  0.38800000  1.0 0.0753974292
H  H29  1  0.90200000  0.77820000  0.23200000  1.0 0.1076019867
H  H30  1  0.95530000  0.81510000  0.21500000  1.0 0.1076019867
H  H31  1  0.44032000  0.93260000  0.15892000  1.0 0.1207775454
H  H32  1  0.39670000  0.03650000  0.22900000  1.0 0.1207775454
H  H33  1  0.51730000  0.62930000  0.14640000  1.0 0.0753974292
H  H34  1  0.52820000  0.79620000  0.37620000  1.0 0.1076019867
H  H35  1  0.56510000  0.85010000  0.35980000  1.0 0.1076019867
H  H36  1  0.77368000  0.28140000  0.84108000  1.0 0.1207775454
H  H37  1  0.80750000  0.16770000  0.77100000  1.0 0.1207775454
H  H38  1  0.48290000  0.37090000  0.85360000  1.0 0.0753974292
H  H39  1  0.42000000  0.15200000  0.62380000  1.0 0.1076019867
H  H40  1  0.49030000  0.20530000  0.64020000  1.0 0.1076019867
H  H41  1  0.03140000  0.02368000  0.34108000  1.0 0.1207775454
H  H42  1  0.91770000  0.05750000  0.27100000  1.0 0.1207775454
H  H43  1  0.12090000  0.73290000  0.35360000  1.0 0.0753974292
H  H44  1  0.90200000  0.67000000  0.12380000  1.0 0.1076019867
H  H45  1  0.95530000  0.74030000  0.14020000  1.0 0.1076019867
H  H46  1  0.68260000  0.69032000  0.65892000  1.0 0.1207775454
H  H47  1  0.78650000  0.64670000  0.72900000  1.0 0.1207775454
H  H48  1  0.37930000  0.76730000  0.64640000  1.0 0.0753974292
H  H49  1  0.54620000  0.77820000  0.87620000  1.0 0.1076019867
H  H50  1  0.60010000  0.81510000  0.85980000  1.0 0.1076019867
H  H51  1  0.77368000  0.93260000  0.49228000  1.0 0.1207775454
H  H52  1  0.80750000  0.03650000  0.63980000  1.0 0.1207775454
H  H53  1  0.48290000  0.62930000  0.11200000  1.0 0.0753974292
H  H54  1  0.42000000  0.79620000  0.26800000  1.0 0.1076019867
H  H55  1  0.49030000  0.85010000  0.28500000  1.0 0.1076019867
H  H56  1  0.44032000  0.28140000  0.50772000  1.0 0.1207775454
H  H57  1  0.39670000  0.16770000  0.36020000  1.0 0.1207775454
H  H58  1  0.51730000  0.37090000  0.88800000  1.0 0.0753974292
H  H59  1  0.52820000  0.15200000  0.73200000  1.0 0.1076019867
H  H60  1  0.56510000  0.20530000  0.71500000  1.0 0.1076019867
H  H61  1  0.06740000  0.22632000  0.50772000  1.0 0.1207775454
H  H62  1  0.96350000  0.19250000  0.36020000  1.0 0.1207775454
H  H63  1  0.37070000  0.51710000  0.88800000  1.0 0.0753974292
H  H64  1  0.20380000  0.58000000  0.73200000  1.0 0.1076019867
H  H65  1  0.14990000  0.50970000  0.71500000  1.0 0.1076019867
H  H66  1  0.71860000  0.55968000  0.49228000  1.0 0.1207775454
H  H67  1  0.83230000  0.60330000  0.63980000  1.0 0.1207775454
H  H68  1  0.62910000  0.48270000  0.11200000  1.0 0.0753974292
H  H69  1  0.84800000  0.47180000  0.26800000  1.0 0.1076019867
H  H70  1  0.79470000  0.43490000  0.28500000  1.0 0.1076019867
H  H71  1  0.30968000  0.31740000  0.34108000  1.0 0.1207775454
H  H72  1  0.35330000  0.21350000  0.27100000  1.0 0.1207775454
H  H73  1  0.23270000  0.62070000  0.35360000  1.0 0.0753974292
H  H74  1  0.22180000  0.45380000  0.12380000  1.0 0.1076019867
H  H75  1  0.18490000  0.39990000  0.14020000  1.0 0.1076019867
H  H76  1  0.97632000  0.96860000  0.65892000  1.0 0.1207775454
H  H77  1  0.94250000  0.08230000  0.72900000  1.0 0.1207775454
H  H78  1  0.26710000  0.87910000  0.64640000  1.0 0.0753974292
H  H79  1  0.33000000  0.09800000  0.87620000  1.0 0.1076019867
H  H80  1  0.25970000  0.04470000  0.85980000  1.0 0.1076019867
H  H81  1  0.50360000  0.12500000  0.87860000  1.0 0.1282636711
H  H82  1  0.24640000  0.62500000  0.12140000  1.0 0.1282636711
H  H83  1  0.87500000  0.49640000  0.12140000  1.0 0.1282636711
H  H84  1  0.37500000  0.75360000  0.87860000  1.0 0.1282636711
H  H85  1  0.24640000  0.12500000  0.62140000  1.0 0.1282636711
H  H86  1  0.50360000  0.62500000  0.37860000  1.0 0.1282636711
H  H87  1  0.87500000  0.75360000  0.37860000  1.0 0.1282636711
H  H88  1  0.37500000  0.49640000  0.62140000  1.0 0.1282636711
C  C1  1  0.57489000  0.24929000  0.02720000  1.0 0.6382815653
C  C2  1  0.60647000  0.18527000  0.01960000  1.0 -0.0020432918
C  C3  1  0.68499000  0.18519000  0.09860000  1.0 -0.1674033858
C  C4  1  0.84790000  0.16340000  0.23530000  1.0 -0.1453576385
C  C5  1  0.64077000  0.48697000  0.19480000  1.0 0.2912301218
C  C6  1  0.70898000  0.57018000  0.21380000  1.0 0.283073716
C  C7  1  0.70116000  0.51306000  0.24690000  1.0 0.037230048
C  C8  1  0.68057000  0.52627000  0.20770000  1.0 -0.050645808
C  C9  1  0.73407000  0.55287000  0.25680000  1.0 -0.0067931504
C  C10  1  0.81196000  0.56216000  0.34400000  1.0 -0.1233125803
C  C11  1  0.83714000  0.54554000  0.38420000  1.0 0.0235052979
C  C12  1  0.78023000  0.52093000  0.33470000  1.0 -0.1111575792
C  C13  1  0.92150000  0.54820000  0.47150000  1.0 0.0235052979
C  C14  1  0.97170000  0.59370000  0.54200000  1.0 -0.050645808
C  C15  1  0.94530000  0.56530000  0.54000000  1.0 -0.050645808
C  C16  1  0.22209000  0.54769000  0.97280000  1.0 0.6382815653
C  C17  1  0.16567000  0.58687000  0.98040000  1.0 -0.0020432918
C  C18  1  0.08659000  0.58639000  0.90140000  1.0 -0.1674033858
C  C19  1  0.92810000  0.61260000  0.76470000  1.0 -0.142438793
C  C20  1  0.29217000  0.44597000  0.80520000  1.0 0.2912301218
C  C21  1  0.35638000  0.49518000  0.78620000  1.0 0.283073716
C  C22  1  0.26616000  0.45426000  0.75310000  1.0 0.037230048
C  C23  1  0.31857000  0.47287000  0.79230000  1.0 -0.050645808
C  C24  1  0.29607000  0.47727000  0.74320000  1.0 -0.0067931504
C  C25  1  0.21816000  0.46796000  0.65600000  1.0 -0.1233125803
C  C26  1  0.16134000  0.45294000  0.61580000  1.0 0.0235052979
C  C27  1  0.18623000  0.44553000  0.66530000  1.0 -0.1111575792
C  C28  1  0.07670000  0.45000000  0.52850000  1.0 0.0235052979
C  C29  1  0.05170000  0.42970000  0.45800000  1.0 -0.050645808
C  C30  1  0.02530000  0.40530000  0.46000000  1.0 -0.050645808
C  C31  1  0.99929000  0.47209000  0.17440000  1.0 0.6382815653
C  C32  1  0.93527000  0.41567000  0.07880000  1.0 -0.0020432918
C  C33  1  0.93519000  0.33659000  0.00020000  1.0 -0.1674033858
C  C34  1  0.91340000  0.17810000  0.81550000  1.0 -0.142438793
C  C35  1  0.23697000  0.54217000  0.34620000  1.0 0.2912301218
C  C36  1  0.32018000  0.60638000  0.36120000  1.0 0.283073716
C  C37  1  0.26306000  0.51616000  0.31190000  1.0 0.037230048
C  C38  1  0.27627000  0.56857000  0.34570000  1.0 -0.050645808
C  C39  1  0.30287000  0.54607000  0.31880000  1.0 -0.0067931504
C  C40  1  0.31216000  0.46816000  0.25020000  1.0 -0.1233125803
C  C41  1  0.29554000  0.41134000  0.20840000  1.0 0.0278017234
C  C42  1  0.27093000  0.43623000  0.24070000  1.0 -0.1111575792
C  C43  1  0.29820000  0.32670000  0.12670000  1.0 0.0235052979
C  C44  1  0.34370000  0.30170000  0.12200000  1.0 -0.0443546473
C  C45  1  0.31530000  0.27530000  0.12000000  1.0 -0.050645808
C  C46  1  0.29769000  0.82489000  0.82560000  1.0 0.6382815653
C  C47  1  0.33687000  0.85647000  0.92120000  1.0 -0.0020432918
C  C48  1  0.33639000  0.93499000  0.99980000  1.0 -0.1674033858
C  C49  1  0.36260000  0.09790000  0.18450000  1.0 -0.142438793
C  C50  1  0.19597000  0.89077000  0.65380000  1.0 0.2912301218
C  C51  1  0.24518000  0.95898000  0.63880000  1.0 0.283073716
C  C52  1  0.20426000  0.95116000  0.68810000  1.0 0.037230048
C  C53  1  0.22287000  0.93057000  0.65430000  1.0 -0.050645808
C  C54  1  0.22727000  0.98407000  0.68120000  1.0 -0.0067931504
C  C55  1  0.21796000  0.06196000  0.74980000  1.0 -0.1233125803
C  C56  1  0.20294000  0.08714000  0.79160000  1.0 0.0235052979
C  C57  1  0.19553000  0.03023000  0.75930000  1.0 -0.1111575792
C  C58  1  0.20000000  0.17150000  0.87330000  1.0 0.0235052979
C  C59  1  0.17970000  0.22170000  0.87800000  1.0 -0.050645808
C  C60  1  0.15530000  0.19530000  0.88000000  1.0 -0.050645808
C  C61  1  0.52791000  0.00071000  0.82560000  1.0 0.6382815653
C  C62  1  0.58433000  0.06473000  0.92120000  1.0 -0.0020432918
C  C63  1  0.66341000  0.06481000  0.99980000  1.0 -0.1674033858
C  C64  1  0.82190000  0.08660000  0.18450000  1.0 -0.1453576385
C  C65  1  0.45783000  0.76303000  0.65380000  1.0 0.2912301218
C  C66  1  0.39362000  0.67982000  0.63880000  1.0 0.283073716
C  C67  1  0.48384000  0.73694000  0.68810000  1.0 0.037230048
C  C68  1  0.43143000  0.72373000  0.65430000  1.0 -0.050645808
C  C69  1  0.45393000  0.69713000  0.68120000  1.0 -0.0067931504
C  C70  1  0.53184000  0.68784000  0.74980000  1.0 -0.1233125803
C  C71  1  0.58866000  0.70446000  0.79160000  1.0 0.0278017234
C  C72  1  0.56377000  0.72907000  0.75930000  1.0 -0.1111575792
C  C73  1  0.67330000  0.70180000  0.87330000  1.0 0.0278017234
C  C74  1  0.69830000  0.65630000  0.87800000  1.0 -0.050645808
C  C75  1  0.72470000  0.68470000  0.88000000  1.0 -0.050645808
C  C76  1  0.17511000  0.70231000  0.17440000  1.0 0.6382815653
C  C77  1  0.14353000  0.66313000  0.07880000  1.0 -0.0020432918
C  C78  1  0.06501000  0.66361000  0.00020000  1.0 -0.1674033858
C  C79  1  0.90210000  0.63740000  0.81550000  1.0 -0.142438793
C  C80  1  0.10923000  0.80403000  0.34620000  1.0 0.2912301218
C  C81  1  0.04102000  0.75482000  0.36120000  1.0 0.283073716
C  C82  1  0.04884000  0.79574000  0.31190000  1.0 0.037230048
C  C83  1  0.06943000  0.77713000  0.34570000  1.0 -0.050645808
C  C84  1  0.01593000  0.77273000  0.31880000  1.0 -0.0067931504
C  C85  1  0.93804000  0.78204000  0.25020000  1.0 -0.1233125803
C  C86  1  0.91286000  0.79706000  0.20840000  1.0 0.0235052979
C  C87  1  0.96977000  0.80447000  0.24070000  1.0 -0.1111575792
C  C88  1  0.82850000  0.80000000  0.12670000  1.0 0.0278017234
C  C89  1  0.77830000  0.82030000  0.12200000  1.0 -0.0443546473
C  C90  1  0.80470000  0.84470000  0.12000000  1.0 -0.050645808
C  C91  1  0.45231000  0.77791000  0.02720000  1.0 0.6382815653
C  C92  1  0.41313000  0.83433000  0.01960000  1.0 -0.0020432918
C  C93  1  0.41361000  0.91341000  0.09860000  1.0 -0.1674033858
C  C94  1  0.38740000  0.07190000  0.23530000  1.0 -0.142438793
C  C95  1  0.55403000  0.70783000  0.19480000  1.0 0.2912301218
C  C96  1  0.50482000  0.64362000  0.21380000  1.0 0.283073716
C  C97  1  0.54574000  0.73384000  0.24690000  1.0 0.037230048
C  C98  1  0.52713000  0.68143000  0.20770000  1.0 -0.050645808
C  C99  1  0.52273000  0.70393000  0.25680000  1.0 -0.0067931504
C  C100  1  0.53204000  0.78184000  0.34400000  1.0 -0.1233125803
C  C101  1  0.54706000  0.83866000  0.38420000  1.0 0.0235052979
C  C102  1  0.55447000  0.81377000  0.33470000  1.0 -0.1111575792
C  C103  1  0.55000000  0.92330000  0.47150000  1.0 0.0235052979
C  C104  1  0.57030000  0.94830000  0.54200000  1.0 -0.050645808
C  C105  1  0.59470000  0.97470000  0.54000000  1.0 -0.050645808
C  C106  1  0.75071000  0.42511000  0.97280000  1.0 0.6382815653
C  C107  1  0.81473000  0.39353000  0.98040000  1.0 -0.0020432918
C  C108  1  0.81481000  0.31501000  0.90140000  1.0 -0.1674033858
C  C109  1  0.83660000  0.15210000  0.76470000  1.0 -0.142438793
C  C110  1  0.51303000  0.35923000  0.80520000  1.0 0.2912301218
C  C111  1  0.42982000  0.29102000  0.78620000  1.0 0.283073716
C  C112  1  0.48694000  0.29884000  0.75310000  1.0 0.037230048
C  C113  1  0.47373000  0.31943000  0.79230000  1.0 -0.050645808
C  C114  1  0.44713000  0.26593000  0.74320000  1.0 -0.0067931504
C  C115  1  0.43784000  0.18804000  0.65600000  1.0 -0.1233125803
C  C116  1  0.45446000  0.16286000  0.61580000  1.0 0.0235052979
C  C117  1  0.47907000  0.21977000  0.66530000  1.0 -0.1111575792
C  C118  1  0.45180000  0.07850000  0.52850000  1.0 0.0235052979
C  C119  1  0.40630000  0.02830000  0.45800000  1.0 -0.050645808
C  C120  1  0.43470000  0.05470000  0.46000000  1.0 -0.050645808
C  C121  1  0.17511000  0.00071000  0.47280000  1.0 0.6382815653
C  C122  1  0.14353000  0.06473000  0.48040000  1.0 -0.0020432918
C  C123  1  0.06501000  0.06481000  0.40140000  1.0 -0.1674033858
C  C124  1  0.90210000  0.08660000  0.26470000  1.0 -0.142438793
C  C125  1  0.10923000  0.76303000  0.30520000  1.0 0.2912301218
C  C126  1  0.04102000  0.67982000  0.28620000  1.0 0.283073716
C  C127  1  0.04884000  0.73694000  0.25310000  1.0 0.037230048
C  C128  1  0.06943000  0.72373000  0.29230000  1.0 -0.050645808
C  C129  1  0.01593000  0.69713000  0.24320000  1.0 -0.0067931504
C  C130  1  0.93804000  0.68784000  0.15600000  1.0 -0.1233125803
C  C131  1  0.91286000  0.70446000  0.11580000  1.0 0.0278017234
C  C132  1  0.96977000  0.72907000  0.16530000  1.0 -0.1111575792
C  C133  1  0.82850000  0.70180000  0.02850000  1.0 0.0235052979
C  C134  1  0.77830000  0.65630000  0.95800000  1.0 -0.050645808
C  C135  1  0.80470000  0.68470000  0.96000000  1.0 -0.050645808
C  C136  1  0.52791000  0.70231000  0.52720000  1.0 0.6382815653
C  C137  1  0.58433000  0.66313000  0.51960000  1.0 -0.0020432918
C  C138  1  0.66341000  0.66361000  0.59860000  1.0 -0.1674033858
C  C139  1  0.82190000  0.63740000  0.73530000  1.0 -0.1453576385
C  C140  1  0.45783000  0.80403000  0.69480000  1.0 0.2912301218
C  C141  1  0.39362000  0.75482000  0.71380000  1.0 0.283073716
C  C142  1  0.48384000  0.79574000  0.74690000  1.0 0.037230048
C  C143  1  0.43143000  0.77713000  0.70770000  1.0 -0.050645808
C  C144  1  0.45393000  0.77273000  0.75680000  1.0 -0.0067931504
C  C145  1  0.53184000  0.78204000  0.84400000  1.0 -0.1233125803
C  C146  1  0.58866000  0.79706000  0.88420000  1.0 0.0235052979
C  C147  1  0.56377000  0.80447000  0.83470000  1.0 -0.1111575792
C  C148  1  0.67330000  0.80000000  0.97150000  1.0 0.0235052979
C  C149  1  0.69830000  0.82030000  0.04200000  1.0 -0.0443546473
C  C150  1  0.72470000  0.84470000  0.04000000  1.0 -0.050645808
C  C151  1  0.75071000  0.77791000  0.32560000  1.0 0.6382815653
C  C152  1  0.81473000  0.83433000  0.42120000  1.0 -0.0020432918
C  C153  1  0.81481000  0.91341000  0.49980000  1.0 -0.1674033858
C  C154  1  0.83660000  0.07190000  0.68450000  1.0 -0.142438793
C  C155  1  0.51303000  0.70783000  0.15380000  1.0 0.2912301218
C  C156  1  0.42982000  0.64362000  0.13880000  1.0 0.283073716
C  C157  1  0.48694000  0.73384000  0.18810000  1.0 0.037230048
C  C158  1  0.47373000  0.68143000  0.15430000  1.0 -0.050645808
C  C159  1  0.44713000  0.70393000  0.18120000  1.0 -0.0067931504
C  C160  1  0.43784000  0.78184000  0.24980000  1.0 -0.1233125803
C  C161  1  0.45446000  0.83866000  0.29160000  1.0 0.0278017234
C  C162  1  0.47907000  0.81377000  0.25930000  1.0 -0.1111575792
C  C163  1  0.45180000  0.92330000  0.37330000  1.0 0.0278017234
C  C164  1  0.40630000  0.94830000  0.37800000  1.0 -0.050645808
C  C165  1  0.43470000  0.97470000  0.38000000  1.0 -0.050645808
C  C166  1  0.45231000  0.42511000  0.67440000  1.0 0.6382815653
C  C167  1  0.41313000  0.39353000  0.57880000  1.0 -0.0020432918
C  C168  1  0.41361000  0.31501000  0.50020000  1.0 -0.1674033858
C  C169  1  0.38740000  0.15210000  0.31550000  1.0 -0.142438793
C  C170  1  0.55403000  0.35923000  0.84620000  1.0 0.2912301218
C  C171  1  0.50482000  0.29102000  0.86120000  1.0 0.283073716
C  C172  1  0.54574000  0.29884000  0.81190000  1.0 0.037230048
C  C173  1  0.52713000  0.31943000  0.84570000  1.0 -0.050645808
C  C174  1  0.52273000  0.26593000  0.81880000  1.0 -0.0067931504
C  C175  1  0.53204000  0.18804000  0.75020000  1.0 -0.1233125803
C  C176  1  0.54706000  0.16286000  0.70840000  1.0 0.0235052979
C  C177  1  0.55447000  0.21977000  0.74070000  1.0 -0.1111575792
C  C178  1  0.55000000  0.07850000  0.62670000  1.0 0.0235052979
C  C179  1  0.57030000  0.02830000  0.62200000  1.0 -0.050645808
C  C180  1  0.59470000  0.05470000  0.62000000  1.0 -0.050645808
C  C181  1  0.22209000  0.24929000  0.67440000  1.0 0.6382815653
C  C182  1  0.16567000  0.18527000  0.57880000  1.0 -0.0020432918
C  C183  1  0.08659000  0.18519000  0.50020000  1.0 -0.1674033858
C  C184  1  0.92810000  0.16340000  0.31550000  1.0 -0.142438793
C  C185  1  0.29217000  0.48697000  0.84620000  1.0 0.2912301218
C  C186  1  0.35638000  0.57018000  0.86120000  1.0 0.283073716
C  C187  1  0.26616000  0.51306000  0.81190000  1.0 0.037230048
C  C188  1  0.31857000  0.52627000  0.84570000  1.0 -0.050645808
C  C189  1  0.29607000  0.55287000  0.81880000  1.0 -0.0067931504
C  C190  1  0.21816000  0.56216000  0.75020000  1.0 -0.1233125803
C  C191  1  0.16134000  0.54554000  0.70840000  1.0 0.0235052979
C  C192  1  0.18623000  0.52093000  0.74070000  1.0 -0.1111575792
C  C193  1  0.07670000  0.54820000  0.62670000  1.0 0.0235052979
C  C194  1  0.05170000  0.59370000  0.62200000  1.0 -0.050645808
C  C195  1  0.02530000  0.56530000  0.62000000  1.0 -0.050645808
C  C196  1  0.57489000  0.54769000  0.32560000  1.0 0.6382815653
C  C197  1  0.60647000  0.58687000  0.42120000  1.0 -0.0020432918
C  C198  1  0.68499000  0.58639000  0.49980000  1.0 -0.1674033858
C  C199  1  0.84790000  0.61260000  0.68450000  1.0 -0.1453576385
C  C200  1  0.64077000  0.44597000  0.15380000  1.0 0.2912301218
C  C201  1  0.70898000  0.49518000  0.13880000  1.0 0.283073716
C  C202  1  0.70116000  0.45426000  0.18810000  1.0 0.037230048
C  C203  1  0.68057000  0.47287000  0.15430000  1.0 -0.050645808
C  C204  1  0.73407000  0.47727000  0.18120000  1.0 -0.0067931504
C  C205  1  0.81196000  0.46796000  0.24980000  1.0 -0.1233125803
C  C206  1  0.83714000  0.45294000  0.29160000  1.0 0.0235052979
C  C207  1  0.78023000  0.44553000  0.25930000  1.0 -0.1111575792
C  C208  1  0.92150000  0.45000000  0.37330000  1.0 0.0235052979
C  C209  1  0.97170000  0.42970000  0.37800000  1.0 -0.0443546473
C  C210  1  0.94530000  0.40530000  0.38000000  1.0 -0.050645808
C  C211  1  0.29769000  0.47209000  0.47280000  1.0 0.6382815653
C  C212  1  0.33687000  0.41567000  0.48040000  1.0 -0.0020432918
C  C213  1  0.33639000  0.33659000  0.40140000  1.0 -0.1674033858
C  C214  1  0.36260000  0.17810000  0.26470000  1.0 -0.142438793
C  C215  1  0.19597000  0.54217000  0.30520000  1.0 0.2912301218
C  C216  1  0.24518000  0.60638000  0.28620000  1.0 0.283073716
C  C217  1  0.20426000  0.51616000  0.25310000  1.0 0.037230048
C  C218  1  0.22287000  0.56857000  0.29230000  1.0 -0.050645808
C  C219  1  0.22727000  0.54607000  0.24320000  1.0 -0.0067931504
C  C220  1  0.21796000  0.46816000  0.15600000  1.0 -0.1233125803
C  C221  1  0.20294000  0.41134000  0.11580000  1.0 0.0278017234
C  C222  1  0.19553000  0.43623000  0.16530000  1.0 -0.1111575792
C  C223  1  0.20000000  0.32670000  0.02850000  1.0 0.0235052979
C  C224  1  0.17970000  0.30170000  0.95800000  1.0 -0.050645808
C  C225  1  0.15530000  0.27530000  0.96000000  1.0 -0.050645808
C  C226  1  0.99929000  0.82489000  0.52720000  1.0 0.6382815653
C  C227  1  0.93527000  0.85647000  0.51960000  1.0 -0.0020432918
C  C228  1  0.93519000  0.93499000  0.59860000  1.0 -0.1674033858
C  C229  1  0.91340000  0.09790000  0.73530000  1.0 -0.142438793
C  C230  1  0.23697000  0.89077000  0.69480000  1.0 0.2912301218
C  C231  1  0.32018000  0.95898000  0.71380000  1.0 0.283073716
C  C232  1  0.26306000  0.95116000  0.74690000  1.0 0.037230048
C  C233  1  0.27627000  0.93057000  0.70770000  1.0 -0.050645808
C  C234  1  0.30287000  0.98407000  0.75680000  1.0 -0.0067931504
C  C235  1  0.31216000  0.06196000  0.84400000  1.0 -0.1233125803
C  C236  1  0.29554000  0.08714000  0.88420000  1.0 0.0235052979
C  C237  1  0.27093000  0.03023000  0.83470000  1.0 -0.1111575792
C  C238  1  0.29820000  0.17150000  0.97150000  1.0 0.0235052979
C  C239  1  0.34370000  0.22170000  0.04200000  1.0 -0.0443546473
C  C240  1  0.31530000  0.19530000  0.04000000  1.0 -0.050645808
C  C241  1  0.94690000  0.48640000  0.46050000  1.0 0.0012848052
C  C242  1  0.97190000  0.51290000  0.45900000  1.0 0.013505004
C  C243  1  0.02590000  0.48640000  0.53950000  1.0 -0.0020432918
C  C244  1  0.05390000  0.51290000  0.54100000  1.0 0.013505004
C  C245  1  0.23640000  0.27590000  0.03950000  1.0 0.0012848052
C  C246  1  0.26290000  0.30390000  0.04100000  1.0 0.013505004
C  C247  1  0.23640000  0.19690000  0.96050000  1.0 -0.0020432918
C  C248  1  0.26290000  0.22190000  0.95900000  1.0 0.013505004
C  C249  1  0.72410000  0.76360000  0.96050000  1.0 -0.0020432918
C  C250  1  0.69610000  0.73710000  0.95900000  1.0 0.013505004
C  C251  1  0.80310000  0.76360000  0.03950000  1.0 0.0012848052
C  C252  1  0.77810000  0.73710000  0.04100000  1.0 0.013505004
C  C253  1  0.51360000  0.97410000  0.46050000  1.0 0.0012848052
C  C254  1  0.48710000  0.94610000  0.45900000  1.0 0.013505004
C  C255  1  0.51360000  0.05310000  0.53950000  1.0 -0.0020432918
C  C256  1  0.48710000  0.02810000  0.54100000  1.0 0.013505004
C  C257  1  0.55620000  0.12500000  0.93120000  1.0 -0.142438793
C  C258  1  0.71340000  0.12500000  0.08840000  1.0 0.0680240342
C  C259  1  0.79690000  0.12500000  0.17190000  1.0 0.0634550541
C  C260  1  0.19380000  0.62500000  0.06880000  1.0 -0.142438793
C  C261  1  0.03660000  0.62500000  0.91160000  1.0 0.0680240342
C  C262  1  0.95310000  0.62500000  0.82810000  1.0 0.0680240342
C  C263  1  0.87500000  0.44380000  0.06880000  1.0 -0.142438793
C  C264  1  0.87500000  0.28660000  0.91160000  1.0 0.0680240342
C  C265  1  0.87500000  0.20310000  0.82810000  1.0 0.0680240342
C  C266  1  0.37500000  0.80620000  0.93120000  1.0 -0.142438793
C  C267  1  0.37500000  0.96340000  0.08840000  1.0 0.0680240342
C  C268  1  0.37500000  0.04690000  0.17190000  1.0 0.0634550541
C  C269  1  0.19380000  0.12500000  0.56880000  1.0 -0.142438793
C  C270  1  0.03660000  0.12500000  0.41160000  1.0 0.0680240342
C  C271  1  0.95310000  0.12500000  0.32810000  1.0 0.0634550541
C  C272  1  0.55620000  0.62500000  0.43120000  1.0 -0.142438793
C  C273  1  0.71340000  0.62500000  0.58840000  1.0 0.0680240342
C  C274  1  0.79690000  0.62500000  0.67190000  1.0 0.0634550541
C  C275  1  0.87500000  0.80620000  0.43120000  1.0 -0.142438793
C  C276  1  0.87500000  0.96340000  0.58840000  1.0 0.0680240342
C  C277  1  0.87500000  0.04690000  0.67190000  1.0 0.0634550541
C  C278  1  0.37500000  0.44380000  0.56880000  1.0 -0.142438793
C  C279  1  0.37500000  0.28660000  0.41160000  1.0 0.0680240342
C  C280  1  0.37500000  0.20310000  0.32810000  1.0 0.0634550541
O  O1  1  0.50764000  0.23634000  0.94430000  1.0 -0.6371516025
O  O2  1  0.61620000  0.30950000  0.11470000  1.0 -0.613052337
O  O3  1  0.66108000  0.48788000  0.24520000  1.0 -0.2758808917
O  O4  1  0.75082000  0.61912000  0.27910000  1.0 -0.3453750107
O  O5  1  0.50895000  0.35835000  0.00160000  1.0 -0.8934333178
O  O6  1  0.29204000  0.56334000  0.05570000  1.0 -0.6371516025
O  O7  1  0.19480000  0.50150000  0.88530000  1.0 -0.613052337
O  O8  1  0.24268000  0.41588000  0.75480000  1.0 -0.2745432334
O  O9  1  0.34002000  0.47172000  0.72090000  1.0 -0.3453750107
O  O10  1  0.35675000  0.50735000  0.99840000  1.0 -0.8991972478
O  O11  1  0.98634000  0.54204000  0.22870000  1.0 -0.6371516025
O  O12  1  0.05950000  0.44480000  0.19330000  1.0 -0.613052337
O  O13  1  0.23788000  0.49268000  0.32680000  1.0 -0.2758808917
O  O14  1  0.36912000  0.59002000  0.36830000  1.0 -0.3453750107
O  O15  1  0.10835000  0.60675000  0.34940000  1.0 -0.8934333178
O  O16  1  0.31334000  0.75764000  0.77130000  1.0 -0.6371516025
O  O17  1  0.25150000  0.86620000  0.80670000  1.0 -0.6155462748
O  O18  1  0.16588000  0.91108000  0.67320000  1.0 -0.2745432334
O  O19  1  0.22172000  0.00082000  0.63170000  1.0 -0.3439577208
O  O20  1  0.25735000  0.75895000  0.65060000  1.0 -0.8934333178
O  O21  1  0.45796000  0.01366000  0.77130000  1.0 -0.6371516025
O  O22  1  0.55520000  0.94050000  0.80670000  1.0 -0.613052337
O  O23  1  0.50732000  0.76212000  0.67320000  1.0 -0.2745432334
O  O24  1  0.40998000  0.63088000  0.63170000  1.0 -0.3453750107
O  O25  1  0.39325000  0.89165000  0.65060000  1.0 -0.8934333178
O  O26  1  0.24236000  0.68666000  0.22870000  1.0 -0.6371516025
O  O27  1  0.13380000  0.74850000  0.19330000  1.0 -0.6155462748
O  O28  1  0.08892000  0.83412000  0.32680000  1.0 -0.2745432334
O  O29  1  0.99918000  0.77828000  0.36830000  1.0 -0.3439577208
O  O30  1  0.24105000  0.74265000  0.34940000  1.0 -0.8934333178
O  O31  1  0.43666000  0.70796000  0.94430000  1.0 -0.6371516025
O  O32  1  0.49850000  0.80520000  0.11470000  1.0 -0.613052337
O  O33  1  0.58412000  0.75732000  0.24520000  1.0 -0.2758808917
O  O34  1  0.52828000  0.65998000  0.27910000  1.0 -0.3453750107
O  O35  1  0.49265000  0.64325000  0.00160000  1.0 -0.8934333178
O  O36  1  0.76366000  0.49236000  0.05570000  1.0 -0.6371516025
O  O37  1  0.69050000  0.38380000  0.88530000  1.0 -0.613052337
O  O38  1  0.51212000  0.33892000  0.75480000  1.0 -0.2745432334
O  O39  1  0.38088000  0.24918000  0.72090000  1.0 -0.3453750107
O  O40  1  0.64165000  0.49105000  0.99840000  1.0 -0.8991972478
O  O41  1  0.24236000  0.01366000  0.55570000  1.0 -0.6371516025
O  O42  1  0.13380000  0.94050000  0.38530000  1.0 -0.613052337
O  O43  1  0.08892000  0.76212000  0.25480000  1.0 -0.2745432334
O  O44  1  0.99918000  0.63088000  0.22090000  1.0 -0.3439577208
O  O45  1  0.24105000  0.89165000  0.49840000  1.0 -0.8991972478
O  O46  1  0.45796000  0.68666000  0.44430000  1.0 -0.6371516025
O  O47  1  0.55520000  0.74850000  0.61470000  1.0 -0.613052337
O  O48  1  0.50732000  0.83412000  0.74520000  1.0 -0.2758808917
O  O49  1  0.40998000  0.77828000  0.77910000  1.0 -0.3453750107
O  O50  1  0.39325000  0.74265000  0.50160000  1.0 -0.8991972478
O  O51  1  0.76366000  0.70796000  0.27130000  1.0 -0.6371516025
O  O52  1  0.69050000  0.80520000  0.30670000  1.0 -0.613052337
O  O53  1  0.51212000  0.75732000  0.17320000  1.0 -0.2745432334
O  O54  1  0.38088000  0.65998000  0.13170000  1.0 -0.3453750107
O  O55  1  0.64165000  0.64325000  0.15060000  1.0 -0.8934333178
O  O56  1  0.43666000  0.49236000  0.72870000  1.0 -0.6371516025
O  O57  1  0.49850000  0.38380000  0.69330000  1.0 -0.613052337
O  O58  1  0.58412000  0.33892000  0.82680000  1.0 -0.2745432334
O  O59  1  0.52828000  0.24918000  0.86830000  1.0 -0.3453750107
O  O60  1  0.49265000  0.49105000  0.84940000  1.0 -0.8991972478
O  O61  1  0.29204000  0.23634000  0.72870000  1.0 -0.6371516025
O  O62  1  0.19480000  0.30950000  0.69330000  1.0 -0.613052337
O  O63  1  0.24268000  0.48788000  0.82680000  1.0 -0.2745432334
O  O64  1  0.34002000  0.61912000  0.86830000  1.0 -0.3453750107
O  O65  1  0.35675000  0.35835000  0.84940000  1.0 -0.8991972478
O  O66  1  0.50764000  0.56334000  0.27130000  1.0 -0.6371516025
O  O67  1  0.61620000  0.50150000  0.30670000  1.0 -0.613052337
O  O68  1  0.66108000  0.41588000  0.17320000  1.0 -0.2758808917
O  O69  1  0.75082000  0.47172000  0.13170000  1.0 -0.3453750107
O  O70  1  0.50895000  0.50735000  0.15060000  1.0 -0.8934333178
O  O71  1  0.31334000  0.54204000  0.55570000  1.0 -0.6371516025
O  O72  1  0.25150000  0.44480000  0.38530000  1.0 -0.6155462748
O  O73  1  0.16588000  0.49268000  0.25480000  1.0 -0.2745432334
O  O74  1  0.22172000  0.59002000  0.22090000  1.0 -0.3453750107
O  O75  1  0.25735000  0.60675000  0.49840000  1.0 -0.8934333178
O  O76  1  0.98634000  0.75764000  0.44430000  1.0 -0.6371516025
O  O77  1  0.05950000  0.86620000  0.61470000  1.0 -0.6155462748
O  O78  1  0.23788000  0.91108000  0.74520000  1.0 -0.2745432334
O  O79  1  0.36912000  0.00082000  0.77910000  1.0 -0.3453750107
O  O80  1  0.10835000  0.75895000  0.50160000  1.0 -0.8991972478
O  O81  1  0.57632000  0.46772000  0.10860000  1.0 -0.3877699039
O  O82  1  0.64838000  0.53318000  0.11520000  1.0 -0.4327596089
O  O83  1  0.47988000  0.40248000  0.07740000  1.0 -1.161045093
O  O84  1  0.35912000  0.46772000  0.89140000  1.0 -0.3877699039
O  O85  1  0.41798000  0.53318000  0.88480000  1.0 -0.4327596089
O  O86  1  0.32508000  0.40248000  0.92260000  1.0 -1.1491001552
O  O87  1  0.21772000  0.60912000  0.39140000  1.0 -0.3877699039
O  O88  1  0.28318000  0.66798000  0.38480000  1.0 -0.4327596089
O  O89  1  0.15248000  0.57508000  0.42260000  1.0 -1.1491001552
O  O90  1  0.21772000  0.82632000  0.60860000  1.0 -0.3877699039
O  O91  1  0.28318000  0.89838000  0.61520000  1.0 -0.4327596089
O  O92  1  0.15248000  0.72988000  0.57740000  1.0 -1.1491001552
O  O93  1  0.39088000  0.78228000  0.60860000  1.0 -0.3877699039
O  O94  1  0.33202000  0.71682000  0.61520000  1.0 -0.4327596089
O  O95  1  0.42492000  0.84752000  0.57740000  1.0 -1.161045093
O  O96  1  0.17368000  0.78228000  0.39140000  1.0 -0.3877699039
O  O97  1  0.10162000  0.71682000  0.38480000  1.0 -0.4327596089
O  O98  1  0.27012000  0.84752000  0.42260000  1.0 -1.1434391922
O  O99  1  0.53228000  0.64088000  0.10860000  1.0 -0.3877699039
O  O100  1  0.46682000  0.58202000  0.11520000  1.0 -0.4327596089
O  O101  1  0.59752000  0.67492000  0.07740000  1.0 -1.1491001552
O  O102  1  0.53228000  0.42368000  0.89140000  1.0 -0.3877699039
O  O103  1  0.46682000  0.35162000  0.88480000  1.0 -0.4327596089
O  O104  1  0.59752000  0.52012000  0.92260000  1.0 -1.1491001552
