# DDEC6 charges by PACMAN v1.1 (https://github.com/mtap-research/PACMAN-charge/)
data_NEBMUF_FSR_pacman
_symmetry_space_group_name_H-M   'P 1'
_cell_length_a   17.61640000
_cell_length_b   20.44490000
_cell_length_c   32.11970000
_cell_angle_alpha   90.00000000
_cell_angle_beta   90.00000000
_cell_angle_gamma   90.00000000
_symmetry_Int_Tables_number   1
_chemical_formula_structural   Yb5C86O41
_chemical_formula_sum   'Yb20 C344 O164'
_cell_volume   11568.40897822
_cell_formula_units_Z   4
loop_
 _symmetry_equiv_pos_site_id
 _symmetry_equiv_pos_as_xyz
  1  'x, y, z'
loop_
 _atom_site_type_symbol
 _atom_site_label
 _atom_site_symmetry_multiplicity
 _atom_site_fract_x
 _atom_site_fract_y
 _atom_site_fract_z
 _atom_site_occupancy
 _atom_site_charge
Yb  Yb1  1  0.32437000  0.43097000  0.32777000  1.0 1.7924903587
Yb  Yb2  1  0.32437000  0.56903000  0.67223000  1.0 1.7924903587
Yb  Yb3  1  0.67563000  0.93097000  0.17223000  1.0 1.7969021157
Yb  Yb4  1  0.67563000  0.06903000  0.82777000  1.0 1.7969021157
Yb  Yb5  1  0.67563000  0.56903000  0.67223000  1.0 1.7924903587
Yb  Yb6  1  0.67563000  0.43097000  0.32777000  1.0 1.7924903587
Yb  Yb7  1  0.32437000  0.06903000  0.82777000  1.0 1.7969021157
Yb  Yb8  1  0.32437000  0.93097000  0.17223000  1.0 1.7969021157
Yb  Yb9  1  0.50000000  0.44192000  0.39430000  1.0 2.1268965756
Yb  Yb10  1  0.50000000  0.51883000  0.29160000  1.0 1.8880536115
Yb  Yb11  1  0.50000000  0.83886000  0.19962000  1.0 1.9140324549
Yb  Yb12  1  0.50000000  0.55808000  0.60570000  1.0 2.1268965756
Yb  Yb13  1  0.50000000  0.48117000  0.70840000  1.0 1.8880536115
Yb  Yb14  1  0.50000000  0.16114000  0.80038000  1.0 1.9180210785
Yb  Yb15  1  0.50000000  0.94192000  0.10570000  1.0 2.1232103066
Yb  Yb16  1  0.50000000  0.01883000  0.20840000  1.0 1.8880536115
Yb  Yb17  1  0.50000000  0.33886000  0.30038000  1.0 1.9140324549
Yb  Yb18  1  0.50000000  0.05808000  0.89430000  1.0 2.1268965756
Yb  Yb19  1  0.50000000  0.98117000  0.79160000  1.0 1.8847405867
Yb  Yb20  1  0.50000000  0.66114000  0.69962000  1.0 1.9180210785
C  C1  1  0.32400000  0.45670000  0.42760000  1.0 0.7143144802
C  C2  1  0.28020000  0.47880000  0.46510000  1.0 -0.1406561329
C  C3  1  0.20020000  0.47980000  0.46440000  1.0 0.0490932431
C  C4  1  0.03860000  0.45610000  0.47870000  1.0 -0.080377069
C  C5  1  0.31790000  0.57560000  0.28890000  1.0 0.3200796296
C  C6  1  0.27790000  0.63820000  0.27730000  1.0 0.0399476241
C  C7  1  0.31780000  0.68780000  0.25790000  1.0 0.0490932431
C  C8  1  0.28200000  0.74570000  0.24770000  1.0 0.0281765191
C  C9  1  0.20300000  0.75310000  0.25500000  1.0 -0.0176718207
C  C10  1  0.16120000  0.70220000  0.27260000  1.0 -0.009360788
C  C11  1  0.19890000  0.64500000  0.28510000  1.0 -0.0412379202
C  C12  1  0.32660000  0.79930000  0.22740000  1.0 0.2778299035
C  C13  1  0.03840000  0.65000000  0.26660000  1.0 0.0490932431
C  C14  1  0.07720000  0.70680000  0.27680000  1.0 0.0108327899
C  C15  1  0.03940000  0.76280000  0.29090000  1.0 -0.080377069
C  C16  1  0.46950000  0.49310000  0.19180000  1.0 0.3104430989
C  C17  1  0.45870000  0.53980000  0.15520000  1.0 -0.009360788
C  C18  1  0.46830000  0.60560000  0.16020000  1.0 0.0108327899
C  C19  1  0.45480000  0.64590000  0.12720000  1.0 0.0108327899
C  C20  1  0.43550000  0.61980000  0.08730000  1.0 -0.0487057871
C  C21  1  0.43070000  0.55340000  0.08180000  1.0 0.0490932431
C  C22  1  0.44070000  0.51250000  0.11620000  1.0 -0.0878050239
C  C23  1  0.45840000  0.71960000  0.13170000  1.0 0.3944239573
C  C24  1  0.42190000  0.52580000  0.03970000  1.0 0.0108327899
C  C25  1  0.37660000  0.47170000  0.02990000  1.0 -0.0176718207
C  C26  1  0.37500000  0.44460000  0.98990000  1.0 0.0027967153
C  C27  1  0.46720000  0.55340000  0.00870000  1.0 0.0027967153
C  C28  1  0.46840000  0.52850000  0.96880000  1.0 0.0281765191
C  C29  1  0.32720000  0.56190000  0.26950000  1.0 0.3317432956
C  C30  1  0.28240000  0.61500000  0.24850000  1.0 0.0399476241
C  C31  1  0.31970000  0.67080000  0.23450000  1.0 0.0490932431
C  C32  1  0.27950000  0.72110000  0.21600000  1.0 0.0108327899
C  C33  1  0.20010000  0.71680000  0.21320000  1.0 -0.0176718207
C  C34  1  0.16290000  0.66190000  0.22850000  1.0 0.0108327899
C  C35  1  0.20320000  0.61130000  0.24620000  1.0 0.0027967153
C  C36  1  0.32180000  0.78190000  0.20410000  1.0 0.3200796296
C  C37  1  0.07680000  0.66070000  0.22510000  1.0 0.0281765191
C  C38  1  0.03970000  0.71940000  0.23770000  1.0 0.0108327899
C  C39  1  0.04400000  0.60200000  0.21200000  1.0 -0.0176718207
C  C40  1  0.03820000  0.67950000  0.18890000  1.0 -0.080377069
C  C41  1  0.03580000  0.62730000  0.25340000  1.0 0.0027967153
C  C42  1  0.32400000  0.54330000  0.57240000  1.0 0.7143144802
C  C43  1  0.28020000  0.52120000  0.53490000  1.0 -0.1479526802
C  C44  1  0.20020000  0.52020000  0.53560000  1.0 0.0490932431
C  C45  1  0.03860000  0.54390000  0.52130000  1.0 -0.080377069
C  C46  1  0.31790000  0.42440000  0.71110000  1.0 0.3200796296
C  C47  1  0.27790000  0.36180000  0.72270000  1.0 0.0399476241
C  C48  1  0.31780000  0.31220000  0.74210000  1.0 0.0490932431
C  C49  1  0.28200000  0.25430000  0.75230000  1.0 0.0281765191
C  C50  1  0.20300000  0.24690000  0.74500000  1.0 -0.0176718207
C  C51  1  0.16120000  0.29780000  0.72740000  1.0 -0.0028024823
C  C52  1  0.19890000  0.35500000  0.71490000  1.0 -0.0412379202
C  C53  1  0.32660000  0.20070000  0.77260000  1.0 0.2778299035
C  C54  1  0.03840000  0.35000000  0.73340000  1.0 0.0490932431
C  C55  1  0.07720000  0.29320000  0.72320000  1.0 0.0108327899
C  C56  1  0.03940000  0.23720000  0.70910000  1.0 -0.080377069
C  C57  1  0.46950000  0.50690000  0.80820000  1.0 0.3104430989
C  C58  1  0.45870000  0.46020000  0.84480000  1.0 -0.009360788
C  C59  1  0.46830000  0.39440000  0.83980000  1.0 0.0108327899
C  C60  1  0.45480000  0.35410000  0.87280000  1.0 0.0108327899
C  C61  1  0.43550000  0.38020000  0.91270000  1.0 -0.0487057871
C  C62  1  0.43070000  0.44660000  0.91820000  1.0 0.0490932431
C  C63  1  0.44070000  0.48750000  0.88380000  1.0 -0.0878050239
C  C64  1  0.45840000  0.28040000  0.86830000  1.0 0.3944239573
C  C65  1  0.42190000  0.47420000  0.96030000  1.0 0.0108327899
C  C66  1  0.37660000  0.52830000  0.97010000  1.0 -0.0176718207
C  C67  1  0.37500000  0.55540000  0.01010000  1.0 0.0027967153
C  C68  1  0.46720000  0.44660000  0.99130000  1.0 0.0108327899
C  C69  1  0.46840000  0.47150000  0.03120000  1.0 0.0183896165
C  C70  1  0.32720000  0.43810000  0.73050000  1.0 0.3317432956
C  C71  1  0.28240000  0.38500000  0.75150000  1.0 0.0399476241
C  C72  1  0.31970000  0.32920000  0.76550000  1.0 0.0490932431
C  C73  1  0.27950000  0.27890000  0.78400000  1.0 0.0108327899
C  C74  1  0.20010000  0.28320000  0.78680000  1.0 -0.0176718207
C  C75  1  0.16290000  0.33810000  0.77150000  1.0 0.0108327899
C  C76  1  0.20320000  0.38870000  0.75380000  1.0 0.0027967153
C  C77  1  0.32180000  0.21810000  0.79590000  1.0 0.3200796296
C  C78  1  0.07680000  0.33930000  0.77490000  1.0 0.0281765191
C  C79  1  0.03970000  0.28060000  0.76230000  1.0 0.0183896165
C  C80  1  0.04400000  0.39800000  0.78800000  1.0 -0.0176718207
C  C81  1  0.03820000  0.32050000  0.81110000  1.0 -0.0878050239
C  C82  1  0.03580000  0.37270000  0.74660000  1.0 -0.0028024823
C  C83  1  0.67600000  0.95670000  0.07240000  1.0 0.7185050205
C  C84  1  0.71980000  0.97880000  0.03490000  1.0 -0.1479526802
C  C85  1  0.79980000  0.97980000  0.03560000  1.0 0.0490932431
C  C86  1  0.96140000  0.95610000  0.02130000  1.0 -0.0878050239
C  C87  1  0.68210000  0.07560000  0.21110000  1.0 0.3200796296
C  C88  1  0.72210000  0.13820000  0.22270000  1.0 0.0399476241
C  C89  1  0.68220000  0.18780000  0.24210000  1.0 0.0490932431
C  C90  1  0.71800000  0.24570000  0.25230000  1.0 0.0399476241
C  C91  1  0.79700000  0.25310000  0.24500000  1.0 -0.0176718207
C  C92  1  0.83880000  0.20220000  0.22740000  1.0 -0.009360788
C  C93  1  0.80110000  0.14500000  0.21490000  1.0 -0.0412379202
C  C94  1  0.67340000  0.29930000  0.27260000  1.0 0.2778299035
C  C95  1  0.96160000  0.15000000  0.23340000  1.0 0.0490932431
C  C96  1  0.92280000  0.20680000  0.22320000  1.0 0.0108327899
C  C97  1  0.96060000  0.26280000  0.20910000  1.0 -0.080377069
C  C98  1  0.53050000  0.99310000  0.30820000  1.0 0.3104430989
C  C99  1  0.54130000  0.03980000  0.34480000  1.0 -0.009360788
C  C100  1  0.53170000  0.10560000  0.33980000  1.0 0.0108327899
C  C101  1  0.54520000  0.14590000  0.37280000  1.0 0.0108327899
C  C102  1  0.56450000  0.11980000  0.41270000  1.0 -0.0487057871
C  C103  1  0.56930000  0.05340000  0.41820000  1.0 0.0490932431
C  C104  1  0.55930000  0.01250000  0.38380000  1.0 -0.0878050239
C  C105  1  0.54160000  0.21960000  0.36830000  1.0 0.3944239573
C  C106  1  0.57810000  0.02580000  0.46030000  1.0 0.0108327899
C  C107  1  0.62340000  0.97170000  0.47010000  1.0 -0.0176718207
C  C108  1  0.62500000  0.94460000  0.51010000  1.0 0.0027967153
C  C109  1  0.53280000  0.05340000  0.49130000  1.0 0.0027967153
C  C110  1  0.53160000  0.02850000  0.53120000  1.0 0.0281765191
C  C111  1  0.67280000  0.06190000  0.23050000  1.0 0.3317432956
C  C112  1  0.71760000  0.11500000  0.25150000  1.0 0.0399476241
C  C113  1  0.68030000  0.17080000  0.26550000  1.0 0.0490932431
C  C114  1  0.72050000  0.22110000  0.28400000  1.0 0.0183896165
C  C115  1  0.79990000  0.21680000  0.28680000  1.0 -0.0176718207
C  C116  1  0.83710000  0.16190000  0.27150000  1.0 0.0183896165
C  C117  1  0.79680000  0.11130000  0.25380000  1.0 0.0027967153
C  C118  1  0.67820000  0.28190000  0.29590000  1.0 0.3200796296
C  C119  1  0.92320000  0.16070000  0.27490000  1.0 0.0281765191
C  C120  1  0.96030000  0.21940000  0.26230000  1.0 0.0108327899
C  C121  1  0.95600000  0.10200000  0.28800000  1.0 -0.0176718207
C  C122  1  0.96180000  0.17950000  0.31110000  1.0 -0.080377069
C  C123  1  0.96420000  0.12730000  0.24660000  1.0 -0.0028024823
C  C124  1  0.67600000  0.04330000  0.92760000  1.0 0.7143144802
C  C125  1  0.71980000  0.02120000  0.96510000  1.0 -0.1406561329
C  C126  1  0.79980000  0.02020000  0.96440000  1.0 0.0490932431
C  C127  1  0.96140000  0.04390000  0.97870000  1.0 -0.0878050239
C  C128  1  0.68210000  0.92440000  0.78890000  1.0 0.3200796296
C  C129  1  0.72210000  0.86180000  0.77730000  1.0 0.0399476241
C  C130  1  0.68220000  0.81220000  0.75790000  1.0 0.0490932431
C  C131  1  0.71800000  0.75430000  0.74770000  1.0 0.0399476241
C  C132  1  0.79700000  0.74690000  0.75500000  1.0 -0.0176718207
C  C133  1  0.83880000  0.79780000  0.77260000  1.0 -0.009360788
C  C134  1  0.80110000  0.85500000  0.78510000  1.0 -0.0412379202
C  C135  1  0.67340000  0.70070000  0.72740000  1.0 0.2778299035
C  C136  1  0.96160000  0.85000000  0.76660000  1.0 0.0490932431
C  C137  1  0.92280000  0.79320000  0.77680000  1.0 0.0108327899
C  C138  1  0.96060000  0.73720000  0.79090000  1.0 -0.080377069
C  C139  1  0.53050000  0.00690000  0.69180000  1.0 0.3104430989
C  C140  1  0.54130000  0.96020000  0.65520000  1.0 -0.009360788
C  C141  1  0.53170000  0.89440000  0.66020000  1.0 0.0183896165
C  C142  1  0.54520000  0.85410000  0.62720000  1.0 0.0108327899
C  C143  1  0.56450000  0.88020000  0.58730000  1.0 -0.0487057871
C  C144  1  0.56930000  0.94660000  0.58180000  1.0 0.057507017
C  C145  1  0.55930000  0.98750000  0.61620000  1.0 -0.0878050239
C  C146  1  0.54160000  0.78040000  0.63170000  1.0 0.3953142718
C  C147  1  0.57810000  0.97420000  0.53970000  1.0 0.0027967153
C  C148  1  0.62340000  0.02830000  0.52990000  1.0 -0.0176718207
C  C149  1  0.62500000  0.05540000  0.48990000  1.0 0.0027967153
C  C150  1  0.53280000  0.94660000  0.50870000  1.0 0.0027967153
C  C151  1  0.53160000  0.97150000  0.46880000  1.0 0.0281765191
C  C152  1  0.67280000  0.93810000  0.76950000  1.0 0.3317432956
C  C153  1  0.71760000  0.88500000  0.74850000  1.0 0.0399476241
C  C154  1  0.68030000  0.82920000  0.73450000  1.0 0.0490932431
C  C155  1  0.72050000  0.77890000  0.71600000  1.0 0.0183896165
C  C156  1  0.79990000  0.78320000  0.71320000  1.0 -0.0176718207
C  C157  1  0.83710000  0.83810000  0.72850000  1.0 0.0108327899
C  C158  1  0.79680000  0.88870000  0.74620000  1.0 0.0027967153
C  C159  1  0.67820000  0.71810000  0.70410000  1.0 0.3200796296
C  C160  1  0.92320000  0.83930000  0.72510000  1.0 0.0281765191
C  C161  1  0.96030000  0.78060000  0.73770000  1.0 0.0108327899
C  C162  1  0.95600000  0.89800000  0.71200000  1.0 -0.0176718207
C  C163  1  0.96180000  0.82050000  0.68890000  1.0 -0.080377069
C  C164  1  0.96420000  0.87270000  0.75340000  1.0 -0.0028024823
C  C165  1  0.67600000  0.54330000  0.57240000  1.0 0.7185050205
C  C166  1  0.71980000  0.52120000  0.53490000  1.0 -0.1479526802
C  C167  1  0.79980000  0.52020000  0.53560000  1.0 0.0490932431
C  C168  1  0.96140000  0.54390000  0.52130000  1.0 -0.080377069
C  C169  1  0.68210000  0.42440000  0.71110000  1.0 0.3200796296
C  C170  1  0.72210000  0.36180000  0.72270000  1.0 0.0399476241
C  C171  1  0.68220000  0.31220000  0.74210000  1.0 0.0490932431
C  C172  1  0.71800000  0.25430000  0.75230000  1.0 0.0281765191
C  C173  1  0.79700000  0.24690000  0.74500000  1.0 -0.0176718207
C  C174  1  0.83880000  0.29780000  0.72740000  1.0 -0.0028024823
C  C175  1  0.80110000  0.35500000  0.71490000  1.0 -0.0412379202
C  C176  1  0.67340000  0.20070000  0.77260000  1.0 0.2778299035
C  C177  1  0.96160000  0.35000000  0.73340000  1.0 0.0490932431
C  C178  1  0.92280000  0.29320000  0.72320000  1.0 0.0108327899
C  C179  1  0.96060000  0.23720000  0.70910000  1.0 -0.080377069
C  C180  1  0.53050000  0.50690000  0.80820000  1.0 0.3104430989
C  C181  1  0.54130000  0.46020000  0.84480000  1.0 -0.009360788
C  C182  1  0.53170000  0.39440000  0.83980000  1.0 0.0108327899
C  C183  1  0.54520000  0.35410000  0.87280000  1.0 0.0108327899
C  C184  1  0.56450000  0.38020000  0.91270000  1.0 -0.0487057871
C  C185  1  0.56930000  0.44660000  0.91820000  1.0 0.0490932431
C  C186  1  0.55930000  0.48750000  0.88380000  1.0 -0.0878050239
C  C187  1  0.54160000  0.28040000  0.86830000  1.0 0.3944239573
C  C188  1  0.57810000  0.47420000  0.96030000  1.0 0.0108327899
C  C189  1  0.62340000  0.52830000  0.97010000  1.0 -0.0176718207
C  C190  1  0.62500000  0.55540000  0.01010000  1.0 0.0027967153
C  C191  1  0.53280000  0.44660000  0.99130000  1.0 0.0108327899
C  C192  1  0.53160000  0.47150000  0.03120000  1.0 0.0183896165
C  C193  1  0.67280000  0.43810000  0.73050000  1.0 0.3317432956
C  C194  1  0.71760000  0.38500000  0.75150000  1.0 0.0399476241
C  C195  1  0.68030000  0.32920000  0.76550000  1.0 0.0490932431
C  C196  1  0.72050000  0.27890000  0.78400000  1.0 0.0108327899
C  C197  1  0.79990000  0.28320000  0.78680000  1.0 -0.0176718207
C  C198  1  0.83710000  0.33810000  0.77150000  1.0 0.0108327899
C  C199  1  0.79680000  0.38870000  0.75380000  1.0 0.0027967153
C  C200  1  0.67820000  0.21810000  0.79590000  1.0 0.3200796296
C  C201  1  0.92320000  0.33930000  0.77490000  1.0 0.0281765191
C  C202  1  0.96030000  0.28060000  0.76230000  1.0 0.0183896165
C  C203  1  0.95600000  0.39800000  0.78800000  1.0 -0.009360788
C  C204  1  0.96180000  0.32050000  0.81110000  1.0 -0.080377069
C  C205  1  0.96420000  0.37270000  0.74660000  1.0 -0.0028024823
C  C206  1  0.67600000  0.45670000  0.42760000  1.0 0.7143144802
C  C207  1  0.71980000  0.47880000  0.46510000  1.0 -0.1406561329
C  C208  1  0.79980000  0.47980000  0.46440000  1.0 0.0490932431
C  C209  1  0.96140000  0.45610000  0.47870000  1.0 -0.080377069
C  C210  1  0.68210000  0.57560000  0.28890000  1.0 0.3200796296
C  C211  1  0.72210000  0.63820000  0.27730000  1.0 0.0399476241
C  C212  1  0.68220000  0.68780000  0.25790000  1.0 0.0490932431
C  C213  1  0.71800000  0.74570000  0.24770000  1.0 0.0281765191
C  C214  1  0.79700000  0.75310000  0.25500000  1.0 -0.0176718207
C  C215  1  0.83880000  0.70220000  0.27260000  1.0 -0.009360788
C  C216  1  0.80110000  0.64500000  0.28510000  1.0 -0.0412379202
C  C217  1  0.67340000  0.79930000  0.22740000  1.0 0.2778299035
C  C218  1  0.96160000  0.65000000  0.26660000  1.0 0.0490932431
C  C219  1  0.92280000  0.70680000  0.27680000  1.0 0.0108327899
C  C220  1  0.96060000  0.76280000  0.29090000  1.0 -0.080377069
C  C221  1  0.53050000  0.49310000  0.19180000  1.0 0.3104430989
C  C222  1  0.54130000  0.53980000  0.15520000  1.0 -0.009360788
C  C223  1  0.53170000  0.60560000  0.16020000  1.0 0.0108327899
C  C224  1  0.54520000  0.64590000  0.12720000  1.0 0.0108327899
C  C225  1  0.56450000  0.61980000  0.08730000  1.0 -0.0487057871
C  C226  1  0.56930000  0.55340000  0.08180000  1.0 0.0490932431
C  C227  1  0.55930000  0.51250000  0.11620000  1.0 -0.0878050239
C  C228  1  0.54160000  0.71960000  0.13170000  1.0 0.3944239573
C  C229  1  0.57810000  0.52580000  0.03970000  1.0 0.0108327899
C  C230  1  0.62340000  0.47170000  0.02990000  1.0 -0.0176718207
C  C231  1  0.62500000  0.44460000  0.98990000  1.0 0.0027967153
C  C232  1  0.53280000  0.55340000  0.00870000  1.0 0.0027967153
C  C233  1  0.53160000  0.52850000  0.96880000  1.0 0.0281765191
C  C234  1  0.67280000  0.56190000  0.26950000  1.0 0.3317432956
C  C235  1  0.71760000  0.61500000  0.24850000  1.0 0.0399476241
C  C236  1  0.68030000  0.67080000  0.23450000  1.0 0.0490932431
C  C237  1  0.72050000  0.72110000  0.21600000  1.0 0.0108327899
C  C238  1  0.79990000  0.71680000  0.21320000  1.0 -0.0176718207
C  C239  1  0.83710000  0.66190000  0.22850000  1.0 0.0108327899
C  C240  1  0.79680000  0.61130000  0.24620000  1.0 0.0027967153
C  C241  1  0.67820000  0.78190000  0.20410000  1.0 0.3200796296
C  C242  1  0.92320000  0.66070000  0.22510000  1.0 0.0281765191
C  C243  1  0.96030000  0.71940000  0.23770000  1.0 0.0108327899
C  C244  1  0.95600000  0.60200000  0.21200000  1.0 -0.0176718207
C  C245  1  0.96180000  0.67950000  0.18890000  1.0 -0.080377069
C  C246  1  0.96420000  0.62730000  0.25340000  1.0 0.0027967153
C  C247  1  0.32400000  0.04330000  0.92760000  1.0 0.7143144802
C  C248  1  0.28020000  0.02120000  0.96510000  1.0 -0.1406561329
C  C249  1  0.20020000  0.02020000  0.96440000  1.0 0.0490932431
C  C250  1  0.03860000  0.04390000  0.97870000  1.0 -0.0878050239
C  C251  1  0.31790000  0.92440000  0.78890000  1.0 0.3200796296
C  C252  1  0.27790000  0.86180000  0.77730000  1.0 0.0399476241
C  C253  1  0.31780000  0.81220000  0.75790000  1.0 0.0490932431
C  C254  1  0.28200000  0.75430000  0.74770000  1.0 0.0281765191
C  C255  1  0.20300000  0.74690000  0.75500000  1.0 -0.0176718207
C  C256  1  0.16120000  0.79780000  0.77260000  1.0 -0.009360788
C  C257  1  0.19890000  0.85500000  0.78510000  1.0 -0.0412379202
C  C258  1  0.32660000  0.70070000  0.72740000  1.0 0.2778299035
C  C259  1  0.03840000  0.85000000  0.76660000  1.0 0.0490932431
C  C260  1  0.07720000  0.79320000  0.77680000  1.0 0.0108327899
C  C261  1  0.03940000  0.73720000  0.79090000  1.0 -0.080377069
C  C262  1  0.46950000  0.00690000  0.69180000  1.0 0.3104430989
C  C263  1  0.45870000  0.96020000  0.65520000  1.0 -0.009360788
C  C264  1  0.46830000  0.89440000  0.66020000  1.0 0.0108327899
C  C265  1  0.45480000  0.85410000  0.62720000  1.0 0.0108327899
C  C266  1  0.43550000  0.88020000  0.58730000  1.0 -0.0487057871
C  C267  1  0.43070000  0.94660000  0.58180000  1.0 0.057507017
C  C268  1  0.44070000  0.98750000  0.61620000  1.0 -0.0878050239
C  C269  1  0.45840000  0.78040000  0.63170000  1.0 0.3953142718
C  C270  1  0.42190000  0.97420000  0.53970000  1.0 0.0027967153
C  C271  1  0.37660000  0.02830000  0.52990000  1.0 -0.0176718207
C  C272  1  0.37500000  0.05540000  0.48990000  1.0 0.0027967153
C  C273  1  0.46720000  0.94660000  0.50870000  1.0 0.0027967153
C  C274  1  0.46840000  0.97150000  0.46880000  1.0 0.0183896165
C  C275  1  0.32720000  0.93810000  0.76950000  1.0 0.3317432956
C  C276  1  0.28240000  0.88500000  0.74850000  1.0 0.0399476241
C  C277  1  0.31970000  0.82920000  0.73450000  1.0 0.0490932431
C  C278  1  0.27950000  0.77890000  0.71600000  1.0 0.0108327899
C  C279  1  0.20010000  0.78320000  0.71320000  1.0 -0.0176718207
C  C280  1  0.16290000  0.83810000  0.72850000  1.0 0.0108327899
C  C281  1  0.20320000  0.88870000  0.74620000  1.0 0.0027967153
C  C282  1  0.32180000  0.71810000  0.70410000  1.0 0.3200796296
C  C283  1  0.07680000  0.83930000  0.72510000  1.0 0.0281765191
C  C284  1  0.03970000  0.78060000  0.73770000  1.0 0.0183896165
C  C285  1  0.04400000  0.89800000  0.71200000  1.0 -0.0176718207
C  C286  1  0.03820000  0.82050000  0.68890000  1.0 -0.080377069
C  C287  1  0.03580000  0.87270000  0.75340000  1.0 -0.0028024823
C  C288  1  0.32400000  0.95670000  0.07240000  1.0 0.7185050205
C  C289  1  0.28020000  0.97880000  0.03490000  1.0 -0.1479526802
C  C290  1  0.20020000  0.97980000  0.03560000  1.0 0.0490932431
C  C291  1  0.03860000  0.95610000  0.02130000  1.0 -0.0878050239
C  C292  1  0.31790000  0.07560000  0.21110000  1.0 0.3200796296
C  C293  1  0.27790000  0.13820000  0.22270000  1.0 0.0399476241
C  C294  1  0.31780000  0.18780000  0.24210000  1.0 0.0490932431
C  C295  1  0.28200000  0.24570000  0.25230000  1.0 0.0399476241
C  C296  1  0.20300000  0.25310000  0.24500000  1.0 -0.0176718207
C  C297  1  0.16120000  0.20220000  0.22740000  1.0 -0.009360788
C  C298  1  0.19890000  0.14500000  0.21490000  1.0 -0.0412379202
C  C299  1  0.32660000  0.29930000  0.27260000  1.0 0.2778299035
C  C300  1  0.03840000  0.15000000  0.23340000  1.0 0.0490932431
C  C301  1  0.07720000  0.20680000  0.22320000  1.0 0.0108327899
C  C302  1  0.03940000  0.26280000  0.20910000  1.0 -0.080377069
C  C303  1  0.46950000  0.99310000  0.30820000  1.0 0.3104430989
C  C304  1  0.45870000  0.03980000  0.34480000  1.0 -0.009360788
C  C305  1  0.46830000  0.10560000  0.33980000  1.0 0.0108327899
C  C306  1  0.45480000  0.14590000  0.37280000  1.0 0.0108327899
C  C307  1  0.43550000  0.11980000  0.41270000  1.0 -0.0487057871
C  C308  1  0.43070000  0.05340000  0.41820000  1.0 0.0490932431
C  C309  1  0.44070000  0.01250000  0.38380000  1.0 -0.0878050239
C  C310  1  0.45840000  0.21960000  0.36830000  1.0 0.3944239573
C  C311  1  0.42190000  0.02580000  0.46030000  1.0 0.0108327899
C  C312  1  0.37660000  0.97170000  0.47010000  1.0 -0.0176718207
C  C313  1  0.37500000  0.94460000  0.51010000  1.0 0.0027967153
C  C314  1  0.46720000  0.05340000  0.49130000  1.0 0.0027967153
C  C315  1  0.46840000  0.02850000  0.53120000  1.0 0.0281765191
C  C316  1  0.32720000  0.06190000  0.23050000  1.0 0.3317432956
C  C317  1  0.28240000  0.11500000  0.25150000  1.0 0.0399476241
C  C318  1  0.31970000  0.17080000  0.26550000  1.0 0.0490932431
C  C319  1  0.27950000  0.22110000  0.28400000  1.0 0.0183896165
C  C320  1  0.20010000  0.21680000  0.28680000  1.0 -0.0176718207
C  C321  1  0.16290000  0.16190000  0.27150000  1.0 0.0183896165
C  C322  1  0.20320000  0.11130000  0.25380000  1.0 0.0027967153
C  C323  1  0.32180000  0.28190000  0.29590000  1.0 0.3200796296
C  C324  1  0.07680000  0.16070000  0.27490000  1.0 0.0281765191
C  C325  1  0.03970000  0.21940000  0.26230000  1.0 0.0183896165
C  C326  1  0.04400000  0.10200000  0.28800000  1.0 -0.0176718207
C  C327  1  0.03820000  0.17950000  0.31110000  1.0 -0.080377069
C  C328  1  0.03580000  0.12730000  0.24660000  1.0 -0.0028024823
C  C329  1  0.50000000  0.67510000  0.30480000  1.0 0.5938136981
C  C330  1  0.50000000  0.32490000  0.69520000  1.0 0.5938136981
C  C331  1  0.50000000  0.17510000  0.19520000  1.0 0.5938136981
C  C332  1  0.50000000  0.82490000  0.80480000  1.0 0.5938136981
C  C333  1  0.31940000  0.50000000  0.50000000  1.0 0.1399481253
C  C334  1  0.16250000  0.50000000  0.50000000  1.0 -0.0028024823
C  C335  1  0.07830000  0.50000000  0.50000000  1.0 0.057507017
C  C336  1  0.68060000  0.00000000  0.00000000  1.0 0.1399481253
C  C337  1  0.83750000  0.00000000  0.00000000  1.0 -0.0028024823
C  C338  1  0.92170000  0.00000000  0.00000000  1.0 0.057507017
C  C339  1  0.68060000  0.50000000  0.50000000  1.0 0.1399481253
C  C340  1  0.83750000  0.50000000  0.50000000  1.0 -0.0028024823
C  C341  1  0.92170000  0.50000000  0.50000000  1.0 0.057507017
C  C342  1  0.31940000  0.00000000  0.00000000  1.0 0.1399481253
C  C343  1  0.16250000  0.00000000  0.00000000  1.0 -0.009360788
C  C344  1  0.07830000  0.00000000  0.00000000  1.0 0.057507017
O  O1  1  0.42320000  0.37230000  0.35547000  1.0 -0.9376938685
O  O2  1  0.57740000  0.49980000  0.34905000  1.0 -0.8806161229
O  O3  1  0.42330000  0.42720000  0.28193000  1.0 -0.7793879702
O  O4  1  0.18910000  0.43080000  0.32980000  1.0 -0.300599572
O  O5  1  0.38410000  0.56880000  0.27530000  1.0 -0.2010172091
O  O6  1  0.28260000  0.53600000  0.31220000  1.0 -0.1723212675
O  O7  1  0.39070000  0.78580000  0.21697000  1.0 -0.3553287133
O  O8  1  0.28880000  0.45120000  0.39391000  1.0 -0.5414271339
O  O9  1  0.39270000  0.44640000  0.43306000  1.0 -0.5456160053
O  O10  1  0.43620000  0.43870000  0.19090000  1.0 -0.3107010945
O  O11  1  0.42100000  0.75350000  0.10540000  1.0 -0.3169952198
O  O12  1  0.29260000  0.85230000  0.21920000  1.0 -0.058985613
O  O13  1  0.27430000  0.33770000  0.36710000  1.0 -0.2416264422
O  O14  1  0.28560000  0.82380000  0.18240000  1.0 -0.0176718207
O  O15  1  0.26970000  0.92410000  0.24230000  1.0 -0.3323252915
O  O16  1  0.39720000  0.56700000  0.26500000  1.0 -0.2920871421
O  O17  1  0.29210000  0.51660000  0.28760000  1.0 -0.1723212675
O  O18  1  0.42320000  0.62770000  0.64453000  1.0 -0.9338774874
O  O19  1  0.57740000  0.50020000  0.65095000  1.0 -0.8806161229
O  O20  1  0.42330000  0.57280000  0.71807000  1.0 -0.7793879702
O  O21  1  0.18910000  0.56920000  0.67020000  1.0 -0.300599572
O  O22  1  0.38410000  0.43120000  0.72470000  1.0 -0.2010172091
O  O23  1  0.28260000  0.46400000  0.68780000  1.0 -0.1723212675
O  O24  1  0.39070000  0.21420000  0.78303000  1.0 -0.3553287133
O  O25  1  0.28880000  0.54880000  0.60609000  1.0 -0.5414271339
O  O26  1  0.39270000  0.55360000  0.56694000  1.0 -0.5414271339
O  O27  1  0.43620000  0.56130000  0.80910000  1.0 -0.3107010945
O  O28  1  0.42100000  0.24650000  0.89460000  1.0 -0.3169952198
O  O29  1  0.29260000  0.14770000  0.78080000  1.0 -0.058985613
O  O30  1  0.27430000  0.66230000  0.63290000  1.0 -0.2416264422
O  O31  1  0.28560000  0.17620000  0.81760000  1.0 -0.0176718207
O  O32  1  0.26970000  0.07590000  0.75770000  1.0 -0.3323252915
O  O33  1  0.39720000  0.43300000  0.73500000  1.0 -0.2920871421
O  O34  1  0.29210000  0.48340000  0.71240000  1.0 -0.1723212675
O  O35  1  0.57680000  0.87230000  0.14453000  1.0 -0.9376938685
O  O36  1  0.42260000  0.99980000  0.15095000  1.0 -0.8806161229
O  O37  1  0.57670000  0.92720000  0.21807000  1.0 -0.7793879702
O  O38  1  0.81090000  0.93080000  0.17020000  1.0 -0.300599572
O  O39  1  0.61590000  0.06880000  0.22470000  1.0 -0.2010172091
O  O40  1  0.71740000  0.03600000  0.18780000  1.0 -0.1723212675
O  O41  1  0.60930000  0.28580000  0.28303000  1.0 -0.3545225008
O  O42  1  0.71120000  0.95120000  0.10609000  1.0 -0.5414271339
O  O43  1  0.60730000  0.94640000  0.06694000  1.0 -0.5456160053
O  O44  1  0.56380000  0.93870000  0.30910000  1.0 -0.3107010945
O  O45  1  0.57900000  0.25350000  0.39460000  1.0 -0.3107010945
O  O46  1  0.70740000  0.35230000  0.28080000  1.0 -0.058985613
O  O47  1  0.72570000  0.83770000  0.13290000  1.0 -0.2416264422
O  O48  1  0.71440000  0.32380000  0.31760000  1.0 -0.0176718207
O  O49  1  0.73030000  0.42410000  0.25770000  1.0 -0.3323252915
O  O50  1  0.60280000  0.06700000  0.23500000  1.0 -0.2920871421
O  O51  1  0.70790000  0.01660000  0.21240000  1.0 -0.1723212675
O  O52  1  0.57680000  0.12770000  0.85547000  1.0 -0.9338774874
O  O53  1  0.42260000  0.00020000  0.84905000  1.0 -0.8893848701
O  O54  1  0.57670000  0.07280000  0.78193000  1.0 -0.7793879702
O  O55  1  0.81090000  0.06920000  0.82980000  1.0 -0.300599572
O  O56  1  0.61590000  0.93120000  0.77530000  1.0 -0.2010172091
O  O57  1  0.71740000  0.96400000  0.81220000  1.0 -0.1646703227
O  O58  1  0.60930000  0.71420000  0.71697000  1.0 -0.3553287133
O  O59  1  0.71120000  0.04880000  0.89391000  1.0 -0.5414271339
O  O60  1  0.60730000  0.05360000  0.93306000  1.0 -0.5456160053
O  O61  1  0.56380000  0.06130000  0.69090000  1.0 -0.3107010945
O  O62  1  0.57900000  0.74650000  0.60540000  1.0 -0.3169952198
O  O63  1  0.70740000  0.64770000  0.71920000  1.0 -0.058985613
O  O64  1  0.72570000  0.16230000  0.86710000  1.0 -0.2416264422
O  O65  1  0.71440000  0.67620000  0.68240000  1.0 -0.0176718207
O  O66  1  0.73030000  0.57590000  0.74230000  1.0 -0.3323252915
O  O67  1  0.60280000  0.93300000  0.76500000  1.0 -0.2920871421
O  O68  1  0.70790000  0.98340000  0.78760000  1.0 -0.1723212675
O  O69  1  0.57680000  0.62770000  0.64453000  1.0 -0.9338774874
O  O70  1  0.42260000  0.50020000  0.65095000  1.0 -0.8806161229
O  O71  1  0.57670000  0.57280000  0.71807000  1.0 -0.7793879702
O  O72  1  0.81090000  0.56920000  0.67020000  1.0 -0.300599572
O  O73  1  0.61590000  0.43120000  0.72470000  1.0 -0.2010172091
O  O74  1  0.71740000  0.46400000  0.68780000  1.0 -0.1723212675
O  O75  1  0.60930000  0.21420000  0.78303000  1.0 -0.3553287133
O  O76  1  0.71120000  0.54880000  0.60609000  1.0 -0.5414271339
O  O77  1  0.60730000  0.55360000  0.56694000  1.0 -0.5414271339
O  O78  1  0.56380000  0.56130000  0.80910000  1.0 -0.3107010945
O  O79  1  0.57900000  0.24650000  0.89460000  1.0 -0.3169952198
O  O80  1  0.70740000  0.14770000  0.78080000  1.0 -0.058985613
O  O81  1  0.72570000  0.66230000  0.63290000  1.0 -0.2416264422
O  O82  1  0.71440000  0.17620000  0.81760000  1.0 -0.0176718207
O  O83  1  0.73030000  0.07590000  0.75770000  1.0 -0.3323252915
O  O84  1  0.60280000  0.43300000  0.73500000  1.0 -0.2920871421
O  O85  1  0.70790000  0.48340000  0.71240000  1.0 -0.1723212675
O  O86  1  0.57680000  0.37230000  0.35547000  1.0 -0.9376938685
O  O87  1  0.42260000  0.49980000  0.34905000  1.0 -0.8806161229
O  O88  1  0.57670000  0.42720000  0.28193000  1.0 -0.7793879702
O  O89  1  0.81090000  0.43080000  0.32980000  1.0 -0.300599572
O  O90  1  0.61590000  0.56880000  0.27530000  1.0 -0.2010172091
O  O91  1  0.71740000  0.53600000  0.31220000  1.0 -0.1723212675
O  O92  1  0.60930000  0.78580000  0.21697000  1.0 -0.3545225008
O  O93  1  0.71120000  0.45120000  0.39391000  1.0 -0.5414271339
O  O94  1  0.60730000  0.44640000  0.43306000  1.0 -0.5456160053
O  O95  1  0.56380000  0.43870000  0.19090000  1.0 -0.3107010945
O  O96  1  0.57900000  0.75350000  0.10540000  1.0 -0.3169952198
O  O97  1  0.70740000  0.85230000  0.21920000  1.0 -0.058985613
O  O98  1  0.72570000  0.33770000  0.36710000  1.0 -0.2416264422
O  O99  1  0.71440000  0.82380000  0.18240000  1.0 -0.0176718207
O  O100  1  0.73030000  0.92410000  0.24230000  1.0 -0.3323252915
O  O101  1  0.60280000  0.56700000  0.26500000  1.0 -0.2920871421
O  O102  1  0.70790000  0.51660000  0.28760000  1.0 -0.1723212675
O  O103  1  0.42320000  0.12770000  0.85547000  1.0 -0.9338774874
O  O104  1  0.57740000  0.00020000  0.84905000  1.0 -0.8893848701
O  O105  1  0.42330000  0.07280000  0.78193000  1.0 -0.7793879702
O  O106  1  0.18910000  0.06920000  0.82980000  1.0 -0.300599572
O  O107  1  0.38410000  0.93120000  0.77530000  1.0 -0.2010172091
O  O108  1  0.28260000  0.96400000  0.81220000  1.0 -0.1646703227
O  O109  1  0.39070000  0.71420000  0.71697000  1.0 -0.3553287133
O  O110  1  0.28880000  0.04880000  0.89391000  1.0 -0.5414271339
O  O111  1  0.39270000  0.05360000  0.93306000  1.0 -0.5456160053
O  O112  1  0.43620000  0.06130000  0.69090000  1.0 -0.3107010945
O  O113  1  0.42100000  0.74650000  0.60540000  1.0 -0.3169952198
O  O114  1  0.29260000  0.64770000  0.71920000  1.0 -0.058985613
O  O115  1  0.27430000  0.16230000  0.86710000  1.0 -0.2416264422
O  O116  1  0.28560000  0.67620000  0.68240000  1.0 -0.0176718207
O  O117  1  0.26970000  0.57590000  0.74230000  1.0 -0.3323252915
O  O118  1  0.39720000  0.93300000  0.76500000  1.0 -0.2920871421
O  O119  1  0.29210000  0.98340000  0.78760000  1.0 -0.1723212675
O  O120  1  0.42320000  0.87230000  0.14453000  1.0 -0.9376938685
O  O121  1  0.57740000  0.99980000  0.15095000  1.0 -0.8806161229
O  O122  1  0.42330000  0.92720000  0.21807000  1.0 -0.7793879702
O  O123  1  0.18910000  0.93080000  0.17020000  1.0 -0.300599572
O  O124  1  0.38410000  0.06880000  0.22470000  1.0 -0.2010172091
O  O125  1  0.28260000  0.03600000  0.18780000  1.0 -0.1723212675
O  O126  1  0.39070000  0.28580000  0.28303000  1.0 -0.3545225008
O  O127  1  0.28880000  0.95120000  0.10609000  1.0 -0.5414271339
O  O128  1  0.39270000  0.94640000  0.06694000  1.0 -0.5456160053
O  O129  1  0.43620000  0.93870000  0.30910000  1.0 -0.3107010945
O  O130  1  0.42100000  0.25350000  0.39460000  1.0 -0.3107010945
O  O131  1  0.29260000  0.35230000  0.28080000  1.0 -0.058985613
O  O132  1  0.27430000  0.83770000  0.13290000  1.0 -0.2416264422
O  O133  1  0.28560000  0.32380000  0.31760000  1.0 -0.0176718207
O  O134  1  0.26970000  0.42410000  0.25770000  1.0 -0.3323252915
O  O135  1  0.39720000  0.06700000  0.23500000  1.0 -0.2920871421
O  O136  1  0.29210000  0.01660000  0.21240000  1.0 -0.1723212675
O  O137  1  0.50000000  0.34760000  0.43730000  1.0 -0.3702527328
O  O138  1  0.50000000  0.54570000  0.42670000  1.0 -0.4304823224
O  O139  1  0.50000000  0.62240000  0.32280000  1.0 -0.516907443
O  O140  1  0.50000000  0.83480000  0.27370000  1.0 0.0399476241
O  O141  1  0.50000000  0.51280000  0.22050000  1.0 -0.3169952198
O  O142  1  0.50000000  0.74220000  0.16050000  1.0 -0.441643004
O  O143  1  0.50000000  0.73120000  0.32180000  1.0 -0.4016455381
O  O144  1  0.50000000  0.65240000  0.56270000  1.0 -0.3755376383
O  O145  1  0.50000000  0.45430000  0.57330000  1.0 -0.441643004
O  O146  1  0.50000000  0.37760000  0.67720000  1.0 -0.516907443
O  O147  1  0.50000000  0.16520000  0.72630000  1.0 0.0399476241
O  O148  1  0.50000000  0.48720000  0.77950000  1.0 -0.3169952198
O  O149  1  0.50000000  0.25780000  0.83950000  1.0 -0.441643004
O  O150  1  0.50000000  0.26880000  0.67820000  1.0 -0.4016455381
O  O151  1  0.50000000  0.84760000  0.06270000  1.0 -0.3702527328
O  O152  1  0.50000000  0.04570000  0.07330000  1.0 -0.4304823224
O  O153  1  0.50000000  0.12240000  0.17720000  1.0 -0.516907443
O  O154  1  0.50000000  0.33480000  0.22630000  1.0 0.0399476241
O  O155  1  0.50000000  0.01280000  0.27950000  1.0 -0.3169952198
O  O156  1  0.50000000  0.24220000  0.33950000  1.0 -0.441643004
O  O157  1  0.50000000  0.23120000  0.17820000  1.0 -0.4016455381
O  O158  1  0.50000000  0.15240000  0.93730000  1.0 -0.3755376383
O  O159  1  0.50000000  0.95430000  0.92670000  1.0 -0.4304823224
O  O160  1  0.50000000  0.87760000  0.82280000  1.0 -0.516907443
O  O161  1  0.50000000  0.66520000  0.77370000  1.0 0.0399476241
O  O162  1  0.50000000  0.98720000  0.72050000  1.0 -0.3169952198
O  O163  1  0.50000000  0.75780000  0.66050000  1.0 -0.441643004
O  O164  1  0.50000000  0.76880000  0.82180000  1.0 -0.4016455381
