# DDEC6 charges by PACMAN v1.1 (https://github.com/mtap-research/PACMAN-charge/)
data_NEDVUP_ASR_pacman
_symmetry_space_group_name_H-M   'P 1'
_cell_length_a   12.65830000
_cell_length_b   15.54090000
_cell_length_c   16.40940000
_cell_angle_alpha   108.44600000
_cell_angle_beta   98.65100000
_cell_angle_gamma   109.52600000
_symmetry_Int_Tables_number   1
_chemical_formula_structural   MnCu3H48(C11O4)6
_chemical_formula_sum   'Mn1 Cu3 H48 C66 O24'
_cell_volume   2765.11402264
_cell_formula_units_Z   1
loop_
 _symmetry_equiv_pos_site_id
 _symmetry_equiv_pos_as_xyz
  1  'x, y, z'
loop_
 _atom_site_type_symbol
 _atom_site_label
 _atom_site_symmetry_multiplicity
 _atom_site_fract_x
 _atom_site_fract_y
 _atom_site_fract_z
 _atom_site_occupancy
 _atom_site_charge
Mn  Mn1  1  0.50000000  0.50000000  0.50000000  1.0 1.0968893885
Cu  Cu1  1  0.19140000  0.37072000  0.42161000  1.0 0.8846762299
Cu  Cu2  1  0.80860000  0.62928000  0.57839000  1.0 0.8846762299
Cu  Cu3  1  0.00000000  0.50000000  0.50000000  1.0 0.8284428238
H  H1  1  0.75150000  0.39230000  0.08920000  1.0 0.1384259973
H  H2  1  0.24850000  0.60770000  0.91080000  1.0 0.1384259973
H  H3  1  0.45070000  0.20180000  0.97280000  1.0 0.0942329734
H  H4  1  0.54930000  0.79820000  0.02720000  1.0 0.0942329734
H  H5  1  0.33170000  0.11670000  0.90030000  1.0 0.1018382032
H  H6  1  0.66830000  0.88330000  0.09970000  1.0 0.1018382032
H  H7  1  0.18560000  0.13520000  0.18660000  1.0 0.1210911854
H  H8  1  0.81440000  0.86480000  0.81340000  1.0 0.1210911854
H  H9  1  0.40800000  0.94490000  0.86470000  1.0 0.1018382032
H  H10  1  0.59200000  0.05510000  0.13530000  1.0 0.1018382032
H  H11  1  0.32700000  0.96800000  0.79660000  1.0 0.1018382032
H  H12  1  0.67300000  0.03200000  0.20340000  1.0 0.1018382032
H  H13  1  0.53150000  0.22110000  0.85290000  1.0 0.1018382032
H  H14  1  0.46850000  0.77890000  0.14710000  1.0 0.1018382032
H  H15  1  0.54660000  0.13090000  0.78150000  1.0 0.1100077524
H  H16  1  0.45340000  0.86910000  0.21850000  1.0 0.1100077524
H  H17  1  0.17040000  0.18640000  0.57370000  1.0 0.1210911854
H  H18  1  0.82960000  0.81360000  0.42630000  1.0 0.1210911854
H  H19  1  0.20220000  0.09730000  0.65990000  1.0 0.130075226
H  H20  1  0.79780000  0.90270000  0.34010000  1.0 0.1384259973
H  H21  1  0.77960000  0.13140000  0.04780000  1.0 0.130075226
H  H22  1  0.22040000  0.86860000  0.95220000  1.0 0.130075226
H  H23  1  0.21370000  0.04890000  0.05570000  1.0 0.1384259973
H  H24  1  0.78630000  0.95110000  0.94430000  1.0 0.1384259973
H  H25  1  0.88610000  0.46650000  0.22900000  1.0 0.1384259973
H  H26  1  0.11390000  0.53350000  0.77100000  1.0 0.1384259973
H  H27  1  0.58400000  0.08040000  0.97990000  1.0 0.1018382032
H  H28  1  0.41600000  0.91960000  0.02010000  1.0 0.1018382032
H  H29  1  0.63820000  0.08430000  0.89810000  1.0 0.1018382032
H  H30  1  0.36180000  0.91570000  0.10190000  1.0 0.1018382032
H  H31  1  0.53800000  0.24760000  0.12510000  1.0 0.130075226
H  H32  1  0.46200000  0.75240000  0.87490000  1.0 0.130075226
H  H33  1  0.51350000  0.33150000  0.26000000  1.0 0.1210911854
H  H34  1  0.48650000  0.66850000  0.74000000  1.0 0.1210911854
H  H35  1  0.21890000  0.63680000  0.65200000  1.0 0.1100077524
H  H36  1  0.78110000  0.36320000  0.34800000  1.0 0.1100077524
H  H37  1  0.53400000  0.88230000  0.62890000  1.0 0.1384259973
H  H38  1  0.46600000  0.11770000  0.37110000  1.0 0.1384259973
H  H39  1  0.46130000  0.71590000  0.52610000  1.0 0.1100077524
H  H40  1  0.53870000  0.28410000  0.47390000  1.0 0.1100077524
H  H41  1  0.51500000  0.35260000  0.65420000  1.0 0.1384259973
H  H42  1  0.48500000  0.64740000  0.34580000  1.0 0.1384259973
H  H43  1  0.28820000  0.79660000  0.75440000  1.0 0.1210911854
H  H44  1  0.71180000  0.20340000  0.24560000  1.0 0.1210911854
H  H45  1  0.54590000  0.26720000  0.74250000  1.0 0.1210911854
H  H46  1  0.45410000  0.73280000  0.25750000  1.0 0.1210911854
H  H47  1  0.93730000  0.22120000  0.19420000  1.0 0.130075226
H  H48  1  0.06270000  0.77880000  0.80580000  1.0 0.130075226
C  C1  1  0.78430000  0.35420000  0.11090000  1.0 -0.2235063792
C  C2  1  0.21570000  0.64580000  0.88910000  1.0 -0.2235063792
C  C3  1  0.33250000  0.30640000  0.32020000  1.0 0.6027900099
C  C4  1  0.66750000  0.69360000  0.67980000  1.0 0.6027900099
C  C5  1  0.01430000  0.39290000  0.31700000  1.0 0.5772981166
C  C6  1  0.98570000  0.60710000  0.68300000  1.0 0.5772981166
C  C7  1  0.34730000  0.24620000  0.23450000  1.0 -0.0371217516
C  C8  1  0.65270000  0.75380000  0.76550000  1.0 -0.0371217516
C  C9  1  0.47770000  0.09230000  0.87970000  1.0 0.0760948329
C  C10  1  0.52230000  0.90770000  0.12030000  1.0 0.0760948329
C  C11  1  0.40820000  0.12920000  0.93840000  1.0 -0.098343964
C  C12  1  0.59180000  0.87080000  0.06160000  1.0 -0.098343964
C  C13  1  0.25870000  0.15960000  0.17470000  1.0 -0.0821422294
C  C14  1  0.74130000  0.84040000  0.82530000  1.0 -0.0821422294
C  C15  1  0.40880000  0.98200000  0.82550000  1.0 -0.098343964
C  C16  1  0.59120000  0.01800000  0.17450000  1.0 -0.098343964
C  C17  1  0.49490000  0.14860000  0.81720000  1.0 -0.0929222862
C  C18  1  0.50510000  0.85140000  0.18280000  1.0 -0.098343964
C  C19  1  0.28860000  0.55580000  0.51440000  1.0 0.5772981166
C  C20  1  0.71140000  0.44420000  0.48560000  1.0 0.5772981166
C  C21  1  0.24730000  0.20400000  0.60830000  1.0 -0.0821422294
C  C22  1  0.75270000  0.79600000  0.39170000  1.0 -0.0821422294
C  C23  1  0.26660000  0.15120000  0.66040000  1.0 -0.2295421094
C  C24  1  0.73340000  0.84880000  0.33960000  1.0 -0.2295421094
C  C25  1  0.74800000  0.25490000  0.05960000  1.0 0.239842978
C  C26  1  0.25200000  0.74510000  0.94040000  1.0 0.239842978
C  C27  1  0.80090000  0.19930000  0.08410000  1.0 -0.2488581122
C  C28  1  0.19910000  0.80070000  0.91590000  1.0 -0.2488581122
C  C29  1  0.37500000  0.17580000  0.71130000  1.0 0.2517338812
C  C30  1  0.62500000  0.82420000  0.28870000  1.0 0.2517338812
C  C31  1  0.27670000  0.10840000  0.09730000  1.0 -0.2295421094
C  C32  1  0.72330000  0.89160000  0.90270000  1.0 -0.2295421094
C  C33  1  0.86620000  0.39910000  0.19220000  1.0 -0.0726713556
C  C34  1  0.13380000  0.60090000  0.80780000  1.0 -0.0726713556
C  C35  1  0.59440000  0.11210000  0.93630000  1.0 -0.0929222862
C  C36  1  0.40560000  0.88790000  0.06370000  1.0 -0.0929222862
C  C37  1  0.46530000  0.22290000  0.13730000  1.0 -0.2422642838
C  C38  1  0.53470000  0.77710000  0.86270000  1.0 -0.2422642838
C  C39  1  0.44930000  0.27420000  0.21660000  1.0 -0.0726713556
C  C40  1  0.55070000  0.72580000  0.78340000  1.0 -0.0726713556
C  C41  1  0.28330000  0.68550000  0.64610000  1.0 -0.0614297197
C  C42  1  0.71670000  0.31450000  0.35390000  1.0 -0.0614297197
C  C43  1  0.33970000  0.28090000  0.60750000  1.0 -0.0614297197
C  C44  1  0.66030000  0.71910000  0.39250000  1.0 -0.0614297197
C  C45  1  0.91620000  0.34940000  0.21820000  1.0 -0.0298589294
C  C46  1  0.08380000  0.65060000  0.78180000  1.0 -0.0298589294
C  C47  1  0.37720000  0.13670000  0.07660000  1.0 0.239842978
C  C48  1  0.62280000  0.86330000  0.92340000  1.0 0.239842978
C  C49  1  0.32290000  0.33880000  0.55340000  1.0 0.5900986313
C  C50  1  0.67710000  0.66120000  0.44660000  1.0 0.5900986313
C  C51  1  0.32770000  0.65470000  0.57800000  1.0 -0.0929222862
C  C52  1  0.67230000  0.34530000  0.42200000  1.0 -0.0929222862
C  C53  1  0.46970000  0.83270000  0.63380000  1.0 -0.2422642838
C  C54  1  0.53030000  0.16730000  0.36620000  1.0 -0.2422642838
C  C55  1  0.42580000  0.73260000  0.57240000  1.0 -0.0371217516
C  C56  1  0.57420000  0.26740000  0.42760000  1.0 -0.0371217516
C  C57  1  0.41630000  0.85790000  0.70280000  1.0 0.2927970707
C  C58  1  0.58370000  0.14210000  0.29720000  1.0 0.2927970707
C  C59  1  0.44970000  0.30150000  0.65640000  1.0 -0.0726713556
C  C60  1  0.55030000  0.69850000  0.34360000  1.0 -0.0726713556
C  C61  1  0.32380000  0.78180000  0.70780000  1.0 -0.2422642838
C  C62  1  0.67620000  0.21820000  0.29220000  1.0 -0.2422642838
C  C63  1  0.46890000  0.25060000  0.70880000  1.0 -0.2488581122
C  C64  1  0.53110000  0.74940000  0.29120000  1.0 -0.2488581122
C  C65  1  0.89480000  0.25310000  0.17200000  1.0 -0.0929222862
C  C66  1  0.10520000  0.74690000  0.82800000  1.0 -0.0929222862
O  O1  1  0.34900000  0.53420000  0.46360000  1.0 -0.5653580309
O  O2  1  0.65100000  0.46580000  0.53640000  1.0 -0.5653580309
O  O3  1  0.65720000  0.21670000  0.98230000  1.0 -0.182077165
O  O4  1  0.34280000  0.78330000  0.01770000  1.0 -0.182077165
O  O5  1  0.07540000  0.35910000  0.32410000  1.0 -0.3669414402
O  O6  1  0.92460000  0.64090000  0.67590000  1.0 -0.3669414402
O  O7  1  0.42360000  0.37990000  0.37400000  1.0 -0.5592506707
O  O8  1  0.57640000  0.62010000  0.62600000  1.0 -0.5592506707
O  O9  1  0.23120000  0.28390000  0.33000000  1.0 -0.534389484
O  O10  1  0.76880000  0.71610000  0.67000000  1.0 -0.534389484
O  O11  1  0.41000000  0.41260000  0.56290000  1.0 -0.5592506707
O  O12  1  0.59000000  0.58740000  0.43710000  1.0 -0.5592506707
O  O13  1  0.99290000  0.46870000  0.37290000  1.0 -0.6257682324
O  O14  1  0.00710000  0.53130000  0.62710000  1.0 -0.6257682324
O  O15  1  0.22200000  0.31230000  0.50510000  1.0 -0.5239907086
O  O16  1  0.77800000  0.68770000  0.49490000  1.0 -0.5239907086
O  O17  1  0.38280000  0.12100000  0.75960000  1.0 -0.1867148162
O  O18  1  0.61720000  0.87900000  0.24040000  1.0 -0.1867148162
O  O19  1  0.46510000  0.95320000  0.75930000  1.0 -0.1687208892
O  O20  1  0.53490000  0.04680000  0.24070000  1.0 -0.1687208892
O  O21  1  0.19480000  0.49360000  0.51380000  1.0 -0.5798878551
O  O22  1  0.80520000  0.50640000  0.48620000  1.0 -0.5798878551
O  O23  1  0.38950000  0.08060000  0.99900000  1.0 -0.2126886577
O  O24  1  0.61050000  0.91940000  0.00100000  1.0 -0.2126886577
