# DDEC6 charges by PACMAN v1.1 (https://github.com/mtap-research/PACMAN-charge/)
data_NEDWEA_ASR_pacman
_symmetry_space_group_name_H-M   'P 1'
_cell_length_a   12.65940000
_cell_length_b   15.02710000
_cell_length_c   17.03170000
_cell_angle_alpha   108.00900000
_cell_angle_beta   101.05000000
_cell_angle_gamma   106.05000000
_symmetry_Int_Tables_number   1
_chemical_formula_structural   MnCo3H48(C11O4)6
_chemical_formula_sum   'Mn1 Co3 H48 C66 O24'
_cell_volume   2821.74031752
_cell_formula_units_Z   1
loop_
 _symmetry_equiv_pos_site_id
 _symmetry_equiv_pos_as_xyz
  1  'x, y, z'
loop_
 _atom_site_type_symbol
 _atom_site_label
 _atom_site_symmetry_multiplicity
 _atom_site_fract_x
 _atom_site_fract_y
 _atom_site_fract_z
 _atom_site_occupancy
 _atom_site_charge
Mn  Mn1  1  0.50000000  0.50000000  0.50000000  1.0 1.0886398899
Co  Co1  1  0.78491000  0.62755000  0.58522000  1.0 0.9750709879
Co  Co2  1  0.21509000  0.37245000  0.41478000  1.0 0.9750709879
Co  Co3  1  0.00000000  0.50000000  0.50000000  1.0 1.0776467669
H  H1  1  0.78250000  0.35730000  0.33610000  1.0 0.1079377915
H  H2  1  0.21750000  0.64270000  0.66390000  1.0 0.1079377915
H  H3  1  0.69870000  0.19390000  0.23210000  1.0 0.1220293589
H  H4  1  0.30130000  0.80610000  0.76790000  1.0 0.1220293589
H  H5  1  0.45870000  0.13350000  0.35390000  1.0 0.1380656334
H  H6  1  0.54130000  0.86650000  0.64610000  1.0 0.1380656334
H  H7  1  0.54320000  0.29760000  0.45770000  1.0 0.1220293589
H  H8  1  0.45680000  0.70240000  0.54230000  1.0 0.1220293589
H  H9  1  0.81810000  0.81710000  0.42980000  1.0 0.1220293589
H  H10  1  0.18190000  0.18290000  0.57020000  1.0 0.1220293589
H  H11  1  0.78470000  0.88760000  0.32800000  1.0 0.1380656334
H  H12  1  0.21530000  0.11240000  0.67200000  1.0 0.1380656334
H  H13  1  0.43960000  0.87650000  0.21750000  1.0 0.1079377915
H  H14  1  0.56040000  0.12350000  0.78250000  1.0 0.1079377915
H  H15  1  0.44520000  0.77680000  0.15050000  1.0 0.1011016549
H  H16  1  0.55480000  0.22320000  0.84950000  1.0 0.1011016549
H  H17  1  0.33830000  0.91530000  0.10180000  1.0 0.1011016549
H  H18  1  0.66170000  0.08470000  0.89820000  1.0 0.1011016549
H  H19  1  0.38680000  0.91940000  0.02190000  1.0 0.1079377915
H  H20  1  0.61320000  0.08060000  0.97810000  1.0 0.1079377915
H  H21  1  0.24390000  0.60660000  0.90770000  1.0 0.1380656334
H  H22  1  0.75610000  0.39340000  0.09230000  1.0 0.1380656334
H  H23  1  0.11980000  0.54230000  0.76710000  1.0 0.1283822273
H  H24  1  0.88020000  0.45770000  0.23290000  1.0 0.1283822273
H  H25  1  0.06280000  0.80210000  0.81230000  1.0 0.1220293589
H  H26  1  0.93720000  0.19790000  0.18770000  1.0 0.1220293589
H  H27  1  0.20120000  0.87320000  0.95170000  1.0 0.1283822273
H  H28  1  0.79880000  0.12680000  0.04830000  1.0 0.1283822273
H  H29  1  0.64000000  0.86410000  0.09520000  1.0 0.1011016549
H  H30  1  0.36000000  0.13590000  0.90480000  1.0 0.1011016549
H  H31  1  0.51950000  0.77950000  0.03090000  1.0 0.0948151248
H  H32  1  0.48050000  0.22050000  0.96910000  1.0 0.1011016549
H  H33  1  0.44160000  0.75070000  0.27280000  1.0 0.1220293589
H  H34  1  0.55840000  0.24930000  0.72720000  1.0 0.1220293589
H  H35  1  0.47640000  0.67230000  0.36910000  1.0 0.1283822273
H  H36  1  0.52360000  0.32770000  0.63090000  1.0 0.1283822273
H  H37  1  0.46510000  0.61780000  0.75920000  1.0 0.1220293589
H  H38  1  0.53490000  0.38220000  0.24080000  1.0 0.1283822273
H  H39  1  0.44230000  0.71300000  0.88920000  1.0 0.1220293589
H  H40  1  0.55770000  0.28700000  0.11080000  1.0 0.1220293589
H  H41  1  0.73760000  0.93630000  0.93100000  1.0 0.1283822273
H  H42  1  0.26240000  0.06370000  0.06900000  1.0 0.1283822273
H  H43  1  0.76280000  0.84000000  0.80520000  1.0 0.1220293589
H  H44  1  0.23720000  0.16000000  0.19480000  1.0 0.1220293589
H  H45  1  0.64910000  0.02360000  0.19260000  1.0 0.1011016549
H  H46  1  0.35090000  0.97640000  0.80740000  1.0 0.1011016549
H  H47  1  0.56770000  0.04590000  0.12210000  1.0 0.1079377915
H  H48  1  0.43230000  0.95410000  0.87790000  1.0 0.1079377915
C  C1  1  0.67430000  0.34390000  0.40690000  1.0 -0.0687732567
C  C2  1  0.32570000  0.65610000  0.59310000  1.0 -0.0687732567
C  C3  1  0.71680000  0.31180000  0.34030000  1.0 -0.0687732567
C  C4  1  0.28320000  0.68820000  0.65970000  1.0 -0.0687732567
C  C5  1  0.66720000  0.21450000  0.27800000  1.0 -0.2296875258
C  C6  1  0.33280000  0.78550000  0.72200000  1.0 -0.2296875258
C  C7  1  0.52500000  0.17930000  0.35060000  1.0 -0.2202910566
C  C8  1  0.47500000  0.82070000  0.64940000  1.0 -0.2202910566
C  C9  1  0.57500000  0.27640000  0.41220000  1.0 -0.0687732567
C  C10  1  0.42500000  0.72360000  0.58780000  1.0 -0.0687732567
C  C11  1  0.49920000  0.90070000  0.11690000  1.0 0.0814368772
C  C12  1  0.50080000  0.09930000  0.88310000  1.0 0.0814368772
C  C13  1  0.64990000  0.73530000  0.40830000  1.0 -0.0607113399
C  C14  1  0.35010000  0.26470000  0.59170000  1.0 -0.0607113399
C  C15  1  0.74130000  0.80150000  0.39650000  1.0 -0.0687732567
C  C16  1  0.25870000  0.19850000  0.60350000  1.0 -0.0687732567
C  C17  1  0.72160000  0.84480000  0.33730000  1.0 -0.2202910566
C  C18  1  0.27840000  0.15520000  0.66270000  1.0 -0.2202910566
C  C19  1  0.61010000  0.82560000  0.29150000  1.0 0.2543999302
C  C20  1  0.38990000  0.17440000  0.70850000  1.0 0.2543999302
C  C21  1  0.48530000  0.85020000  0.18150000  1.0 -0.0973484618
C  C22  1  0.51470000  0.14980000  0.81850000  1.0 -0.0973484618
C  C23  1  0.38010000  0.88610000  0.06350000  1.0 -0.0903908973
C  C24  1  0.61990000  0.11390000  0.93650000  1.0 -0.0903908973
C  C25  1  0.23750000  0.74670000  0.93980000  1.0 0.2543999302
C  C26  1  0.76250000  0.25330000  0.06020000  1.0 0.2543999302
C  C27  1  0.21050000  0.64760000  0.88720000  1.0 -0.2296875258
C  C28  1  0.78950000  0.35240000  0.11280000  1.0 -0.2296875258
C  C29  1  0.13480000  0.60900000  0.80470000  1.0 -0.0812393737
C  C30  1  0.86520000  0.39100000  0.19530000  1.0 -0.0812393737
C  C31  1  0.08070000  0.66610000  0.77640000  1.0 -0.0453222011
C  C32  1  0.91930000  0.33390000  0.22360000  1.0 -0.0396804377
C  C33  1  0.10260000  0.76360000  0.83100000  1.0 -0.0812393737
C  C34  1  0.89740000  0.23640000  0.16900000  1.0 -0.0812393737
C  C35  1  0.18390000  0.80590000  0.91440000  1.0 -0.2651487839
C  C36  1  0.81610000  0.19410000  0.08560000  1.0 -0.2646867287
C  C37  1  0.56230000  0.85270000  0.05940000  1.0 -0.0812393737
C  C38  1  0.43770000  0.14730000  0.94060000  1.0 -0.0812393737
C  C39  1  0.51850000  0.76280000  0.30360000  1.0 -0.2481289955
C  C40  1  0.48150000  0.23720000  0.69640000  1.0 -0.2481289955
C  C41  1  0.53970000  0.71710000  0.36160000  1.0 -0.0687732567
C  C42  1  0.46030000  0.28290000  0.63840000  1.0 -0.0687732567
C  C43  1  0.63100000  0.65760000  0.68760000  1.0 0.59110221
C  C44  1  0.36900000  0.34240000  0.31240000  1.0 0.59110221
C  C45  1  0.61470000  0.71850000  0.76990000  1.0 -0.0396804377
C  C46  1  0.38530000  0.28150000  0.23010000  1.0 -0.0396804377
C  C47  1  0.52130000  0.68230000  0.79460000  1.0 -0.0812393737
C  C48  1  0.47870000  0.31770000  0.20540000  1.0 -0.0812393737
C  C49  1  0.50710000  0.73890000  0.87160000  1.0 -0.2202910566
C  C50  1  0.49290000  0.26110000  0.12840000  1.0 -0.2202910566
C  C51  1  0.58840000  0.83240000  0.92120000  1.0 0.2384445417
C  C52  1  0.41160000  0.16760000  0.07880000  1.0 0.2384445417
C  C53  1  0.68280000  0.87090000  0.89640000  1.0 -0.2202910566
C  C54  1  0.31720000  0.12910000  0.10360000  1.0 -0.2202910566
C  C55  1  0.69710000  0.81440000  0.82180000  1.0 -0.0812393737
C  C56  1  0.30290000  0.18560000  0.17820000  1.0 -0.0812393737
C  C57  1  0.57200000  0.14880000  0.28370000  1.0 0.2622950423
C  C58  1  0.42800000  0.85120000  0.71630000  1.0 0.2622950423
C  C59  1  0.56810000  0.01230000  0.16380000  1.0 -0.0903908973
C  C60  1  0.43190000  0.98770000  0.83620000  1.0 -0.0903908973
C  C61  1  0.00090000  0.62370000  0.68420000  1.0 0.59110221
C  C62  1  0.99910000  0.37630000  0.31580000  1.0 0.59110221
C  C63  1  0.72690000  0.44710000  0.47050000  1.0 0.59110221
C  C64  1  0.27310000  0.55290000  0.52950000  1.0 0.59110221
C  C65  1  0.67180000  0.68550000  0.46870000  1.0 0.59110221
C  C66  1  0.32820000  0.31450000  0.53130000  1.0 0.59110221
O  O1  1  0.67331000  0.48238000  0.52227000  1.0 -0.5712828291
O  O2  1  0.32669000  0.51762000  0.47773000  1.0 -0.5712828291
O  O3  1  0.58730000  0.63249000  0.48221000  1.0 -0.5873751295
O  O4  1  0.41270000  0.36751000  0.51779000  1.0 -0.5873751295
O  O5  1  0.00730000  0.54760000  0.63282000  1.0 -0.5777306509
O  O6  1  0.99270000  0.45240000  0.36718000  1.0 -0.5777306509
O  O7  1  0.59890000  0.87220000  0.23467000  1.0 -0.1897932541
O  O8  1  0.40110000  0.12780000  0.76533000  1.0 -0.1897932541
O  O9  1  0.31880000  0.77900000  0.01774000  1.0 -0.1897932541
O  O10  1  0.68120000  0.22100000  0.98226000  1.0 -0.1897932541
O  O11  1  0.93790000  0.67010000  0.66717000  1.0 -0.5364840877
O  O12  1  0.06210000  0.32990000  0.33283000  1.0 -0.5364840877
O  O13  1  0.77500000  0.69850000  0.50406000  1.0 -0.5250926864
O  O14  1  0.22500000  0.30150000  0.49594000  1.0 -0.5245180381
O  O15  1  0.54720000  0.57878000  0.63518000  1.0 -0.5777306509
O  O16  1  0.45280000  0.42122000  0.36482000  1.0 -0.5777306509
O  O17  1  0.72600000  0.69234000  0.67585000  1.0 -0.5496648801
O  O18  1  0.27400000  0.30766000  0.32415000  1.0 -0.5496648801
O  O19  1  0.82392000  0.50457000  0.47484000  1.0 -0.5955935371
O  O20  1  0.17608000  0.49543000  0.52516000  1.0 -0.5955935371
O  O21  1  0.57310000  0.89410000  0.99539000  1.0 -0.2481289955
O  O22  1  0.42690000  0.10590000  0.00461000  1.0 -0.2437482727
O  O23  1  0.51500000  0.05193000  0.22698000  1.0 -0.1839879629
O  O24  1  0.48500000  0.94807000  0.77302000  1.0 -0.1839879629
