# DDEC6 charges by PACMAN v1.1 (https://github.com/mtap-research/PACMAN-charge/)
data_NEGMEU_ASR_pacman
_symmetry_space_group_name_H-M   'P 1'
_cell_length_a   10.08940000
_cell_length_b   10.10060000
_cell_length_c   14.26390000
_cell_angle_alpha   79.89500000
_cell_angle_beta   77.85600000
_cell_angle_gamma   69.36900000
_symmetry_Int_Tables_number   1
_chemical_formula_structural   ZnH13C20N7O4
_chemical_formula_sum   'Zn2 H26 C40 N14 O8'
_cell_volume   1321.77294277
_cell_formula_units_Z   2
loop_
 _symmetry_equiv_pos_site_id
 _symmetry_equiv_pos_as_xyz
  1  'x, y, z'
loop_
 _atom_site_type_symbol
 _atom_site_label
 _atom_site_symmetry_multiplicity
 _atom_site_fract_x
 _atom_site_fract_y
 _atom_site_fract_z
 _atom_site_occupancy
 _atom_site_charge
Zn  Zn1  1  0.86338000  0.39846000  0.97754000  1.0 0.7998036827
Zn  Zn2  1  0.13662000  0.60154000  0.02246000  1.0 0.7998036827
H  H1  1  0.88188000  0.93316000  0.96645000  1.0 0.1374645989
H  H2  1  0.57810000  0.82338000  0.88565000  1.0 0.129485629
H  H3  1  0.53923000  0.23542000  0.87166000  1.0 0.129485629
H  H4  1  0.80582000  0.56193000  0.78055000  1.0 0.1125631194
H  H5  1  0.91731000  0.59687000  0.62463000  1.0 0.129485629
H  H6  1  0.28194000  0.31143000  0.69966000  1.0 0.129485629
H  H7  1  0.16194000  0.28641000  0.85348000  1.0 0.097578228
H  H8  1  0.13491000  0.54118000  0.49794000  1.0 0.097578228
H  H9  1  0.55624000  0.34155000  0.45583000  1.0 0.1125631194
H  H10  1  0.42214000  0.50289000  0.23208000  1.0 0.1374645989
H  H11  1  0.56040000  0.50003000  0.08226000  1.0 0.1195420224
H  H12  1  0.90952000  0.28386000  0.18976000  1.0 0.1125631194
H  H13  1  0.78117000  0.28278000  0.34400000  1.0 0.129485629
H  H14  1  0.11812000  0.06684000  0.03355000  1.0 0.1374645989
H  H15  1  0.42190000  0.17662000  0.11435000  1.0 0.129485629
H  H16  1  0.46077000  0.76458000  0.12834000  1.0 0.129485629
H  H17  1  0.19418000  0.43807000  0.21945000  1.0 0.1125631194
H  H18  1  0.08269000  0.40313000  0.37537000  1.0 0.129485629
H  H19  1  0.71806000  0.68857000  0.30034000  1.0 0.129485629
H  H20  1  0.83806000  0.71359000  0.14652000  1.0 0.097578228
H  H21  1  0.86509000  0.45882000  0.50206000  1.0 0.097578228
H  H22  1  0.44376000  0.65845000  0.54417000  1.0 0.1125631194
H  H23  1  0.57786000  0.49711000  0.76792000  1.0 0.1374645989
H  H24  1  0.43960000  0.49997000  0.91774000  1.0 0.1195420224
H  H25  1  0.09048000  0.71614000  0.81024000  1.0 0.1125631194
H  H26  1  0.21883000  0.71722000  0.65600000  1.0 0.129485629
C  C1  1  0.71770000  0.10210000  0.92260000  1.0 -0.0039825274
C  C2  1  0.79530000  0.95900000  0.94380000  1.0 -0.1354779516
C  C3  1  0.74190000  0.85500000  0.93060000  1.0 -0.0180670757
C  C4  1  0.61380000  0.89290000  0.89420000  1.0 -0.2075278723
C  C5  1  0.54090000  0.03540000  0.87120000  1.0 0.1826979603
C  C6  1  0.59070000  0.13990000  0.88610000  1.0 -0.1769191218
C  C7  1  0.77150000  0.21720000  0.93840000  1.0 0.5381570841
C  C8  1  0.82170000  0.69930000  0.95550000  1.0 0.5656828369
C  C9  1  0.90280000  0.51200000  0.76400000  1.0 0.097578228
C  C10  1  0.96920000  0.53330000  0.67000000  1.0 -0.2075278723
C  C11  1  0.11380000  0.45930000  0.64400000  1.0 0.1195420224
C  C12  1  0.18550000  0.36440000  0.71460000  1.0 -0.1769191218
C  C13  1  0.11250000  0.34940000  0.80680000  1.0 0.097578228
C  C14  1  0.18660000  0.48050000  0.54440000  1.0 0.0265646066
C  C15  1  0.50640000  0.38760000  0.40500000  1.0 0.0481355573
C  C16  1  0.58700000  0.39390000  0.30610000  1.0 0.1125631194
C  C17  1  0.52100000  0.45860000  0.22540000  1.0 -0.1715182477
C  C18  1  0.60500000  0.45570000  0.13560000  1.0 0.097578228
C  C19  1  0.81070000  0.32890000  0.19860000  1.0 0.097578228
C  C20  1  0.73400000  0.32770000  0.29180000  1.0 -0.1974432979
C  C21  1  0.28230000  0.89790000  0.07740000  1.0 -0.0039825274
C  C22  1  0.20470000  0.04100000  0.05620000  1.0 -0.1354779516
C  C23  1  0.25810000  0.14500000  0.06940000  1.0 -0.0180670757
C  C24  1  0.38620000  0.10710000  0.10580000  1.0 -0.2075278723
C  C25  1  0.45910000  0.96460000  0.12880000  1.0 0.1826979603
C  C26  1  0.40930000  0.86010000  0.11390000  1.0 -0.1769191218
C  C27  1  0.22850000  0.78280000  0.06160000  1.0 0.5381570841
C  C28  1  0.17830000  0.30070000  0.04450000  1.0 0.5656828369
C  C29  1  0.09720000  0.48800000  0.23600000  1.0 0.097578228
C  C30  1  0.03080000  0.46670000  0.33000000  1.0 -0.2075278723
C  C31  1  0.88620000  0.54070000  0.35600000  1.0 0.1195420224
C  C32  1  0.81450000  0.63560000  0.28540000  1.0 -0.1769191218
C  C33  1  0.88750000  0.65060000  0.19320000  1.0 0.097578228
C  C34  1  0.81340000  0.51950000  0.45560000  1.0 0.0265646066
C  C35  1  0.49360000  0.61240000  0.59500000  1.0 0.0481355573
C  C36  1  0.41300000  0.60610000  0.69390000  1.0 0.1125631194
C  C37  1  0.47900000  0.54140000  0.77460000  1.0 -0.1715182477
C  C38  1  0.39500000  0.54430000  0.86440000  1.0 0.097578228
C  C39  1  0.18930000  0.67110000  0.80140000  1.0 0.097578228
C  C40  1  0.26600000  0.67230000  0.70820000  1.0 -0.1974432979
N  N1  1  0.41080000  0.08550000  0.83090000  1.0 -0.2540696774
N  N2  1  0.35840000  0.99290000  0.82570000  1.0 0.3523875858
N  N3  1  0.29900000  0.92020000  0.81780000  1.0 -0.1715182477
N  N4  1  0.97300000  0.42210000  0.83200000  1.0 -0.2075278723
N  N5  1  0.32020000  0.41560000  0.52210000  1.0 -0.1769191218
N  N6  1  0.37070000  0.44340000  0.42260000  1.0 -0.1946737234
N  N7  1  0.74800000  0.39220000  0.12120000  1.0 -0.2285115485
N  N8  1  0.58920000  0.91450000  0.16910000  1.0 -0.2540696774
N  N9  1  0.64160000  0.00710000  0.17430000  1.0 0.3523875858
N  N10  1  0.70100000  0.07980000  0.18220000  1.0 -0.1769191218
N  N11  1  0.02700000  0.57790000  0.16800000  1.0 -0.2075278723
N  N12  1  0.67980000  0.58440000  0.47790000  1.0 -0.1769191218
N  N13  1  0.62930000  0.55660000  0.57740000  1.0 -0.1946737234
N  N14  1  0.25200000  0.60780000  0.87880000  1.0 -0.2285115485
O  O1  1  0.69550000  0.34590000  0.92360000  1.0 -0.5588045036
O  O2  1  0.89020000  0.18160000  0.96660000  1.0 -0.5242155705
O  O3  1  0.94890000  0.66530000  0.96660000  1.0 -0.5588045036
O  O4  1  0.75460000  0.61330000  0.96170000  1.0 -0.5374642525
O  O5  1  0.30450000  0.65410000  0.07640000  1.0 -0.5588045036
O  O6  1  0.10980000  0.81840000  0.03340000  1.0 -0.5242155705
O  O7  1  0.05110000  0.33470000  0.03340000  1.0 -0.5588045036
O  O8  1  0.24540000  0.38670000  0.03830000  1.0 -0.5374642525
