# DDEC6 charges by PACMAN v1.1 (https://github.com/mtap-research/PACMAN-charge/)
data_NEGZUW_FSR_pacman
_symmetry_space_group_name_H-M   'P 1'
_cell_length_a   17.29990000
_cell_length_b   18.03960000
_cell_length_c   24.67700000
_cell_angle_alpha   90.00000000
_cell_angle_beta   90.00000000
_cell_angle_gamma   90.00000000
_symmetry_Int_Tables_number   1
_chemical_formula_structural   V5Zn3H13C9N10O19
_chemical_formula_sum   'V40 Zn24 H104 C72 N80 O152'
_cell_volume   7701.27900284
_cell_formula_units_Z   8
loop_
 _symmetry_equiv_pos_site_id
 _symmetry_equiv_pos_as_xyz
  1  'x, y, z'
loop_
 _atom_site_type_symbol
 _atom_site_label
 _atom_site_symmetry_multiplicity
 _atom_site_fract_x
 _atom_site_fract_y
 _atom_site_fract_z
 _atom_site_occupancy
 _atom_site_charge
V  V1  1  0.16317000  0.69448000  0.09232000  1.0 1.9984899262
V  V2  1  0.66317000  0.80552000  0.40768000  1.0 1.9984899262
V  V3  1  0.83683000  0.80552000  0.59232000  1.0 1.9984899262
V  V4  1  0.33683000  0.69448000  0.90768000  1.0 1.9984899262
V  V5  1  0.83683000  0.30552000  0.90768000  1.0 1.9984899262
V  V6  1  0.33683000  0.19448000  0.59232000  1.0 1.9984899262
V  V7  1  0.16317000  0.19448000  0.40768000  1.0 1.9984899262
V  V8  1  0.66317000  0.30552000  0.09232000  1.0 1.9984899262
V  V9  1  0.09580000  0.69825000  0.97687000  1.0 1.9565083583
V  V10  1  0.59580000  0.80175000  0.52313000  1.0 1.9543248017
V  V11  1  0.90420000  0.80175000  0.47687000  1.0 1.9565083583
V  V12  1  0.40420000  0.69825000  0.02313000  1.0 1.9565083583
V  V13  1  0.90420000  0.30175000  0.02313000  1.0 1.9565083583
V  V14  1  0.40420000  0.19825000  0.47687000  1.0 1.9565083583
V  V15  1  0.09580000  0.19825000  0.52313000  1.0 1.9565083583
V  V16  1  0.59580000  0.30175000  0.97687000  1.0 1.9565083583
V  V17  1  0.25000000  0.60701000  0.00000000  1.0 1.9277173081
V  V18  1  0.75000000  0.89299000  0.50000000  1.0 1.9277173081
V  V19  1  0.75000000  0.39299000  0.00000000  1.0 1.9277173081
V  V20  1  0.25000000  0.10701000  0.50000000  1.0 1.9277173081
V  V21  1  0.31821000  0.61363000  0.11506000  1.0 1.9984899262
V  V22  1  0.81821000  0.88637000  0.38494000  1.0 1.9984899262
V  V23  1  0.68179000  0.88637000  0.61506000  1.0 1.9984899262
V  V24  1  0.18179000  0.61363000  0.88494000  1.0 1.9984899262
V  V25  1  0.68179000  0.38637000  0.88494000  1.0 1.9984899262
V  V26  1  0.18179000  0.11363000  0.61506000  1.0 1.9984899262
V  V27  1  0.31821000  0.11363000  0.38494000  1.0 1.9984899262
V  V28  1  0.81821000  0.38637000  0.11506000  1.0 1.9984899262
V  V29  1  0.25000000  0.78807000  0.00000000  1.0 1.9235251147
V  V30  1  0.75000000  0.71193000  0.50000000  1.0 1.9277173081
V  V31  1  0.75000000  0.21193000  0.00000000  1.0 1.9235251147
V  V32  1  0.25000000  0.28807000  0.50000000  1.0 1.9277173081
V  V33  1  0.31794000  0.78330000  0.11444000  1.0 1.9984899262
V  V34  1  0.81794000  0.71670000  0.38556000  1.0 1.9984899262
V  V35  1  0.68206000  0.71670000  0.61444000  1.0 1.9984899262
V  V36  1  0.18206000  0.78330000  0.88556000  1.0 1.9984899262
V  V37  1  0.68206000  0.21670000  0.88556000  1.0 1.9984899262
V  V38  1  0.18206000  0.28330000  0.61444000  1.0 1.9984899262
V  V39  1  0.31794000  0.28330000  0.38556000  1.0 1.9984899262
V  V40  1  0.81794000  0.21670000  0.11444000  1.0 1.9984899262
Zn  Zn1  1  0.30139000  0.65078000  0.33271000  1.0 0.7305907249
Zn  Zn2  1  0.80139000  0.84922000  0.16729000  1.0 0.7305907249
Zn  Zn3  1  0.69861000  0.84922000  0.83271000  1.0 0.7305907249
Zn  Zn4  1  0.19861000  0.65078000  0.66729000  1.0 0.7389021118
Zn  Zn5  1  0.69861000  0.34922000  0.66729000  1.0 0.7305907249
Zn  Zn6  1  0.19861000  0.15078000  0.83271000  1.0 0.7305907249
Zn  Zn7  1  0.30139000  0.15078000  0.16729000  1.0 0.7305907249
Zn  Zn8  1  0.80139000  0.34922000  0.33271000  1.0 0.7305907249
Zn  Zn9  1  0.14919000  0.84948000  0.16775000  1.0 0.7941322922
Zn  Zn10  1  0.64919000  0.65052000  0.33225000  1.0 0.7941322922
Zn  Zn11  1  0.85081000  0.65052000  0.66775000  1.0 0.7973808248
Zn  Zn12  1  0.35081000  0.84948000  0.83225000  1.0 0.7941322922
Zn  Zn13  1  0.85081000  0.15052000  0.83225000  1.0 0.7941322922
Zn  Zn14  1  0.35081000  0.34948000  0.66775000  1.0 0.7973808248
Zn  Zn15  1  0.14919000  0.34948000  0.33225000  1.0 0.7941322922
Zn  Zn16  1  0.64919000  0.15052000  0.16775000  1.0 0.7941322922
Zn  Zn17  1  0.09564000  0.92922000  0.29629000  1.0 0.7305907249
Zn  Zn18  1  0.59564000  0.57078000  0.20371000  1.0 0.7305907249
Zn  Zn19  1  0.90436000  0.57078000  0.79629000  1.0 0.7305907249
Zn  Zn20  1  0.40436000  0.92922000  0.70371000  1.0 0.7305907249
Zn  Zn21  1  0.90436000  0.07078000  0.70371000  1.0 0.7305907249
Zn  Zn22  1  0.40436000  0.42922000  0.79629000  1.0 0.7305907249
Zn  Zn23  1  0.09564000  0.42922000  0.20371000  1.0 0.7305907249
Zn  Zn24  1  0.59564000  0.07078000  0.29629000  1.0 0.7305907249
H  H1  1  0.25250000  0.99110000  0.12820000  1.0 0.1425174956
H  H2  1  0.75250000  0.50890000  0.37180000  1.0 0.1425174956
H  H3  1  0.74750000  0.50890000  0.62820000  1.0 0.1425174956
H  H4  1  0.24750000  0.99110000  0.87180000  1.0 0.1425174956
H  H5  1  0.74750000  0.00890000  0.87180000  1.0 0.1425174956
H  H6  1  0.24750000  0.49110000  0.62820000  1.0 0.1425174956
H  H7  1  0.25250000  0.49110000  0.37180000  1.0 0.1425174956
H  H8  1  0.75250000  0.00890000  0.12820000  1.0 0.1425174956
H  H9  1  0.25250000  0.71750000  0.22400000  1.0 0.1580274005
H  H10  1  0.75250000  0.78250000  0.27600000  1.0 0.1580274005
H  H11  1  0.74750000  0.78250000  0.72400000  1.0 0.1580274005
H  H12  1  0.24750000  0.71750000  0.77600000  1.0 0.1580274005
H  H13  1  0.74750000  0.28250000  0.77600000  1.0 0.1580274005
H  H14  1  0.24750000  0.21750000  0.72400000  1.0 0.1580274005
H  H15  1  0.25250000  0.21750000  0.27600000  1.0 0.1580274005
H  H16  1  0.75250000  0.28250000  0.22400000  1.0 0.1580274005
H  H17  1  0.20010000  0.08200000  0.26710000  1.0 0.1491689884
H  H18  1  0.70010000  0.41800000  0.23290000  1.0 0.1491689884
H  H19  1  0.79990000  0.41800000  0.76710000  1.0 0.1491689884
H  H20  1  0.29990000  0.08200000  0.73290000  1.0 0.1491689884
H  H21  1  0.79990000  0.91800000  0.73290000  1.0 0.1491689884
H  H22  1  0.29990000  0.58200000  0.76710000  1.0 0.1491689884
H  H23  1  0.20010000  0.58200000  0.23290000  1.0 0.1491689884
H  H24  1  0.70010000  0.91800000  0.26710000  1.0 0.1491689884
H  H25  1  0.90950000  0.90460000  0.26730000  1.0 0.1425174956
H  H26  1  0.40950000  0.59540000  0.23270000  1.0 0.1425174956
H  H27  1  0.09050000  0.59540000  0.76730000  1.0 0.1425174956
H  H28  1  0.59050000  0.90460000  0.73270000  1.0 0.1425174956
H  H29  1  0.09050000  0.09540000  0.73270000  1.0 0.1425174956
H  H30  1  0.59050000  0.40460000  0.76730000  1.0 0.1425174956
H  H31  1  0.90950000  0.40460000  0.23270000  1.0 0.1425174956
H  H32  1  0.40950000  0.09540000  0.26730000  1.0 0.1425174956
H  H33  1  0.19980000  0.79970000  0.36610000  1.0 0.1341668714
H  H34  1  0.69980000  0.70030000  0.13390000  1.0 0.1341668714
H  H35  1  0.80020000  0.70030000  0.86610000  1.0 0.1341668714
H  H36  1  0.30020000  0.79970000  0.63390000  1.0 0.1341668714
H  H37  1  0.80020000  0.20030000  0.63390000  1.0 0.1341668714
H  H38  1  0.30020000  0.29970000  0.86610000  1.0 0.1341668714
H  H39  1  0.19980000  0.29970000  0.13390000  1.0 0.1341668714
H  H40  1  0.69980000  0.20030000  0.36610000  1.0 0.1341668714
H  H41  1  0.97160000  0.81020000  0.13120000  1.0 0.1425174956
H  H42  1  0.47160000  0.68980000  0.36880000  1.0 0.1425174956
H  H43  1  0.02840000  0.68980000  0.63120000  1.0 0.1425174956
H  H44  1  0.52840000  0.81020000  0.86880000  1.0 0.1425174956
H  H45  1  0.02840000  0.18980000  0.86880000  1.0 0.1425174956
H  H46  1  0.52840000  0.31020000  0.63120000  1.0 0.1425174956
H  H47  1  0.97160000  0.31020000  0.36880000  1.0 0.1425174956
H  H48  1  0.47160000  0.18980000  0.13120000  1.0 0.1425174956
H  H49  1  0.01140000  0.03950000  0.37390000  1.0 0.1179315068
H  H50  1  0.51140000  0.46050000  0.12610000  1.0 0.1179315068
H  H51  1  0.98860000  0.46050000  0.87390000  1.0 0.1179315068
H  H52  1  0.48860000  0.03950000  0.62610000  1.0 0.1179315068
H  H53  1  0.98860000  0.96050000  0.62610000  1.0 0.1179315068
H  H54  1  0.48860000  0.53950000  0.87390000  1.0 0.1179315068
H  H55  1  0.01140000  0.53950000  0.12610000  1.0 0.1179315068
H  H56  1  0.51140000  0.96050000  0.37390000  1.0 0.1179315068
H  H57  1  0.90700000  0.08120000  0.25710000  1.0 0.1491689884
H  H58  1  0.40700000  0.41880000  0.24290000  1.0 0.1491689884
H  H59  1  0.09300000  0.41880000  0.75710000  1.0 0.1491689884
H  H60  1  0.59300000  0.08120000  0.74290000  1.0 0.1491689884
H  H61  1  0.09300000  0.91880000  0.74290000  1.0 0.1491689884
H  H62  1  0.59300000  0.58120000  0.75710000  1.0 0.1491689884
H  H63  1  0.90700000  0.58120000  0.24290000  1.0 0.1491689884
H  H64  1  0.40700000  0.91880000  0.25710000  1.0 0.1491689884
H  H65  1  0.82940000  0.08600000  0.29220000  1.0 0.1425174956
H  H66  1  0.32940000  0.41400000  0.20780000  1.0 0.1425174956
H  H67  1  0.17060000  0.41400000  0.79220000  1.0 0.1425174956
H  H68  1  0.67060000  0.08600000  0.70780000  1.0 0.1425174956
H  H69  1  0.17060000  0.91400000  0.70780000  1.0 0.1425174956
H  H70  1  0.67060000  0.58600000  0.79220000  1.0 0.1425174956
H  H71  1  0.82940000  0.58600000  0.20780000  1.0 0.1425174956
H  H72  1  0.32940000  0.91400000  0.29220000  1.0 0.1425174956
H  H73  1  0.87820000  0.15950000  0.28000000  1.0 0.1491689884
H  H74  1  0.37820000  0.34050000  0.22000000  1.0 0.1491689884
H  H75  1  0.12180000  0.34050000  0.78000000  1.0 0.1491689884
H  H76  1  0.62180000  0.15950000  0.72000000  1.0 0.1491689884
H  H77  1  0.12180000  0.84050000  0.72000000  1.0 0.1491689884
H  H78  1  0.62180000  0.65950000  0.78000000  1.0 0.1491689884
H  H79  1  0.87820000  0.65950000  0.22000000  1.0 0.1491689884
H  H80  1  0.37820000  0.84050000  0.28000000  1.0 0.1491689884
H  H81  1  0.92450000  0.10400000  0.41860000  1.0 0.1491689884
H  H82  1  0.42450000  0.39600000  0.08140000  1.0 0.1491689884
H  H83  1  0.07550000  0.39600000  0.91860000  1.0 0.1491689884
H  H84  1  0.57550000  0.10400000  0.58140000  1.0 0.1491689884
H  H85  1  0.07550000  0.89600000  0.58140000  1.0 0.1491689884
H  H86  1  0.57550000  0.60400000  0.91860000  1.0 0.1491689884
H  H87  1  0.92450000  0.60400000  0.08140000  1.0 0.1491689884
H  H88  1  0.42450000  0.89600000  0.41860000  1.0 0.1491689884
H  H89  1  0.90090000  0.17780000  0.38660000  1.0 0.1425174956
H  H90  1  0.40090000  0.32220000  0.11340000  1.0 0.1425174956
H  H91  1  0.09910000  0.32220000  0.88660000  1.0 0.1425174956
H  H92  1  0.59910000  0.17780000  0.61340000  1.0 0.1425174956
H  H93  1  0.09910000  0.82220000  0.61340000  1.0 0.1425174956
H  H94  1  0.59910000  0.67780000  0.88660000  1.0 0.1425174956
H  H95  1  0.90090000  0.67780000  0.11340000  1.0 0.1425174956
H  H96  1  0.40090000  0.82220000  0.38660000  1.0 0.1425174956
H  H97  1  0.84170000  0.10970000  0.38990000  1.0 0.1491689884
H  H98  1  0.34170000  0.39030000  0.11010000  1.0 0.1491689884
H  H99  1  0.15830000  0.39030000  0.88990000  1.0 0.1491689884
H  H100  1  0.65830000  0.10970000  0.61010000  1.0 0.1491689884
H  H101  1  0.15830000  0.89030000  0.61010000  1.0 0.1491689884
H  H102  1  0.65830000  0.60970000  0.88990000  1.0 0.1491689884
H  H103  1  0.84170000  0.60970000  0.11010000  1.0 0.1491689884
H  H104  1  0.34170000  0.89030000  0.38990000  1.0 0.1491689884
C  C1  1  0.23110000  0.99950000  0.16314000  1.0 0.1873106782
C  C2  1  0.73110000  0.50050000  0.33686000  1.0 0.1873106782
C  C3  1  0.76890000  0.50050000  0.66314000  1.0 0.1873106782
C  C4  1  0.26890000  0.99950000  0.83686000  1.0 0.1873106782
C  C5  1  0.76890000  0.00050000  0.83686000  1.0 0.1873106782
C  C6  1  0.26890000  0.49950000  0.66314000  1.0 0.1873106782
C  C7  1  0.23110000  0.49950000  0.33686000  1.0 0.1873106782
C  C8  1  0.73110000  0.00050000  0.16314000  1.0 0.1873106782
C  C9  1  0.23130000  0.74810000  0.25166000  1.0 0.1873106782
C  C10  1  0.73130000  0.75190000  0.24834000  1.0 0.1873106782
C  C11  1  0.76870000  0.75190000  0.75166000  1.0 0.1873106782
C  C12  1  0.26870000  0.74810000  0.74834000  1.0 0.1873106782
C  C13  1  0.76870000  0.25190000  0.74834000  1.0 0.1873106782
C  C14  1  0.26870000  0.24810000  0.75166000  1.0 0.1873106782
C  C15  1  0.23130000  0.24810000  0.24834000  1.0 0.1873106782
C  C16  1  0.73130000  0.25190000  0.25166000  1.0 0.1873106782
C  C17  1  0.20270000  0.04830000  0.23761000  1.0 0.1762791325
C  C18  1  0.70270000  0.45170000  0.26239000  1.0 0.1762791325
C  C19  1  0.79730000  0.45170000  0.73761000  1.0 0.1762791325
C  C20  1  0.29730000  0.04830000  0.76239000  1.0 0.1762791325
C  C21  1  0.79730000  0.95170000  0.76239000  1.0 0.1762791325
C  C22  1  0.29730000  0.54830000  0.73761000  1.0 0.1762791325
C  C23  1  0.20270000  0.54830000  0.26239000  1.0 0.1762791325
C  C24  1  0.70270000  0.95170000  0.23761000  1.0 0.1762791325
C  C25  1  0.93990000  0.88470000  0.23871000  1.0 0.1762791325
C  C26  1  0.43990000  0.61530000  0.26129000  1.0 0.1762791325
C  C27  1  0.06010000  0.61530000  0.73871000  1.0 0.1762791325
C  C28  1  0.56010000  0.88470000  0.76129000  1.0 0.1762791325
C  C29  1  0.06010000  0.11530000  0.76129000  1.0 0.1762791325
C  C30  1  0.56010000  0.38470000  0.73871000  1.0 0.1762791325
C  C31  1  0.93990000  0.38470000  0.26129000  1.0 0.1762791325
C  C32  1  0.43990000  0.11530000  0.23871000  1.0 0.1762791325
C  C33  1  0.20290000  0.79230000  0.32800000  1.0 0.1762791325
C  C34  1  0.70290000  0.70770000  0.17200000  1.0 0.1762791325
C  C35  1  0.79710000  0.70770000  0.82800000  1.0 0.1762791325
C  C36  1  0.29710000  0.79230000  0.67200000  1.0 0.1762791325
C  C37  1  0.79710000  0.20770000  0.67200000  1.0 0.1762791325
C  C38  1  0.29710000  0.29230000  0.82800000  1.0 0.1762791325
C  C39  1  0.20290000  0.29230000  0.17200000  1.0 0.1762791325
C  C40  1  0.70290000  0.20770000  0.32800000  1.0 0.1762791325
C  C41  1  0.97310000  0.83390000  0.16555000  1.0 0.1873106782
C  C42  1  0.47310000  0.66610000  0.33445000  1.0 0.1873106782
C  C43  1  0.02690000  0.66610000  0.66555000  1.0 0.1873106782
C  C44  1  0.52690000  0.83390000  0.83445000  1.0 0.1873106782
C  C45  1  0.02690000  0.16610000  0.83445000  1.0 0.1873106782
C  C46  1  0.52690000  0.33390000  0.66555000  1.0 0.1873106782
C  C47  1  0.97310000  0.33390000  0.33445000  1.0 0.1873106782
C  C48  1  0.47310000  0.16610000  0.16555000  1.0 0.1873106782
C  C49  1  0.98880000  0.04990000  0.33960000  1.0 0.3429085735
C  C50  1  0.48880000  0.45010000  0.16040000  1.0 0.3429085735
C  C51  1  0.01120000  0.45010000  0.83960000  1.0 0.3429085735
C  C52  1  0.51120000  0.04990000  0.66040000  1.0 0.3429085735
C  C53  1  0.01120000  0.95010000  0.66040000  1.0 0.3429085735
C  C54  1  0.51120000  0.54990000  0.83960000  1.0 0.3429085735
C  C55  1  0.98880000  0.54990000  0.16040000  1.0 0.3429085735
C  C56  1  0.48880000  0.95010000  0.33960000  1.0 0.3429085735
C  C57  1  0.88150000  0.10620000  0.28750000  1.0 -0.3171607902
C  C58  1  0.38150000  0.39380000  0.21250000  1.0 -0.3171607902
C  C59  1  0.11850000  0.39380000  0.78750000  1.0 -0.3171607902
C  C60  1  0.61850000  0.10620000  0.71250000  1.0 -0.3171607902
C  C61  1  0.11850000  0.89380000  0.71250000  1.0 -0.3171607902
C  C62  1  0.61850000  0.60620000  0.78750000  1.0 -0.3171607902
C  C63  1  0.88150000  0.60620000  0.21250000  1.0 -0.3171607902
C  C64  1  0.38150000  0.89380000  0.28750000  1.0 -0.3171607902
C  C65  1  0.89640000  0.12370000  0.38720000  1.0 -0.3032359581
C  C66  1  0.39640000  0.37630000  0.11280000  1.0 -0.3032359581
C  C67  1  0.10360000  0.37630000  0.88720000  1.0 -0.3032359581
C  C68  1  0.60360000  0.12370000  0.61280000  1.0 -0.3032359581
C  C69  1  0.10360000  0.87630000  0.61280000  1.0 -0.3032359581
C  C70  1  0.60360000  0.62370000  0.88720000  1.0 -0.3032359581
C  C71  1  0.89640000  0.62370000  0.11280000  1.0 -0.3032359581
C  C72  1  0.39640000  0.87630000  0.38720000  1.0 -0.3032359581
N  N1  1  0.24380000  0.73735000  0.30449000  1.0 -0.3171607902
N  N2  1  0.74380000  0.76265000  0.19551000  1.0 -0.3171607902
N  N3  1  0.75620000  0.76265000  0.80449000  1.0 -0.3171607902
N  N4  1  0.25620000  0.73735000  0.69551000  1.0 -0.3171607902
N  N5  1  0.75620000  0.26265000  0.69551000  1.0 -0.3171607902
N  N6  1  0.25620000  0.23735000  0.80449000  1.0 -0.3171607902
N  N7  1  0.24380000  0.23735000  0.19551000  1.0 -0.3171607902
N  N8  1  0.74380000  0.26265000  0.30449000  1.0 -0.3171607902
N  N9  1  0.24430000  0.06100000  0.19228000  1.0 -0.3171607902
N  N10  1  0.74430000  0.43900000  0.30772000  1.0 -0.3171607902
N  N11  1  0.75570000  0.43900000  0.69228000  1.0 -0.3171607902
N  N12  1  0.25570000  0.06100000  0.80772000  1.0 -0.3171607902
N  N13  1  0.75570000  0.93900000  0.80772000  1.0 -0.3171607902
N  N14  1  0.25570000  0.56100000  0.69228000  1.0 -0.3171607902
N  N15  1  0.24430000  0.56100000  0.30772000  1.0 -0.3171607902
N  N16  1  0.74430000  0.93900000  0.19228000  1.0 -0.3171607902
N  N17  1  0.18600000  0.95268000  0.18762000  1.0 -0.1697197992
N  N18  1  0.68600000  0.54732000  0.31238000  1.0 -0.1697197992
N  N19  1  0.81400000  0.54732000  0.68762000  1.0 -0.1697197992
N  N20  1  0.31400000  0.95268000  0.81238000  1.0 -0.1697197992
N  N21  1  0.81400000  0.04732000  0.81238000  1.0 -0.1697197992
N  N22  1  0.31400000  0.45268000  0.68762000  1.0 -0.1697197992
N  N23  1  0.18600000  0.45268000  0.31238000  1.0 -0.1697197992
N  N24  1  0.68600000  0.04732000  0.18762000  1.0 -0.1697197992
N  N25  1  0.03709000  0.85100000  0.19096000  1.0 -0.1697197992
N  N26  1  0.53709000  0.64900000  0.30904000  1.0 -0.1697197992
N  N27  1  0.96291000  0.64900000  0.69096000  1.0 -0.1697197992
N  N28  1  0.46291000  0.85100000  0.80904000  1.0 -0.1697197992
N  N29  1  0.96291000  0.14900000  0.80904000  1.0 -0.1697197992
N  N30  1  0.46291000  0.35100000  0.69096000  1.0 -0.1697197992
N  N31  1  0.03709000  0.35100000  0.30904000  1.0 -0.1697197992
N  N32  1  0.53709000  0.14900000  0.19096000  1.0 -0.1697197992
N  N33  1  0.16650000  0.98480000  0.23664000  1.0 -0.1898303862
N  N34  1  0.66650000  0.51520000  0.26336000  1.0 -0.1898303862
N  N35  1  0.83350000  0.51520000  0.73664000  1.0 -0.1898303862
N  N36  1  0.33350000  0.98480000  0.76336000  1.0 -0.1898303862
N  N37  1  0.83350000  0.01520000  0.76336000  1.0 -0.1898303862
N  N38  1  0.33350000  0.48480000  0.73664000  1.0 -0.1898303862
N  N39  1  0.16650000  0.48480000  0.26336000  1.0 -0.1898303862
N  N40  1  0.66650000  0.01520000  0.23664000  1.0 -0.1898303862
N  N41  1  0.16775000  0.83444000  0.29203000  1.0 -0.1785588787
N  N42  1  0.66775000  0.66556000  0.20797000  1.0 -0.1785588787
N  N43  1  0.83225000  0.66556000  0.79203000  1.0 -0.1785588787
N  N44  1  0.33225000  0.83444000  0.70797000  1.0 -0.1785588787
N  N45  1  0.83225000  0.16556000  0.70797000  1.0 -0.1785588787
N  N46  1  0.33225000  0.33444000  0.79203000  1.0 -0.1785588787
N  N47  1  0.16775000  0.33444000  0.20797000  1.0 -0.1785588787
N  N48  1  0.66775000  0.16556000  0.29203000  1.0 -0.1785588787
N  N49  1  0.18690000  0.80520000  0.24209000  1.0 -0.1785588787
N  N50  1  0.68690000  0.69480000  0.25791000  1.0 -0.1785588787
N  N51  1  0.81310000  0.69480000  0.74209000  1.0 -0.1785588787
N  N52  1  0.31310000  0.80520000  0.75791000  1.0 -0.1785588787
N  N53  1  0.81310000  0.19480000  0.75791000  1.0 -0.1785588787
N  N54  1  0.31310000  0.30520000  0.74209000  1.0 -0.1785588787
N  N55  1  0.18690000  0.30520000  0.25791000  1.0 -0.1785588787
N  N56  1  0.68690000  0.19480000  0.24209000  1.0 -0.1785588787
N  N57  1  0.01585000  0.88416000  0.23863000  1.0 -0.1785588787
N  N58  1  0.51585000  0.61584000  0.26137000  1.0 -0.1785588787
N  N59  1  0.98415000  0.61584000  0.73863000  1.0 -0.1785588787
N  N60  1  0.48415000  0.88416000  0.76137000  1.0 -0.1785588787
N  N61  1  0.98415000  0.11584000  0.76137000  1.0 -0.1785588787
N  N62  1  0.48415000  0.38416000  0.73863000  1.0 -0.1785588787
N  N63  1  0.01585000  0.38416000  0.26137000  1.0 -0.1785588787
N  N64  1  0.51585000  0.11584000  0.23863000  1.0 -0.1785588787
N  N65  1  0.90990000  0.85350000  0.19347000  1.0 -0.3123764235
N  N66  1  0.40990000  0.64650000  0.30653000  1.0 -0.3123764235
N  N67  1  0.09010000  0.64650000  0.69347000  1.0 -0.3123764235
N  N68  1  0.59010000  0.85350000  0.80653000  1.0 -0.3123764235
N  N69  1  0.09010000  0.14650000  0.80653000  1.0 -0.3123764235
N  N70  1  0.59010000  0.35350000  0.69347000  1.0 -0.3123764235
N  N71  1  0.90990000  0.35350000  0.30653000  1.0 -0.3123764235
N  N72  1  0.40990000  0.14650000  0.19347000  1.0 -0.3123764235
N  N73  1  0.92810000  0.09390000  0.33900000  1.0 0.0557456512
N  N74  1  0.42810000  0.40610000  0.16100000  1.0 0.0557456512
N  N75  1  0.07190000  0.40610000  0.83900000  1.0 0.0557456512
N  N76  1  0.57190000  0.09390000  0.66100000  1.0 0.0557456512
N  N77  1  0.07190000  0.90610000  0.66100000  1.0 0.0557456512
N  N78  1  0.57190000  0.59390000  0.83900000  1.0 0.0557456512
N  N79  1  0.92810000  0.59390000  0.16100000  1.0 0.0557456512
N  N80  1  0.42810000  0.90610000  0.33900000  1.0 0.0557456512
O  O1  1  0.27948000  0.84487000  0.05039000  1.0 -0.749528649
O  O2  1  0.77948000  0.65513000  0.44961000  1.0 -0.749528649
O  O3  1  0.72052000  0.65513000  0.55039000  1.0 -0.749528649
O  O4  1  0.22052000  0.84487000  0.94961000  1.0 -0.749528649
O  O5  1  0.72052000  0.15513000  0.94961000  1.0 -0.749528649
O  O6  1  0.22052000  0.34487000  0.55039000  1.0 -0.749528649
O  O7  1  0.27948000  0.34487000  0.44961000  1.0 -0.749528649
O  O8  1  0.77948000  0.15513000  0.05039000  1.0 -0.749528649
O  O9  1  0.14883000  0.76580000  0.02880000  1.0 -0.9862429898
O  O10  1  0.64883000  0.73420000  0.47120000  1.0 -0.9862429898
O  O11  1  0.85117000  0.73420000  0.52880000  1.0 -0.9862429898
O  O12  1  0.35117000  0.76580000  0.97120000  1.0 -0.9862429898
O  O13  1  0.85117000  0.23420000  0.97120000  1.0 -0.9862429898
O  O14  1  0.35117000  0.26580000  0.52880000  1.0 -0.9862429898
O  O15  1  0.14883000  0.26580000  0.47120000  1.0 -0.9862429898
O  O16  1  0.64883000  0.23420000  0.02880000  1.0 -0.9862429898
O  O17  1  0.27966000  0.55116000  0.05087000  1.0 -0.7301152076
O  O18  1  0.77966000  0.94884000  0.44913000  1.0 -0.7301152076
O  O19  1  0.72034000  0.94884000  0.55087000  1.0 -0.7301152076
O  O20  1  0.22034000  0.55116000  0.94913000  1.0 -0.7301152076
O  O21  1  0.72034000  0.44884000  0.94913000  1.0 -0.7301152076
O  O22  1  0.22034000  0.05116000  0.55087000  1.0 -0.7301152076
O  O23  1  0.27966000  0.05116000  0.44913000  1.0 -0.7301152076
O  O24  1  0.77966000  0.44884000  0.05087000  1.0 -0.7301152076
O  O25  1  0.33874000  0.69846000  0.15240000  1.0 -0.8837656926
O  O26  1  0.83874000  0.80154000  0.34760000  1.0 -0.8837656926
O  O27  1  0.66126000  0.80154000  0.65240000  1.0 -0.8837656926
O  O28  1  0.16126000  0.69846000  0.84760000  1.0 -0.8837656926
O  O29  1  0.66126000  0.30154000  0.84760000  1.0 -0.8837656926
O  O30  1  0.16126000  0.19846000  0.65240000  1.0 -0.8837656926
O  O31  1  0.33874000  0.19846000  0.34760000  1.0 -0.8837656926
O  O32  1  0.83874000  0.30154000  0.15240000  1.0 -0.8837656926
O  O33  1  0.14835000  0.62897000  0.02876000  1.0 -1.0079264145
O  O34  1  0.64835000  0.87103000  0.47124000  1.0 -1.0079264145
O  O35  1  0.85165000  0.87103000  0.52876000  1.0 -1.0079264145
O  O36  1  0.35165000  0.62897000  0.97124000  1.0 -1.0079264145
O  O37  1  0.85165000  0.37103000  0.97124000  1.0 -1.0079264145
O  O38  1  0.35165000  0.12897000  0.52876000  1.0 -1.0079264145
O  O39  1  0.14835000  0.12897000  0.47124000  1.0 -1.0079264145
O  O40  1  0.64835000  0.37103000  0.02876000  1.0 -1.0079264145
O  O41  1  0.09221000  0.62403000  0.92652000  1.0 -0.8437026243
O  O42  1  0.59221000  0.87597000  0.57348000  1.0 -0.8437026243
O  O43  1  0.90779000  0.87597000  0.42652000  1.0 -0.8437026243
O  O44  1  0.40779000  0.62403000  0.07348000  1.0 -0.8437026243
O  O45  1  0.90779000  0.37597000  0.07348000  1.0 -0.8437026243
O  O46  1  0.40779000  0.12403000  0.42652000  1.0 -0.8437026243
O  O47  1  0.09221000  0.12403000  0.57348000  1.0 -0.8437026243
O  O48  1  0.59221000  0.37597000  0.92652000  1.0 -0.8437026243
O  O49  1  0.27869000  0.69773000  0.05043000  1.0 -1.1804368895
O  O50  1  0.77869000  0.80227000  0.44957000  1.0 -1.1804368895
O  O51  1  0.72131000  0.80227000  0.55043000  1.0 -1.1804368895
O  O52  1  0.22131000  0.69773000  0.94957000  1.0 -1.1804368895
O  O53  1  0.72131000  0.30227000  0.94957000  1.0 -1.1804368895
O  O54  1  0.22131000  0.19773000  0.55043000  1.0 -1.1804368895
O  O55  1  0.27869000  0.19773000  0.44957000  1.0 -1.1804368895
O  O56  1  0.77869000  0.30227000  0.05043000  1.0 -1.1804368895
O  O57  1  0.09249000  0.77281000  0.92680000  1.0 -0.8930819507
O  O58  1  0.59249000  0.72719000  0.57320000  1.0 -0.8930819507
O  O59  1  0.90751000  0.72719000  0.42680000  1.0 -0.8930819507
O  O60  1  0.40751000  0.77281000  0.07320000  1.0 -0.8930819507
O  O61  1  0.90751000  0.22719000  0.07320000  1.0 -0.8930819507
O  O62  1  0.40751000  0.27281000  0.42680000  1.0 -0.8930819507
O  O63  1  0.09249000  0.27281000  0.57320000  1.0 -0.8930819507
O  O64  1  0.59249000  0.22719000  0.92680000  1.0 -0.8930819507
O  O65  1  0.21017000  0.62264000  0.13006000  1.0 -0.8512303333
O  O66  1  0.71017000  0.87736000  0.36994000  1.0 -0.8512303333
O  O67  1  0.78983000  0.87736000  0.63006000  1.0 -0.8512303333
O  O68  1  0.28983000  0.62264000  0.86994000  1.0 -0.8512303333
O  O69  1  0.78983000  0.37736000  0.86994000  1.0 -0.8512303333
O  O70  1  0.28983000  0.12264000  0.63006000  1.0 -0.8512303333
O  O71  1  0.21017000  0.12264000  0.36994000  1.0 -0.8512303333
O  O72  1  0.71017000  0.37736000  0.13006000  1.0 -0.8512303333
O  O73  1  0.07687000  0.69740000  0.11641000  1.0 -0.6135992806
O  O74  1  0.57687000  0.80260000  0.38359000  1.0 -0.6135992806
O  O75  1  0.92313000  0.80260000  0.61641000  1.0 -0.6135992806
O  O76  1  0.42313000  0.69740000  0.88359000  1.0 -0.6135992806
O  O77  1  0.92313000  0.30260000  0.88359000  1.0 -0.6135992806
O  O78  1  0.42313000  0.19740000  0.61641000  1.0 -0.6135992806
O  O79  1  0.07687000  0.19740000  0.38359000  1.0 -0.6135992806
O  O80  1  0.57687000  0.30260000  0.11641000  1.0 -0.6135992806
O  O81  1  0.20939000  0.77336000  0.12860000  1.0 -0.9343559544
O  O82  1  0.70939000  0.72664000  0.37140000  1.0 -0.9343559544
O  O83  1  0.79061000  0.72664000  0.62860000  1.0 -0.9343559544
O  O84  1  0.29061000  0.77336000  0.87140000  1.0 -0.9343559544
O  O85  1  0.79061000  0.22664000  0.87140000  1.0 -0.9343559544
O  O86  1  0.29061000  0.27336000  0.62860000  1.0 -0.9343559544
O  O87  1  0.20939000  0.27336000  0.37140000  1.0 -0.9343559544
O  O88  1  0.70939000  0.22664000  0.12860000  1.0 -0.9343559544
O  O89  1  0.34097000  0.54970000  0.15697000  1.0 -0.5780369367
O  O90  1  0.84097000  0.95030000  0.34303000  1.0 -0.5780369367
O  O91  1  0.65903000  0.95030000  0.65697000  1.0 -0.5780369367
O  O92  1  0.15903000  0.54970000  0.84303000  1.0 -0.5780369367
O  O93  1  0.65903000  0.45030000  0.84303000  1.0 -0.5780369367
O  O94  1  0.15903000  0.04970000  0.65697000  1.0 -0.5780369367
O  O95  1  0.34097000  0.04970000  0.34303000  1.0 -0.5780369367
O  O96  1  0.84097000  0.45030000  0.15697000  1.0 -0.5780369367
O  O97  1  0.03710000  0.87160000  0.36155000  1.0 -0.1495765846
O  O98  1  0.53710000  0.62840000  0.13845000  1.0 -0.1495765846
O  O99  1  0.96290000  0.62840000  0.86155000  1.0 -0.1495765846
O  O100  1  0.46290000  0.87160000  0.63845000  1.0 -0.1495765846
O  O101  1  0.96290000  0.12840000  0.63845000  1.0 -0.1495765846
O  O102  1  0.46290000  0.37160000  0.86155000  1.0 -0.1495765846
O  O103  1  0.03710000  0.37160000  0.13845000  1.0 -0.1495765846
O  O104  1  0.53710000  0.12840000  0.36155000  1.0 -0.1495765846
O  O105  1  0.00934000  0.69875000  0.00108000  1.0 -0.5657947461
O  O106  1  0.50934000  0.80125000  0.49892000  1.0 -0.5657947461
O  O107  1  0.99066000  0.80125000  0.50108000  1.0 -0.5657947461
O  O108  1  0.49066000  0.69875000  0.99892000  1.0 -0.5645147364
O  O109  1  0.99066000  0.30125000  0.99892000  1.0 -0.5657947461
O  O110  1  0.49066000  0.19875000  0.50108000  1.0 -0.5657947461
O  O111  1  0.00934000  0.19875000  0.49892000  1.0 -0.5657947461
O  O112  1  0.50934000  0.30125000  0.00108000  1.0 -0.5657947461
O  O113  1  0.01890000  0.02110000  0.29987000  1.0 -0.4348569741
O  O114  1  0.51890000  0.47890000  0.20013000  1.0 -0.4348569741
O  O115  1  0.98110000  0.47890000  0.79987000  1.0 -0.4348569741
O  O116  1  0.48110000  0.02110000  0.70013000  1.0 -0.4348569741
O  O117  1  0.98110000  0.97890000  0.70013000  1.0 -0.4356373649
O  O118  1  0.48110000  0.52110000  0.79987000  1.0 -0.4348569741
O  O119  1  0.01890000  0.52110000  0.20013000  1.0 -0.4348569741
O  O120  1  0.51890000  0.97890000  0.29987000  1.0 -0.4348569741
O  O121  1  0.16180000  0.97570000  0.35999000  1.0 -0.1898303862
O  O122  1  0.66180000  0.52430000  0.14001000  1.0 -0.2005252819
O  O123  1  0.83820000  0.52430000  0.85999000  1.0 -0.2005252819
O  O124  1  0.33820000  0.97570000  0.64001000  1.0 -0.2069159995
O  O125  1  0.83820000  0.02430000  0.64001000  1.0 -0.2005252819
O  O126  1  0.33820000  0.47570000  0.85999000  1.0 -0.2005252819
O  O127  1  0.16180000  0.47570000  0.14001000  1.0 -0.2005252819
O  O128  1  0.66180000  0.02430000  0.35999000  1.0 -0.1898303862
O  O129  1  0.11050000  0.88740000  0.08647000  1.0 -0.1278614502
O  O130  1  0.61050000  0.61260000  0.41353000  1.0 -0.1393740903
O  O131  1  0.88950000  0.61260000  0.58647000  1.0 -0.1393740903
O  O132  1  0.38950000  0.88740000  0.91353000  1.0 -0.1393740903
O  O133  1  0.88950000  0.11260000  0.91353000  1.0 -0.1393740903
O  O134  1  0.38950000  0.38740000  0.58647000  1.0 -0.1495765846
O  O135  1  0.11050000  0.38740000  0.41353000  1.0 -0.1393740903
O  O136  1  0.61050000  0.11260000  0.08647000  1.0 -0.1278614502
O  O137  1  0.33963000  0.84892000  0.15553000  1.0 -0.603289875
O  O138  1  0.83963000  0.65108000  0.34447000  1.0 -0.603289875
O  O139  1  0.66037000  0.65108000  0.65553000  1.0 -0.603289875
O  O140  1  0.16037000  0.84892000  0.84447000  1.0 -0.603289875
O  O141  1  0.66037000  0.15108000  0.84447000  1.0 -0.603289875
O  O142  1  0.16037000  0.34892000  0.65553000  1.0 -0.603289875
O  O143  1  0.33963000  0.34892000  0.34447000  1.0 -0.603289875
O  O144  1  0.83963000  0.15108000  0.15553000  1.0 -0.603289875
O  O145  1  0.30570000  0.65330000  0.41340000  1.0 -0.5195794429
O  O146  1  0.80570000  0.84670000  0.08660000  1.0 -0.5195794429
O  O147  1  0.69430000  0.84670000  0.91340000  1.0 -0.5195794429
O  O148  1  0.19430000  0.65330000  0.58660000  1.0 -0.5195794429
O  O149  1  0.69430000  0.34670000  0.58660000  1.0 -0.5195794429
O  O150  1  0.19430000  0.15330000  0.91340000  1.0 -0.5195794429
O  O151  1  0.30570000  0.15330000  0.08660000  1.0 -0.5195794429
O  O152  1  0.80570000  0.34670000  0.41340000  1.0 -0.5195794429
