# DDEC6 charges by PACMAN v1.1 (https://github.com/mtap-research/PACMAN-charge/)
data_NEHGIS_ion_pacman
_symmetry_space_group_name_H-M   'P 1'
_cell_length_a   19.49860000
_cell_length_b   19.49860000
_cell_length_c   19.49860000
_cell_angle_alpha   109.47100000
_cell_angle_beta   109.47100000
_cell_angle_gamma   109.47100000
_symmetry_Int_Tables_number   1
_chemical_formula_structural   Zn6H26C44N6O31
_chemical_formula_sum   'Zn24 H104 C176 N24 O124'
_cell_volume   5706.79073159
_cell_formula_units_Z   4
loop_
 _symmetry_equiv_pos_site_id
 _symmetry_equiv_pos_as_xyz
  1  'x, y, z'
loop_
 _atom_site_type_symbol
 _atom_site_label
 _atom_site_symmetry_multiplicity
 _atom_site_fract_x
 _atom_site_fract_y
 _atom_site_fract_z
 _atom_site_occupancy
 _atom_site_charge
Zn  Zn1  1  0.44120000  0.88122000  0.91480000  1.0 0.5890809838
Zn  Zn2  1  0.46642000  0.52640000  0.58520000  1.0 0.5890809838
Zn  Zn3  1  0.03358000  0.61878000  0.05998000  1.0 0.5890809838
Zn  Zn4  1  0.05880000  0.97360000  0.44002000  1.0 0.5890809838
Zn  Zn5  1  0.91480000  0.44120000  0.88122000  1.0 0.5890809838
Zn  Zn6  1  0.58520000  0.46642000  0.52640000  1.0 0.5890809838
Zn  Zn7  1  0.05998000  0.03358000  0.61878000  1.0 0.5890809838
Zn  Zn8  1  0.44002000  0.05880000  0.97360000  1.0 0.5890809838
Zn  Zn9  1  0.88122000  0.91480000  0.44120000  1.0 0.5890809838
Zn  Zn10  1  0.52640000  0.58520000  0.46642000  1.0 0.5890809838
Zn  Zn11  1  0.61878000  0.05998000  0.03358000  1.0 0.5890809838
Zn  Zn12  1  0.97360000  0.44002000  0.05880000  1.0 0.5890809838
Zn  Zn13  1  0.55880000  0.11878000  0.08520000  1.0 0.5890809838
Zn  Zn14  1  0.53358000  0.47360000  0.41480000  1.0 0.5890809838
Zn  Zn15  1  0.96642000  0.38122000  0.94002000  1.0 0.5890809838
Zn  Zn16  1  0.94120000  0.02640000  0.55998000  1.0 0.5890809838
Zn  Zn17  1  0.08520000  0.55880000  0.11878000  1.0 0.5890809838
Zn  Zn18  1  0.41480000  0.53358000  0.47360000  1.0 0.5890809838
Zn  Zn19  1  0.94002000  0.96642000  0.38122000  1.0 0.5890809838
Zn  Zn20  1  0.55998000  0.94120000  0.02640000  1.0 0.5890809838
Zn  Zn21  1  0.11878000  0.08520000  0.55880000  1.0 0.5890809838
Zn  Zn22  1  0.47360000  0.41480000  0.53358000  1.0 0.5890809838
Zn  Zn23  1  0.38122000  0.94002000  0.96642000  1.0 0.5890809838
Zn  Zn24  1  0.02640000  0.55998000  0.94120000  1.0 0.5890809838
H  H1  1  0.47080000  0.73360000  0.07880000  1.0 0.1237214152
H  H2  1  0.15480000  0.39200000  0.42120000  1.0 0.1237214152
H  H3  1  0.34520000  0.76640000  0.23720000  1.0 0.1237214152
H  H4  1  0.02920000  0.10800000  0.26280000  1.0 0.1237214152
H  H5  1  0.07880000  0.47080000  0.73360000  1.0 0.1237214152
H  H6  1  0.42120000  0.15480000  0.39200000  1.0 0.1237214152
H  H7  1  0.23720000  0.34520000  0.76640000  1.0 0.1237214152
H  H8  1  0.26280000  0.02920000  0.10800000  1.0 0.1237214152
H  H9  1  0.73360000  0.07880000  0.47080000  1.0 0.1237214152
H  H10  1  0.39200000  0.42120000  0.15480000  1.0 0.1237214152
H  H11  1  0.76640000  0.23720000  0.34520000  1.0 0.1237214152
H  H12  1  0.10800000  0.26280000  0.02920000  1.0 0.1237214152
H  H13  1  0.52920000  0.26640000  0.92120000  1.0 0.1237214152
H  H14  1  0.84520000  0.60800000  0.57880000  1.0 0.1237214152
H  H15  1  0.65480000  0.23360000  0.76280000  1.0 0.1237214152
H  H16  1  0.97080000  0.89200000  0.73720000  1.0 0.1237214152
H  H17  1  0.92120000  0.52920000  0.26640000  1.0 0.1237214152
H  H18  1  0.57880000  0.84520000  0.60800000  1.0 0.1237214152
H  H19  1  0.76280000  0.65480000  0.23360000  1.0 0.1237214152
H  H20  1  0.73720000  0.97080000  0.89200000  1.0 0.1237214152
H  H21  1  0.26640000  0.92120000  0.52920000  1.0 0.1237214152
H  H22  1  0.60800000  0.57880000  0.84520000  1.0 0.1237214152
H  H23  1  0.23360000  0.76280000  0.65480000  1.0 0.1237214152
H  H24  1  0.89200000  0.73720000  0.97080000  1.0 0.1237214152
H  H25  1  0.40130000  0.61680000  0.08570000  1.0 0.1395042036
H  H26  1  0.03110000  0.31560000  0.41430000  1.0 0.1395042036
H  H27  1  0.46890000  0.88320000  0.28450000  1.0 0.1395042036
H  H28  1  0.09870000  0.18440000  0.21550000  1.0 0.1395042036
H  H29  1  0.08570000  0.40130000  0.61680000  1.0 0.1395042036
H  H30  1  0.41430000  0.03110000  0.31560000  1.0 0.1395042036
H  H31  1  0.28450000  0.46890000  0.88320000  1.0 0.1395042036
H  H32  1  0.21550000  0.09870000  0.18440000  1.0 0.1395042036
H  H33  1  0.61680000  0.08570000  0.40130000  1.0 0.1395042036
H  H34  1  0.31560000  0.41430000  0.03110000  1.0 0.1395042036
H  H35  1  0.88320000  0.28450000  0.46890000  1.0 0.1395042036
H  H36  1  0.18440000  0.21550000  0.09870000  1.0 0.1395042036
H  H37  1  0.59870000  0.38320000  0.91430000  1.0 0.1395042036
H  H38  1  0.96890000  0.68440000  0.58570000  1.0 0.1395042036
H  H39  1  0.53110000  0.11680000  0.71550000  1.0 0.1395042036
H  H40  1  0.90130000  0.81560000  0.78450000  1.0 0.1395042036
H  H41  1  0.91430000  0.59870000  0.38320000  1.0 0.1395042036
H  H42  1  0.58570000  0.96890000  0.68440000  1.0 0.1395042036
H  H43  1  0.71550000  0.53110000  0.11680000  1.0 0.1395042036
H  H44  1  0.78450000  0.90130000  0.81560000  1.0 0.1395042036
H  H45  1  0.38320000  0.91430000  0.59870000  1.0 0.1395042036
H  H46  1  0.68440000  0.58570000  0.96890000  1.0 0.1395042036
H  H47  1  0.11680000  0.71550000  0.53110000  1.0 0.1395042036
H  H48  1  0.81560000  0.78450000  0.90130000  1.0 0.1395042036
H  H49  1  0.18230000  0.56680000  0.91370000  1.0 0.1321476831
H  H50  1  0.15310000  0.26860000  0.58630000  1.0 0.1321476831
H  H51  1  0.34690000  0.93320000  0.11550000  1.0 0.1321476831
H  H52  1  0.31770000  0.23140000  0.38450000  1.0 0.1321476831
H  H53  1  0.91370000  0.18230000  0.56680000  1.0 0.1321476831
H  H54  1  0.58630000  0.15310000  0.26860000  1.0 0.1321476831
H  H55  1  0.11550000  0.34690000  0.93320000  1.0 0.1321476831
H  H56  1  0.38450000  0.31770000  0.23140000  1.0 0.1321476831
H  H57  1  0.56680000  0.91370000  0.18230000  1.0 0.1321476831
H  H58  1  0.26860000  0.58630000  0.15310000  1.0 0.1321476831
H  H59  1  0.93320000  0.11550000  0.34690000  1.0 0.1321476831
H  H60  1  0.23140000  0.38450000  0.31770000  1.0 0.1321476831
H  H61  1  0.81770000  0.43320000  0.08630000  1.0 0.1321476831
H  H62  1  0.84690000  0.73140000  0.41370000  1.0 0.1321476831
H  H63  1  0.65310000  0.06680000  0.88450000  1.0 0.1321476831
H  H64  1  0.68230000  0.76860000  0.61550000  1.0 0.1321476831
H  H65  1  0.08630000  0.81770000  0.43320000  1.0 0.1321476831
H  H66  1  0.41370000  0.84690000  0.73140000  1.0 0.1321476831
H  H67  1  0.88450000  0.65310000  0.06680000  1.0 0.1321476831
H  H68  1  0.61550000  0.68230000  0.76860000  1.0 0.1321476831
H  H69  1  0.43320000  0.08630000  0.81770000  1.0 0.1321476831
H  H70  1  0.73140000  0.41370000  0.84690000  1.0 0.1321476831
H  H71  1  0.06680000  0.88450000  0.65310000  1.0 0.1321476831
H  H72  1  0.76860000  0.61550000  0.68230000  1.0 0.1321476831
H  H73  1  0.25040000  0.68620000  0.90960000  1.0 0.1321476831
H  H74  1  0.27660000  0.34080000  0.59040000  1.0 0.1321476831
H  H75  1  0.22340000  0.81380000  0.06420000  1.0 0.1321476831
H  H76  1  0.24960000  0.15920000  0.43580000  1.0 0.1321476831
H  H77  1  0.90960000  0.25040000  0.68620000  1.0 0.1321476831
H  H78  1  0.59040000  0.27660000  0.34080000  1.0 0.1321476831
H  H79  1  0.06420000  0.22340000  0.81380000  1.0 0.1321476831
H  H80  1  0.43580000  0.24960000  0.15920000  1.0 0.1321476831
H  H81  1  0.68620000  0.90960000  0.25040000  1.0 0.1321476831
H  H82  1  0.34080000  0.59040000  0.27660000  1.0 0.1321476831
H  H83  1  0.81380000  0.06420000  0.22340000  1.0 0.1321476831
H  H84  1  0.15920000  0.43580000  0.24960000  1.0 0.1321476831
H  H85  1  0.74960000  0.31380000  0.09040000  1.0 0.1321476831
H  H86  1  0.72340000  0.65920000  0.40960000  1.0 0.1321476831
H  H87  1  0.77660000  0.18620000  0.93580000  1.0 0.1321476831
H  H88  1  0.75040000  0.84080000  0.56420000  1.0 0.1321476831
H  H89  1  0.09040000  0.74960000  0.31380000  1.0 0.1321476831
H  H90  1  0.40960000  0.72340000  0.65920000  1.0 0.1321476831
H  H91  1  0.93580000  0.77660000  0.18620000  1.0 0.1321476831
H  H92  1  0.56420000  0.75040000  0.84080000  1.0 0.1321476831
H  H93  1  0.31380000  0.09040000  0.74960000  1.0 0.1321476831
H  H94  1  0.65920000  0.40960000  0.72340000  1.0 0.1321476831
H  H95  1  0.18620000  0.93580000  0.77660000  1.0 0.1321476831
H  H96  1  0.84080000  0.56420000  0.75040000  1.0 0.1321476831
H  H97  1  0.17880000  0.50000000  0.00000000  1.0 0.100290541
H  H98  1  0.00000000  0.17880000  0.50000000  1.0 0.100290541
H  H99  1  0.50000000  0.00000000  0.17880000  1.0 0.100290541
H  H100  1  0.32120000  0.32120000  0.32120000  1.0 0.100290541
H  H101  1  0.82120000  0.50000000  0.00000000  1.0 0.100290541
H  H102  1  0.00000000  0.82120000  0.50000000  1.0 0.100290541
H  H103  1  0.50000000  0.00000000  0.82120000  1.0 0.100290541
H  H104  1  0.67880000  0.67880000  0.67880000  1.0 0.100290541
C  C1  1  0.36659000  0.72362000  0.99287000  1.0 -0.0125197936
C  C2  1  0.23075000  0.37372000  0.50713000  1.0 -0.0125197936
C  C3  1  0.26925000  0.77638000  0.14297000  1.0 -0.0125197936
C  C4  1  0.13341000  0.12628000  0.35703000  1.0 -0.0125197936
C  C5  1  0.99287000  0.36659000  0.72362000  1.0 -0.0125197936
C  C6  1  0.50713000  0.23075000  0.37372000  1.0 -0.0125197936
C  C7  1  0.14297000  0.26925000  0.77638000  1.0 -0.0125197936
C  C8  1  0.35703000  0.13341000  0.12628000  1.0 -0.0125197936
C  C9  1  0.72362000  0.99287000  0.36659000  1.0 -0.0125197936
C  C10  1  0.37372000  0.50713000  0.23075000  1.0 -0.0125197936
C  C11  1  0.77638000  0.14297000  0.26925000  1.0 -0.0125197936
C  C12  1  0.12628000  0.35703000  0.13341000  1.0 -0.0125197936
C  C13  1  0.63341000  0.27638000  0.00713000  1.0 -0.0125197936
C  C14  1  0.76925000  0.62628000  0.49287000  1.0 -0.0125197936
C  C15  1  0.73075000  0.22362000  0.85703000  1.0 -0.0125197936
C  C16  1  0.86659000  0.87372000  0.64297000  1.0 -0.0125197936
C  C17  1  0.00713000  0.63341000  0.27638000  1.0 -0.0125197936
C  C18  1  0.49287000  0.76925000  0.62628000  1.0 -0.0125197936
C  C19  1  0.85703000  0.73075000  0.22362000  1.0 -0.0125197936
C  C20  1  0.64297000  0.86659000  0.87372000  1.0 -0.0125197936
C  C21  1  0.27638000  0.00713000  0.63341000  1.0 -0.0125197936
C  C22  1  0.62628000  0.49287000  0.76925000  1.0 -0.0125197936
C  C23  1  0.22362000  0.85703000  0.73075000  1.0 -0.0125197936
C  C24  1  0.87372000  0.64297000  0.86659000  1.0 -0.0125197936
C  C25  1  0.41252000  0.70080000  0.04620000  1.0 -0.0696850773
C  C26  1  0.15460000  0.36632000  0.45380000  1.0 -0.0696850773
C  C27  1  0.34540000  0.79920000  0.21172000  1.0 -0.0696850773
C  C28  1  0.08748000  0.13368000  0.28828000  1.0 -0.0696850773
C  C29  1  0.04620000  0.41252000  0.70080000  1.0 -0.0696850773
C  C30  1  0.45380000  0.15460000  0.36632000  1.0 -0.0696850773
C  C31  1  0.21172000  0.34540000  0.79920000  1.0 -0.0696850773
C  C32  1  0.28828000  0.08748000  0.13368000  1.0 -0.0696850773
C  C33  1  0.70080000  0.04620000  0.41252000  1.0 -0.0696850773
C  C34  1  0.36632000  0.45380000  0.15460000  1.0 -0.0696850773
C  C35  1  0.79920000  0.21172000  0.34540000  1.0 -0.0696850773
C  C36  1  0.13368000  0.28828000  0.08748000  1.0 -0.0696850773
C  C37  1  0.58748000  0.29920000  0.95380000  1.0 -0.0696850773
C  C38  1  0.84540000  0.63368000  0.54620000  1.0 -0.0696850773
C  C39  1  0.65460000  0.20080000  0.78828000  1.0 -0.0696850773
C  C40  1  0.91252000  0.86632000  0.71172000  1.0 -0.0696850773
C  C41  1  0.95380000  0.58748000  0.29920000  1.0 -0.0696850773
C  C42  1  0.54620000  0.84540000  0.63368000  1.0 -0.0696850773
C  C43  1  0.78828000  0.65460000  0.20080000  1.0 -0.0696850773
C  C44  1  0.71172000  0.91252000  0.86632000  1.0 -0.0696850773
C  C45  1  0.29920000  0.95380000  0.58748000  1.0 -0.0696850773
C  C46  1  0.63368000  0.54620000  0.84540000  1.0 -0.0696850773
C  C47  1  0.20080000  0.78828000  0.65460000  1.0 -0.0696850773
C  C48  1  0.86632000  0.71172000  0.91252000  1.0 -0.0696850773
C  C49  1  0.37113000  0.63054000  0.04981000  1.0 -0.1286906041
C  C50  1  0.08073000  0.32132000  0.45019000  1.0 -0.1286906041
C  C51  1  0.41927000  0.86946000  0.24059000  1.0 -0.1286906041
C  C52  1  0.12887000  0.17868000  0.25941000  1.0 -0.1286906041
C  C53  1  0.04981000  0.37113000  0.63054000  1.0 -0.1286906041
C  C54  1  0.45019000  0.08073000  0.32132000  1.0 -0.1286906041
C  C55  1  0.24059000  0.41927000  0.86946000  1.0 -0.1286906041
C  C56  1  0.25941000  0.12887000  0.17868000  1.0 -0.1286906041
C  C57  1  0.63054000  0.04981000  0.37113000  1.0 -0.1286906041
C  C58  1  0.32132000  0.45019000  0.08073000  1.0 -0.1286906041
C  C59  1  0.86946000  0.24059000  0.41927000  1.0 -0.1286906041
C  C60  1  0.17868000  0.25941000  0.12887000  1.0 -0.1286906041
C  C61  1  0.62887000  0.36946000  0.95019000  1.0 -0.1286906041
C  C62  1  0.91927000  0.67868000  0.54981000  1.0 -0.1286906041
C  C63  1  0.58073000  0.13054000  0.75941000  1.0 -0.1286906041
C  C64  1  0.87113000  0.82132000  0.74059000  1.0 -0.1286906041
C  C65  1  0.95019000  0.62887000  0.36946000  1.0 -0.1286906041
C  C66  1  0.54981000  0.91927000  0.67868000  1.0 -0.1286906041
C  C67  1  0.75941000  0.58073000  0.13054000  1.0 -0.1286906041
C  C68  1  0.74059000  0.87113000  0.82132000  1.0 -0.1286906041
C  C69  1  0.36946000  0.95019000  0.62887000  1.0 -0.1286906041
C  C70  1  0.67868000  0.54981000  0.91927000  1.0 -0.1286906041
C  C71  1  0.13054000  0.75941000  0.58073000  1.0 -0.1286906041
C  C72  1  0.82132000  0.74059000  0.87113000  1.0 -0.1286906041
C  C73  1  0.28568000  0.58096000  0.00060000  1.0 0.100290541
C  C74  1  0.08036000  0.28508000  0.49940000  1.0 0.100290541
C  C75  1  0.41964000  0.91904000  0.20472000  1.0 0.100290541
C  C76  1  0.21432000  0.21492000  0.29528000  1.0 0.100290541
C  C77  1  0.00060000  0.28568000  0.58096000  1.0 0.100290541
C  C78  1  0.49940000  0.08036000  0.28508000  1.0 0.100290541
C  C79  1  0.20472000  0.41964000  0.91904000  1.0 0.100290541
C  C80  1  0.29528000  0.21432000  0.21492000  1.0 0.100290541
C  C81  1  0.58096000  0.00060000  0.28568000  1.0 0.100290541
C  C82  1  0.28508000  0.49940000  0.08036000  1.0 0.100290541
C  C83  1  0.91904000  0.20472000  0.41964000  1.0 0.100290541
C  C84  1  0.21492000  0.29528000  0.21432000  1.0 0.100290541
C  C85  1  0.71432000  0.41904000  0.99940000  1.0 0.100290541
C  C86  1  0.91964000  0.71492000  0.50060000  1.0 0.100290541
C  C87  1  0.58036000  0.08096000  0.79528000  1.0 0.100290541
C  C88  1  0.78568000  0.78508000  0.70472000  1.0 0.100290541
C  C89  1  0.99940000  0.71432000  0.41904000  1.0 0.100290541
C  C90  1  0.50060000  0.91964000  0.71492000  1.0 0.100290541
C  C91  1  0.79528000  0.58036000  0.08096000  1.0 0.100290541
C  C92  1  0.70472000  0.78568000  0.78508000  1.0 0.100290541
C  C93  1  0.41904000  0.99940000  0.71432000  1.0 0.100290541
C  C94  1  0.71492000  0.50060000  0.91964000  1.0 0.100290541
C  C95  1  0.08096000  0.79528000  0.58036000  1.0 0.100290541
C  C96  1  0.78508000  0.70472000  0.78568000  1.0 0.100290541
C  C97  1  0.24025000  0.60104000  0.94755000  1.0 -0.1286906041
C  C98  1  0.15349000  0.29270000  0.55245000  1.0 -0.1286906041
C  C99  1  0.34651000  0.89896000  0.13921000  1.0 -0.1286906041
C  C100  1  0.25975000  0.20730000  0.36079000  1.0 -0.1286906041
C  C101  1  0.94755000  0.24025000  0.60104000  1.0 -0.1286906041
C  C102  1  0.55245000  0.15349000  0.29270000  1.0 -0.1286906041
C  C103  1  0.13921000  0.34651000  0.89896000  1.0 -0.1286906041
C  C104  1  0.36079000  0.25975000  0.20730000  1.0 -0.1286906041
C  C105  1  0.60104000  0.94755000  0.24025000  1.0 -0.1286906041
C  C106  1  0.29270000  0.55245000  0.15349000  1.0 -0.1286906041
C  C107  1  0.89896000  0.13921000  0.34651000  1.0 -0.1286906041
C  C108  1  0.20730000  0.36079000  0.25975000  1.0 -0.1286906041
C  C109  1  0.75975000  0.39896000  0.05245000  1.0 -0.1286906041
C  C110  1  0.84651000  0.70730000  0.44755000  1.0 -0.1286906041
C  C111  1  0.65349000  0.10104000  0.86079000  1.0 -0.1286906041
C  C112  1  0.74025000  0.79270000  0.63921000  1.0 -0.1286906041
C  C113  1  0.05245000  0.75975000  0.39896000  1.0 -0.1286906041
C  C114  1  0.44755000  0.84651000  0.70730000  1.0 -0.1286906041
C  C115  1  0.86079000  0.65349000  0.10104000  1.0 -0.1286906041
C  C116  1  0.63921000  0.74025000  0.79270000  1.0 -0.1286906041
C  C117  1  0.39896000  0.05245000  0.75975000  1.0 -0.1286906041
C  C118  1  0.70730000  0.44755000  0.84651000  1.0 -0.1286906041
C  C119  1  0.10104000  0.86079000  0.65349000  1.0 -0.1286906041
C  C120  1  0.79270000  0.63921000  0.74025000  1.0 -0.1286906041
C  C121  1  0.28154000  0.67259000  0.94499000  1.0 -0.0696850773
C  C122  1  0.22760000  0.33655000  0.55501000  1.0 -0.0696850773
C  C123  1  0.27240000  0.82741000  0.10895000  1.0 -0.0696850773
C  C124  1  0.21846000  0.16345000  0.39105000  1.0 -0.0696850773
C  C125  1  0.94499000  0.28154000  0.67259000  1.0 -0.0696850773
C  C126  1  0.55501000  0.22760000  0.33655000  1.0 -0.0696850773
C  C127  1  0.10895000  0.27240000  0.82741000  1.0 -0.0696850773
C  C128  1  0.39105000  0.21846000  0.16345000  1.0 -0.0696850773
C  C129  1  0.67259000  0.94499000  0.28154000  1.0 -0.0696850773
C  C130  1  0.33655000  0.55501000  0.22760000  1.0 -0.0696850773
C  C131  1  0.82741000  0.10895000  0.27240000  1.0 -0.0696850773
C  C132  1  0.16345000  0.39105000  0.21846000  1.0 -0.0696850773
C  C133  1  0.71846000  0.32741000  0.05501000  1.0 -0.0696850773
C  C134  1  0.77240000  0.66345000  0.44499000  1.0 -0.0696850773
C  C135  1  0.72760000  0.17259000  0.89105000  1.0 -0.0696850773
C  C136  1  0.78154000  0.83655000  0.60895000  1.0 -0.0696850773
C  C137  1  0.05501000  0.71846000  0.32741000  1.0 -0.0696850773
C  C138  1  0.44499000  0.77240000  0.66345000  1.0 -0.0696850773
C  C139  1  0.89105000  0.72760000  0.17259000  1.0 -0.0696850773
C  C140  1  0.60895000  0.78154000  0.83655000  1.0 -0.0696850773
C  C141  1  0.32741000  0.05501000  0.71846000  1.0 -0.0696850773
C  C142  1  0.66345000  0.44499000  0.77240000  1.0 -0.0696850773
C  C143  1  0.17259000  0.89105000  0.72760000  1.0 -0.0696850773
C  C144  1  0.83655000  0.60895000  0.78154000  1.0 -0.0696850773
C  C145  1  0.40763000  0.80473000  0.99430000  1.0 0.5518841017
C  C146  1  0.31043000  0.41333000  0.50570000  1.0 0.5518841017
C  C147  1  0.18957000  0.69527000  0.10290000  1.0 0.5518841017
C  C148  1  0.09237000  0.08667000  0.39710000  1.0 0.5518841017
C  C149  1  0.99430000  0.40763000  0.80473000  1.0 0.5518841017
C  C150  1  0.50570000  0.31043000  0.41333000  1.0 0.5518841017
C  C151  1  0.10290000  0.18957000  0.69527000  1.0 0.5518841017
C  C152  1  0.39710000  0.09237000  0.08667000  1.0 0.5518841017
C  C153  1  0.80473000  0.99430000  0.40763000  1.0 0.5518841017
C  C154  1  0.41333000  0.50570000  0.31043000  1.0 0.5518841017
C  C155  1  0.69527000  0.10290000  0.18957000  1.0 0.5518841017
C  C156  1  0.08667000  0.39710000  0.09237000  1.0 0.5518841017
C  C157  1  0.59237000  0.19527000  0.00570000  1.0 0.5518841017
C  C158  1  0.68957000  0.58667000  0.49430000  1.0 0.5518841017
C  C159  1  0.81043000  0.30473000  0.89710000  1.0 0.5518841017
C  C160  1  0.90763000  0.91333000  0.60290000  1.0 0.5518841017
C  C161  1  0.00570000  0.59237000  0.19527000  1.0 0.5518841017
C  C162  1  0.49430000  0.68957000  0.58667000  1.0 0.5518841017
C  C163  1  0.89710000  0.81043000  0.30473000  1.0 0.5518841017
C  C164  1  0.60290000  0.90763000  0.91333000  1.0 0.5518841017
C  C165  1  0.19527000  0.00570000  0.59237000  1.0 0.5518841017
C  C166  1  0.58667000  0.49430000  0.68957000  1.0 0.5518841017
C  C167  1  0.30473000  0.89710000  0.81043000  1.0 0.5518841017
C  C168  1  0.91333000  0.60290000  0.90763000  1.0 0.5518841017
C  C169  1  0.22908000  0.50000000  0.00000000  1.0 -0.1132218745
C  C170  1  0.00000000  0.22908000  0.50000000  1.0 -0.1132218745
C  C171  1  0.50000000  0.00000000  0.22908000  1.0 -0.1132218745
C  C172  1  0.27092000  0.27092000  0.27092000  1.0 -0.1132218745
C  C173  1  0.77092000  0.50000000  0.00000000  1.0 -0.1132218745
C  C174  1  0.00000000  0.77092000  0.50000000  1.0 -0.1132218745
C  C175  1  0.50000000  0.00000000  0.77092000  1.0 -0.1132218745
C  C176  1  0.72908000  0.72908000  0.72908000  1.0 -0.1132218745
N  N1  1  0.96000000  0.55550000  0.66950000  1.0 0.6615737025
N  N2  1  0.11400000  0.94450000  0.90450000  1.0 0.6615737025
N  N3  1  0.54000000  0.20950000  0.59550000  1.0 0.6615737025
N  N4  1  0.38600000  0.29050000  0.83050000  1.0 0.6615737025
N  N5  1  0.55550000  0.66950000  0.96000000  1.0 0.6615737025
N  N6  1  0.94450000  0.90450000  0.11400000  1.0 0.6615737025
N  N7  1  0.20950000  0.59550000  0.54000000  1.0 0.6615737025
N  N8  1  0.29050000  0.83050000  0.38600000  1.0 0.6615737025
N  N9  1  0.66950000  0.96000000  0.55550000  1.0 0.6615737025
N  N10  1  0.90450000  0.11400000  0.94450000  1.0 0.6615737025
N  N11  1  0.59550000  0.54000000  0.20950000  1.0 0.6615737025
N  N12  1  0.83050000  0.38600000  0.29050000  1.0 0.6615737025
N  N13  1  0.04000000  0.44450000  0.33050000  1.0 0.6615737025
N  N14  1  0.88600000  0.05550000  0.09550000  1.0 0.6615737025
N  N15  1  0.46000000  0.79050000  0.40450000  1.0 0.6615737025
N  N16  1  0.61400000  0.70950000  0.16950000  1.0 0.6615737025
N  N17  1  0.44450000  0.33050000  0.04000000  1.0 0.6615737025
N  N18  1  0.05550000  0.09550000  0.88600000  1.0 0.6615737025
N  N19  1  0.79050000  0.40450000  0.46000000  1.0 0.6615737025
N  N20  1  0.70950000  0.16950000  0.61400000  1.0 0.6615737025
N  N21  1  0.33050000  0.04000000  0.44450000  1.0 0.6615737025
N  N22  1  0.09550000  0.88600000  0.05550000  1.0 0.6615737025
N  N23  1  0.40450000  0.46000000  0.79050000  1.0 0.6615737025
N  N24  1  0.16950000  0.61400000  0.70950000  1.0 0.6615737025
O  O1  1  0.50000000  0.00000000  0.00000000  1.0 -0.7640840915
O  O2  1  0.50000000  0.50000000  0.50000000  1.0 -0.7640840915
O  O3  1  0.00000000  0.50000000  0.00000000  1.0 -0.7640840915
O  O4  1  0.00000000  0.00000000  0.50000000  1.0 -0.7640840915
O  O5  1  0.36260000  0.82020000  0.95280000  1.0 -0.4073350188
O  O6  1  0.36740000  0.40980000  0.54720000  1.0 -0.4073350188
O  O7  1  0.13260000  0.67980000  0.04240000  1.0 -0.4073350188
O  O8  1  0.13740000  0.09020000  0.45760000  1.0 -0.4073350188
O  O9  1  0.95280000  0.36260000  0.82020000  1.0 -0.4073350188
O  O10  1  0.54720000  0.36740000  0.40980000  1.0 -0.4073350188
O  O11  1  0.04240000  0.13260000  0.67980000  1.0 -0.4073350188
O  O12  1  0.45760000  0.13740000  0.09020000  1.0 -0.4073350188
O  O13  1  0.82020000  0.95280000  0.36260000  1.0 -0.4073350188
O  O14  1  0.40980000  0.54720000  0.36740000  1.0 -0.4073350188
O  O15  1  0.67980000  0.04240000  0.13260000  1.0 -0.4073350188
O  O16  1  0.09020000  0.45760000  0.13740000  1.0 -0.4073350188
O  O17  1  0.63740000  0.17980000  0.04720000  1.0 -0.4073350188
O  O18  1  0.63260000  0.59020000  0.45280000  1.0 -0.4073350188
O  O19  1  0.86740000  0.32020000  0.95760000  1.0 -0.4073350188
O  O20  1  0.86260000  0.90980000  0.54240000  1.0 -0.4073350188
O  O21  1  0.04720000  0.63740000  0.17980000  1.0 -0.4073350188
O  O22  1  0.45280000  0.63260000  0.59020000  1.0 -0.4073350188
O  O23  1  0.95760000  0.86740000  0.32020000  1.0 -0.4073350188
O  O24  1  0.54240000  0.86260000  0.90980000  1.0 -0.4073350188
O  O25  1  0.17980000  0.04720000  0.63740000  1.0 -0.4073350188
O  O26  1  0.59020000  0.45280000  0.63260000  1.0 -0.4073350188
O  O27  1  0.32020000  0.95760000  0.86740000  1.0 -0.4073350188
O  O28  1  0.90980000  0.54240000  0.86260000  1.0 -0.4073350188
O  O29  1  0.48517000  0.84878000  0.03391000  1.0 -0.4546954092
O  O30  1  0.31487000  0.45126000  0.46609000  1.0 -0.4546954092
O  O31  1  0.18513000  0.65122000  0.13639000  1.0 -0.4546954092
O  O32  1  0.01483000  0.04874000  0.36361000  1.0 -0.4546954092
O  O33  1  0.03391000  0.48517000  0.84878000  1.0 -0.4546954092
O  O34  1  0.46609000  0.31487000  0.45126000  1.0 -0.4546954092
O  O35  1  0.13639000  0.18513000  0.65122000  1.0 -0.4546954092
O  O36  1  0.36361000  0.01483000  0.04874000  1.0 -0.4546954092
O  O37  1  0.84878000  0.03391000  0.48517000  1.0 -0.4546954092
O  O38  1  0.45126000  0.46609000  0.31487000  1.0 -0.4546954092
O  O39  1  0.65122000  0.13639000  0.18513000  1.0 -0.4546954092
O  O40  1  0.04874000  0.36361000  0.01483000  1.0 -0.4546954092
O  O41  1  0.51483000  0.15122000  0.96609000  1.0 -0.4546954092
O  O42  1  0.68513000  0.54874000  0.53391000  1.0 -0.4546954092
O  O43  1  0.81487000  0.34878000  0.86361000  1.0 -0.4546954092
O  O44  1  0.98517000  0.95126000  0.63639000  1.0 -0.4546954092
O  O45  1  0.96609000  0.51483000  0.15122000  1.0 -0.4546954092
O  O46  1  0.53391000  0.68513000  0.54874000  1.0 -0.4546954092
O  O47  1  0.86361000  0.81487000  0.34878000  1.0 -0.4546954092
O  O48  1  0.63639000  0.98517000  0.95126000  1.0 -0.4546954092
O  O49  1  0.15122000  0.96609000  0.51483000  1.0 -0.4546954092
O  O50  1  0.54874000  0.53391000  0.68513000  1.0 -0.4546954092
O  O51  1  0.34878000  0.86361000  0.81487000  1.0 -0.4546954092
O  O52  1  0.95126000  0.63639000  0.98517000  1.0 -0.4546954092
O  O53  1  0.93111000  0.49672000  0.68021000  1.0 -0.3561678585
O  O54  1  0.97050000  0.62278000  0.71078000  1.0 -0.3324278053
O  O55  1  0.97711000  0.54702000  0.61309000  1.0 -0.3387952726
O  O56  1  0.18349000  0.00328000  0.93439000  1.0 -0.3561678585
O  O57  1  0.08800000  0.87722000  0.84772000  1.0 -0.3324278053
O  O58  1  0.06607000  0.95298000  0.93009000  1.0 -0.3387952726
O  O59  1  0.56889000  0.24910000  0.56561000  1.0 -0.3561678585
O  O60  1  0.52950000  0.24028000  0.65228000  1.0 -0.3324278053
O  O61  1  0.52289000  0.13598000  0.56991000  1.0 -0.3387952726
O  O62  1  0.31651000  0.25090000  0.81979000  1.0 -0.3561678585
O  O63  1  0.41200000  0.25972000  0.78922000  1.0 -0.3324278053
O  O64  1  0.43393000  0.36402000  0.88691000  1.0 -0.3387952726
O  O65  1  0.49672000  0.68021000  0.93111000  1.0 -0.3561678585
O  O66  1  0.62278000  0.71078000  0.97050000  1.0 -0.3324278053
O  O67  1  0.54702000  0.61309000  0.97711000  1.0 -0.3387952726
O  O68  1  0.00328000  0.93439000  0.18349000  1.0 -0.3561678585
O  O69  1  0.87722000  0.84772000  0.08800000  1.0 -0.3324278053
O  O70  1  0.95298000  0.93009000  0.06607000  1.0 -0.3387952726
O  O71  1  0.24910000  0.56561000  0.56889000  1.0 -0.3561678585
O  O72  1  0.24028000  0.65228000  0.52950000  1.0 -0.3324278053
O  O73  1  0.13598000  0.56991000  0.52289000  1.0 -0.3387952726
O  O74  1  0.25090000  0.81979000  0.31651000  1.0 -0.3561678585
O  O75  1  0.25972000  0.78922000  0.41200000  1.0 -0.3324278053
O  O76  1  0.36402000  0.88691000  0.43393000  1.0 -0.3387952726
O  O77  1  0.68021000  0.93111000  0.49672000  1.0 -0.3561678585
O  O78  1  0.71078000  0.97050000  0.62278000  1.0 -0.3324278053
O  O79  1  0.61309000  0.97711000  0.54702000  1.0 -0.3387952726
O  O80  1  0.93439000  0.18349000  0.00328000  1.0 -0.3561678585
O  O81  1  0.84772000  0.08800000  0.87722000  1.0 -0.3324278053
O  O82  1  0.93009000  0.06607000  0.95298000  1.0 -0.3387952726
O  O83  1  0.56561000  0.56889000  0.24910000  1.0 -0.3561678585
O  O84  1  0.65228000  0.52950000  0.24028000  1.0 -0.3324278053
O  O85  1  0.56991000  0.52289000  0.13598000  1.0 -0.3387952726
O  O86  1  0.81979000  0.31651000  0.25090000  1.0 -0.3561678585
O  O87  1  0.78922000  0.41200000  0.25972000  1.0 -0.3324278053
O  O88  1  0.88691000  0.43393000  0.36402000  1.0 -0.3387952726
O  O89  1  0.06889000  0.50328000  0.31979000  1.0 -0.3561678585
O  O90  1  0.02950000  0.37722000  0.28922000  1.0 -0.3324278053
O  O91  1  0.02289000  0.45298000  0.38691000  1.0 -0.3387952726
O  O92  1  0.81651000  0.99672000  0.06561000  1.0 -0.3561678585
O  O93  1  0.91200000  0.12278000  0.15228000  1.0 -0.3324278053
O  O94  1  0.93393000  0.04702000  0.06991000  1.0 -0.3387952726
O  O95  1  0.43111000  0.75090000  0.43439000  1.0 -0.3561678585
O  O96  1  0.47050000  0.75972000  0.34772000  1.0 -0.3324278053
O  O97  1  0.47711000  0.86402000  0.43009000  1.0 -0.3387952726
O  O98  1  0.68349000  0.74910000  0.18021000  1.0 -0.3561678585
O  O99  1  0.58800000  0.74028000  0.21078000  1.0 -0.3324278053
O  O100  1  0.56607000  0.63598000  0.11309000  1.0 -0.3387952726
O  O101  1  0.50328000  0.31979000  0.06889000  1.0 -0.3561678585
O  O102  1  0.37722000  0.28922000  0.02950000  1.0 -0.3324278053
O  O103  1  0.45298000  0.38691000  0.02289000  1.0 -0.3387952726
O  O104  1  0.99672000  0.06561000  0.81651000  1.0 -0.3561678585
O  O105  1  0.12278000  0.15228000  0.91200000  1.0 -0.3324278053
O  O106  1  0.04702000  0.06991000  0.93393000  1.0 -0.3387952726
O  O107  1  0.75090000  0.43439000  0.43111000  1.0 -0.3561678585
O  O108  1  0.75972000  0.34772000  0.47050000  1.0 -0.3324278053
O  O109  1  0.86402000  0.43009000  0.47711000  1.0 -0.3387952726
O  O110  1  0.74910000  0.18021000  0.68349000  1.0 -0.3561678585
O  O111  1  0.74028000  0.21078000  0.58800000  1.0 -0.3324278053
O  O112  1  0.63598000  0.11309000  0.56607000  1.0 -0.3387952726
O  O113  1  0.31979000  0.06889000  0.50328000  1.0 -0.3561678585
O  O114  1  0.28922000  0.02950000  0.37722000  1.0 -0.3324278053
O  O115  1  0.38691000  0.02289000  0.45298000  1.0 -0.3387952726
O  O116  1  0.06561000  0.81651000  0.99672000  1.0 -0.3561678585
O  O117  1  0.15228000  0.91200000  0.12278000  1.0 -0.3324278053
O  O118  1  0.06991000  0.93393000  0.04702000  1.0 -0.3387952726
O  O119  1  0.43439000  0.43111000  0.75090000  1.0 -0.3561678585
O  O120  1  0.34772000  0.47050000  0.75972000  1.0 -0.3324278053
O  O121  1  0.43009000  0.47711000  0.86402000  1.0 -0.3387952726
O  O122  1  0.18021000  0.68349000  0.74910000  1.0 -0.3561678585
O  O123  1  0.21078000  0.58800000  0.74028000  1.0 -0.3324278053
O  O124  1  0.11309000  0.56607000  0.63598000  1.0 -0.3387952726
