# DDEC6 charges by PACMAN v1.1 (https://github.com/mtap-research/PACMAN-charge/)
data_NEHGEO_ion_pacman
_symmetry_space_group_name_H-M   'P 1'
_cell_length_a   19.53730000
_cell_length_b   19.53730000
_cell_length_c   19.53730000
_cell_angle_alpha   109.47100000
_cell_angle_beta   109.47100000
_cell_angle_gamma   109.47100000
_symmetry_Int_Tables_number   1
_chemical_formula_structural   Zn6H26C44N6O31
_chemical_formula_sum   'Zn24 H104 C176 N24 O124'
_cell_volume   5740.83801149
_cell_formula_units_Z   4
loop_
 _symmetry_equiv_pos_site_id
 _symmetry_equiv_pos_as_xyz
  1  'x, y, z'
loop_
 _atom_site_type_symbol
 _atom_site_label
 _atom_site_symmetry_multiplicity
 _atom_site_fract_x
 _atom_site_fract_y
 _atom_site_fract_z
 _atom_site_occupancy
 _atom_site_charge
Zn  Zn1  1  0.46625000  0.44028000  0.88147000  1.0 0.6018539829
Zn  Zn2  1  0.05881000  0.58478000  0.61853000  1.0 0.6018539829
Zn  Zn3  1  0.03375000  0.91522000  0.97403000  1.0 0.6018539829
Zn  Zn4  1  0.44119000  0.05972000  0.52597000  1.0 0.6018539829
Zn  Zn5  1  0.88147000  0.46625000  0.44028000  1.0 0.6018539829
Zn  Zn6  1  0.52597000  0.44119000  0.05972000  1.0 0.6018539829
Zn  Zn7  1  0.61853000  0.05881000  0.58478000  1.0 0.6018539829
Zn  Zn8  1  0.97403000  0.03375000  0.91522000  1.0 0.6018539829
Zn  Zn9  1  0.44028000  0.88147000  0.46625000  1.0 0.6018539829
Zn  Zn10  1  0.05972000  0.52597000  0.44119000  1.0 0.6018539829
Zn  Zn11  1  0.58478000  0.61853000  0.05881000  1.0 0.6018539829
Zn  Zn12  1  0.91522000  0.97403000  0.03375000  1.0 0.6018539829
Zn  Zn13  1  0.53375000  0.55972000  0.11853000  1.0 0.6018539829
Zn  Zn14  1  0.94119000  0.41522000  0.38147000  1.0 0.6018539829
Zn  Zn15  1  0.96625000  0.08478000  0.02597000  1.0 0.6018539829
Zn  Zn16  1  0.55881000  0.94028000  0.47403000  1.0 0.6018539829
Zn  Zn17  1  0.11853000  0.53375000  0.55972000  1.0 0.6018539829
Zn  Zn18  1  0.47403000  0.55881000  0.94028000  1.0 0.6018539829
Zn  Zn19  1  0.38147000  0.94119000  0.41522000  1.0 0.6018539829
Zn  Zn20  1  0.02597000  0.96625000  0.08478000  1.0 0.6018539829
Zn  Zn21  1  0.55972000  0.11853000  0.53375000  1.0 0.6018539829
Zn  Zn22  1  0.94028000  0.47403000  0.55881000  1.0 0.6018539829
Zn  Zn23  1  0.41522000  0.38147000  0.94119000  1.0 0.6018539829
Zn  Zn24  1  0.08478000  0.02597000  0.96625000  1.0 0.6018539829
H  H1  1  0.61280000  0.52920000  0.77160000  1.0 0.1319549246
H  H2  1  0.25760000  0.84120000  0.72840000  1.0 0.1319549246
H  H3  1  0.88720000  0.65880000  0.91640000  1.0 0.1319549246
H  H4  1  0.24240000  0.97080000  0.58360000  1.0 0.1319549246
H  H5  1  0.77160000  0.61280000  0.52920000  1.0 0.1319549246
H  H6  1  0.58360000  0.24240000  0.97080000  1.0 0.1319549246
H  H7  1  0.72840000  0.25760000  0.84120000  1.0 0.1319549246
H  H8  1  0.91640000  0.88720000  0.65880000  1.0 0.1319549246
H  H9  1  0.52920000  0.77160000  0.61280000  1.0 0.1319549246
H  H10  1  0.97080000  0.58360000  0.24240000  1.0 0.1319549246
H  H11  1  0.84120000  0.72840000  0.25760000  1.0 0.1319549246
H  H12  1  0.65880000  0.91640000  0.88720000  1.0 0.1319549246
H  H13  1  0.38720000  0.47080000  0.22840000  1.0 0.1319549246
H  H14  1  0.74240000  0.15880000  0.27160000  1.0 0.1319549246
H  H15  1  0.11280000  0.34120000  0.08360000  1.0 0.1319549246
H  H16  1  0.75760000  0.02920000  0.41640000  1.0 0.1319549246
H  H17  1  0.22840000  0.38720000  0.47080000  1.0 0.1319549246
H  H18  1  0.41640000  0.75760000  0.02920000  1.0 0.1319549246
H  H19  1  0.27160000  0.74240000  0.15880000  1.0 0.1319549246
H  H20  1  0.08360000  0.11280000  0.34120000  1.0 0.1319549246
H  H21  1  0.47080000  0.22840000  0.38720000  1.0 0.1319549246
H  H22  1  0.02920000  0.41640000  0.75760000  1.0 0.1319549246
H  H23  1  0.15880000  0.27160000  0.74240000  1.0 0.1319549246
H  H24  1  0.34120000  0.08360000  0.11280000  1.0 0.1319549246
H  H25  1  0.68200000  0.59490000  0.71630000  1.0 0.1398166928
H  H26  1  0.37860000  0.96570000  0.78370000  1.0 0.1398166928
H  H27  1  0.81800000  0.53430000  0.91290000  1.0 0.1398166928
H  H28  1  0.12140000  0.90510000  0.58710000  1.0 0.1398166928
H  H29  1  0.71630000  0.68200000  0.59490000  1.0 0.1398166928
H  H30  1  0.58710000  0.12140000  0.90510000  1.0 0.1398166928
H  H31  1  0.78370000  0.37860000  0.96570000  1.0 0.1398166928
H  H32  1  0.91290000  0.81800000  0.53430000  1.0 0.1398166928
H  H33  1  0.59490000  0.71630000  0.68200000  1.0 0.1398166928
H  H34  1  0.90510000  0.58710000  0.12140000  1.0 0.1398166928
H  H35  1  0.96570000  0.78370000  0.37860000  1.0 0.1398166928
H  H36  1  0.53430000  0.91290000  0.81800000  1.0 0.1398166928
H  H37  1  0.31800000  0.40510000  0.28370000  1.0 0.1398166928
H  H38  1  0.62140000  0.03430000  0.21630000  1.0 0.1398166928
H  H39  1  0.18200000  0.46570000  0.08710000  1.0 0.1398166928
H  H40  1  0.87860000  0.09490000  0.41290000  1.0 0.1398166928
H  H41  1  0.28370000  0.31800000  0.40510000  1.0 0.1398166928
H  H42  1  0.41290000  0.87860000  0.09490000  1.0 0.1398166928
H  H43  1  0.21630000  0.62140000  0.03430000  1.0 0.1398166928
H  H44  1  0.08710000  0.18200000  0.46570000  1.0 0.1398166928
H  H45  1  0.40510000  0.28370000  0.31800000  1.0 0.1398166928
H  H46  1  0.09490000  0.41290000  0.87860000  1.0 0.1398166928
H  H47  1  0.03430000  0.21630000  0.62140000  1.0 0.1398166928
H  H48  1  0.46570000  0.08710000  0.18200000  1.0 0.1398166928
H  H49  1  0.73050000  0.81710000  0.88340000  1.0 0.1319549246
H  H50  1  0.43370000  0.84710000  0.61660000  1.0 0.1319549246
H  H51  1  0.76950000  0.65290000  0.08660000  1.0 0.1319549246
H  H52  1  0.06630000  0.68290000  0.41340000  1.0 0.1319549246
H  H53  1  0.88340000  0.73050000  0.81710000  1.0 0.1319549246
H  H54  1  0.41340000  0.06630000  0.68290000  1.0 0.1319549246
H  H55  1  0.61660000  0.43370000  0.84710000  1.0 0.1319549246
H  H56  1  0.08660000  0.76950000  0.65290000  1.0 0.1319549246
H  H57  1  0.81710000  0.88340000  0.73050000  1.0 0.1319549246
H  H58  1  0.68290000  0.41340000  0.06630000  1.0 0.1319549246
H  H59  1  0.84710000  0.61660000  0.43370000  1.0 0.1319549246
H  H60  1  0.65290000  0.08660000  0.76950000  1.0 0.1319549246
H  H61  1  0.26950000  0.18290000  0.11660000  1.0 0.1319549246
H  H62  1  0.56630000  0.15290000  0.38340000  1.0 0.1319549246
H  H63  1  0.23050000  0.34710000  0.91340000  1.0 0.1319549246
H  H64  1  0.93370000  0.31710000  0.58660000  1.0 0.1319549246
H  H65  1  0.11660000  0.26950000  0.18290000  1.0 0.1319549246
H  H66  1  0.58660000  0.93370000  0.31710000  1.0 0.1319549246
H  H67  1  0.38340000  0.56630000  0.15290000  1.0 0.1319549246
H  H68  1  0.91340000  0.23050000  0.34710000  1.0 0.1319549246
H  H69  1  0.18290000  0.11660000  0.26950000  1.0 0.1319549246
H  H70  1  0.31710000  0.58660000  0.93370000  1.0 0.1319549246
H  H71  1  0.15290000  0.38340000  0.56630000  1.0 0.1319549246
H  H72  1  0.34710000  0.91340000  0.23050000  1.0 0.1319549246
H  H73  1  0.66130000  0.75140000  0.93870000  1.0 0.1319549246
H  H74  1  0.31270000  0.72260000  0.56130000  1.0 0.1319549246
H  H75  1  0.83870000  0.77740000  0.09010000  1.0 0.1319549246
H  H76  1  0.18730000  0.74860000  0.40990000  1.0 0.1319549246
H  H77  1  0.93870000  0.66130000  0.75140000  1.0 0.1319549246
H  H78  1  0.40990000  0.18730000  0.74860000  1.0 0.1319549246
H  H79  1  0.56130000  0.31270000  0.72260000  1.0 0.1319549246
H  H80  1  0.09010000  0.83870000  0.77740000  1.0 0.1319549246
H  H81  1  0.75140000  0.93870000  0.66130000  1.0 0.1319549246
H  H82  1  0.74860000  0.40990000  0.18730000  1.0 0.1319549246
H  H83  1  0.72260000  0.56130000  0.31270000  1.0 0.1319549246
H  H84  1  0.77740000  0.09010000  0.83870000  1.0 0.1319549246
H  H85  1  0.33870000  0.24860000  0.06130000  1.0 0.1319549246
H  H86  1  0.68730000  0.27740000  0.43870000  1.0 0.1319549246
H  H87  1  0.16130000  0.22260000  0.90990000  1.0 0.1319549246
H  H88  1  0.81270000  0.25140000  0.59010000  1.0 0.1319549246
H  H89  1  0.06130000  0.33870000  0.24860000  1.0 0.1319549246
H  H90  1  0.59010000  0.81270000  0.25140000  1.0 0.1319549246
H  H91  1  0.43870000  0.68730000  0.27740000  1.0 0.1319549246
H  H92  1  0.90990000  0.16130000  0.22260000  1.0 0.1319549246
H  H93  1  0.24860000  0.06130000  0.33870000  1.0 0.1319549246
H  H94  1  0.25140000  0.59010000  0.81270000  1.0 0.1319549246
H  H95  1  0.27740000  0.43870000  0.68730000  1.0 0.1319549246
H  H96  1  0.22260000  0.90990000  0.16130000  1.0 0.1319549246
H  H97  1  0.81760000  0.81760000  0.81760000  1.0 0.1106026426
H  H98  1  0.50000000  0.00000000  0.68240000  1.0 0.1106026426
H  H99  1  0.68240000  0.50000000  0.00000000  1.0 0.1106026426
H  H100  1  0.00000000  0.68240000  0.50000000  1.0 0.1106026426
H  H101  1  0.18240000  0.18240000  0.18240000  1.0 0.1106026426
H  H102  1  0.50000000  0.00000000  0.31760000  1.0 0.1106026426
H  H103  1  0.31760000  0.50000000  0.00000000  1.0 0.1106026426
H  H104  1  0.00000000  0.31760000  0.50000000  1.0 0.1106026426
C  C1  1  0.59105000  0.59457000  0.90198000  1.0 0.5425592053
C  C2  1  0.19259000  0.68907000  0.59802000  1.0 0.5425592053
C  C3  1  0.90895000  0.81093000  0.00352000  1.0 0.5425592053
C  C4  1  0.30741000  0.90543000  0.49648000  1.0 0.5425592053
C  C5  1  0.90198000  0.59105000  0.59457000  1.0 0.5425592053
C  C6  1  0.49648000  0.30741000  0.90543000  1.0 0.5425592053
C  C7  1  0.59802000  0.19259000  0.68907000  1.0 0.5425592053
C  C8  1  0.00352000  0.90895000  0.81093000  1.0 0.5425592053
C  C9  1  0.59457000  0.90198000  0.59105000  1.0 0.5425592053
C  C10  1  0.90543000  0.49648000  0.30741000  1.0 0.5425592053
C  C11  1  0.68907000  0.59802000  0.19259000  1.0 0.5425592053
C  C12  1  0.81093000  0.00352000  0.90895000  1.0 0.5425592053
C  C13  1  0.40895000  0.40543000  0.09802000  1.0 0.5425592053
C  C14  1  0.80741000  0.31093000  0.40198000  1.0 0.5425592053
C  C15  1  0.09105000  0.18907000  0.99648000  1.0 0.5425592053
C  C16  1  0.69259000  0.09457000  0.50352000  1.0 0.5425592053
C  C17  1  0.09802000  0.40895000  0.40543000  1.0 0.5425592053
C  C18  1  0.50352000  0.69259000  0.09457000  1.0 0.5425592053
C  C19  1  0.40198000  0.80741000  0.31093000  1.0 0.5425592053
C  C20  1  0.99648000  0.09105000  0.18907000  1.0 0.5425592053
C  C21  1  0.40543000  0.09802000  0.40895000  1.0 0.5425592053
C  C22  1  0.09457000  0.50352000  0.69259000  1.0 0.5425592053
C  C23  1  0.31093000  0.40198000  0.80741000  1.0 0.5425592053
C  C24  1  0.18907000  0.99648000  0.09105000  1.0 0.5425592053
C  C25  1  0.63020000  0.63380000  0.86066000  1.0 -0.017056206
C  C26  1  0.27314000  0.76954000  0.63934000  1.0 -0.017056206
C  C27  1  0.86980000  0.73046000  0.00360000  1.0 -0.017056206
C  C28  1  0.22686000  0.86620000  0.49640000  1.0 -0.017056206
C  C29  1  0.86066000  0.63020000  0.63380000  1.0 -0.017056206
C  C30  1  0.49640000  0.22686000  0.86620000  1.0 -0.017056206
C  C31  1  0.63934000  0.27314000  0.76954000  1.0 -0.017056206
C  C32  1  0.00360000  0.86980000  0.73046000  1.0 -0.017056206
C  C33  1  0.63380000  0.86066000  0.63020000  1.0 -0.017056206
C  C34  1  0.86620000  0.49640000  0.22686000  1.0 -0.017056206
C  C35  1  0.76954000  0.63934000  0.27314000  1.0 -0.017056206
C  C36  1  0.73046000  0.00360000  0.86980000  1.0 -0.017056206
C  C37  1  0.36980000  0.36620000  0.13934000  1.0 -0.017056206
C  C38  1  0.72686000  0.23046000  0.36066000  1.0 -0.017056206
C  C39  1  0.13020000  0.26954000  0.99640000  1.0 -0.017056206
C  C40  1  0.77314000  0.13380000  0.50360000  1.0 -0.017056206
C  C41  1  0.13934000  0.36980000  0.36620000  1.0 -0.017056206
C  C42  1  0.50360000  0.77314000  0.13380000  1.0 -0.017056206
C  C43  1  0.36066000  0.72686000  0.23046000  1.0 -0.017056206
C  C44  1  0.99640000  0.13020000  0.26954000  1.0 -0.017056206
C  C45  1  0.36620000  0.13934000  0.36980000  1.0 -0.017056206
C  C46  1  0.13380000  0.50360000  0.77314000  1.0 -0.017056206
C  C47  1  0.23046000  0.36066000  0.72686000  1.0 -0.017056206
C  C48  1  0.26954000  0.99640000  0.13020000  1.0 -0.017056206
C  C49  1  0.63639000  0.58693000  0.79402000  1.0 -0.0620582165
C  C50  1  0.29291000  0.84237000  0.70598000  1.0 -0.0620582165
C  C51  1  0.86361000  0.65763000  0.95054000  1.0 -0.0620582165
C  C52  1  0.20709000  0.91307000  0.54946000  1.0 -0.0620582165
C  C53  1  0.79402000  0.63639000  0.58693000  1.0 -0.0620582165
C  C54  1  0.54946000  0.20709000  0.91307000  1.0 -0.0620582165
C  C55  1  0.70598000  0.29291000  0.84237000  1.0 -0.0620582165
C  C56  1  0.95054000  0.86361000  0.65763000  1.0 -0.0620582165
C  C57  1  0.58693000  0.79402000  0.63639000  1.0 -0.0620582165
C  C58  1  0.91307000  0.54946000  0.20709000  1.0 -0.0620582165
C  C59  1  0.84237000  0.70598000  0.29291000  1.0 -0.0620582165
C  C60  1  0.65763000  0.95054000  0.86361000  1.0 -0.0620582165
C  C61  1  0.36361000  0.41307000  0.20598000  1.0 -0.0620582165
C  C62  1  0.70709000  0.15763000  0.29402000  1.0 -0.0620582165
C  C63  1  0.13639000  0.34237000  0.04946000  1.0 -0.0620582165
C  C64  1  0.79291000  0.08693000  0.45054000  1.0 -0.0620582165
C  C65  1  0.20598000  0.36361000  0.41307000  1.0 -0.0620582165
C  C66  1  0.45054000  0.79291000  0.08693000  1.0 -0.0620582165
C  C67  1  0.29402000  0.70709000  0.15763000  1.0 -0.0620582165
C  C68  1  0.04946000  0.13639000  0.34237000  1.0 -0.0620582165
C  C69  1  0.41307000  0.20598000  0.36361000  1.0 -0.0620582165
C  C70  1  0.08693000  0.45054000  0.79291000  1.0 -0.0620582165
C  C71  1  0.15763000  0.29402000  0.70709000  1.0 -0.0620582165
C  C72  1  0.34237000  0.04946000  0.13639000  1.0 -0.0620582165
C  C73  1  0.67781000  0.62629000  0.76088000  1.0 -0.1318756114
C  C74  1  0.36541000  0.91693000  0.73912000  1.0 -0.1318756114
C  C75  1  0.82219000  0.58307000  0.94848000  1.0 -0.1318756114
C  C76  1  0.13459000  0.87371000  0.55152000  1.0 -0.1318756114
C  C77  1  0.76088000  0.67781000  0.62629000  1.0 -0.1318756114
C  C78  1  0.55152000  0.13459000  0.87371000  1.0 -0.1318756114
C  C79  1  0.73912000  0.36541000  0.91693000  1.0 -0.1318756114
C  C80  1  0.94848000  0.82219000  0.58307000  1.0 -0.1318756114
C  C81  1  0.62629000  0.76088000  0.67781000  1.0 -0.1318756114
C  C82  1  0.87371000  0.55152000  0.13459000  1.0 -0.1318756114
C  C83  1  0.91693000  0.73912000  0.36541000  1.0 -0.1318756114
C  C84  1  0.58307000  0.94848000  0.82219000  1.0 -0.1318756114
C  C85  1  0.32219000  0.37371000  0.23912000  1.0 -0.1318756114
C  C86  1  0.63459000  0.08307000  0.26088000  1.0 -0.1318756114
C  C87  1  0.17781000  0.41693000  0.05152000  1.0 -0.1318756114
C  C88  1  0.86541000  0.12629000  0.44848000  1.0 -0.1318756114
C  C89  1  0.23912000  0.32219000  0.37371000  1.0 -0.1318756114
C  C90  1  0.44848000  0.86541000  0.12629000  1.0 -0.1318756114
C  C91  1  0.26088000  0.63459000  0.08307000  1.0 -0.1318756114
C  C92  1  0.05152000  0.17781000  0.41693000  1.0 -0.1318756114
C  C93  1  0.37371000  0.23912000  0.32219000  1.0 -0.1318756114
C  C94  1  0.12629000  0.44848000  0.86541000  1.0 -0.1318756114
C  C95  1  0.08307000  0.26088000  0.63459000  1.0 -0.1318756114
C  C96  1  0.41693000  0.05152000  0.17781000  1.0 -0.1318756114
C  C97  1  0.71305000  0.71252000  0.79437000  1.0 0.1106026426
C  C98  1  0.41815000  0.91868000  0.70563000  1.0 0.1106026426
C  C99  1  0.78695000  0.58132000  0.99947000  1.0 0.1106026426
C  C100  1  0.08185000  0.78748000  0.50053000  1.0 0.1106026426
C  C101  1  0.79437000  0.71305000  0.71252000  1.0 0.1106026426
C  C102  1  0.50053000  0.08185000  0.78748000  1.0 0.1106026426
C  C103  1  0.70563000  0.41815000  0.91868000  1.0 0.1106026426
C  C104  1  0.99947000  0.78695000  0.58132000  1.0 0.1106026426
C  C105  1  0.71252000  0.79437000  0.71305000  1.0 0.1106026426
C  C106  1  0.78748000  0.50053000  0.08185000  1.0 0.1106026426
C  C107  1  0.91868000  0.70563000  0.41815000  1.0 0.1106026426
C  C108  1  0.58132000  0.99947000  0.78695000  1.0 0.1106026426
C  C109  1  0.28695000  0.28748000  0.20563000  1.0 0.1106026426
C  C110  1  0.58185000  0.08132000  0.29437000  1.0 0.1106026426
C  C111  1  0.21305000  0.41868000  0.00053000  1.0 0.1106026426
C  C112  1  0.91815000  0.21252000  0.49947000  1.0 0.1106026426
C  C113  1  0.20563000  0.28695000  0.28748000  1.0 0.1106026426
C  C114  1  0.49947000  0.91815000  0.21252000  1.0 0.1106026426
C  C115  1  0.29437000  0.58185000  0.08132000  1.0 0.1106026426
C  C116  1  0.00053000  0.21305000  0.41868000  1.0 0.1106026426
C  C117  1  0.28748000  0.20563000  0.28695000  1.0 0.1106026426
C  C118  1  0.21252000  0.49947000  0.91815000  1.0 0.1106026426
C  C119  1  0.08132000  0.29437000  0.58185000  1.0 0.1106026426
C  C120  1  0.41868000  0.00053000  0.21305000  1.0 0.1106026426
C  C121  1  0.70688000  0.75940000  0.86102000  1.0 -0.1318756114
C  C122  1  0.39838000  0.84586000  0.63898000  1.0 -0.1318756114
C  C123  1  0.79312000  0.65414000  0.05252000  1.0 -0.1318756114
C  C124  1  0.10162000  0.74060000  0.44748000  1.0 -0.1318756114
C  C125  1  0.86102000  0.70688000  0.75940000  1.0 -0.1318756114
C  C126  1  0.44748000  0.10162000  0.74060000  1.0 -0.1318756114
C  C127  1  0.63898000  0.39838000  0.84586000  1.0 -0.1318756114
C  C128  1  0.05252000  0.79312000  0.65414000  1.0 -0.1318756114
C  C129  1  0.75940000  0.86102000  0.70688000  1.0 -0.1318756114
C  C130  1  0.74060000  0.44748000  0.10162000  1.0 -0.1318756114
C  C131  1  0.84586000  0.63898000  0.39838000  1.0 -0.1318756114
C  C132  1  0.65414000  0.05252000  0.79312000  1.0 -0.1318756114
C  C133  1  0.29312000  0.24060000  0.13898000  1.0 -0.1318756114
C  C134  1  0.60162000  0.15414000  0.36102000  1.0 -0.1318756114
C  C135  1  0.20688000  0.34586000  0.94748000  1.0 -0.1318756114
C  C136  1  0.89838000  0.25940000  0.55252000  1.0 -0.1318756114
C  C137  1  0.13898000  0.29312000  0.24060000  1.0 -0.1318756114
C  C138  1  0.55252000  0.89838000  0.25940000  1.0 -0.1318756114
C  C139  1  0.36102000  0.60162000  0.15414000  1.0 -0.1318756114
C  C140  1  0.94748000  0.20688000  0.34586000  1.0 -0.1318756114
C  C141  1  0.24060000  0.13898000  0.29312000  1.0 -0.1318756114
C  C142  1  0.25940000  0.55252000  0.89838000  1.0 -0.1318756114
C  C143  1  0.15414000  0.36102000  0.60162000  1.0 -0.1318756114
C  C144  1  0.34586000  0.94748000  0.20688000  1.0 -0.1318756114
C  C145  1  0.66544000  0.72003000  0.89415000  1.0 -0.0757871378
C  C146  1  0.32588000  0.77129000  0.60585000  1.0 -0.0757871378
C  C147  1  0.83456000  0.72871000  0.05459000  1.0 -0.0757871378
C  C148  1  0.17412000  0.77997000  0.44541000  1.0 -0.0757871378
C  C149  1  0.89415000  0.66544000  0.72003000  1.0 -0.0757871378
C  C150  1  0.44541000  0.17412000  0.77997000  1.0 -0.0757871378
C  C151  1  0.60585000  0.32588000  0.77129000  1.0 -0.0757871378
C  C152  1  0.05459000  0.83456000  0.72871000  1.0 -0.0757871378
C  C153  1  0.72003000  0.89415000  0.66544000  1.0 -0.0757871378
C  C154  1  0.77997000  0.44541000  0.17412000  1.0 -0.0757871378
C  C155  1  0.77129000  0.60585000  0.32588000  1.0 -0.0757871378
C  C156  1  0.72871000  0.05459000  0.83456000  1.0 -0.0757871378
C  C157  1  0.33456000  0.27997000  0.10585000  1.0 -0.0757871378
C  C158  1  0.67412000  0.22871000  0.39415000  1.0 -0.0757871378
C  C159  1  0.16544000  0.27129000  0.94541000  1.0 -0.0757871378
C  C160  1  0.82588000  0.22003000  0.55459000  1.0 -0.0757871378
C  C161  1  0.10585000  0.33456000  0.27997000  1.0 -0.0757871378
C  C162  1  0.55459000  0.82588000  0.22003000  1.0 -0.0757871378
C  C163  1  0.39415000  0.67412000  0.22871000  1.0 -0.0757871378
C  C164  1  0.94541000  0.16544000  0.27129000  1.0 -0.0757871378
C  C165  1  0.27997000  0.10585000  0.33456000  1.0 -0.0757871378
C  C166  1  0.22003000  0.55459000  0.82588000  1.0 -0.0757871378
C  C167  1  0.22871000  0.39415000  0.67412000  1.0 -0.0757871378
C  C168  1  0.27129000  0.94541000  0.16544000  1.0 -0.0757871378
C  C169  1  0.76740000  0.76740000  0.76740000  1.0 -0.1229884518
C  C170  1  0.50000000  0.00000000  0.73260000  1.0 -0.1229884518
C  C171  1  0.73260000  0.50000000  0.00000000  1.0 -0.1229884518
C  C172  1  0.00000000  0.73260000  0.50000000  1.0 -0.1229884518
C  C173  1  0.23260000  0.23260000  0.23260000  1.0 -0.1229884518
C  C174  1  0.50000000  0.00000000  0.26740000  1.0 -0.1229884518
C  C175  1  0.26740000  0.50000000  0.00000000  1.0 -0.1229884518
C  C176  1  0.00000000  0.26740000  0.50000000  1.0 -0.1229884518
N  N1  1  0.22310000  0.98570000  0.87800000  1.0 0.6550491913
N  N2  1  0.27690000  0.15490000  0.76260000  1.0 0.6547025307
N  N3  1  0.89230000  0.51430000  0.73740000  1.0 0.6550491913
N  N4  1  0.60770000  0.34510000  0.62200000  1.0 0.6547025307
N  N5  1  0.98570000  0.87800000  0.22310000  1.0 0.6550491913
N  N6  1  0.15490000  0.76260000  0.27690000  1.0 0.6550491913
N  N7  1  0.51430000  0.73740000  0.89230000  1.0 0.6547025307
N  N8  1  0.34510000  0.62200000  0.60770000  1.0 0.6547025307
N  N9  1  0.73740000  0.89230000  0.51430000  1.0 0.6550491913
N  N10  1  0.87800000  0.22310000  0.98570000  1.0 0.6550491913
N  N11  1  0.76260000  0.27690000  0.15490000  1.0 0.6547025307
N  N12  1  0.62200000  0.60770000  0.34510000  1.0 0.6550491913
N  N13  1  0.77690000  0.01430000  0.12200000  1.0 0.6547025307
N  N14  1  0.72310000  0.84510000  0.23740000  1.0 0.6550491913
N  N15  1  0.10770000  0.48570000  0.26260000  1.0 0.6550491913
N  N16  1  0.39230000  0.65490000  0.37800000  1.0 0.6550491913
N  N17  1  0.01430000  0.12200000  0.77690000  1.0 0.6547025307
N  N18  1  0.84510000  0.23740000  0.72310000  1.0 0.6550491913
N  N19  1  0.48570000  0.26260000  0.10770000  1.0 0.6547025307
N  N20  1  0.65490000  0.37800000  0.39230000  1.0 0.6547025307
N  N21  1  0.26260000  0.10770000  0.48570000  1.0 0.6547025307
N  N22  1  0.12200000  0.77690000  0.01430000  1.0 0.6550491913
N  N23  1  0.23740000  0.72310000  0.84510000  1.0 0.6550491913
N  N24  1  0.37800000  0.39230000  0.65490000  1.0 0.6547025307
O  O1  1  0.55504000  0.51764000  0.86882000  1.0 -0.4420578503
O  O2  1  0.14882000  0.68622000  0.63118000  1.0 -0.4420578503
O  O3  1  0.94496000  0.81378000  0.96260000  1.0 -0.4420578503
O  O4  1  0.35118000  0.98236000  0.53740000  1.0 -0.4420578503
O  O5  1  0.86882000  0.55504000  0.51764000  1.0 -0.4420578503
O  O6  1  0.53740000  0.35118000  0.98236000  1.0 -0.4420578503
O  O7  1  0.63118000  0.14882000  0.68622000  1.0 -0.4420578503
O  O8  1  0.96260000  0.94496000  0.81378000  1.0 -0.4420578503
O  O9  1  0.51764000  0.86882000  0.55504000  1.0 -0.4420578503
O  O10  1  0.98236000  0.53740000  0.35118000  1.0 -0.4420578503
O  O11  1  0.68622000  0.63118000  0.14882000  1.0 -0.4420578503
O  O12  1  0.81378000  0.96260000  0.94496000  1.0 -0.4420578503
O  O13  1  0.44496000  0.48236000  0.13118000  1.0 -0.4420578503
O  O14  1  0.85118000  0.31378000  0.36882000  1.0 -0.4420578503
O  O15  1  0.05504000  0.18622000  0.03740000  1.0 -0.4420578503
O  O16  1  0.64882000  0.01764000  0.46260000  1.0 -0.4420578503
O  O17  1  0.13118000  0.44496000  0.48236000  1.0 -0.4420578503
O  O18  1  0.46260000  0.64882000  0.01764000  1.0 -0.4420578503
O  O19  1  0.36882000  0.85118000  0.31378000  1.0 -0.4420578503
O  O20  1  0.03740000  0.05504000  0.18622000  1.0 -0.4420578503
O  O21  1  0.48236000  0.13118000  0.44496000  1.0 -0.4420578503
O  O22  1  0.01764000  0.46260000  0.64882000  1.0 -0.4420578503
O  O23  1  0.31378000  0.36882000  0.85118000  1.0 -0.4420578503
O  O24  1  0.18622000  0.03740000  0.05504000  1.0 -0.4420578503
O  O25  1  0.60088000  0.63796000  0.96882000  1.0 -0.4047178464
O  O26  1  0.16914000  0.63206000  0.53118000  1.0 -0.4047178464
O  O27  1  0.89912000  0.86794000  0.03708000  1.0 -0.4047178464
O  O28  1  0.33086000  0.86204000  0.46292000  1.0 -0.4047178464
O  O29  1  0.96882000  0.60088000  0.63796000  1.0 -0.4047178464
O  O30  1  0.46292000  0.33086000  0.86204000  1.0 -0.4047178464
O  O31  1  0.53118000  0.16914000  0.63206000  1.0 -0.4047178464
O  O32  1  0.03708000  0.89912000  0.86794000  1.0 -0.4047178464
O  O33  1  0.63796000  0.96882000  0.60088000  1.0 -0.4047178464
O  O34  1  0.86204000  0.46292000  0.33086000  1.0 -0.4047178464
O  O35  1  0.63206000  0.53118000  0.16914000  1.0 -0.4051692919
O  O36  1  0.86794000  0.03708000  0.89912000  1.0 -0.4047178464
O  O37  1  0.39912000  0.36204000  0.03118000  1.0 -0.4047178464
O  O38  1  0.83086000  0.36794000  0.46882000  1.0 -0.4047178464
O  O39  1  0.10088000  0.13206000  0.96292000  1.0 -0.4047178464
O  O40  1  0.66914000  0.13796000  0.53708000  1.0 -0.4047178464
O  O41  1  0.03118000  0.39912000  0.36204000  1.0 -0.4047178464
O  O42  1  0.53708000  0.66914000  0.13796000  1.0 -0.4047178464
O  O43  1  0.46882000  0.83086000  0.36794000  1.0 -0.4047178464
O  O44  1  0.96292000  0.10088000  0.13206000  1.0 -0.4047178464
O  O45  1  0.36204000  0.03118000  0.39912000  1.0 -0.4047178464
O  O46  1  0.13796000  0.53708000  0.66914000  1.0 -0.4047178464
O  O47  1  0.36794000  0.46882000  0.83086000  1.0 -0.4047178464
O  O48  1  0.13206000  0.96292000  0.10088000  1.0 -0.4047178464
O  O49  1  0.50000000  0.50000000  0.00000000  1.0 -0.7558408962
O  O50  1  0.00000000  0.50000000  0.50000000  1.0 -0.7558408962
O  O51  1  0.00000000  0.00000000  0.00000000  1.0 -0.7558408962
O  O52  1  0.50000000  0.00000000  0.50000000  1.0 -0.7558408962
O  O53  1  0.19265000  0.03019000  0.89032000  1.0 -0.3608886593
O  O54  1  0.24011000  0.95629000  0.92160000  1.0 -0.3282609084
O  O55  1  0.24045000  0.97096000  0.82179000  1.0 -0.3608886593
O  O56  1  0.30735000  0.19767000  0.83754000  1.0 -0.3608886593
O  O57  1  0.25989000  0.18149000  0.71618000  1.0 -0.3282609084
O  O58  1  0.25955000  0.08134000  0.73051000  1.0 -0.3608886593
O  O59  1  0.86013000  0.46981000  0.66246000  1.0 -0.3608886593
O  O60  1  0.96531000  0.54371000  0.78382000  1.0 -0.3282609084
O  O61  1  0.85083000  0.52904000  0.76949000  1.0 -0.3608886593
O  O62  1  0.63987000  0.30233000  0.60968000  1.0 -0.3608886593
O  O63  1  0.53469000  0.31851000  0.57840000  1.0 -0.3282609084
O  O64  1  0.64917000  0.41866000  0.67821000  1.0 -0.3608886593
O  O65  1  0.03019000  0.89032000  0.19265000  1.0 -0.3608886593
O  O66  1  0.95629000  0.92160000  0.24011000  1.0 -0.3282609084
O  O67  1  0.97096000  0.82179000  0.24045000  1.0 -0.3608886593
O  O68  1  0.19767000  0.83754000  0.30735000  1.0 -0.3608886593
O  O69  1  0.18149000  0.71618000  0.25989000  1.0 -0.3282609084
O  O70  1  0.08134000  0.73051000  0.25955000  1.0 -0.3608886593
O  O71  1  0.46981000  0.66246000  0.86013000  1.0 -0.3608886593
O  O72  1  0.54371000  0.78382000  0.96531000  1.0 -0.3282609084
O  O73  1  0.52904000  0.76949000  0.85083000  1.0 -0.3608886593
O  O74  1  0.30233000  0.60968000  0.63987000  1.0 -0.3608886593
O  O75  1  0.31851000  0.57840000  0.53469000  1.0 -0.3282609084
O  O76  1  0.41866000  0.67821000  0.64917000  1.0 -0.3608886593
O  O77  1  0.66246000  0.86013000  0.46981000  1.0 -0.3608886593
O  O78  1  0.78382000  0.96531000  0.54371000  1.0 -0.3282609084
O  O79  1  0.76949000  0.85083000  0.52904000  1.0 -0.3608886593
O  O80  1  0.89032000  0.19265000  0.03019000  1.0 -0.3608886593
O  O81  1  0.92160000  0.24011000  0.95629000  1.0 -0.3282609084
O  O82  1  0.82179000  0.24045000  0.97096000  1.0 -0.3608886593
O  O83  1  0.83754000  0.30735000  0.19767000  1.0 -0.3608886593
O  O84  1  0.71618000  0.25989000  0.18149000  1.0 -0.3282609084
O  O85  1  0.73051000  0.25955000  0.08134000  1.0 -0.3608886593
O  O86  1  0.60968000  0.63987000  0.30233000  1.0 -0.3608886593
O  O87  1  0.57840000  0.53469000  0.31851000  1.0 -0.3282609084
O  O88  1  0.67821000  0.64917000  0.41866000  1.0 -0.3608886593
O  O89  1  0.80735000  0.96981000  0.10968000  1.0 -0.3608886593
O  O90  1  0.75989000  0.04371000  0.07840000  1.0 -0.3282609084
O  O91  1  0.75955000  0.02904000  0.17821000  1.0 -0.3608886593
O  O92  1  0.69265000  0.80233000  0.16246000  1.0 -0.3608886593
O  O93  1  0.74011000  0.81851000  0.28382000  1.0 -0.3282609084
O  O94  1  0.74045000  0.91866000  0.26949000  1.0 -0.3608886593
O  O95  1  0.13987000  0.53019000  0.33754000  1.0 -0.3608886593
O  O96  1  0.03469000  0.45629000  0.21618000  1.0 -0.3282609084
O  O97  1  0.14917000  0.47096000  0.23051000  1.0 -0.3608886593
O  O98  1  0.36013000  0.69767000  0.39032000  1.0 -0.3608886593
O  O99  1  0.46531000  0.68149000  0.42160000  1.0 -0.3282609084
O  O100  1  0.35083000  0.58134000  0.32179000  1.0 -0.3608886593
O  O101  1  0.96981000  0.10968000  0.80735000  1.0 -0.3608886593
O  O102  1  0.04371000  0.07840000  0.75989000  1.0 -0.3282609084
O  O103  1  0.02904000  0.17821000  0.75955000  1.0 -0.3608886593
O  O104  1  0.80233000  0.16246000  0.69265000  1.0 -0.3608886593
O  O105  1  0.81851000  0.28382000  0.74011000  1.0 -0.3282609084
O  O106  1  0.91866000  0.26949000  0.74045000  1.0 -0.3608886593
O  O107  1  0.53019000  0.33754000  0.13987000  1.0 -0.3608886593
O  O108  1  0.45629000  0.21618000  0.03469000  1.0 -0.3282609084
O  O109  1  0.47096000  0.23051000  0.14917000  1.0 -0.3608886593
O  O110  1  0.69767000  0.39032000  0.36013000  1.0 -0.3608886593
O  O111  1  0.68149000  0.42160000  0.46531000  1.0 -0.3282609084
O  O112  1  0.58134000  0.32179000  0.35083000  1.0 -0.3608886593
O  O113  1  0.33754000  0.13987000  0.53019000  1.0 -0.3608886593
O  O114  1  0.21618000  0.03469000  0.45629000  1.0 -0.3282609084
O  O115  1  0.23051000  0.14917000  0.47096000  1.0 -0.3608886593
O  O116  1  0.10968000  0.80735000  0.96981000  1.0 -0.3608886593
O  O117  1  0.07840000  0.75989000  0.04371000  1.0 -0.3282609084
O  O118  1  0.17821000  0.75955000  0.02904000  1.0 -0.3608886593
O  O119  1  0.16246000  0.69265000  0.80233000  1.0 -0.3608886593
O  O120  1  0.28382000  0.74011000  0.81851000  1.0 -0.3282609084
O  O121  1  0.26949000  0.74045000  0.91866000  1.0 -0.3608886593
O  O122  1  0.39032000  0.36013000  0.69767000  1.0 -0.3608886593
O  O123  1  0.42160000  0.46531000  0.68149000  1.0 -0.3282609084
O  O124  1  0.32179000  0.35083000  0.58134000  1.0 -0.3608886593
