# DDEC6 charges by PACMAN v1.1 (https://github.com/mtap-research/PACMAN-charge/)
data_NEHGIT_ion_pacman
_symmetry_space_group_name_H-M   'P 1'
_cell_length_a   10.24780000
_cell_length_b   25.26200000
_cell_length_c   11.43110000
_cell_angle_alpha   90.00000000
_cell_angle_beta   90.99200000
_cell_angle_gamma   90.00000000
_symmetry_Int_Tables_number   1
_chemical_formula_structural   Co2H44C53SN6(O3F)3
_chemical_formula_sum   'Co4 H88 C106 S2 N12 O18 F6'
_cell_volume   2958.83876402
_cell_formula_units_Z   2
loop_
 _symmetry_equiv_pos_site_id
 _symmetry_equiv_pos_as_xyz
  1  'x, y, z'
loop_
 _atom_site_type_symbol
 _atom_site_label
 _atom_site_symmetry_multiplicity
 _atom_site_fract_x
 _atom_site_fract_y
 _atom_site_fract_z
 _atom_site_occupancy
 _atom_site_charge
Co  Co1  1  0.55034000  0.77098000  0.48044000  1.0 0.750373072
Co  Co2  1  0.04799000  0.85307000  0.47381000  1.0 0.7446190383
Co  Co3  1  0.44966000  0.27098000  0.51956000  1.0 0.750373072
Co  Co4  1  0.95201000  0.35307000  0.52619000  1.0 0.750373072
H  H1  1  0.45600000  0.86300000  0.54000000  1.0 0.341179889
H  H2  1  0.73480000  0.74570000  0.69000000  1.0 0.0994682808
H  H3  1  0.37000000  0.79190000  0.68750000  1.0 0.0994682808
H  H4  1  0.80820000  0.70920000  0.48210000  1.0 0.0994682808
H  H5  1  0.45130000  0.65650000  0.48460000  1.0 0.1091948126
H  H6  1  0.63250000  0.91160000  0.53980000  1.0 0.1205326545
H  H7  1  0.74160000  0.74070000  0.89320000  1.0 0.1205326545
H  H8  1  0.36110000  0.78720000  0.88860000  1.0 0.1205326545
H  H9  1  0.88700000  0.62440000  0.47220000  1.0 0.1205326545
H  H10  1  0.52400000  0.57050000  0.47980000  1.0 0.1285030552
H  H11  1  0.51760000  0.87080000  0.26360000  1.0 0.1205326545
H  H12  1  0.71380000  0.98590000  0.44020000  1.0 0.0916614373
H  H13  1  0.97200000  0.76700000  0.38100000  1.0 0.341179889
H  H14  1  0.50460000  0.92540000  0.09840000  1.0 0.0916614373
H  H15  1  0.70080000  0.04050000  0.27500000  1.0 0.0815355744
H  H16  1  0.74460000  0.77680000  0.07630000  1.0 0.1285030552
H  H17  1  0.35760000  0.74620000  0.06500000  1.0 0.1205326545
H  H18  1  0.94490000  0.54780000  0.41830000  1.0 0.1205326545
H  H19  1  0.61230000  0.49770000  0.56520000  1.0 0.1285030552
H  H20  1  0.86580000  0.88180000  0.26290000  1.0 0.0916614373
H  H21  1  0.23350000  0.84160000  0.26530000  1.0 0.0916614373
H  H22  1  0.14110000  0.71670000  0.38610000  1.0 0.0916614373
H  H23  1  0.59620000  0.01030000  0.10410000  1.0 0.0815355744
H  H24  1  0.73380000  0.78090000  0.27250000  1.0 0.0994682808
H  H25  1  0.36170000  0.74770000  0.26440000  1.0 0.0994682808
H  H26  1  0.02530000  0.46200000  0.44040000  1.0 0.0994682808
H  H27  1  0.70520000  0.41620000  0.59180000  1.0 0.1091948126
H  H28  1  0.85520000  0.88300000  0.06310000  1.0 0.1285030552
H  H29  1  0.24000000  0.84520000  0.06200000  1.0 0.1285030552
H  H30  1  0.05500000  0.74910000  0.68210000  1.0 0.1091948126
H  H31  1  0.17800000  0.63330000  0.46480000  1.0 0.1091948126
H  H32  1  0.03160000  0.68680000  0.83180000  1.0 0.1091948126
H  H33  1  0.15460000  0.57100000  0.61450000  1.0 0.0916614373
H  H34  1  0.85220000  0.84150000  0.88570000  1.0 0.1285030552
H  H35  1  0.23300000  0.88170000  0.88210000  1.0 0.1285030552
H  H36  1  0.08130000  0.59780000  0.79800000  1.0 0.1091948126
H  H37  1  0.85180000  0.83550000  0.68200000  1.0 0.1091948126
H  H38  1  0.22580000  0.87540000  0.68120000  1.0 0.1091948126
H  H39  1  0.63190000  0.91570000  0.53210000  1.0 0.1091948126
H  H40  1  0.49530000  0.86540000  0.26430000  1.0 0.1091948126
H  H41  1  0.50920000  0.90370000  0.07860000  1.0 0.0815355744
H  H42  1  0.64790000  0.97590000  0.04890000  1.0 0.0916614373
H  H43  1  0.77290000  0.00970000  0.20500000  1.0 0.0815355744
H  H44  1  0.75910000  0.97140000  0.39070000  1.0 0.0994682808
H  H45  1  0.54400000  0.36300000  0.46000000  1.0 0.341179889
H  H46  1  0.26520000  0.24570000  0.31000000  1.0 0.0994682808
H  H47  1  0.63000000  0.29190000  0.31250000  1.0 0.0994682808
H  H48  1  0.19180000  0.20920000  0.51790000  1.0 0.0994682808
H  H49  1  0.54870000  0.15650000  0.51540000  1.0 0.1091948126
H  H50  1  0.36750000  0.41160000  0.46020000  1.0 0.1205326545
H  H51  1  0.25840000  0.24070000  0.10680000  1.0 0.1205326545
H  H52  1  0.63890000  0.28720000  0.11140000  1.0 0.1205326545
H  H53  1  0.11300000  0.12440000  0.52780000  1.0 0.1205326545
H  H54  1  0.47600000  0.07050000  0.52020000  1.0 0.1285030552
H  H55  1  0.48240000  0.37080000  0.73640000  1.0 0.1205326545
H  H56  1  0.28620000  0.48590000  0.55980000  1.0 0.0916614373
H  H57  1  0.02800000  0.26700000  0.61900000  1.0 0.341179889
H  H58  1  0.49540000  0.42540000  0.90160000  1.0 0.0916614373
H  H59  1  0.29920000  0.54050000  0.72500000  1.0 0.0815355744
H  H60  1  0.25540000  0.27680000  0.92370000  1.0 0.1285030552
H  H61  1  0.64240000  0.24620000  0.93500000  1.0 0.1205326545
H  H62  1  0.05510000  0.04780000  0.58170000  1.0 0.1205326545
H  H63  1  0.38770000  0.99770000  0.43480000  1.0 0.1285030552
H  H64  1  0.13420000  0.38180000  0.73710000  1.0 0.0916614373
H  H65  1  0.76650000  0.34160000  0.73470000  1.0 0.0916614373
H  H66  1  0.85890000  0.21670000  0.61390000  1.0 0.0916614373
H  H67  1  0.40380000  0.51030000  0.89590000  1.0 0.0916614373
H  H68  1  0.26620000  0.28090000  0.72750000  1.0 0.0994682808
H  H69  1  0.63830000  0.24770000  0.73560000  1.0 0.0994682808
H  H70  1  0.97470000  0.96200000  0.55960000  1.0 0.0994682808
H  H71  1  0.29480000  0.91620000  0.40820000  1.0 0.1091948126
H  H72  1  0.14480000  0.38300000  0.93690000  1.0 0.1285030552
H  H73  1  0.76000000  0.34520000  0.93800000  1.0 0.1285030552
H  H74  1  0.94500000  0.24910000  0.31790000  1.0 0.1091948126
H  H75  1  0.82200000  0.13330000  0.53520000  1.0 0.1091948126
H  H76  1  0.96840000  0.18680000  0.16820000  1.0 0.1091948126
H  H77  1  0.84540000  0.07100000  0.38550000  1.0 0.0916614373
H  H78  1  0.14780000  0.34150000  0.11430000  1.0 0.1285030552
H  H79  1  0.76700000  0.38170000  0.11790000  1.0 0.1285030552
H  H80  1  0.91870000  0.09780000  0.20200000  1.0 0.1091948126
H  H81  1  0.14820000  0.33550000  0.31800000  1.0 0.1091948126
H  H82  1  0.77420000  0.37540000  0.31880000  1.0 0.1091948126
H  H83  1  0.36810000  0.41570000  0.46790000  1.0 0.1091948126
H  H84  1  0.50470000  0.36540000  0.73570000  1.0 0.1091948126
H  H85  1  0.49080000  0.40370000  0.92140000  1.0 0.0815355744
H  H86  1  0.35210000  0.47590000  0.95110000  1.0 0.0916614373
H  H87  1  0.22710000  0.50970000  0.79500000  1.0 0.0815355744
H  H88  1  0.24090000  0.47140000  0.60930000  1.0 0.0994682808
C  C1  1  0.65810000  0.75410000  0.73180000  1.0 0.0916614373
C  C2  1  0.44560000  0.78080000  0.73010000  1.0 0.0916614373
C  C3  1  0.74770000  0.68070000  0.48060000  1.0 0.060953256
C  C4  1  0.54270000  0.65030000  0.48300000  1.0 0.0815355744
C  C5  1  0.75060000  0.85330000  0.47260000  1.0 0.5315804745
C  C6  1  0.62680000  0.88810000  0.46940000  1.0 -0.0807548721
C  C7  1  0.66380000  0.75110000  0.85330000  1.0 -0.2077444919
C  C8  1  0.43980000  0.77870000  0.85010000  1.0 -0.1998932932
C  C9  1  0.79570000  0.62960000  0.47900000  1.0 -0.1909775197
C  C10  1  0.58550000  0.59860000  0.48280000  1.0 -0.2077444919
C  C11  1  0.61690000  0.92320000  0.36740000  1.0 0.0389514786
C  C12  1  0.55110000  0.76400000  0.91490000  1.0 0.1091948126
C  C13  1  0.71860000  0.58750000  0.48730000  1.0 0.1091948126
C  C14  1  0.55480000  0.90530000  0.26590000  1.0 -0.1525163089
C  C15  1  0.67130000  0.97360000  0.37080000  1.0 -0.0709916797
C  C16  1  0.55180000  0.76450000  0.04390000  1.0 0.0994682808
C  C17  1  0.77120000  0.53290000  0.49570000  1.0 0.1091948126
C  C18  1  0.54710000  0.93770000  0.16780000  1.0 -0.0158736726
C  C19  1  0.66360000  0.00610000  0.27270000  1.0 -0.0807548721
C  C20  1  0.66250000  0.77240000  0.11250000  1.0 -0.1998932932
C  C21  1  0.43670000  0.75400000  0.10600000  1.0 -0.1998932932
C  C22  1  0.89360000  0.52130000  0.45460000  1.0 -0.1998932932
C  C23  1  0.69960000  0.49180000  0.54200000  1.0 -0.1822752018
C  C24  1  0.94210000  0.87290000  0.22120000  1.0 0.0389514786
C  C25  1  0.15570000  0.85010000  0.22300000  1.0 0.067593586
C  C26  1  0.25200000  0.77200000  0.47890000  1.0 0.539372709
C  C27  1  0.13130000  0.73670000  0.46100000  1.0 -0.0081679136
C  C28  1  0.60150000  0.98810000  0.17120000  1.0 -0.0709916797
C  C29  1  0.65550000  0.77400000  0.22950000  1.0 0.0524316284
C  C30  1  0.44020000  0.75530000  0.22460000  1.0 0.0389514786
C  C31  1  0.94030000  0.46980000  0.46760000  1.0 0.0916614373
C  C32  1  0.75380000  0.44310000  0.55420000  1.0 0.067593586
C  C33  1  0.93510000  0.87430000  0.10200000  1.0 -0.2077444919
C  C34  1  0.16050000  0.85170000  0.10100000  1.0 -0.2077444919
C  C35  1  0.11870000  0.69700000  0.55930000  1.0 0.067593586
C  C36  1  0.04630000  0.86300000  0.03740000  1.0 0.1205326545
C  C37  1  0.07520000  0.71290000  0.66830000  1.0 -0.1383745407
C  C38  1  0.14830000  0.64410000  0.53930000  1.0 -0.1716162448
C  C39  1  0.04180000  0.86050000  0.90640000  1.0 0.0994682808
C  C40  1  0.06130000  0.67600000  0.75730000  1.0 -0.1031678204
C  C41  1  0.13400000  0.60720000  0.62820000  1.0 -0.1383745407
C  C42  1  0.93060000  0.84800000  0.84480000  1.0 -0.1822752018
C  C43  1  0.15430000  0.87170000  0.84290000  1.0 -0.1909775197
C  C44  1  0.09100000  0.62310000  0.73720000  1.0 -0.116912998
C  C45  1  0.93000000  0.84450000  0.72320000  1.0 0.0815355744
C  C46  1  0.14910000  0.86790000  0.72370000  1.0 0.0815355744
C  C47  1  0.62600000  0.91480000  0.34500000  1.0 0.0524316284
C  C48  1  0.55200000  0.89470000  0.25200000  1.0 -0.1716162448
C  C49  1  0.56000000  0.91750000  0.14200000  1.0 -0.0401567032
C  C50  1  0.64200000  0.96030000  0.12400000  1.0 -0.0709916797
C  C51  1  0.71700000  0.98040000  0.21700000  1.0 -0.0709916797
C  C52  1  0.70800000  0.95770000  0.32700000  1.0 -0.0563121472
C  C53  1  0.34190000  0.25410000  0.26820000  1.0 0.0916614373
C  C54  1  0.55440000  0.28080000  0.26990000  1.0 0.0916614373
C  C55  1  0.25230000  0.18070000  0.51940000  1.0 0.060953256
C  C56  1  0.45730000  0.15030000  0.51700000  1.0 0.0815355744
C  C57  1  0.24940000  0.35330000  0.52740000  1.0 0.5315804745
C  C58  1  0.37320000  0.38810000  0.53060000  1.0 -0.0807548721
C  C59  1  0.33620000  0.25110000  0.14670000  1.0 -0.1998932932
C  C60  1  0.56020000  0.27870000  0.14990000  1.0 -0.1998932932
C  C61  1  0.20430000  0.12960000  0.52100000  1.0 -0.1909775197
C  C62  1  0.41450000  0.09860000  0.51720000  1.0 -0.2077444919
C  C63  1  0.38310000  0.42320000  0.63260000  1.0 0.0389514786
C  C64  1  0.44890000  0.26400000  0.08510000  1.0 0.1091948126
C  C65  1  0.28140000  0.08750000  0.51270000  1.0 0.1091948126
C  C66  1  0.44520000  0.40530000  0.73410000  1.0 -0.1525163089
C  C67  1  0.32870000  0.47360000  0.62920000  1.0 -0.0709916797
C  C68  1  0.44820000  0.26450000  0.95610000  1.0 0.0994682808
C  C69  1  0.22880000  0.03290000  0.50430000  1.0 0.1091948126
C  C70  1  0.45290000  0.43770000  0.83220000  1.0 -0.0158736726
C  C71  1  0.33640000  0.50610000  0.72730000  1.0 -0.0807548721
C  C72  1  0.33750000  0.27240000  0.88750000  1.0 -0.1998932932
C  C73  1  0.56330000  0.25400000  0.89400000  1.0 -0.1998932932
C  C74  1  0.10640000  0.02130000  0.54540000  1.0 -0.1998932932
C  C75  1  0.30040000  0.99180000  0.45800000  1.0 -0.1822752018
C  C76  1  0.05790000  0.37290000  0.77880000  1.0 0.0389514786
C  C77  1  0.84430000  0.35010000  0.77700000  1.0 0.067593586
C  C78  1  0.74800000  0.27200000  0.52110000  1.0 0.539372709
C  C79  1  0.86870000  0.23670000  0.53900000  1.0 -0.0081679136
C  C80  1  0.39850000  0.48810000  0.82880000  1.0 -0.0709916797
C  C81  1  0.34450000  0.27400000  0.77050000  1.0 0.0524316284
C  C82  1  0.55980000  0.25530000  0.77540000  1.0 0.0389514786
C  C83  1  0.05970000  0.96980000  0.53240000  1.0 0.0916614373
C  C84  1  0.24620000  0.94310000  0.44580000  1.0 0.067593586
C  C85  1  0.06490000  0.37430000  0.89800000  1.0 -0.1998932932
C  C86  1  0.83950000  0.35170000  0.89900000  1.0 -0.2077444919
C  C87  1  0.88130000  0.19700000  0.44070000  1.0 0.067593586
C  C88  1  0.95370000  0.36300000  0.96260000  1.0 0.1205326545
C  C89  1  0.92480000  0.21290000  0.33170000  1.0 -0.1383745407
C  C90  1  0.85170000  0.14410000  0.46070000  1.0 -0.1716162448
C  C91  1  0.95820000  0.36050000  0.09360000  1.0 0.0916614373
C  C92  1  0.93870000  0.17600000  0.24270000  1.0 -0.1031678204
C  C93  1  0.86600000  0.10720000  0.37180000  1.0 -0.1383745407
C  C94  1  0.06940000  0.34800000  0.15520000  1.0 -0.1822752018
C  C95  1  0.84570000  0.37170000  0.15710000  1.0 -0.1909775197
C  C96  1  0.90900000  0.12310000  0.26280000  1.0 -0.116912998
C  C97  1  0.07000000  0.34450000  0.27680000  1.0 0.0815355744
C  C98  1  0.85090000  0.36790000  0.27630000  1.0 0.0815355744
C  C99  1  0.37400000  0.41480000  0.65500000  1.0 0.0524316284
C  C100  1  0.44800000  0.39470000  0.74800000  1.0 -0.1716162448
C  C101  1  0.44000000  0.41750000  0.85800000  1.0 -0.0401567032
C  C102  1  0.35800000  0.46030000  0.87600000  1.0 -0.0709916797
C  C103  1  0.28300000  0.48040000  0.78300000  1.0 -0.0709916797
C  C104  1  0.29200000  0.45770000  0.67300000  1.0 -0.0563121472
C  C105  1  0.44770000  0.48920000  0.23930000  1.0 0.4915024902
C  C106  1  0.55230000  0.98920000  0.76070000  1.0 0.4915024902
S  S1  1  0.47960000  0.41793000  0.22460000  1.0 0.9460092451
S  S2  1  0.52040000  0.91793000  0.77540000  1.0 0.9446391727
N  N1  1  0.55150000  0.76800000  0.67040000  1.0 -0.2360272293
N  N2  1  0.62130000  0.69190000  0.48000000  1.0 -0.2360272293
N  N3  1  0.54730000  0.76650000  0.29000000  1.0 -0.2620977893
N  N4  1  0.04860000  0.85980000  0.28330000  1.0 -0.2620977893
N  N5  1  0.12640000  0.93130000  0.48460000  1.0 -0.232452992
N  N6  1  0.04030000  0.85400000  0.66340000  1.0 -0.2620977893
N  N7  1  0.44850000  0.26800000  0.32960000  1.0 -0.2360272293
N  N8  1  0.37870000  0.19190000  0.52000000  1.0 -0.232452992
N  N9  1  0.45270000  0.26650000  0.71000000  1.0 -0.2620977893
N  N10  1  0.95140000  0.35980000  0.71670000  1.0 -0.2620977893
N  N11  1  0.87360000  0.43130000  0.51540000  1.0 -0.232452992
N  N12  1  0.95970000  0.35400000  0.33660000  1.0 -0.2620977893
O  O1  1  0.73560000  0.80400000  0.47940000  1.0 -0.5302020246
O  O2  1  0.51440000  0.85620000  0.48320000  1.0 -0.5302020246
O  O3  1  0.35890000  0.74800000  0.48150000  1.0 -0.5418475602
O  O4  1  0.85670000  0.87740000  0.47040000  1.0 -0.5302020246
O  O5  1  0.23740000  0.82070000  0.48550000  1.0 -0.5173914169
O  O6  1  0.01680000  0.76890000  0.45110000  1.0 -0.4765950476
O  O7  1  0.26440000  0.30400000  0.52060000  1.0 -0.5302020246
O  O8  1  0.48560000  0.35620000  0.51680000  1.0 -0.5302020246
O  O9  1  0.64110000  0.24800000  0.51850000  1.0 -0.5418475602
O  O10  1  0.14330000  0.37740000  0.52960000  1.0 -0.5302020246
O  O11  1  0.76260000  0.32070000  0.51450000  1.0 -0.5173914169
O  O12  1  0.98320000  0.26890000  0.54890000  1.0 -0.4765950476
O  O13  1  0.35250000  0.39490000  0.23160000  1.0 -0.5466249917
O  O14  1  0.56350000  0.40850000  0.32570000  1.0 -0.5597441678
O  O15  1  0.54390000  0.41390000  0.11470000  1.0 -0.5597441678
O  O16  1  0.64750000  0.89490000  0.76840000  1.0 -0.5466249917
O  O17  1  0.43650000  0.90850000  0.67430000  1.0 -0.5597441678
O  O18  1  0.45610000  0.91390000  0.88530000  1.0 -0.5597441678
F  F1  1  0.36980000  0.50500000  0.14840000  1.0 -0.232452992
F  F2  1  0.55660000  0.51730000  0.23820000  1.0 -0.1909775197
F  F3  1  0.38920000  0.49980000  0.33800000  1.0 -0.2077444919
F  F4  1  0.63020000  0.00500000  0.85160000  1.0 -0.232452992
F  F5  1  0.44340000  0.01730000  0.76180000  1.0 -0.1909775197
F  F6  1  0.61080000  0.99980000  0.66200000  1.0 -0.2077444919
