# DDEC6 charges by PACMAN v1.1 (https://github.com/mtap-research/PACMAN-charge/)
data_NELNIF03_FSR_pacman
_symmetry_space_group_name_H-M   'P 1'
_cell_length_a   7.44920000
_cell_length_b   14.21600000
_cell_length_c   29.43700000
_cell_angle_alpha   90.00000000
_cell_angle_beta   90.00000000
_cell_angle_gamma   90.00000000
_symmetry_Int_Tables_number   1
_chemical_formula_structural   FeH20PtC32(SN3)2
_chemical_formula_sum   'Fe4 H80 Pt4 C128 S8 N24'
_cell_volume   3117.31433929
_cell_formula_units_Z   4
loop_
 _symmetry_equiv_pos_site_id
 _symmetry_equiv_pos_as_xyz
  1  'x, y, z'
loop_
 _atom_site_type_symbol
 _atom_site_label
 _atom_site_symmetry_multiplicity
 _atom_site_fract_x
 _atom_site_fract_y
 _atom_site_fract_z
 _atom_site_occupancy
 _atom_site_charge
Fe  Fe1  1  0.00000000  0.26646000  0.24496000  1.0 0.7210008367
Fe  Fe2  1  0.00000000  0.73354000  0.75504000  1.0 0.7210008367
Fe  Fe3  1  0.00000000  0.23354000  0.74496000  1.0 0.7210008367
Fe  Fe4  1  0.00000000  0.76646000  0.25504000  1.0 0.7210008367
H  H1  1  0.87528000  0.18339000  0.14732000  1.0 0.1180458605
H  H2  1  0.88881000  0.22978000  0.07279000  1.0 0.0905898581
H  H3  1  0.12783000  0.41911000  0.18389000  1.0 0.1103483336
H  H4  1  0.88526000  0.40602000  0.80121000  1.0 0.1103483336
H  H5  1  0.86572000  0.45417000  0.87545000  1.0 0.0709089362
H  H6  1  0.10918000  0.16532000  0.84217000  1.0 0.1038639515
H  H7  1  0.18889000  0.48771000  0.03113000  1.0 0.0905898581
H  H8  1  0.18546000  0.47770000  0.94630000  1.0 0.0777377575
H  H9  1  0.14421000  0.46512000  0.10899000  1.0 0.0638321615
H  H10  1  0.08991000  0.21393000  0.91626000  1.0 0.0905898581
H  H11  1  0.87528000  0.81661000  0.85268000  1.0 0.1180458605
H  H12  1  0.88881000  0.77022000  0.92721000  1.0 0.0905898581
H  H13  1  0.12783000  0.58089000  0.81611000  1.0 0.1103483336
H  H14  1  0.88526000  0.59398000  0.19879000  1.0 0.1103483336
H  H15  1  0.86572000  0.54583000  0.12455000  1.0 0.0709089362
H  H16  1  0.10918000  0.83468000  0.15783000  1.0 0.1038639515
H  H17  1  0.18889000  0.51229000  0.96887000  1.0 0.0905898581
H  H18  1  0.18546000  0.52230000  0.05370000  1.0 0.0777377575
H  H19  1  0.14421000  0.53488000  0.89101000  1.0 0.0638321615
H  H20  1  0.08991000  0.78607000  0.08374000  1.0 0.0905898581
H  H21  1  0.12472000  0.31661000  0.64732000  1.0 0.1180458605
H  H22  1  0.11119000  0.27022000  0.57279000  1.0 0.0905898581
H  H23  1  0.87217000  0.08089000  0.68389000  1.0 0.1103483336
H  H24  1  0.11474000  0.09398000  0.30121000  1.0 0.1038639515
H  H25  1  0.13428000  0.04583000  0.37545000  1.0 0.0709089362
H  H26  1  0.89082000  0.33468000  0.34217000  1.0 0.1038639515
H  H27  1  0.81111000  0.01229000  0.53113000  1.0 0.0905898581
H  H28  1  0.81454000  0.02230000  0.44630000  1.0 0.0777377575
H  H29  1  0.85579000  0.03488000  0.60899000  1.0 0.0638321615
H  H30  1  0.91009000  0.28607000  0.41626000  1.0 0.0905898581
H  H31  1  0.12472000  0.68339000  0.35268000  1.0 0.1180458605
H  H32  1  0.11119000  0.72978000  0.42721000  1.0 0.0905898581
H  H33  1  0.87217000  0.91911000  0.31611000  1.0 0.1103483336
H  H34  1  0.11474000  0.90602000  0.69879000  1.0 0.1103483336
H  H35  1  0.13428000  0.95417000  0.62455000  1.0 0.0709089362
H  H36  1  0.89082000  0.66532000  0.65783000  1.0 0.1038639515
H  H37  1  0.81111000  0.98771000  0.46887000  1.0 0.0905898581
H  H38  1  0.81454000  0.97770000  0.55370000  1.0 0.0777377575
H  H39  1  0.85579000  0.96512000  0.39101000  1.0 0.0638321615
H  H40  1  0.91009000  0.71393000  0.58374000  1.0 0.0905898581
H  H41  1  0.12472000  0.81661000  0.85268000  1.0 0.1180458605
H  H42  1  0.11119000  0.77022000  0.92721000  1.0 0.0905898581
H  H43  1  0.87217000  0.58089000  0.81611000  1.0 0.1103483336
H  H44  1  0.11474000  0.59398000  0.19879000  1.0 0.1103483336
H  H45  1  0.13428000  0.54583000  0.12455000  1.0 0.0709089362
H  H46  1  0.89082000  0.83468000  0.15783000  1.0 0.1038639515
H  H47  1  0.81111000  0.51229000  0.96887000  1.0 0.0905898581
H  H48  1  0.81454000  0.52230000  0.05370000  1.0 0.0777377575
H  H49  1  0.85579000  0.53488000  0.89101000  1.0 0.0638321615
H  H50  1  0.91009000  0.78607000  0.08374000  1.0 0.0905898581
H  H51  1  0.12472000  0.18339000  0.14732000  1.0 0.1180458605
H  H52  1  0.11119000  0.22978000  0.07279000  1.0 0.0905898581
H  H53  1  0.87217000  0.41911000  0.18389000  1.0 0.1103483336
H  H54  1  0.11474000  0.40602000  0.80121000  1.0 0.1103483336
H  H55  1  0.13428000  0.45417000  0.87545000  1.0 0.0709089362
H  H56  1  0.89082000  0.16532000  0.84217000  1.0 0.1038639515
H  H57  1  0.81111000  0.48771000  0.03113000  1.0 0.0905898581
H  H58  1  0.81454000  0.47770000  0.94630000  1.0 0.0777377575
H  H59  1  0.85579000  0.46512000  0.10899000  1.0 0.0638321615
H  H60  1  0.91009000  0.21393000  0.91626000  1.0 0.0905898581
H  H61  1  0.87528000  0.68339000  0.35268000  1.0 0.1180458605
H  H62  1  0.88881000  0.72978000  0.42721000  1.0 0.0905898581
H  H63  1  0.12783000  0.91911000  0.31611000  1.0 0.1103483336
H  H64  1  0.88526000  0.90602000  0.69879000  1.0 0.1103483336
H  H65  1  0.86572000  0.95417000  0.62455000  1.0 0.0709089362
H  H66  1  0.10918000  0.66532000  0.65783000  1.0 0.1038639515
H  H67  1  0.18889000  0.98771000  0.46887000  1.0 0.0905898581
H  H68  1  0.18546000  0.97770000  0.55370000  1.0 0.0777377575
H  H69  1  0.14421000  0.96512000  0.39101000  1.0 0.0638321615
H  H70  1  0.08991000  0.71393000  0.58374000  1.0 0.0905898581
H  H71  1  0.87528000  0.31661000  0.64732000  1.0 0.1180458605
H  H72  1  0.88881000  0.27022000  0.57279000  1.0 0.0905898581
H  H73  1  0.12783000  0.08089000  0.68389000  1.0 0.1103483336
H  H74  1  0.88526000  0.09398000  0.30121000  1.0 0.1038639515
H  H75  1  0.86572000  0.04583000  0.37545000  1.0 0.0709089362
H  H76  1  0.10918000  0.33468000  0.34217000  1.0 0.1038639515
H  H77  1  0.18889000  0.01229000  0.53113000  1.0 0.0905898581
H  H78  1  0.18546000  0.02230000  0.44630000  1.0 0.0777377575
H  H79  1  0.14421000  0.03488000  0.60899000  1.0 0.0638321615
H  H80  1  0.08991000  0.28607000  0.41626000  1.0 0.0905898581
Pt  Pt1  1  0.50000000  0.01610000  0.23811000  1.0 0.0408365238
Pt  Pt2  1  0.50000000  0.98390000  0.76189000  1.0 0.0408365238
Pt  Pt3  1  0.50000000  0.48390000  0.73811000  1.0 0.0408365238
Pt  Pt4  1  0.50000000  0.51610000  0.26189000  1.0 0.0408365238
C  C1  1  0.31000000  0.11150000  0.23470000  1.0 0.0314352268
C  C2  1  0.30800000  0.41780000  0.25980000  1.0 0.0314352268
C  C3  1  0.93000000  0.24030000  0.13990000  1.0 0.0198020104
C  C4  1  0.93900000  0.26810000  0.09510000  1.0 -0.0915443678
C  C5  1  0.02000000  0.35140000  0.08260000  1.0 0.0484062634
C  C6  1  0.09000000  0.40820000  0.11650000  1.0 -0.0802965467
C  C7  1  0.08000000  0.38050000  0.16140000  1.0 -0.0216547138
C  C8  1  0.92700000  0.36690000  0.82430000  1.0 0.0103221612
C  C9  1  0.91500000  0.39560000  0.86890000  1.0 -0.0802965467
C  C10  1  0.97400000  0.33930000  0.90440000  1.0 0.0314352268
C  C11  1  0.04800000  0.25300000  0.89330000  1.0 -0.0691421194
C  C12  1  0.06000000  0.22390000  0.84870000  1.0 0.0198020104
C  C13  1  0.04900000  0.35890000  0.03200000  1.0 0.0039205238
C  C14  1  0.13700000  0.43970000  0.01410000  1.0 -0.1364167542
C  C15  1  0.13300000  0.43500000  0.96610000  1.0 -0.1819590912
C  C16  1  0.03600000  0.35290000  0.95310000  1.0 0.0103221612
C  C17  1  0.31000000  0.88850000  0.76530000  1.0 0.0314352268
C  C18  1  0.30800000  0.58220000  0.74020000  1.0 0.0314352268
C  C19  1  0.93000000  0.75970000  0.86010000  1.0 0.0198020104
C  C20  1  0.93900000  0.73190000  0.90490000  1.0 -0.0915443678
C  C21  1  0.02000000  0.64860000  0.91740000  1.0 0.0484062634
C  C22  1  0.09000000  0.59180000  0.88350000  1.0 -0.0802965467
C  C23  1  0.08000000  0.61950000  0.83860000  1.0 -0.0216547138
C  C24  1  0.92700000  0.63310000  0.17570000  1.0 0.0103221612
C  C25  1  0.91500000  0.60440000  0.13110000  1.0 -0.0802965467
C  C26  1  0.97400000  0.66070000  0.09560000  1.0 0.0314352268
C  C27  1  0.04800000  0.74700000  0.10670000  1.0 -0.0691421194
C  C28  1  0.06000000  0.77610000  0.15130000  1.0 0.0198020104
C  C29  1  0.04900000  0.64110000  0.96800000  1.0 0.0039205238
C  C30  1  0.13700000  0.56030000  0.98590000  1.0 -0.1364167542
C  C31  1  0.13300000  0.56500000  0.03390000  1.0 -0.1819590912
C  C32  1  0.03600000  0.64710000  0.04690000  1.0 0.0103221612
C  C33  1  0.69000000  0.38850000  0.73470000  1.0 0.0314352268
C  C34  1  0.69200000  0.08220000  0.75980000  1.0 0.0314352268
C  C35  1  0.07000000  0.25970000  0.63990000  1.0 0.0198020104
C  C36  1  0.06100000  0.23190000  0.59510000  1.0 -0.0915443678
C  C37  1  0.98000000  0.14860000  0.58260000  1.0 0.0484062634
C  C38  1  0.91000000  0.09180000  0.61650000  1.0 -0.0802965467
C  C39  1  0.92000000  0.11950000  0.66140000  1.0 -0.0216547138
C  C40  1  0.07300000  0.13310000  0.32430000  1.0 0.0103221612
C  C41  1  0.08500000  0.10440000  0.36890000  1.0 -0.0802965467
C  C42  1  0.02600000  0.16070000  0.40440000  1.0 0.0314352268
C  C43  1  0.95200000  0.24700000  0.39330000  1.0 -0.0691421194
C  C44  1  0.94000000  0.27610000  0.34870000  1.0 0.0198020104
C  C45  1  0.95100000  0.14110000  0.53200000  1.0 0.0103221612
C  C46  1  0.86300000  0.06030000  0.51410000  1.0 -0.1364167542
C  C47  1  0.86700000  0.06500000  0.46610000  1.0 -0.1819590912
C  C48  1  0.96400000  0.14710000  0.45310000  1.0 0.0103221612
C  C49  1  0.69000000  0.61150000  0.26530000  1.0 0.0314352268
C  C50  1  0.69200000  0.91780000  0.24020000  1.0 0.0314352268
C  C51  1  0.07000000  0.74030000  0.36010000  1.0 0.0198020104
C  C52  1  0.06100000  0.76810000  0.40490000  1.0 -0.0915443678
C  C53  1  0.98000000  0.85140000  0.41740000  1.0 0.0484062634
C  C54  1  0.91000000  0.90820000  0.38350000  1.0 -0.0802965467
C  C55  1  0.92000000  0.88050000  0.33860000  1.0 -0.0216547138
C  C56  1  0.07300000  0.86690000  0.67570000  1.0 0.0103221612
C  C57  1  0.08500000  0.89560000  0.63110000  1.0 -0.0802965467
C  C58  1  0.02600000  0.83930000  0.59560000  1.0 0.0314352268
C  C59  1  0.95200000  0.75300000  0.60670000  1.0 -0.0691421194
C  C60  1  0.94000000  0.72390000  0.65130000  1.0 0.0198020104
C  C61  1  0.95100000  0.85890000  0.46800000  1.0 0.0103221612
C  C62  1  0.86300000  0.93970000  0.48590000  1.0 -0.1364167542
C  C63  1  0.86700000  0.93500000  0.53390000  1.0 -0.1819590912
C  C64  1  0.96400000  0.85290000  0.54690000  1.0 0.0103221612
C  C65  1  0.69000000  0.88850000  0.76530000  1.0 0.0314352268
C  C66  1  0.69200000  0.58220000  0.74020000  1.0 0.0314352268
C  C67  1  0.07000000  0.75970000  0.86010000  1.0 0.0198020104
C  C68  1  0.06100000  0.73190000  0.90490000  1.0 -0.0915443678
C  C69  1  0.98000000  0.64860000  0.91740000  1.0 0.0484062634
C  C70  1  0.91000000  0.59180000  0.88350000  1.0 -0.0802965467
C  C71  1  0.92000000  0.61950000  0.83860000  1.0 -0.0216547138
C  C72  1  0.07300000  0.63310000  0.17570000  1.0 0.0103221612
C  C73  1  0.08500000  0.60440000  0.13110000  1.0 -0.0802965467
C  C74  1  0.02600000  0.66070000  0.09560000  1.0 0.0314352268
C  C75  1  0.95200000  0.74700000  0.10670000  1.0 -0.0691421194
C  C76  1  0.94000000  0.77610000  0.15130000  1.0 0.0198020104
C  C77  1  0.95100000  0.64110000  0.96800000  1.0 0.0039205238
C  C78  1  0.86300000  0.56030000  0.98590000  1.0 -0.1364167542
C  C79  1  0.86700000  0.56500000  0.03390000  1.0 -0.1819590912
C  C80  1  0.96400000  0.64710000  0.04690000  1.0 0.0103221612
C  C81  1  0.69000000  0.11150000  0.23470000  1.0 0.0314352268
C  C82  1  0.69200000  0.41780000  0.25980000  1.0 0.0314352268
C  C83  1  0.07000000  0.24030000  0.13990000  1.0 0.0198020104
C  C84  1  0.06100000  0.26810000  0.09510000  1.0 -0.0915443678
C  C85  1  0.98000000  0.35140000  0.08260000  1.0 0.0484062634
C  C86  1  0.91000000  0.40820000  0.11650000  1.0 -0.0802965467
C  C87  1  0.92000000  0.38050000  0.16140000  1.0 -0.0216547138
C  C88  1  0.07300000  0.36690000  0.82430000  1.0 0.0103221612
C  C89  1  0.08500000  0.39560000  0.86890000  1.0 -0.0802965467
C  C90  1  0.02600000  0.33930000  0.90440000  1.0 0.0314352268
C  C91  1  0.95200000  0.25300000  0.89330000  1.0 -0.0691421194
C  C92  1  0.94000000  0.22390000  0.84870000  1.0 0.0314352268
C  C93  1  0.95100000  0.35890000  0.03200000  1.0 0.0103221612
C  C94  1  0.86300000  0.43970000  0.01410000  1.0 -0.1364167542
C  C95  1  0.86700000  0.43500000  0.96610000  1.0 -0.1819590912
C  C96  1  0.96400000  0.35290000  0.95310000  1.0 0.0103221612
C  C97  1  0.31000000  0.61150000  0.26530000  1.0 0.0314352268
C  C98  1  0.30800000  0.91780000  0.24020000  1.0 0.0314352268
C  C99  1  0.93000000  0.74030000  0.36010000  1.0 0.0198020104
C  C100  1  0.93900000  0.76810000  0.40490000  1.0 -0.0915443678
C  C101  1  0.02000000  0.85140000  0.41740000  1.0 0.0484062634
C  C102  1  0.09000000  0.90820000  0.38350000  1.0 -0.0802965467
C  C103  1  0.08000000  0.88050000  0.33860000  1.0 -0.0216547138
C  C104  1  0.92700000  0.86690000  0.67570000  1.0 0.0103221612
C  C105  1  0.91500000  0.89560000  0.63110000  1.0 -0.0802965467
C  C106  1  0.97400000  0.83930000  0.59560000  1.0 0.0314352268
C  C107  1  0.04800000  0.75300000  0.60670000  1.0 -0.0691421194
C  C108  1  0.06000000  0.72390000  0.65130000  1.0 0.0198020104
C  C109  1  0.04900000  0.85890000  0.46800000  1.0 0.0039205238
C  C110  1  0.13700000  0.93970000  0.48590000  1.0 -0.1364167542
C  C111  1  0.13300000  0.93500000  0.53390000  1.0 -0.1819590912
C  C112  1  0.03600000  0.85290000  0.54690000  1.0 0.0103221612
C  C113  1  0.31000000  0.38850000  0.73470000  1.0 0.0314352268
C  C114  1  0.30800000  0.08220000  0.75980000  1.0 0.0314352268
C  C115  1  0.93000000  0.25970000  0.63990000  1.0 0.0198020104
C  C116  1  0.93900000  0.23190000  0.59510000  1.0 -0.0915443678
C  C117  1  0.02000000  0.14860000  0.58260000  1.0 0.0484062634
C  C118  1  0.09000000  0.09180000  0.61650000  1.0 -0.0802965467
C  C119  1  0.08000000  0.11950000  0.66140000  1.0 -0.0216547138
C  C120  1  0.92700000  0.13310000  0.32430000  1.0 0.0103221612
C  C121  1  0.91500000  0.10440000  0.36890000  1.0 -0.0802965467
C  C122  1  0.97400000  0.16070000  0.40440000  1.0 0.0314352268
C  C123  1  0.04800000  0.24700000  0.39330000  1.0 -0.0691421194
C  C124  1  0.06000000  0.27610000  0.34870000  1.0 0.0198020104
C  C125  1  0.04900000  0.14110000  0.53200000  1.0 0.0039205238
C  C126  1  0.13700000  0.06030000  0.51410000  1.0 -0.1364167542
C  C127  1  0.13300000  0.06500000  0.46610000  1.0 -0.1819590912
C  C128  1  0.03600000  0.14710000  0.45310000  1.0 0.0103221612
S  S1  1  0.94040000  0.28590000  0.99500000  1.0 0.0314352268
S  S2  1  0.94040000  0.71410000  0.00500000  1.0 0.0314352268
S  S3  1  0.05960000  0.21410000  0.49500000  1.0 0.0314352268
S  S4  1  0.05960000  0.78590000  0.50500000  1.0 0.0314352268
S  S5  1  0.05960000  0.71410000  0.00500000  1.0 0.0314352268
S  S6  1  0.05960000  0.28590000  0.99500000  1.0 0.0314352268
S  S7  1  0.94040000  0.78590000  0.50500000  1.0 0.0314352268
S  S8  1  0.94040000  0.21410000  0.49500000  1.0 0.0314352268
N  N1  1  0.19800000  0.16710000  0.23380000  1.0 -0.3825603113
N  N2  1  0.19900000  0.36540000  0.25700000  1.0 -0.3700993494
N  N3  1  0.19800000  0.83290000  0.76620000  1.0 -0.3825603113
N  N4  1  0.19900000  0.63460000  0.74300000  1.0 -0.3700993494
N  N5  1  0.80200000  0.33290000  0.73380000  1.0 -0.3825603113
N  N6  1  0.80100000  0.13460000  0.75700000  1.0 -0.3700993494
N  N7  1  0.80200000  0.66710000  0.26620000  1.0 -0.3825603113
N  N8  1  0.80100000  0.86540000  0.24300000  1.0 -0.3700993494
N  N9  1  0.80200000  0.83290000  0.76620000  1.0 -0.3825603113
N  N10  1  0.80100000  0.63460000  0.74300000  1.0 -0.3700993494
N  N11  1  0.80200000  0.16710000  0.23380000  1.0 -0.3825603113
N  N12  1  0.80100000  0.36540000  0.25700000  1.0 -0.3700993494
N  N13  1  0.19800000  0.66710000  0.26620000  1.0 -0.3825603113
N  N14  1  0.19900000  0.86540000  0.24300000  1.0 -0.3700993494
N  N15  1  0.19800000  0.33290000  0.73380000  1.0 -0.3825603113
N  N16  1  0.19900000  0.13460000  0.75700000  1.0 -0.3700993494
N  N17  1  0.00000000  0.29590000  0.17370000  1.0 -0.1081041121
N  N18  1  0.00000000  0.27970000  0.81360000  1.0 -0.1606028811
N  N19  1  0.00000000  0.70410000  0.82630000  1.0 -0.1081041121
N  N20  1  0.00000000  0.72030000  0.18640000  1.0 -0.1606028811
N  N21  1  0.00000000  0.20410000  0.67370000  1.0 -0.1081041121
N  N22  1  0.00000000  0.22030000  0.31360000  1.0 -0.1606028811
N  N23  1  0.00000000  0.79590000  0.32630000  1.0 -0.1081041121
N  N24  1  0.00000000  0.77970000  0.68640000  1.0 -0.1606028811
