# DDEC6 charges by PACMAN v1.1 (https://github.com/mtap-research/PACMAN-charge/)
data_NENHEU_ASR_pacman
_symmetry_space_group_name_H-M   'P 1'
_cell_length_a   20.14010000
_cell_length_b   20.14010000
_cell_length_c   20.14010000
_cell_angle_alpha   90.00000000
_cell_angle_beta   90.00000000
_cell_angle_gamma   90.00000000
_symmetry_Int_Tables_number   1
_chemical_formula_structural   ZnH12(C13O2)2
_chemical_formula_sum   'Zn12 H144 C312 O48'
_cell_volume   8169.30043048
_cell_formula_units_Z   12
loop_
 _symmetry_equiv_pos_site_id
 _symmetry_equiv_pos_as_xyz
  1  'x, y, z'
loop_
 _atom_site_type_symbol
 _atom_site_label
 _atom_site_symmetry_multiplicity
 _atom_site_fract_x
 _atom_site_fract_y
 _atom_site_fract_z
 _atom_site_occupancy
 _atom_site_charge
Zn  Zn1  1  0.87500000  0.37500000  0.12500000  1.0 0.8454031919
Zn  Zn2  1  0.62500000  0.62500000  0.62500000  1.0 0.8454031919
Zn  Zn3  1  0.12500000  0.87500000  0.37500000  1.0 0.8447727536
Zn  Zn4  1  0.37500000  0.12500000  0.87500000  1.0 0.8447727536
Zn  Zn5  1  0.97477000  0.47477000  0.02523000  1.0 0.820185629
Zn  Zn6  1  0.52523000  0.52523000  0.52523000  1.0 0.820185629
Zn  Zn7  1  0.02523000  0.97477000  0.47477000  1.0 0.820185629
Zn  Zn8  1  0.47477000  0.02523000  0.97477000  1.0 0.820185629
Zn  Zn9  1  0.72477000  0.72477000  0.72477000  1.0 0.820185629
Zn  Zn10  1  0.77523000  0.27523000  0.22477000  1.0 0.820185629
Zn  Zn11  1  0.22477000  0.77523000  0.27523000  1.0 0.820185629
Zn  Zn12  1  0.27523000  0.22477000  0.77523000  1.0 0.820185629
H  H1  1  0.92120000  0.63440000  0.19440000  1.0 0.0827218195
H  H2  1  0.57880000  0.36560000  0.69440000  1.0 0.0827218195
H  H3  1  0.07880000  0.13440000  0.30560000  1.0 0.0827218195
H  H4  1  0.42120000  0.86560000  0.80560000  1.0 0.0827218195
H  H5  1  0.19440000  0.92120000  0.63440000  1.0 0.0827218195
H  H6  1  0.69440000  0.57880000  0.36560000  1.0 0.0827218195
H  H7  1  0.30560000  0.07880000  0.13440000  1.0 0.0827218195
H  H8  1  0.80560000  0.42120000  0.86560000  1.0 0.0827218195
H  H9  1  0.63440000  0.19440000  0.92120000  1.0 0.0827218195
H  H10  1  0.36560000  0.69440000  0.57880000  1.0 0.0827218195
H  H11  1  0.13440000  0.30560000  0.07880000  1.0 0.0827218195
H  H12  1  0.86560000  0.80560000  0.42120000  1.0 0.0827218195
H  H13  1  0.88440000  0.67120000  0.55560000  1.0 0.0827218195
H  H14  1  0.61560000  0.32880000  0.05560000  1.0 0.0827218195
H  H15  1  0.38440000  0.82880000  0.44440000  1.0 0.0827218195
H  H16  1  0.11560000  0.17120000  0.94440000  1.0 0.0827218195
H  H17  1  0.17120000  0.94440000  0.11560000  1.0 0.0827218195
H  H18  1  0.82880000  0.44440000  0.38440000  1.0 0.0827218195
H  H19  1  0.32880000  0.05560000  0.61560000  1.0 0.0827218195
H  H20  1  0.67120000  0.55560000  0.88440000  1.0 0.0827218195
H  H21  1  0.44440000  0.38440000  0.82880000  1.0 0.0827218195
H  H22  1  0.94440000  0.11560000  0.17120000  1.0 0.0827218195
H  H23  1  0.55560000  0.88440000  0.67120000  1.0 0.0827218195
H  H24  1  0.05560000  0.61560000  0.32880000  1.0 0.0827218195
H  H25  1  0.72610000  0.54450000  0.27770000  1.0 0.1121845497
H  H26  1  0.77390000  0.45550000  0.77770000  1.0 0.1121845497
H  H27  1  0.27390000  0.04450000  0.22230000  1.0 0.1121845497
H  H28  1  0.22610000  0.95550000  0.72230000  1.0 0.1121845497
H  H29  1  0.27770000  0.72610000  0.54450000  1.0 0.1121845497
H  H30  1  0.77770000  0.77390000  0.45550000  1.0 0.1121845497
H  H31  1  0.22230000  0.27390000  0.04450000  1.0 0.1121845497
H  H32  1  0.72230000  0.22610000  0.95550000  1.0 0.1121845497
H  H33  1  0.54450000  0.27770000  0.72610000  1.0 0.1121845497
H  H34  1  0.45550000  0.77770000  0.77390000  1.0 0.1121845497
H  H35  1  0.04450000  0.22230000  0.27390000  1.0 0.1121845497
H  H36  1  0.95550000  0.72230000  0.22610000  1.0 0.1121845497
H  H37  1  0.79450000  0.47610000  0.47230000  1.0 0.1121845497
H  H38  1  0.70550000  0.52390000  0.97230000  1.0 0.1121845497
H  H39  1  0.29450000  0.02390000  0.52770000  1.0 0.1121845497
H  H40  1  0.20550000  0.97610000  0.02770000  1.0 0.1121845497
H  H41  1  0.97610000  0.02770000  0.20550000  1.0 0.1121845497
H  H42  1  0.02390000  0.52770000  0.29450000  1.0 0.1121845497
H  H43  1  0.52390000  0.97230000  0.70550000  1.0 0.1121845497
H  H44  1  0.47610000  0.47230000  0.79450000  1.0 0.1121845497
H  H45  1  0.52770000  0.29450000  0.02390000  1.0 0.1121845497
H  H46  1  0.02770000  0.20550000  0.97610000  1.0 0.1121845497
H  H47  1  0.47230000  0.79450000  0.47610000  1.0 0.1121845497
H  H48  1  0.97230000  0.70550000  0.52390000  1.0 0.1121845497
H  H49  1  0.77950000  0.49400000  0.18910000  1.0 0.0922553812
H  H50  1  0.72050000  0.50600000  0.68910000  1.0 0.0922553812
H  H51  1  0.22050000  0.99400000  0.31090000  1.0 0.0922553812
H  H52  1  0.27950000  0.00600000  0.81090000  1.0 0.0922553812
H  H53  1  0.18910000  0.77950000  0.49400000  1.0 0.0922553812
H  H54  1  0.68910000  0.72050000  0.50600000  1.0 0.0922553812
H  H55  1  0.31090000  0.22050000  0.99400000  1.0 0.0922553812
H  H56  1  0.81090000  0.27950000  0.00600000  1.0 0.0922553812
H  H57  1  0.49400000  0.18910000  0.77950000  1.0 0.0922553812
H  H58  1  0.50600000  0.68910000  0.72050000  1.0 0.0922553812
H  H59  1  0.99400000  0.31090000  0.22050000  1.0 0.0922553812
H  H60  1  0.00600000  0.81090000  0.27950000  1.0 0.0922553812
H  H61  1  0.74400000  0.52950000  0.56090000  1.0 0.0922553812
H  H62  1  0.75600000  0.47050000  0.06090000  1.0 0.0922553812
H  H63  1  0.24400000  0.97050000  0.43910000  1.0 0.0922553812
H  H64  1  0.25600000  0.02950000  0.93910000  1.0 0.0922553812
H  H65  1  0.02950000  0.93910000  0.25600000  1.0 0.0922553812
H  H66  1  0.97050000  0.43910000  0.24400000  1.0 0.0922553812
H  H67  1  0.47050000  0.06090000  0.75600000  1.0 0.0922553812
H  H68  1  0.52950000  0.56090000  0.74400000  1.0 0.0922553812
H  H69  1  0.43910000  0.24400000  0.97050000  1.0 0.0922553812
H  H70  1  0.93910000  0.25600000  0.02950000  1.0 0.0922553812
H  H71  1  0.56090000  0.74400000  0.52950000  1.0 0.0922553812
H  H72  1  0.06090000  0.75600000  0.47050000  1.0 0.0922553812
H  H73  1  0.97460000  0.63990000  0.15420000  1.0 0.0827218195
H  H74  1  0.52540000  0.36010000  0.65420000  1.0 0.0827218195
H  H75  1  0.02540000  0.13990000  0.34580000  1.0 0.0827218195
H  H76  1  0.47460000  0.86010000  0.84580000  1.0 0.0827218195
H  H77  1  0.15420000  0.97460000  0.63990000  1.0 0.0827218195
H  H78  1  0.65420000  0.52540000  0.36010000  1.0 0.0827218195
H  H79  1  0.34580000  0.02540000  0.13990000  1.0 0.0827218195
H  H80  1  0.84580000  0.47460000  0.86010000  1.0 0.0827218195
H  H81  1  0.63990000  0.15420000  0.97460000  1.0 0.0827218195
H  H82  1  0.36010000  0.65420000  0.52540000  1.0 0.0827218195
H  H83  1  0.13990000  0.34580000  0.02540000  1.0 0.0827218195
H  H84  1  0.86010000  0.84580000  0.47460000  1.0 0.0827218195
H  H85  1  0.88990000  0.72460000  0.59580000  1.0 0.0827218195
H  H86  1  0.61010000  0.27540000  0.09580000  1.0 0.0827218195
H  H87  1  0.38990000  0.77540000  0.40420000  1.0 0.0827218195
H  H88  1  0.11010000  0.22460000  0.90420000  1.0 0.0827218195
H  H89  1  0.22460000  0.90420000  0.11010000  1.0 0.0827218195
H  H90  1  0.77540000  0.40420000  0.38990000  1.0 0.0827218195
H  H91  1  0.27540000  0.09580000  0.61010000  1.0 0.0827218195
H  H92  1  0.72460000  0.59580000  0.88990000  1.0 0.0827218195
H  H93  1  0.40420000  0.38990000  0.77540000  1.0 0.0827218195
H  H94  1  0.90420000  0.11010000  0.22460000  1.0 0.0827218195
H  H95  1  0.59580000  0.88990000  0.72460000  1.0 0.0827218195
H  H96  1  0.09580000  0.61010000  0.27540000  1.0 0.0827218195
H  H97  1  0.96050000  0.71930000  0.23640000  1.0 0.1121845497
H  H98  1  0.53950000  0.28070000  0.73640000  1.0 0.1121845497
H  H99  1  0.03950000  0.21930000  0.26360000  1.0 0.1121845497
H  H100  1  0.46050000  0.78070000  0.76360000  1.0 0.1121845497
H  H101  1  0.23640000  0.96050000  0.71930000  1.0 0.1121845497
H  H102  1  0.73640000  0.53950000  0.28070000  1.0 0.1121845497
H  H103  1  0.26360000  0.03950000  0.21930000  1.0 0.1121845497
H  H104  1  0.76360000  0.46050000  0.78070000  1.0 0.1121845497
H  H105  1  0.71930000  0.23640000  0.96050000  1.0 0.1121845497
H  H106  1  0.28070000  0.73640000  0.53950000  1.0 0.1121845497
H  H107  1  0.21930000  0.26360000  0.03950000  1.0 0.1121845497
H  H108  1  0.78070000  0.76360000  0.46050000  1.0 0.1121845497
H  H109  1  0.96930000  0.71050000  0.51360000  1.0 0.1121845497
H  H110  1  0.53070000  0.28950000  0.01360000  1.0 0.1121845497
H  H111  1  0.46930000  0.78950000  0.48640000  1.0 0.1121845497
H  H112  1  0.03070000  0.21050000  0.98640000  1.0 0.1121845497
H  H113  1  0.21050000  0.98640000  0.03070000  1.0 0.1121845497
H  H114  1  0.78950000  0.48640000  0.46930000  1.0 0.1121845497
H  H115  1  0.28950000  0.01360000  0.53070000  1.0 0.1121845497
H  H116  1  0.71050000  0.51360000  0.96930000  1.0 0.1121845497
H  H117  1  0.48640000  0.46930000  0.78950000  1.0 0.1121845497
H  H118  1  0.98640000  0.03070000  0.21050000  1.0 0.1121845497
H  H119  1  0.51360000  0.96930000  0.71050000  1.0 0.1121845497
H  H120  1  0.01360000  0.53070000  0.28950000  1.0 0.1121845497
H  H121  1  0.81510000  0.54120000  0.22230000  1.0 0.0827218195
H  H122  1  0.68490000  0.45880000  0.72230000  1.0 0.0827218195
H  H123  1  0.18490000  0.04120000  0.27770000  1.0 0.0827218195
H  H124  1  0.31510000  0.95880000  0.77770000  1.0 0.0827218195
H  H125  1  0.22230000  0.81510000  0.54120000  1.0 0.0827218195
H  H126  1  0.72230000  0.68490000  0.45880000  1.0 0.0827218195
H  H127  1  0.27770000  0.18490000  0.04120000  1.0 0.0827218195
H  H128  1  0.77770000  0.31510000  0.95880000  1.0 0.0827218195
H  H129  1  0.54120000  0.22230000  0.81510000  1.0 0.0827218195
H  H130  1  0.45880000  0.72230000  0.68490000  1.0 0.0827218195
H  H131  1  0.04120000  0.27770000  0.18490000  1.0 0.0827218195
H  H132  1  0.95880000  0.77770000  0.31510000  1.0 0.0827218195
H  H133  1  0.79120000  0.56510000  0.52770000  1.0 0.0827218195
H  H134  1  0.70880000  0.43490000  0.02770000  1.0 0.0827218195
H  H135  1  0.29120000  0.93490000  0.47230000  1.0 0.0827218195
H  H136  1  0.20880000  0.06510000  0.97230000  1.0 0.0827218195
H  H137  1  0.06510000  0.97230000  0.20880000  1.0 0.0827218195
H  H138  1  0.93490000  0.47230000  0.29120000  1.0 0.0827218195
H  H139  1  0.43490000  0.02770000  0.70880000  1.0 0.0827218195
H  H140  1  0.56510000  0.52770000  0.79120000  1.0 0.0827218195
H  H141  1  0.47230000  0.29120000  0.93490000  1.0 0.0827218195
H  H142  1  0.97230000  0.20880000  0.06510000  1.0 0.0827218195
H  H143  1  0.52770000  0.79120000  0.56510000  1.0 0.0827218195
H  H144  1  0.02770000  0.70880000  0.43490000  1.0 0.0827218195
C  C1  1  0.90510000  0.52690000  0.12970000  1.0 0.4558667639
C  C2  1  0.59490000  0.47310000  0.62970000  1.0 0.4558667639
C  C3  1  0.09490000  0.02690000  0.37030000  1.0 0.4558667639
C  C4  1  0.40510000  0.97310000  0.87030000  1.0 0.4558667639
C  C5  1  0.12970000  0.90510000  0.52690000  1.0 0.4558667639
C  C6  1  0.62970000  0.59490000  0.47310000  1.0 0.4558667639
C  C7  1  0.37030000  0.09490000  0.02690000  1.0 0.4558667639
C  C8  1  0.87030000  0.40510000  0.97310000  1.0 0.4558667639
C  C9  1  0.52690000  0.12970000  0.90510000  1.0 0.4558667639
C  C10  1  0.47310000  0.62970000  0.59490000  1.0 0.4558667639
C  C11  1  0.02690000  0.37030000  0.09490000  1.0 0.4558667639
C  C12  1  0.97310000  0.87030000  0.40510000  1.0 0.4558667639
C  C13  1  0.77690000  0.65510000  0.62030000  1.0 0.4558667639
C  C14  1  0.72310000  0.34490000  0.12030000  1.0 0.4558667639
C  C15  1  0.27690000  0.84490000  0.37970000  1.0 0.4558667639
C  C16  1  0.22310000  0.15510000  0.87970000  1.0 0.4558667639
C  C17  1  0.15510000  0.87970000  0.22310000  1.0 0.4558667639
C  C18  1  0.84490000  0.37970000  0.27690000  1.0 0.4558667639
C  C19  1  0.34490000  0.12030000  0.72310000  1.0 0.4558667639
C  C20  1  0.65510000  0.62030000  0.77690000  1.0 0.4558667639
C  C21  1  0.37970000  0.27690000  0.84490000  1.0 0.4558667639
C  C22  1  0.87970000  0.22310000  0.15510000  1.0 0.4558667639
C  C23  1  0.62030000  0.77690000  0.65510000  1.0 0.4558667639
C  C24  1  0.12030000  0.72310000  0.34490000  1.0 0.4558667639
C  C25  1  0.85570000  0.55910000  0.18300000  1.0 0.0385570054
C  C26  1  0.64430000  0.44090000  0.68300000  1.0 0.0385570054
C  C27  1  0.14430000  0.05910000  0.31700000  1.0 0.0385570054
C  C28  1  0.35570000  0.94090000  0.81700000  1.0 0.0385570054
C  C29  1  0.18300000  0.85570000  0.55910000  1.0 0.0385570054
C  C30  1  0.68300000  0.64430000  0.44090000  1.0 0.0385570054
C  C31  1  0.31700000  0.14430000  0.05910000  1.0 0.0385570054
C  C32  1  0.81700000  0.35570000  0.94090000  1.0 0.0385570054
C  C33  1  0.55910000  0.18300000  0.85570000  1.0 0.0385570054
C  C34  1  0.44090000  0.68300000  0.64430000  1.0 0.0385570054
C  C35  1  0.05910000  0.31700000  0.14430000  1.0 0.0385570054
C  C36  1  0.94090000  0.81700000  0.35570000  1.0 0.0385570054
C  C37  1  0.80910000  0.60570000  0.56700000  1.0 0.0385570054
C  C38  1  0.69090000  0.39430000  0.06700000  1.0 0.0385570054
C  C39  1  0.30910000  0.89430000  0.43300000  1.0 0.0385570054
C  C40  1  0.19090000  0.10570000  0.93300000  1.0 0.0385570054
C  C41  1  0.10570000  0.93300000  0.19090000  1.0 0.0385570054
C  C42  1  0.89430000  0.43300000  0.30910000  1.0 0.0385570054
C  C43  1  0.39430000  0.06700000  0.69090000  1.0 0.0385570054
C  C44  1  0.60570000  0.56700000  0.80910000  1.0 0.0385570054
C  C45  1  0.43300000  0.30910000  0.89430000  1.0 0.0385570054
C  C46  1  0.93300000  0.19090000  0.10570000  1.0 0.0385570054
C  C47  1  0.56700000  0.80910000  0.60570000  1.0 0.0385570054
C  C48  1  0.06700000  0.69090000  0.39430000  1.0 0.0385570054
C  C49  1  0.88210000  0.61640000  0.21110000  1.0 0.0029366381
C  C50  1  0.61790000  0.38360000  0.71110000  1.0 0.0029366381
C  C51  1  0.11790000  0.11640000  0.28890000  1.0 0.0029366381
C  C52  1  0.38210000  0.88360000  0.78890000  1.0 0.0029366381
C  C53  1  0.21110000  0.88210000  0.61640000  1.0 0.0029366381
C  C54  1  0.71110000  0.61790000  0.38360000  1.0 0.0029366381
C  C55  1  0.28890000  0.11790000  0.11640000  1.0 0.0029366381
C  C56  1  0.78890000  0.38210000  0.88360000  1.0 0.0029366381
C  C57  1  0.61640000  0.21110000  0.88210000  1.0 0.0029366381
C  C58  1  0.38360000  0.71110000  0.61790000  1.0 0.0029366381
C  C59  1  0.11640000  0.28890000  0.11790000  1.0 0.0029366381
C  C60  1  0.88360000  0.78890000  0.38210000  1.0 0.0029366381
C  C61  1  0.86640000  0.63210000  0.53890000  1.0 0.0029366381
C  C62  1  0.63360000  0.36790000  0.03890000  1.0 0.0029366381
C  C63  1  0.36640000  0.86790000  0.46110000  1.0 0.0029366381
C  C64  1  0.13360000  0.13210000  0.96110000  1.0 0.0029366381
C  C65  1  0.13210000  0.96110000  0.13360000  1.0 0.0029366381
C  C66  1  0.86790000  0.46110000  0.36640000  1.0 0.0029366381
C  C67  1  0.36790000  0.03890000  0.63360000  1.0 0.0029366381
C  C68  1  0.63210000  0.53890000  0.86640000  1.0 0.0029366381
C  C69  1  0.46110000  0.36640000  0.86790000  1.0 0.0029366381
C  C70  1  0.96110000  0.13360000  0.13210000  1.0 0.0029366381
C  C71  1  0.53890000  0.86640000  0.63210000  1.0 0.0029366381
C  C72  1  0.03890000  0.63360000  0.36790000  1.0 0.0029366381
C  C73  1  0.85010000  0.64670000  0.26420000  1.0 0.0188001816
C  C74  1  0.64990000  0.35330000  0.76420000  1.0 0.0188001816
C  C75  1  0.14990000  0.14670000  0.23580000  1.0 0.0188001816
C  C76  1  0.35010000  0.85330000  0.73580000  1.0 0.0188001816
C  C77  1  0.26420000  0.85010000  0.64670000  1.0 0.0188001816
C  C78  1  0.76420000  0.64990000  0.35330000  1.0 0.0188001816
C  C79  1  0.23580000  0.14990000  0.14670000  1.0 0.0188001816
C  C80  1  0.73580000  0.35010000  0.85330000  1.0 0.0188001816
C  C81  1  0.64670000  0.26420000  0.85010000  1.0 0.0188001816
C  C82  1  0.35330000  0.76420000  0.64990000  1.0 0.0188001816
C  C83  1  0.14670000  0.23580000  0.14990000  1.0 0.0188001816
C  C84  1  0.85330000  0.73580000  0.35010000  1.0 0.0188001816
C  C85  1  0.89670000  0.60010000  0.48580000  1.0 0.0188001816
C  C86  1  0.60330000  0.39990000  0.98580000  1.0 0.0188001816
C  C87  1  0.39670000  0.89990000  0.51420000  1.0 0.0188001816
C  C88  1  0.10330000  0.10010000  0.01420000  1.0 0.0188001816
C  C89  1  0.10010000  0.01420000  0.10330000  1.0 0.0188001816
C  C90  1  0.89990000  0.51420000  0.39670000  1.0 0.0188001816
C  C91  1  0.39990000  0.98580000  0.60330000  1.0 0.0188001816
C  C92  1  0.60010000  0.48580000  0.89670000  1.0 0.0188001816
C  C93  1  0.51420000  0.39670000  0.89990000  1.0 0.0188001816
C  C94  1  0.01420000  0.10330000  0.10010000  1.0 0.0188001816
C  C95  1  0.48580000  0.89670000  0.60010000  1.0 0.0188001816
C  C96  1  0.98580000  0.60330000  0.39990000  1.0 0.0188001816
C  C97  1  0.79160000  0.61980000  0.28920000  1.0 0.0275514672
C  C98  1  0.70840000  0.38020000  0.78920000  1.0 0.0275514672
C  C99  1  0.20840000  0.11980000  0.21080000  1.0 0.0275514672
C  C100  1  0.29160000  0.88020000  0.71080000  1.0 0.0275514672
C  C101  1  0.28920000  0.79160000  0.61980000  1.0 0.0275514672
C  C102  1  0.78920000  0.70840000  0.38020000  1.0 0.0275514672
C  C103  1  0.21080000  0.20840000  0.11980000  1.0 0.0275514672
C  C104  1  0.71080000  0.29160000  0.88020000  1.0 0.0275514672
C  C105  1  0.61980000  0.28920000  0.79160000  1.0 0.0275514672
C  C106  1  0.38020000  0.78920000  0.70840000  1.0 0.0275514672
C  C107  1  0.11980000  0.21080000  0.20840000  1.0 0.0275514672
C  C108  1  0.88020000  0.71080000  0.29160000  1.0 0.0275514672
C  C109  1  0.86980000  0.54160000  0.46080000  1.0 0.0275514672
C  C110  1  0.63020000  0.45840000  0.96080000  1.0 0.0275514672
C  C111  1  0.36980000  0.95840000  0.53920000  1.0 0.0275514672
C  C112  1  0.13020000  0.04160000  0.03920000  1.0 0.0275514672
C  C113  1  0.04160000  0.03920000  0.13020000  1.0 0.0275514672
C  C114  1  0.95840000  0.53920000  0.36980000  1.0 0.0275514672
C  C115  1  0.45840000  0.96080000  0.63020000  1.0 0.0275514672
C  C116  1  0.54160000  0.46080000  0.86980000  1.0 0.0275514672
C  C117  1  0.53920000  0.36980000  0.95840000  1.0 0.0275514672
C  C118  1  0.03920000  0.13020000  0.04160000  1.0 0.0275514672
C  C119  1  0.46080000  0.86980000  0.54160000  1.0 0.0275514672
C  C120  1  0.96080000  0.63020000  0.45840000  1.0 0.0275514672
C  C121  1  0.76520000  0.56250000  0.26100000  1.0 -0.1267362299
C  C122  1  0.73480000  0.43750000  0.76100000  1.0 -0.1267362299
C  C123  1  0.23480000  0.06250000  0.23900000  1.0 -0.1267362299
C  C124  1  0.26520000  0.93750000  0.73900000  1.0 -0.1267362299
C  C125  1  0.26100000  0.76520000  0.56250000  1.0 -0.1267362299
C  C126  1  0.76100000  0.73480000  0.43750000  1.0 -0.1267362299
C  C127  1  0.23900000  0.23480000  0.06250000  1.0 -0.1267362299
C  C128  1  0.73900000  0.26520000  0.93750000  1.0 -0.1267362299
C  C129  1  0.56250000  0.26100000  0.76520000  1.0 -0.1267362299
C  C130  1  0.43750000  0.76100000  0.73480000  1.0 -0.1267362299
C  C131  1  0.06250000  0.23900000  0.23480000  1.0 -0.1267362299
C  C132  1  0.93750000  0.73900000  0.26520000  1.0 -0.1267362299
C  C133  1  0.81250000  0.51520000  0.48900000  1.0 -0.1267362299
C  C134  1  0.68750000  0.48480000  0.98900000  1.0 -0.1267362299
C  C135  1  0.31250000  0.98480000  0.51100000  1.0 -0.1267362299
C  C136  1  0.18750000  0.01520000  0.01100000  1.0 -0.1267362299
C  C137  1  0.01520000  0.01100000  0.18750000  1.0 -0.1267362299
C  C138  1  0.98480000  0.51100000  0.31250000  1.0 -0.1267362299
C  C139  1  0.48480000  0.98900000  0.68750000  1.0 -0.1267362299
C  C140  1  0.51520000  0.48900000  0.81250000  1.0 -0.1267362299
C  C141  1  0.51100000  0.31250000  0.98480000  1.0 -0.1267362299
C  C142  1  0.01100000  0.18750000  0.01520000  1.0 -0.1267362299
C  C143  1  0.48900000  0.81250000  0.51520000  1.0 -0.1267362299
C  C144  1  0.98900000  0.68750000  0.48480000  1.0 -0.1267362299
C  C145  1  0.79720000  0.53220000  0.20790000  1.0 -0.2281281476
C  C146  1  0.70280000  0.46780000  0.70790000  1.0 -0.2281281476
C  C147  1  0.20280000  0.03220000  0.29210000  1.0 -0.2281281476
C  C148  1  0.29720000  0.96780000  0.79210000  1.0 -0.2281281476
C  C149  1  0.20790000  0.79720000  0.53220000  1.0 -0.2281281476
C  C150  1  0.70790000  0.70280000  0.46780000  1.0 -0.2281281476
C  C151  1  0.29210000  0.20280000  0.03220000  1.0 -0.2281281476
C  C152  1  0.79210000  0.29720000  0.96780000  1.0 -0.2281281476
C  C153  1  0.53220000  0.20790000  0.79720000  1.0 -0.2281281476
C  C154  1  0.46780000  0.70790000  0.70280000  1.0 -0.2281281476
C  C155  1  0.03220000  0.29210000  0.20280000  1.0 -0.2281281476
C  C156  1  0.96780000  0.79210000  0.29720000  1.0 -0.2281281476
C  C157  1  0.78220000  0.54720000  0.54210000  1.0 -0.2281281476
C  C158  1  0.71780000  0.45280000  0.04210000  1.0 -0.2281281476
C  C159  1  0.28220000  0.95280000  0.45790000  1.0 -0.2281281476
C  C160  1  0.21780000  0.04720000  0.95790000  1.0 -0.2281281476
C  C161  1  0.04720000  0.95790000  0.21780000  1.0 -0.2281281476
C  C162  1  0.95280000  0.45790000  0.28220000  1.0 -0.2281281476
C  C163  1  0.45280000  0.04210000  0.71780000  1.0 -0.2281281476
C  C164  1  0.54720000  0.54210000  0.78220000  1.0 -0.2281281476
C  C165  1  0.45790000  0.28220000  0.95280000  1.0 -0.2281281476
C  C166  1  0.95790000  0.21780000  0.04720000  1.0 -0.2281281476
C  C167  1  0.54210000  0.78220000  0.54720000  1.0 -0.2281281476
C  C168  1  0.04210000  0.71780000  0.45280000  1.0 -0.2281281476
C  C169  1  0.89630000  0.58270000  0.18010000  1.0 0.0029366381
C  C170  1  0.60370000  0.41730000  0.68010000  1.0 0.0029366381
C  C171  1  0.10370000  0.08270000  0.31990000  1.0 0.0029366381
C  C172  1  0.39630000  0.91730000  0.81990000  1.0 0.0029366381
C  C173  1  0.18010000  0.89630000  0.58270000  1.0 0.0029366381
C  C174  1  0.68010000  0.60370000  0.41730000  1.0 0.0029366381
C  C175  1  0.31990000  0.10370000  0.08270000  1.0 0.0029366381
C  C176  1  0.81990000  0.39630000  0.91730000  1.0 0.0029366381
C  C177  1  0.58270000  0.18010000  0.89630000  1.0 0.0029366381
C  C178  1  0.41730000  0.68010000  0.60370000  1.0 0.0029366381
C  C179  1  0.08270000  0.31990000  0.10370000  1.0 0.0029366381
C  C180  1  0.91730000  0.81990000  0.39630000  1.0 0.0029366381
C  C181  1  0.83270000  0.64630000  0.56990000  1.0 0.0029366381
C  C182  1  0.66730000  0.35370000  0.06990000  1.0 0.0029366381
C  C183  1  0.33270000  0.85370000  0.43010000  1.0 0.0029366381
C  C184  1  0.16730000  0.14630000  0.93010000  1.0 0.0029366381
C  C185  1  0.14630000  0.93010000  0.16730000  1.0 0.0029366381
C  C186  1  0.85370000  0.43010000  0.33270000  1.0 0.0029366381
C  C187  1  0.35370000  0.06990000  0.66730000  1.0 0.0029366381
C  C188  1  0.64630000  0.56990000  0.83270000  1.0 0.0029366381
C  C189  1  0.43010000  0.33270000  0.85370000  1.0 0.0029366381
C  C190  1  0.93010000  0.16730000  0.14630000  1.0 0.0029366381
C  C191  1  0.56990000  0.83270000  0.64630000  1.0 0.0029366381
C  C192  1  0.06990000  0.66730000  0.35370000  1.0 0.0029366381
C  C193  1  0.93980000  0.63600000  0.18440000  1.0 -0.1686744455
C  C194  1  0.56020000  0.36400000  0.68440000  1.0 -0.1686744455
C  C195  1  0.06020000  0.13600000  0.31560000  1.0 -0.1686744455
C  C196  1  0.43980000  0.86400000  0.81560000  1.0 -0.1686744455
C  C197  1  0.18440000  0.93980000  0.63600000  1.0 -0.1686744455
C  C198  1  0.68440000  0.56020000  0.36400000  1.0 -0.1686744455
C  C199  1  0.31560000  0.06020000  0.13600000  1.0 -0.1686744455
C  C200  1  0.81560000  0.43980000  0.86400000  1.0 -0.1686744455
C  C201  1  0.63600000  0.18440000  0.93980000  1.0 -0.1686744455
C  C202  1  0.36400000  0.68440000  0.56020000  1.0 -0.1686744455
C  C203  1  0.13600000  0.31560000  0.06020000  1.0 -0.1686744455
C  C204  1  0.86400000  0.81560000  0.43980000  1.0 -0.1686744455
C  C205  1  0.88600000  0.68980000  0.56560000  1.0 -0.1686744455
C  C206  1  0.61400000  0.31020000  0.06560000  1.0 -0.1686744455
C  C207  1  0.38600000  0.81020000  0.43440000  1.0 -0.1686744455
C  C208  1  0.11400000  0.18980000  0.93440000  1.0 -0.1686744455
C  C209  1  0.18980000  0.93440000  0.11400000  1.0 -0.1686744455
C  C210  1  0.81020000  0.43440000  0.38600000  1.0 -0.1686744455
C  C211  1  0.31020000  0.06560000  0.61400000  1.0 -0.1686744455
C  C212  1  0.68980000  0.56560000  0.88600000  1.0 -0.1686744455
C  C213  1  0.43440000  0.38600000  0.81020000  1.0 -0.1686744455
C  C214  1  0.93440000  0.11400000  0.18980000  1.0 -0.1686744455
C  C215  1  0.56560000  0.88600000  0.68980000  1.0 -0.1686744455
C  C216  1  0.06560000  0.61400000  0.31020000  1.0 -0.1686744455
C  C217  1  0.93140000  0.68360000  0.23360000  1.0 -0.1267362299
C  C218  1  0.56860000  0.31640000  0.73360000  1.0 -0.1267362299
C  C219  1  0.06860000  0.18360000  0.26640000  1.0 -0.1267362299
C  C220  1  0.43140000  0.81640000  0.76640000  1.0 -0.1267362299
C  C221  1  0.23360000  0.93140000  0.68360000  1.0 -0.1267362299
C  C222  1  0.73360000  0.56860000  0.31640000  1.0 -0.1267362299
C  C223  1  0.26640000  0.06860000  0.18360000  1.0 -0.1267362299
C  C224  1  0.76640000  0.43140000  0.81640000  1.0 -0.1267362299
C  C225  1  0.68360000  0.23360000  0.93140000  1.0 -0.1267362299
C  C226  1  0.31640000  0.73360000  0.56860000  1.0 -0.1267362299
C  C227  1  0.18360000  0.26640000  0.06860000  1.0 -0.1267362299
C  C228  1  0.81640000  0.76640000  0.43140000  1.0 -0.1267362299
C  C229  1  0.93360000  0.68140000  0.51640000  1.0 -0.1267362299
C  C230  1  0.56640000  0.31860000  0.01640000  1.0 -0.1267362299
C  C231  1  0.43360000  0.81860000  0.48360000  1.0 -0.1267362299
C  C232  1  0.06640000  0.18140000  0.98360000  1.0 -0.1267362299
C  C233  1  0.18140000  0.98360000  0.06640000  1.0 -0.1267362299
C  C234  1  0.81860000  0.48360000  0.43360000  1.0 -0.1267362299
C  C235  1  0.31860000  0.01640000  0.56640000  1.0 -0.1267362299
C  C236  1  0.68140000  0.51640000  0.93360000  1.0 -0.1267362299
C  C237  1  0.48360000  0.43360000  0.81860000  1.0 -0.1267362299
C  C238  1  0.98360000  0.06640000  0.18140000  1.0 -0.1267362299
C  C239  1  0.51640000  0.93360000  0.68140000  1.0 -0.1267362299
C  C240  1  0.01640000  0.56640000  0.31860000  1.0 -0.1267362299
C  C241  1  0.87940000  0.67790000  0.27860000  1.0 0.0188001816
C  C242  1  0.62060000  0.32210000  0.77860000  1.0 0.0188001816
C  C243  1  0.12060000  0.17790000  0.22140000  1.0 0.0148948592
C  C244  1  0.37940000  0.82210000  0.72140000  1.0 0.0188001816
C  C245  1  0.27860000  0.87940000  0.67790000  1.0 0.0188001816
C  C246  1  0.77860000  0.62060000  0.32210000  1.0 0.0188001816
C  C247  1  0.22140000  0.12060000  0.17790000  1.0 0.0188001816
C  C248  1  0.72140000  0.37940000  0.82210000  1.0 0.0188001816
C  C249  1  0.67790000  0.27860000  0.87940000  1.0 0.0188001816
C  C250  1  0.32210000  0.77860000  0.62060000  1.0 0.0188001816
C  C251  1  0.17790000  0.22140000  0.12060000  1.0 0.0188001816
C  C252  1  0.82210000  0.72140000  0.37940000  1.0 0.0188001816
C  C253  1  0.92790000  0.62940000  0.47140000  1.0 0.0188001816
C  C254  1  0.57210000  0.37060000  0.97140000  1.0 0.0188001816
C  C255  1  0.42790000  0.87060000  0.52860000  1.0 0.0188001816
C  C256  1  0.07210000  0.12940000  0.02860000  1.0 0.0188001816
C  C257  1  0.12940000  0.02860000  0.07210000  1.0 0.0188001816
C  C258  1  0.87060000  0.52860000  0.42790000  1.0 0.0188001816
C  C259  1  0.37060000  0.97140000  0.57210000  1.0 0.0188001816
C  C260  1  0.62940000  0.47140000  0.92790000  1.0 0.0188001816
C  C261  1  0.52860000  0.42790000  0.87060000  1.0 0.0188001816
C  C262  1  0.02860000  0.07210000  0.12940000  1.0 0.0148948592
C  C263  1  0.47140000  0.92790000  0.62940000  1.0 0.0188001816
C  C264  1  0.97140000  0.57210000  0.37060000  1.0 0.0188001816
C  C265  1  0.83580000  0.62460000  0.27440000  1.0 0.0188001816
C  C266  1  0.66420000  0.37540000  0.77440000  1.0 0.0188001816
C  C267  1  0.16420000  0.12460000  0.22560000  1.0 0.0188001816
C  C268  1  0.33580000  0.87540000  0.72560000  1.0 0.0188001816
C  C269  1  0.27440000  0.83580000  0.62460000  1.0 0.0188001816
C  C270  1  0.77440000  0.66420000  0.37540000  1.0 0.0188001816
C  C271  1  0.22560000  0.16420000  0.12460000  1.0 0.0188001816
C  C272  1  0.72560000  0.33580000  0.87540000  1.0 0.0188001816
C  C273  1  0.62460000  0.27440000  0.83580000  1.0 0.0188001816
C  C274  1  0.37540000  0.77440000  0.66420000  1.0 0.0188001816
C  C275  1  0.12460000  0.22560000  0.16420000  1.0 0.0188001816
C  C276  1  0.87540000  0.72560000  0.33580000  1.0 0.0188001816
C  C277  1  0.87460000  0.58580000  0.47560000  1.0 0.0188001816
C  C278  1  0.62540000  0.41420000  0.97560000  1.0 0.0188001816
C  C279  1  0.37460000  0.91420000  0.52440000  1.0 0.0188001816
C  C280  1  0.12540000  0.08580000  0.02440000  1.0 0.0188001816
C  C281  1  0.08580000  0.02440000  0.12540000  1.0 0.0188001816
C  C282  1  0.91420000  0.52440000  0.37460000  1.0 0.0188001816
C  C283  1  0.41420000  0.97560000  0.62540000  1.0 0.0188001816
C  C284  1  0.58580000  0.47560000  0.87460000  1.0 0.0188001816
C  C285  1  0.52440000  0.37460000  0.91420000  1.0 0.0188001816
C  C286  1  0.02440000  0.12540000  0.08580000  1.0 0.0188001816
C  C287  1  0.47560000  0.87460000  0.58580000  1.0 0.0188001816
C  C288  1  0.97560000  0.62540000  0.41420000  1.0 0.0188001816
C  C289  1  0.84420000  0.57690000  0.22510000  1.0 -0.0106026206
C  C290  1  0.65580000  0.42310000  0.72510000  1.0 -0.0106026206
C  C291  1  0.15580000  0.07690000  0.27490000  1.0 -0.0106026206
C  C292  1  0.34420000  0.92310000  0.77490000  1.0 -0.0106026206
C  C293  1  0.22510000  0.84420000  0.57690000  1.0 -0.0106026206
C  C294  1  0.72510000  0.65580000  0.42310000  1.0 -0.0106026206
C  C295  1  0.27490000  0.15580000  0.07690000  1.0 -0.0106026206
C  C296  1  0.77490000  0.34420000  0.92310000  1.0 -0.0106026206
C  C297  1  0.57690000  0.22510000  0.84420000  1.0 -0.0106026206
C  C298  1  0.42310000  0.72510000  0.65580000  1.0 -0.0106026206
C  C299  1  0.07690000  0.27490000  0.15580000  1.0 -0.0106026206
C  C300  1  0.92310000  0.77490000  0.34420000  1.0 -0.0106026206
C  C301  1  0.82690000  0.59420000  0.52490000  1.0 -0.0106026206
C  C302  1  0.67310000  0.40580000  0.02490000  1.0 -0.0106026206
C  C303  1  0.32690000  0.90580000  0.47510000  1.0 -0.0106026206
C  C304  1  0.17310000  0.09420000  0.97510000  1.0 -0.0106026206
C  C305  1  0.09420000  0.97510000  0.17310000  1.0 -0.0106026206
C  C306  1  0.90580000  0.47510000  0.32690000  1.0 -0.0106026206
C  C307  1  0.40580000  0.02490000  0.67310000  1.0 -0.0106026206
C  C308  1  0.59420000  0.52490000  0.82690000  1.0 -0.0106026206
C  C309  1  0.47510000  0.32690000  0.90580000  1.0 -0.0106026206
C  C310  1  0.97510000  0.17310000  0.09420000  1.0 -0.0106026206
C  C311  1  0.52490000  0.82690000  0.59420000  1.0 -0.0106026206
C  C312  1  0.02490000  0.67310000  0.40580000  1.0 -0.0106026206
O  O1  1  0.95380000  0.53860000  0.09420000  1.0 -0.4718067075
O  O2  1  0.54620000  0.46140000  0.59420000  1.0 -0.4718067075
O  O3  1  0.04620000  0.03860000  0.40580000  1.0 -0.4718067075
O  O4  1  0.45380000  0.96140000  0.90580000  1.0 -0.4718067075
O  O5  1  0.09420000  0.95380000  0.53860000  1.0 -0.4718067075
O  O6  1  0.59420000  0.54620000  0.46140000  1.0 -0.4718067075
O  O7  1  0.40580000  0.04620000  0.03860000  1.0 -0.4718067075
O  O8  1  0.90580000  0.45380000  0.96140000  1.0 -0.4718067075
O  O9  1  0.53860000  0.09420000  0.95380000  1.0 -0.4718067075
O  O10  1  0.46140000  0.59420000  0.54620000  1.0 -0.4718067075
O  O11  1  0.03860000  0.40580000  0.04620000  1.0 -0.4718067075
O  O12  1  0.96140000  0.90580000  0.45380000  1.0 -0.4718067075
O  O13  1  0.78860000  0.70380000  0.65580000  1.0 -0.4718067075
O  O14  1  0.71140000  0.29620000  0.15580000  1.0 -0.4718067075
O  O15  1  0.28860000  0.79620000  0.34420000  1.0 -0.4718067075
O  O16  1  0.21140000  0.20380000  0.84420000  1.0 -0.4718067075
O  O17  1  0.20380000  0.84420000  0.21140000  1.0 -0.4718067075
O  O18  1  0.79620000  0.34420000  0.28860000  1.0 -0.4718067075
O  O19  1  0.29620000  0.15580000  0.71140000  1.0 -0.4718067075
O  O20  1  0.70380000  0.65580000  0.78860000  1.0 -0.4718067075
O  O21  1  0.34420000  0.28860000  0.79620000  1.0 -0.4718067075
O  O22  1  0.84420000  0.21140000  0.20380000  1.0 -0.4718067075
O  O23  1  0.65580000  0.78860000  0.70380000  1.0 -0.4718067075
O  O24  1  0.15580000  0.71140000  0.29620000  1.0 -0.4718067075
O  O25  1  0.87100000  0.47800000  0.12460000  1.0 -0.4302723768
O  O26  1  0.62900000  0.52200000  0.62460000  1.0 -0.4302723768
O  O27  1  0.12900000  0.97800000  0.37540000  1.0 -0.4302723768
O  O28  1  0.37100000  0.02200000  0.87540000  1.0 -0.4302723768
O  O29  1  0.12460000  0.87100000  0.47800000  1.0 -0.4302723768
O  O30  1  0.62460000  0.62900000  0.52200000  1.0 -0.4302723768
O  O31  1  0.37540000  0.12900000  0.97800000  1.0 -0.4302723768
O  O32  1  0.87540000  0.37100000  0.02200000  1.0 -0.4302723768
O  O33  1  0.47800000  0.12460000  0.87100000  1.0 -0.4302723768
O  O34  1  0.52200000  0.62460000  0.62900000  1.0 -0.4302723768
O  O35  1  0.97800000  0.37540000  0.12900000  1.0 -0.4302723768
O  O36  1  0.02200000  0.87540000  0.37100000  1.0 -0.4302723768
O  O37  1  0.72800000  0.62100000  0.62540000  1.0 -0.4302723768
O  O38  1  0.77200000  0.37900000  0.12540000  1.0 -0.4302723768
O  O39  1  0.22800000  0.87900000  0.37460000  1.0 -0.4302723768
O  O40  1  0.27200000  0.12100000  0.87460000  1.0 -0.4302723768
O  O41  1  0.12100000  0.87460000  0.27200000  1.0 -0.4302723768
O  O42  1  0.87900000  0.37460000  0.22800000  1.0 -0.4302723768
O  O43  1  0.37900000  0.12540000  0.77200000  1.0 -0.4302723768
O  O44  1  0.62100000  0.62540000  0.72800000  1.0 -0.4302723768
O  O45  1  0.37460000  0.22800000  0.87900000  1.0 -0.4302723768
O  O46  1  0.87460000  0.27200000  0.12100000  1.0 -0.4302723768
O  O47  1  0.62540000  0.72800000  0.62100000  1.0 -0.4302723768
O  O48  1  0.12540000  0.77200000  0.37900000  1.0 -0.4302723768
