# DDEC6 charges by PACMAN v1.1 (https://github.com/mtap-research/PACMAN-charge/)
data_NENHAQ_ASR_pacman
_symmetry_space_group_name_H-M   'P 1'
_cell_length_a   20.48700000
_cell_length_b   20.48700000
_cell_length_c   20.48700000
_cell_angle_alpha   90.00000000
_cell_angle_beta   90.00000000
_cell_angle_gamma   90.00000000
_symmetry_Int_Tables_number   1
_chemical_formula_structural   CdH12(C13O2)2
_chemical_formula_sum   'Cd12 H144 C312 O48'
_cell_volume   8598.74564130
_cell_formula_units_Z   12
loop_
 _symmetry_equiv_pos_site_id
 _symmetry_equiv_pos_as_xyz
  1  'x, y, z'
loop_
 _atom_site_type_symbol
 _atom_site_label
 _atom_site_symmetry_multiplicity
 _atom_site_fract_x
 _atom_site_fract_y
 _atom_site_fract_z
 _atom_site_occupancy
 _atom_site_charge
Cd  Cd1  1  0.87500000  0.37500000  0.12500000  1.0 0.9330856342
Cd  Cd2  1  0.62500000  0.62500000  0.62500000  1.0 0.9330856342
Cd  Cd3  1  0.12500000  0.87500000  0.37500000  1.0 0.9330856342
Cd  Cd4  1  0.37500000  0.12500000  0.87500000  1.0 0.9330856342
Cd  Cd5  1  0.97578000  0.47578000  0.02422000  1.0 0.855756915
Cd  Cd6  1  0.52422000  0.52422000  0.52422000  1.0 0.855756915
Cd  Cd7  1  0.02422000  0.97578000  0.47578000  1.0 0.855756915
Cd  Cd8  1  0.47578000  0.02422000  0.97578000  1.0 0.855756915
Cd  Cd9  1  0.72578000  0.72578000  0.72578000  1.0 0.855756915
Cd  Cd10  1  0.77422000  0.27422000  0.22578000  1.0 0.855756915
Cd  Cd11  1  0.22578000  0.77422000  0.27422000  1.0 0.855756915
Cd  Cd12  1  0.27422000  0.22578000  0.77422000  1.0 0.855756915
H  H1  1  0.92500000  0.64010000  0.19800000  1.0 0.0702225076
H  H2  1  0.57500000  0.35990000  0.69800000  1.0 0.0702225076
H  H3  1  0.07500000  0.14010000  0.30200000  1.0 0.0702225076
H  H4  1  0.42500000  0.85990000  0.80200000  1.0 0.0702225076
H  H5  1  0.19800000  0.92500000  0.64010000  1.0 0.0702225076
H  H6  1  0.69800000  0.57500000  0.35990000  1.0 0.0702225076
H  H7  1  0.30200000  0.07500000  0.14010000  1.0 0.0702225076
H  H8  1  0.80200000  0.42500000  0.85990000  1.0 0.0702225076
H  H9  1  0.64010000  0.19800000  0.92500000  1.0 0.0702225076
H  H10  1  0.35990000  0.69800000  0.57500000  1.0 0.0702225076
H  H11  1  0.14010000  0.30200000  0.07500000  1.0 0.0702225076
H  H12  1  0.85990000  0.80200000  0.42500000  1.0 0.0702225076
H  H13  1  0.89010000  0.67500000  0.55200000  1.0 0.0702225076
H  H14  1  0.60990000  0.32500000  0.05200000  1.0 0.0702225076
H  H15  1  0.39010000  0.82500000  0.44800000  1.0 0.0702225076
H  H16  1  0.10990000  0.17500000  0.94800000  1.0 0.0702225076
H  H17  1  0.17500000  0.94800000  0.10990000  1.0 0.0702225076
H  H18  1  0.82500000  0.44800000  0.39010000  1.0 0.0702225076
H  H19  1  0.32500000  0.05200000  0.60990000  1.0 0.0702225076
H  H20  1  0.67500000  0.55200000  0.89010000  1.0 0.0702225076
H  H21  1  0.44800000  0.39010000  0.82500000  1.0 0.0702225076
H  H22  1  0.94800000  0.10990000  0.17500000  1.0 0.0702225076
H  H23  1  0.55200000  0.89010000  0.67500000  1.0 0.0702225076
H  H24  1  0.05200000  0.60990000  0.32500000  1.0 0.0702225076
H  H25  1  0.73570000  0.54430000  0.27710000  1.0 0.1119982566
H  H26  1  0.76430000  0.45570000  0.77710000  1.0 0.1119982566
H  H27  1  0.26430000  0.04430000  0.22290000  1.0 0.1119982566
H  H28  1  0.23570000  0.95570000  0.72290000  1.0 0.1119982566
H  H29  1  0.27710000  0.73570000  0.54430000  1.0 0.1119982566
H  H30  1  0.77710000  0.76430000  0.45570000  1.0 0.1119982566
H  H31  1  0.22290000  0.26430000  0.04430000  1.0 0.1119982566
H  H32  1  0.72290000  0.23570000  0.95570000  1.0 0.1119982566
H  H33  1  0.54430000  0.27710000  0.73570000  1.0 0.1119982566
H  H34  1  0.45570000  0.77710000  0.76430000  1.0 0.1119982566
H  H35  1  0.04430000  0.22290000  0.26430000  1.0 0.1119982566
H  H36  1  0.95570000  0.72290000  0.23570000  1.0 0.1119982566
H  H37  1  0.79430000  0.48570000  0.47290000  1.0 0.1119982566
H  H38  1  0.70570000  0.51430000  0.97290000  1.0 0.1119982566
H  H39  1  0.29430000  0.01430000  0.52710000  1.0 0.1119982566
H  H40  1  0.20570000  0.98570000  0.02710000  1.0 0.1119982566
H  H41  1  0.98570000  0.02710000  0.20570000  1.0 0.1119982566
H  H42  1  0.01430000  0.52710000  0.29430000  1.0 0.1119982566
H  H43  1  0.51430000  0.97290000  0.70570000  1.0 0.1119982566
H  H44  1  0.48570000  0.47290000  0.79430000  1.0 0.1119982566
H  H45  1  0.52710000  0.29430000  0.01430000  1.0 0.1119982566
H  H46  1  0.02710000  0.20570000  0.98570000  1.0 0.1119982566
H  H47  1  0.47290000  0.79430000  0.48570000  1.0 0.1119982566
H  H48  1  0.97290000  0.70570000  0.51430000  1.0 0.1119982566
H  H49  1  0.79160000  0.49650000  0.19100000  1.0 0.0702225076
H  H50  1  0.70840000  0.50350000  0.69100000  1.0 0.0702225076
H  H51  1  0.20840000  0.99650000  0.30900000  1.0 0.0702225076
H  H52  1  0.29160000  0.00350000  0.80900000  1.0 0.0702225076
H  H53  1  0.19100000  0.79160000  0.49650000  1.0 0.0702225076
H  H54  1  0.69100000  0.70840000  0.50350000  1.0 0.0702225076
H  H55  1  0.30900000  0.20840000  0.99650000  1.0 0.0702225076
H  H56  1  0.80900000  0.29160000  0.00350000  1.0 0.0702225076
H  H57  1  0.49650000  0.19100000  0.79160000  1.0 0.0702225076
H  H58  1  0.50350000  0.69100000  0.70840000  1.0 0.0702225076
H  H59  1  0.99650000  0.30900000  0.20840000  1.0 0.0702225076
H  H60  1  0.00350000  0.80900000  0.29160000  1.0 0.0702225076
H  H61  1  0.74650000  0.54160000  0.55900000  1.0 0.0702225076
H  H62  1  0.75350000  0.45840000  0.05900000  1.0 0.0702225076
H  H63  1  0.24650000  0.95840000  0.44100000  1.0 0.0702225076
H  H64  1  0.25350000  0.04160000  0.94100000  1.0 0.0702225076
H  H65  1  0.04160000  0.94100000  0.25350000  1.0 0.0702225076
H  H66  1  0.95840000  0.44100000  0.24650000  1.0 0.0702225076
H  H67  1  0.45840000  0.05900000  0.75350000  1.0 0.0702225076
H  H68  1  0.54160000  0.55900000  0.74650000  1.0 0.0702225076
H  H69  1  0.44100000  0.24650000  0.95840000  1.0 0.0702225076
H  H70  1  0.94100000  0.25350000  0.04160000  1.0 0.0702225076
H  H71  1  0.55900000  0.74650000  0.54160000  1.0 0.0702225076
H  H72  1  0.05900000  0.75350000  0.45840000  1.0 0.0702225076
H  H73  1  0.97230000  0.64050000  0.15800000  1.0 0.0780137095
H  H74  1  0.52770000  0.35950000  0.65800000  1.0 0.0780137095
H  H75  1  0.02770000  0.14050000  0.34200000  1.0 0.0780137095
H  H76  1  0.47230000  0.85950000  0.84200000  1.0 0.0780137095
H  H77  1  0.15800000  0.97230000  0.64050000  1.0 0.0780137095
H  H78  1  0.65800000  0.52770000  0.35950000  1.0 0.0780137095
H  H79  1  0.34200000  0.02770000  0.14050000  1.0 0.0780137095
H  H80  1  0.84200000  0.47230000  0.85950000  1.0 0.0780137095
H  H81  1  0.64050000  0.15800000  0.97230000  1.0 0.0780137095
H  H82  1  0.35950000  0.65800000  0.52770000  1.0 0.0780137095
H  H83  1  0.14050000  0.34200000  0.02770000  1.0 0.0780137095
H  H84  1  0.85950000  0.84200000  0.47230000  1.0 0.0780137095
H  H85  1  0.89050000  0.72230000  0.59200000  1.0 0.0780137095
H  H86  1  0.60950000  0.27770000  0.09200000  1.0 0.0780137095
H  H87  1  0.39050000  0.77770000  0.40800000  1.0 0.0780137095
H  H88  1  0.10950000  0.22230000  0.90800000  1.0 0.0780137095
H  H89  1  0.22230000  0.90800000  0.10950000  1.0 0.0780137095
H  H90  1  0.77770000  0.40800000  0.39050000  1.0 0.0780137095
H  H91  1  0.27770000  0.09200000  0.60950000  1.0 0.0780137095
H  H92  1  0.72230000  0.59200000  0.89050000  1.0 0.0780137095
H  H93  1  0.40800000  0.39050000  0.77770000  1.0 0.0780137095
H  H94  1  0.90800000  0.10950000  0.22230000  1.0 0.0780137095
H  H95  1  0.59200000  0.89050000  0.72230000  1.0 0.0780137095
H  H96  1  0.09200000  0.60950000  0.27770000  1.0 0.0780137095
H  H97  1  0.95910000  0.71720000  0.24020000  1.0 0.1119982566
H  H98  1  0.54090000  0.28280000  0.74020000  1.0 0.1119982566
H  H99  1  0.04090000  0.21720000  0.25980000  1.0 0.1119982566
H  H100  1  0.45910000  0.78280000  0.75980000  1.0 0.1119982566
H  H101  1  0.24020000  0.95910000  0.71720000  1.0 0.1119982566
H  H102  1  0.74020000  0.54090000  0.28280000  1.0 0.1119982566
H  H103  1  0.25980000  0.04090000  0.21720000  1.0 0.1119982566
H  H104  1  0.75980000  0.45910000  0.78280000  1.0 0.1119982566
H  H105  1  0.71720000  0.24020000  0.95910000  1.0 0.1119982566
H  H106  1  0.28280000  0.74020000  0.54090000  1.0 0.1119982566
H  H107  1  0.21720000  0.25980000  0.04090000  1.0 0.1119982566
H  H108  1  0.78280000  0.75980000  0.45910000  1.0 0.1119982566
H  H109  1  0.96720000  0.70910000  0.50980000  1.0 0.1119982566
H  H110  1  0.53280000  0.29090000  0.00980000  1.0 0.1119982566
H  H111  1  0.46720000  0.79090000  0.49020000  1.0 0.1119982566
H  H112  1  0.03280000  0.20910000  0.99020000  1.0 0.1119982566
H  H113  1  0.20910000  0.99020000  0.03280000  1.0 0.1119982566
H  H114  1  0.79090000  0.49020000  0.46720000  1.0 0.1119982566
H  H115  1  0.29090000  0.00980000  0.53280000  1.0 0.1119982566
H  H116  1  0.70910000  0.50980000  0.96720000  1.0 0.1119982566
H  H117  1  0.49020000  0.46720000  0.79090000  1.0 0.1119982566
H  H118  1  0.99020000  0.03280000  0.20910000  1.0 0.1119982566
H  H119  1  0.50980000  0.96720000  0.70910000  1.0 0.1119982566
H  H120  1  0.00980000  0.53280000  0.29090000  1.0 0.1119982566
H  H121  1  0.81470000  0.54360000  0.22330000  1.0 0.0613473009
H  H122  1  0.68530000  0.45640000  0.72330000  1.0 0.0613473009
H  H123  1  0.18530000  0.04360000  0.27670000  1.0 0.0613473009
H  H124  1  0.31470000  0.95640000  0.77670000  1.0 0.0613473009
H  H125  1  0.22330000  0.81470000  0.54360000  1.0 0.0613473009
H  H126  1  0.72330000  0.68530000  0.45640000  1.0 0.0613473009
H  H127  1  0.27670000  0.18530000  0.04360000  1.0 0.0613473009
H  H128  1  0.77670000  0.31470000  0.95640000  1.0 0.0613473009
H  H129  1  0.54360000  0.22330000  0.81470000  1.0 0.0613473009
H  H130  1  0.45640000  0.72330000  0.68530000  1.0 0.0613473009
H  H131  1  0.04360000  0.27670000  0.18530000  1.0 0.0613473009
H  H132  1  0.95640000  0.77670000  0.31470000  1.0 0.0613473009
H  H133  1  0.79360000  0.56470000  0.52670000  1.0 0.0613473009
H  H134  1  0.70640000  0.43530000  0.02670000  1.0 0.0613473009
H  H135  1  0.29360000  0.93530000  0.47330000  1.0 0.0613473009
H  H136  1  0.20640000  0.06470000  0.97330000  1.0 0.0613473009
H  H137  1  0.06470000  0.97330000  0.20640000  1.0 0.0613473009
H  H138  1  0.93530000  0.47330000  0.29360000  1.0 0.0613473009
H  H139  1  0.43530000  0.02670000  0.70640000  1.0 0.0613473009
H  H140  1  0.56470000  0.52670000  0.79360000  1.0 0.0613473009
H  H141  1  0.47330000  0.29360000  0.93530000  1.0 0.0613473009
H  H142  1  0.97330000  0.20640000  0.06470000  1.0 0.0613473009
H  H143  1  0.52670000  0.79360000  0.56470000  1.0 0.0613473009
H  H144  1  0.02670000  0.70640000  0.43530000  1.0 0.0613473009
C  C1  1  0.89990000  0.53210000  0.13350000  1.0 0.4206683848
C  C2  1  0.60010000  0.46790000  0.63350000  1.0 0.4206683848
C  C3  1  0.10010000  0.03210000  0.36650000  1.0 0.4206683848
C  C4  1  0.39990000  0.96790000  0.86650000  1.0 0.4206683848
C  C5  1  0.13350000  0.89990000  0.53210000  1.0 0.4206683848
C  C6  1  0.63350000  0.60010000  0.46790000  1.0 0.4206683848
C  C7  1  0.36650000  0.10010000  0.03210000  1.0 0.4206683848
C  C8  1  0.86650000  0.39990000  0.96790000  1.0 0.4206683848
C  C9  1  0.53210000  0.13350000  0.89990000  1.0 0.4206683848
C  C10  1  0.46790000  0.63350000  0.60010000  1.0 0.4206683848
C  C11  1  0.03210000  0.36650000  0.10010000  1.0 0.4206683848
C  C12  1  0.96790000  0.86650000  0.39990000  1.0 0.4206683848
C  C13  1  0.78210000  0.64990000  0.61650000  1.0 0.4206683848
C  C14  1  0.71790000  0.35010000  0.11650000  1.0 0.4206683848
C  C15  1  0.28210000  0.85010000  0.38350000  1.0 0.4206683848
C  C16  1  0.21790000  0.14990000  0.88350000  1.0 0.4206683848
C  C17  1  0.14990000  0.88350000  0.21790000  1.0 0.4206683848
C  C18  1  0.85010000  0.38350000  0.28210000  1.0 0.4206683848
C  C19  1  0.35010000  0.11650000  0.71790000  1.0 0.4206683848
C  C20  1  0.64990000  0.61650000  0.78210000  1.0 0.4206683848
C  C21  1  0.38350000  0.28210000  0.85010000  1.0 0.4206683848
C  C22  1  0.88350000  0.21790000  0.14990000  1.0 0.4206683848
C  C23  1  0.61650000  0.78210000  0.64990000  1.0 0.4206683848
C  C24  1  0.11650000  0.71790000  0.35010000  1.0 0.4206683848
C  C25  1  0.86390000  0.56360000  0.18600000  1.0 0.0183700055
C  C26  1  0.63610000  0.43640000  0.68600000  1.0 0.0183700055
C  C27  1  0.13610000  0.06360000  0.31400000  1.0 0.0183700055
C  C28  1  0.36390000  0.93640000  0.81400000  1.0 0.0183700055
C  C29  1  0.18600000  0.86390000  0.56360000  1.0 0.0183700055
C  C30  1  0.68600000  0.63610000  0.43640000  1.0 0.0183700055
C  C31  1  0.31400000  0.13610000  0.06360000  1.0 0.0183700055
C  C32  1  0.81400000  0.36390000  0.93640000  1.0 0.0183700055
C  C33  1  0.56360000  0.18600000  0.86390000  1.0 0.0183700055
C  C34  1  0.43640000  0.68600000  0.63610000  1.0 0.0183700055
C  C35  1  0.06360000  0.31400000  0.13610000  1.0 0.0183700055
C  C36  1  0.93640000  0.81400000  0.36390000  1.0 0.0183700055
C  C37  1  0.81360000  0.61390000  0.56400000  1.0 0.0183700055
C  C38  1  0.68640000  0.38610000  0.06400000  1.0 0.0183700055
C  C39  1  0.31360000  0.88610000  0.43600000  1.0 0.0183700055
C  C40  1  0.18640000  0.11390000  0.93600000  1.0 0.0183700055
C  C41  1  0.11390000  0.93600000  0.18640000  1.0 0.0183700055
C  C42  1  0.88610000  0.43600000  0.31360000  1.0 0.0183700055
C  C43  1  0.38610000  0.06400000  0.68640000  1.0 0.0183700055
C  C44  1  0.61390000  0.56400000  0.81360000  1.0 0.0183700055
C  C45  1  0.43600000  0.31360000  0.88610000  1.0 0.0183700055
C  C46  1  0.93600000  0.18640000  0.11390000  1.0 0.0183700055
C  C47  1  0.56400000  0.81360000  0.61390000  1.0 0.0183700055
C  C48  1  0.06400000  0.68640000  0.38610000  1.0 0.0183700055
C  C49  1  0.88710000  0.62090000  0.21390000  1.0 -0.0026617626
C  C50  1  0.61290000  0.37910000  0.71390000  1.0 -0.0026617626
C  C51  1  0.11290000  0.12090000  0.28610000  1.0 -0.0026617626
C  C52  1  0.38710000  0.87910000  0.78610000  1.0 -0.0026617626
C  C53  1  0.21390000  0.88710000  0.62090000  1.0 -0.0026617626
C  C54  1  0.71390000  0.61290000  0.37910000  1.0 -0.0026617626
C  C55  1  0.28610000  0.11290000  0.12090000  1.0 -0.0026617626
C  C56  1  0.78610000  0.38710000  0.87910000  1.0 -0.0026617626
C  C57  1  0.62090000  0.21390000  0.88710000  1.0 -0.0026617626
C  C58  1  0.37910000  0.71390000  0.61290000  1.0 -0.0026617626
C  C59  1  0.12090000  0.28610000  0.11290000  1.0 -0.0026617626
C  C60  1  0.87910000  0.78610000  0.38710000  1.0 -0.0026617626
C  C61  1  0.87090000  0.63710000  0.53610000  1.0 -0.0026617626
C  C62  1  0.62910000  0.36290000  0.03610000  1.0 -0.0026617626
C  C63  1  0.37090000  0.86290000  0.46390000  1.0 -0.0026617626
C  C64  1  0.12910000  0.13710000  0.96390000  1.0 -0.0026617626
C  C65  1  0.13710000  0.96390000  0.12910000  1.0 -0.0026617626
C  C66  1  0.86290000  0.46390000  0.37090000  1.0 -0.0026617626
C  C67  1  0.36290000  0.03610000  0.62910000  1.0 -0.0026617626
C  C68  1  0.63710000  0.53610000  0.87090000  1.0 -0.0026617626
C  C69  1  0.46390000  0.37090000  0.86290000  1.0 -0.0026617626
C  C70  1  0.96390000  0.12910000  0.13710000  1.0 -0.0026617626
C  C71  1  0.53610000  0.87090000  0.63710000  1.0 -0.0026617626
C  C72  1  0.03610000  0.62910000  0.36290000  1.0 -0.0026617626
C  C73  1  0.85350000  0.64950000  0.26550000  1.0 0.0265595864
C  C74  1  0.64650000  0.35050000  0.76550000  1.0 0.0265595864
C  C75  1  0.14650000  0.14950000  0.23450000  1.0 0.0265595864
C  C76  1  0.35350000  0.85050000  0.73450000  1.0 0.0265595864
C  C77  1  0.26550000  0.85350000  0.64950000  1.0 0.0265595864
C  C78  1  0.76550000  0.64650000  0.35050000  1.0 0.0265595864
C  C79  1  0.23450000  0.14650000  0.14950000  1.0 0.0265595864
C  C80  1  0.73450000  0.35350000  0.85050000  1.0 0.0265595864
C  C81  1  0.64950000  0.26550000  0.85350000  1.0 0.0265595864
C  C82  1  0.35050000  0.76550000  0.64650000  1.0 0.0265595864
C  C83  1  0.14950000  0.23450000  0.14650000  1.0 0.0265595864
C  C84  1  0.85050000  0.73450000  0.35350000  1.0 0.0265595864
C  C85  1  0.89950000  0.60350000  0.48450000  1.0 0.0265595864
C  C86  1  0.60050000  0.39650000  0.98450000  1.0 0.0265595864
C  C87  1  0.39950000  0.89650000  0.51550000  1.0 0.0265595864
C  C88  1  0.10050000  0.10350000  0.01550000  1.0 0.0265595864
C  C89  1  0.10350000  0.01550000  0.10050000  1.0 0.0265595864
C  C90  1  0.89650000  0.51550000  0.39950000  1.0 0.0265595864
C  C91  1  0.39650000  0.98450000  0.60050000  1.0 0.0265595864
C  C92  1  0.60350000  0.48450000  0.89950000  1.0 0.0265595864
C  C93  1  0.51550000  0.39950000  0.89650000  1.0 0.0265595864
C  C94  1  0.01550000  0.10050000  0.10350000  1.0 0.0265595864
C  C95  1  0.48450000  0.89950000  0.60350000  1.0 0.0265595864
C  C96  1  0.98450000  0.60050000  0.39650000  1.0 0.0265595864
C  C97  1  0.79680000  0.62080000  0.28920000  1.0 0.0265595864
C  C98  1  0.70320000  0.37920000  0.78920000  1.0 0.0265595864
C  C99  1  0.20320000  0.12080000  0.21080000  1.0 0.0265595864
C  C100  1  0.29680000  0.87920000  0.71080000  1.0 0.0265595864
C  C101  1  0.28920000  0.79680000  0.62080000  1.0 0.0265595864
C  C102  1  0.78920000  0.70320000  0.37920000  1.0 0.0265595864
C  C103  1  0.21080000  0.20320000  0.12080000  1.0 0.0265595864
C  C104  1  0.71080000  0.29680000  0.87920000  1.0 0.0265595864
C  C105  1  0.62080000  0.28920000  0.79680000  1.0 0.0265595864
C  C106  1  0.37920000  0.78920000  0.70320000  1.0 0.0265595864
C  C107  1  0.12080000  0.21080000  0.20320000  1.0 0.0265595864
C  C108  1  0.87920000  0.71080000  0.29680000  1.0 0.0265595864
C  C109  1  0.87080000  0.54680000  0.46080000  1.0 0.0265595864
C  C110  1  0.62920000  0.45320000  0.96080000  1.0 0.0265595864
C  C111  1  0.37080000  0.95320000  0.53920000  1.0 0.0265595864
C  C112  1  0.12920000  0.04680000  0.03920000  1.0 0.0265595864
C  C113  1  0.04680000  0.03920000  0.12920000  1.0 0.0265595864
C  C114  1  0.95320000  0.53920000  0.37080000  1.0 0.0265595864
C  C115  1  0.45320000  0.96080000  0.62920000  1.0 0.0265595864
C  C116  1  0.54680000  0.46080000  0.87080000  1.0 0.0265595864
C  C117  1  0.53920000  0.37080000  0.95320000  1.0 0.0265595864
C  C118  1  0.03920000  0.12920000  0.04680000  1.0 0.0265595864
C  C119  1  0.46080000  0.87080000  0.54680000  1.0 0.0265595864
C  C120  1  0.96080000  0.62920000  0.45320000  1.0 0.0265595864
C  C121  1  0.77360000  0.56350000  0.26130000  1.0 -0.1142274227
C  C122  1  0.72640000  0.43650000  0.76130000  1.0 -0.1142274227
C  C123  1  0.22640000  0.06350000  0.23870000  1.0 -0.1142274227
C  C124  1  0.27360000  0.93650000  0.73870000  1.0 -0.1142274227
C  C125  1  0.26130000  0.77360000  0.56350000  1.0 -0.1142274227
C  C126  1  0.76130000  0.72640000  0.43650000  1.0 -0.1142274227
C  C127  1  0.23870000  0.22640000  0.06350000  1.0 -0.1142274227
C  C128  1  0.73870000  0.27360000  0.93650000  1.0 -0.1142274227
C  C129  1  0.56350000  0.26130000  0.77360000  1.0 -0.1142274227
C  C130  1  0.43650000  0.76130000  0.72640000  1.0 -0.1142274227
C  C131  1  0.06350000  0.23870000  0.22640000  1.0 -0.1142274227
C  C132  1  0.93650000  0.73870000  0.27360000  1.0 -0.1142274227
C  C133  1  0.81350000  0.52360000  0.48870000  1.0 -0.1142274227
C  C134  1  0.68650000  0.47640000  0.98870000  1.0 -0.1142274227
C  C135  1  0.31350000  0.97640000  0.51130000  1.0 -0.1142274227
C  C136  1  0.18650000  0.02360000  0.01130000  1.0 -0.1142274227
C  C137  1  0.02360000  0.01130000  0.18650000  1.0 -0.1142274227
C  C138  1  0.97640000  0.51130000  0.31350000  1.0 -0.1142274227
C  C139  1  0.47640000  0.98870000  0.68650000  1.0 -0.1142274227
C  C140  1  0.52360000  0.48870000  0.81350000  1.0 -0.1142274227
C  C141  1  0.51130000  0.31350000  0.97640000  1.0 -0.1142274227
C  C142  1  0.01130000  0.18650000  0.02360000  1.0 -0.1142274227
C  C143  1  0.48870000  0.81350000  0.52360000  1.0 -0.1142274227
C  C144  1  0.98870000  0.68650000  0.47640000  1.0 -0.1142274227
C  C145  1  0.80710000  0.53490000  0.20970000  1.0 -0.1885033709
C  C146  1  0.69290000  0.46510000  0.70970000  1.0 -0.1885033709
C  C147  1  0.19290000  0.03490000  0.29030000  1.0 -0.1885033709
C  C148  1  0.30710000  0.96510000  0.79030000  1.0 -0.1885033709
C  C149  1  0.20970000  0.80710000  0.53490000  1.0 -0.1885033709
C  C150  1  0.70970000  0.69290000  0.46510000  1.0 -0.1885033709
C  C151  1  0.29030000  0.19290000  0.03490000  1.0 -0.1885033709
C  C152  1  0.79030000  0.30710000  0.96510000  1.0 -0.1885033709
C  C153  1  0.53490000  0.20970000  0.80710000  1.0 -0.1885033709
C  C154  1  0.46510000  0.70970000  0.69290000  1.0 -0.1885033709
C  C155  1  0.03490000  0.29030000  0.19290000  1.0 -0.1885033709
C  C156  1  0.96510000  0.79030000  0.30710000  1.0 -0.1885033709
C  C157  1  0.78490000  0.55710000  0.54030000  1.0 -0.1885033709
C  C158  1  0.71510000  0.44290000  0.04030000  1.0 -0.1885033709
C  C159  1  0.28490000  0.94290000  0.45970000  1.0 -0.1885033709
C  C160  1  0.21510000  0.05710000  0.95970000  1.0 -0.1885033709
C  C161  1  0.05710000  0.95970000  0.21510000  1.0 -0.1885033709
C  C162  1  0.94290000  0.45970000  0.28490000  1.0 -0.1885033709
C  C163  1  0.44290000  0.04030000  0.71510000  1.0 -0.1885033709
C  C164  1  0.55710000  0.54030000  0.78490000  1.0 -0.1885033709
C  C165  1  0.45970000  0.28490000  0.94290000  1.0 -0.1885033709
C  C166  1  0.95970000  0.21510000  0.05710000  1.0 -0.1885033709
C  C167  1  0.54030000  0.78490000  0.55710000  1.0 -0.1885033709
C  C168  1  0.04030000  0.71510000  0.44290000  1.0 -0.1885033709
C  C169  1  0.89480000  0.58440000  0.18250000  1.0 0.0265595864
C  C170  1  0.60520000  0.41560000  0.68250000  1.0 0.0265595864
C  C171  1  0.10520000  0.08440000  0.31750000  1.0 0.0265595864
C  C172  1  0.39480000  0.91560000  0.81750000  1.0 0.0265595864
C  C173  1  0.18250000  0.89480000  0.58440000  1.0 0.0265595864
C  C174  1  0.68250000  0.60520000  0.41560000  1.0 0.0265595864
C  C175  1  0.31750000  0.10520000  0.08440000  1.0 0.0265595864
C  C176  1  0.81750000  0.39480000  0.91560000  1.0 0.0265595864
C  C177  1  0.58440000  0.18250000  0.89480000  1.0 0.0265595864
C  C178  1  0.41560000  0.68250000  0.60520000  1.0 0.0265595864
C  C179  1  0.08440000  0.31750000  0.10520000  1.0 0.0265595864
C  C180  1  0.91560000  0.81750000  0.39480000  1.0 0.0265595864
C  C181  1  0.83440000  0.64480000  0.56750000  1.0 0.0265595864
C  C182  1  0.66560000  0.35520000  0.06750000  1.0 0.0265595864
C  C183  1  0.33440000  0.85520000  0.43250000  1.0 0.0265595864
C  C184  1  0.16560000  0.14480000  0.93250000  1.0 0.0265595864
C  C185  1  0.14480000  0.93250000  0.16560000  1.0 0.0265595864
C  C186  1  0.85520000  0.43250000  0.33440000  1.0 0.0265595864
C  C187  1  0.35520000  0.06750000  0.66560000  1.0 0.0265595864
C  C188  1  0.64480000  0.56750000  0.83440000  1.0 0.0265595864
C  C189  1  0.43250000  0.33440000  0.85520000  1.0 0.0265595864
C  C190  1  0.93250000  0.16560000  0.14480000  1.0 0.0265595864
C  C191  1  0.56750000  0.83440000  0.64480000  1.0 0.0265595864
C  C192  1  0.06750000  0.66560000  0.35520000  1.0 0.0265595864
C  C193  1  0.93810000  0.63640000  0.18760000  1.0 -0.177565248
C  C194  1  0.56190000  0.36360000  0.68760000  1.0 -0.177565248
C  C195  1  0.06190000  0.13640000  0.31240000  1.0 -0.177565248
C  C196  1  0.43810000  0.86360000  0.81240000  1.0 -0.177565248
C  C197  1  0.18760000  0.93810000  0.63640000  1.0 -0.177565248
C  C198  1  0.68760000  0.56190000  0.36360000  1.0 -0.177565248
C  C199  1  0.31240000  0.06190000  0.13640000  1.0 -0.177565248
C  C200  1  0.81240000  0.43810000  0.86360000  1.0 -0.177565248
C  C201  1  0.63640000  0.18760000  0.93810000  1.0 -0.177565248
C  C202  1  0.36360000  0.68760000  0.56190000  1.0 -0.177565248
C  C203  1  0.13640000  0.31240000  0.06190000  1.0 -0.177565248
C  C204  1  0.86360000  0.81240000  0.43810000  1.0 -0.177565248
C  C205  1  0.88640000  0.68810000  0.56240000  1.0 -0.177565248
C  C206  1  0.61360000  0.31190000  0.06240000  1.0 -0.177565248
C  C207  1  0.38640000  0.81190000  0.43760000  1.0 -0.177565248
C  C208  1  0.11360000  0.18810000  0.93760000  1.0 -0.177565248
C  C209  1  0.18810000  0.93760000  0.11360000  1.0 -0.177565248
C  C210  1  0.81190000  0.43760000  0.38640000  1.0 -0.177565248
C  C211  1  0.31190000  0.06240000  0.61360000  1.0 -0.177565248
C  C212  1  0.68810000  0.56240000  0.88640000  1.0 -0.177565248
C  C213  1  0.43760000  0.38640000  0.81190000  1.0 -0.177565248
C  C214  1  0.93760000  0.11360000  0.18810000  1.0 -0.177565248
C  C215  1  0.56240000  0.88640000  0.68810000  1.0 -0.177565248
C  C216  1  0.06240000  0.61360000  0.31190000  1.0 -0.177565248
C  C217  1  0.93020000  0.68240000  0.23680000  1.0 -0.1142274227
C  C218  1  0.56980000  0.31760000  0.73680000  1.0 -0.1151924609
C  C219  1  0.06980000  0.18240000  0.26320000  1.0 -0.1151924609
C  C220  1  0.43020000  0.81760000  0.76320000  1.0 -0.1151924609
C  C221  1  0.23680000  0.93020000  0.68240000  1.0 -0.1151924609
C  C222  1  0.73680000  0.56980000  0.31760000  1.0 -0.1151924609
C  C223  1  0.26320000  0.06980000  0.18240000  1.0 -0.1151924609
C  C224  1  0.76320000  0.43020000  0.81760000  1.0 -0.1151924609
C  C225  1  0.68240000  0.23680000  0.93020000  1.0 -0.1151924609
C  C226  1  0.31760000  0.73680000  0.56980000  1.0 -0.1151924609
C  C227  1  0.18240000  0.26320000  0.06980000  1.0 -0.1151924609
C  C228  1  0.81760000  0.76320000  0.43020000  1.0 -0.1151924609
C  C229  1  0.93240000  0.68020000  0.51320000  1.0 -0.1142274227
C  C230  1  0.56760000  0.31980000  0.01320000  1.0 -0.1151924609
C  C231  1  0.43240000  0.81980000  0.48680000  1.0 -0.1151924609
C  C232  1  0.06760000  0.18020000  0.98680000  1.0 -0.1151924609
C  C233  1  0.18020000  0.98680000  0.06760000  1.0 -0.1151924609
C  C234  1  0.81980000  0.48680000  0.43240000  1.0 -0.1151924609
C  C235  1  0.31980000  0.01320000  0.56760000  1.0 -0.1151924609
C  C236  1  0.68020000  0.51320000  0.93240000  1.0 -0.1151924609
C  C237  1  0.48680000  0.43240000  0.81980000  1.0 -0.1151924609
C  C238  1  0.98680000  0.06760000  0.18020000  1.0 -0.1142274227
C  C239  1  0.51320000  0.93240000  0.68020000  1.0 -0.1151924609
C  C240  1  0.01320000  0.56760000  0.31980000  1.0 -0.1151924609
C  C241  1  0.87900000  0.67640000  0.28100000  1.0 0.0114885329
C  C242  1  0.62100000  0.32360000  0.78100000  1.0 0.0114885329
C  C243  1  0.12100000  0.17640000  0.21900000  1.0 0.0114885329
C  C244  1  0.37900000  0.82360000  0.71900000  1.0 0.0114885329
C  C245  1  0.28100000  0.87900000  0.67640000  1.0 0.0114885329
C  C246  1  0.78100000  0.62100000  0.32360000  1.0 0.0114885329
C  C247  1  0.21900000  0.12100000  0.17640000  1.0 0.0114885329
C  C248  1  0.71900000  0.37900000  0.82360000  1.0 0.0114885329
C  C249  1  0.67640000  0.28100000  0.87900000  1.0 0.0114885329
C  C250  1  0.32360000  0.78100000  0.62100000  1.0 0.0114885329
C  C251  1  0.17640000  0.21900000  0.12100000  1.0 0.0114885329
C  C252  1  0.82360000  0.71900000  0.37900000  1.0 0.0114885329
C  C253  1  0.92640000  0.62900000  0.46900000  1.0 0.0114885329
C  C254  1  0.57360000  0.37100000  0.96900000  1.0 0.0114885329
C  C255  1  0.42640000  0.87100000  0.53100000  1.0 0.0114885329
C  C256  1  0.07360000  0.12900000  0.03100000  1.0 0.0114885329
C  C257  1  0.12900000  0.03100000  0.07360000  1.0 0.0114885329
C  C258  1  0.87100000  0.53100000  0.42640000  1.0 0.0114885329
C  C259  1  0.37100000  0.96900000  0.57360000  1.0 0.0114885329
C  C260  1  0.62900000  0.46900000  0.92640000  1.0 0.0114885329
C  C261  1  0.53100000  0.42640000  0.87100000  1.0 0.0114885329
C  C262  1  0.03100000  0.07360000  0.12900000  1.0 0.0114885329
C  C263  1  0.46900000  0.92640000  0.62900000  1.0 0.0114885329
C  C264  1  0.96900000  0.57360000  0.37100000  1.0 0.0114885329
C  C265  1  0.83580000  0.62440000  0.27590000  1.0 0.0183700055
C  C266  1  0.66420000  0.37560000  0.77590000  1.0 0.0183700055
C  C267  1  0.16420000  0.12440000  0.22410000  1.0 0.0183700055
C  C268  1  0.33580000  0.87560000  0.72410000  1.0 0.0183700055
C  C269  1  0.27590000  0.83580000  0.62440000  1.0 0.0183700055
C  C270  1  0.77590000  0.66420000  0.37560000  1.0 0.0183700055
C  C271  1  0.22410000  0.16420000  0.12440000  1.0 0.0183700055
C  C272  1  0.72410000  0.33580000  0.87560000  1.0 0.0183700055
C  C273  1  0.62440000  0.27590000  0.83580000  1.0 0.0183700055
C  C274  1  0.37560000  0.77590000  0.66420000  1.0 0.0183700055
C  C275  1  0.12440000  0.22410000  0.16420000  1.0 0.0183700055
C  C276  1  0.87560000  0.72410000  0.33580000  1.0 0.0183700055
C  C277  1  0.87440000  0.58580000  0.47410000  1.0 0.0183700055
C  C278  1  0.62560000  0.41420000  0.97410000  1.0 0.0183700055
C  C279  1  0.37440000  0.91420000  0.52590000  1.0 0.0183700055
C  C280  1  0.12560000  0.08580000  0.02590000  1.0 0.0183700055
C  C281  1  0.08580000  0.02590000  0.12560000  1.0 0.0183700055
C  C282  1  0.91420000  0.52590000  0.37440000  1.0 0.0183700055
C  C283  1  0.41420000  0.97410000  0.62560000  1.0 0.0183700055
C  C284  1  0.58580000  0.47410000  0.87440000  1.0 0.0183700055
C  C285  1  0.52590000  0.37440000  0.91420000  1.0 0.0183700055
C  C286  1  0.02590000  0.12560000  0.08580000  1.0 0.0183700055
C  C287  1  0.47410000  0.87440000  0.58580000  1.0 0.0183700055
C  C288  1  0.97410000  0.62560000  0.41420000  1.0 0.0183700055
C  C289  1  0.84370000  0.57840000  0.22670000  1.0 -0.0134779843
C  C290  1  0.65630000  0.42160000  0.72670000  1.0 -0.0134779843
C  C291  1  0.15630000  0.07840000  0.27330000  1.0 -0.0134779843
C  C292  1  0.34370000  0.92160000  0.77330000  1.0 -0.0134779843
C  C293  1  0.22670000  0.84370000  0.57840000  1.0 -0.0134779843
C  C294  1  0.72670000  0.65630000  0.42160000  1.0 -0.0134779843
C  C295  1  0.27330000  0.15630000  0.07840000  1.0 -0.0134779843
C  C296  1  0.77330000  0.34370000  0.92160000  1.0 -0.0134779843
C  C297  1  0.57840000  0.22670000  0.84370000  1.0 -0.0134779843
C  C298  1  0.42160000  0.72670000  0.65630000  1.0 -0.0134779843
C  C299  1  0.07840000  0.27330000  0.15630000  1.0 -0.0134779843
C  C300  1  0.92160000  0.77330000  0.34370000  1.0 -0.0134779843
C  C301  1  0.82840000  0.59370000  0.52330000  1.0 -0.0134779843
C  C302  1  0.67160000  0.40630000  0.02330000  1.0 -0.0134779843
C  C303  1  0.32840000  0.90630000  0.47670000  1.0 -0.0134779843
C  C304  1  0.17160000  0.09370000  0.97670000  1.0 -0.0134779843
C  C305  1  0.09370000  0.97670000  0.17160000  1.0 -0.0134779843
C  C306  1  0.90630000  0.47670000  0.32840000  1.0 -0.0134779843
C  C307  1  0.40630000  0.02330000  0.67160000  1.0 -0.0134779843
C  C308  1  0.59370000  0.52330000  0.82840000  1.0 -0.0134779843
C  C309  1  0.47670000  0.32840000  0.90630000  1.0 -0.0134779843
C  C310  1  0.97670000  0.17160000  0.09370000  1.0 -0.0134779843
C  C311  1  0.52330000  0.82840000  0.59370000  1.0 -0.0134779843
C  C312  1  0.02330000  0.67160000  0.40630000  1.0 -0.0134779843
O  O1  1  0.94830000  0.54760000  0.10180000  1.0 -0.4169958394
O  O2  1  0.55170000  0.45240000  0.60180000  1.0 -0.4169958394
O  O3  1  0.05170000  0.04760000  0.39820000  1.0 -0.4169958394
O  O4  1  0.44830000  0.95240000  0.89820000  1.0 -0.4169958394
O  O5  1  0.10180000  0.94830000  0.54760000  1.0 -0.4169958394
O  O6  1  0.60180000  0.55170000  0.45240000  1.0 -0.4169958394
O  O7  1  0.39820000  0.05170000  0.04760000  1.0 -0.4169958394
O  O8  1  0.89820000  0.44830000  0.95240000  1.0 -0.4169958394
O  O9  1  0.54760000  0.10180000  0.94830000  1.0 -0.4169958394
O  O10  1  0.45240000  0.60180000  0.55170000  1.0 -0.4169958394
O  O11  1  0.04760000  0.39820000  0.05170000  1.0 -0.4169958394
O  O12  1  0.95240000  0.89820000  0.44830000  1.0 -0.4169958394
O  O13  1  0.79760000  0.69830000  0.64820000  1.0 -0.4169958394
O  O14  1  0.70240000  0.30170000  0.14820000  1.0 -0.4169958394
O  O15  1  0.29760000  0.80170000  0.35180000  1.0 -0.4169958394
O  O16  1  0.20240000  0.19830000  0.85180000  1.0 -0.4169958394
O  O17  1  0.19830000  0.85180000  0.20240000  1.0 -0.4169958394
O  O18  1  0.80170000  0.35180000  0.29760000  1.0 -0.4169958394
O  O19  1  0.30170000  0.14820000  0.70240000  1.0 -0.4169958394
O  O20  1  0.69830000  0.64820000  0.79760000  1.0 -0.4169958394
O  O21  1  0.35180000  0.29760000  0.80170000  1.0 -0.4169958394
O  O22  1  0.85180000  0.20240000  0.19830000  1.0 -0.4169958394
O  O23  1  0.64820000  0.79760000  0.69830000  1.0 -0.4169958394
O  O24  1  0.14820000  0.70240000  0.30170000  1.0 -0.4169958394
O  O25  1  0.87040000  0.48300000  0.11670000  1.0 -0.4646413449
O  O26  1  0.62960000  0.51700000  0.61670000  1.0 -0.4646413449
O  O27  1  0.12960000  0.98300000  0.38330000  1.0 -0.4646413449
O  O28  1  0.37040000  0.01700000  0.88330000  1.0 -0.4646413449
O  O29  1  0.11670000  0.87040000  0.48300000  1.0 -0.4646413449
O  O30  1  0.61670000  0.62960000  0.51700000  1.0 -0.4646413449
O  O31  1  0.38330000  0.12960000  0.98300000  1.0 -0.4646413449
O  O32  1  0.88330000  0.37040000  0.01700000  1.0 -0.4646413449
O  O33  1  0.48300000  0.11670000  0.87040000  1.0 -0.4646413449
O  O34  1  0.51700000  0.61670000  0.62960000  1.0 -0.4646413449
O  O35  1  0.98300000  0.38330000  0.12960000  1.0 -0.4646413449
O  O36  1  0.01700000  0.88330000  0.37040000  1.0 -0.4646413449
O  O37  1  0.73300000  0.62040000  0.63330000  1.0 -0.4646413449
O  O38  1  0.76700000  0.37960000  0.13330000  1.0 -0.4646413449
O  O39  1  0.23300000  0.87960000  0.36670000  1.0 -0.4646413449
O  O40  1  0.26700000  0.12040000  0.86670000  1.0 -0.4646413449
O  O41  1  0.12040000  0.86670000  0.26700000  1.0 -0.4646413449
O  O42  1  0.87960000  0.36670000  0.23300000  1.0 -0.4646413449
O  O43  1  0.37960000  0.13330000  0.76700000  1.0 -0.4646413449
O  O44  1  0.62040000  0.63330000  0.73300000  1.0 -0.4646413449
O  O45  1  0.36670000  0.23300000  0.87960000  1.0 -0.4646413449
O  O46  1  0.86670000  0.26700000  0.12040000  1.0 -0.4646413449
O  O47  1  0.63330000  0.73300000  0.62040000  1.0 -0.4646413449
O  O48  1  0.13330000  0.76700000  0.37960000  1.0 -0.4646413449
