# DDEC6 charges by PACMAN v1.1 (https://github.com/mtap-research/PACMAN-charge/)
data_NEPCAQ_ASR_pacman
_symmetry_space_group_name_H-M   'P 1'
_cell_length_a   19.03490000
_cell_length_b   19.03490000
_cell_length_c   6.65440000
_cell_angle_alpha   88.32000000
_cell_angle_beta   91.68000000
_cell_angle_gamma   105.05100000
_symmetry_Int_Tables_number   1
_chemical_formula_structural   Co2H38(C9O2)5
_chemical_formula_sum   'Co4 H76 C90 O20'
_cell_volume   2326.77068263
_cell_formula_units_Z   2
loop_
 _symmetry_equiv_pos_site_id
 _symmetry_equiv_pos_as_xyz
  1  'x, y, z'
loop_
 _atom_site_type_symbol
 _atom_site_label
 _atom_site_symmetry_multiplicity
 _atom_site_fract_x
 _atom_site_fract_y
 _atom_site_fract_z
 _atom_site_occupancy
 _atom_site_charge
Co  Co1  1  0.70127000  0.70127000  0.50000000  1.0 0.9504845702
Co  Co2  1  0.29873000  0.29873000  0.50000000  1.0 0.9504845702
Co  Co3  1  0.34793000  0.34793000  0.00000000  1.0 1.0530776642
Co  Co4  1  0.65207000  0.65207000  0.00000000  1.0 1.0530776642
H  H1  1  0.91870000  0.73290000  0.33900000  1.0 0.128035035
H  H2  1  0.16140000  0.59600000  0.82570000  1.0 0.1196155152
H  H3  1  0.17550000  0.55810000  0.24060000  1.0 0.1090256249
H  H4  1  0.92800000  0.66900000  0.67790000  1.0 0.1196155152
H  H5  1  0.18510000  0.71330000  0.68700000  1.0 0.1196155152
H  H6  1  0.22390000  0.51030000  0.90860000  1.0 0.1196155152
H  H7  1  0.82000000  0.72760000  0.12620000  1.0 0.128035035
H  H8  1  0.24010000  0.47390000  0.32340000  1.0 0.1196155152
H  H9  1  0.04650000  0.80410000  0.38130000  1.0 0.128035035
H  H10  1  0.02420000  0.66740000  0.89650000  1.0 0.1196155152
H  H11  1  0.95030000  0.54430000  0.13560000  1.0 0.1196155152
H  H12  1  0.98510000  0.48730000  0.24610000  1.0 0.128035035
H  H13  1  0.96610000  0.54890000  0.36800000  1.0 0.1196155152
H  H14  1  0.19100000  0.87440000  0.94840000  1.0 0.1090256249
H  H15  1  0.13040000  0.94080000  0.70770000  1.0 0.1015734114
H  H16  1  0.09060000  0.90180000  0.51600000  1.0 0.0863131105
H  H17  1  0.06300000  0.87340000  0.73050000  1.0 0.1015734114
H  H18  1  0.12620000  0.80400000  0.94510000  1.0 0.1090256249
H  H19  1  0.20490000  0.79950000  0.89530000  1.0 0.0863131105
H  H20  1  0.73290000  0.91870000  0.66100000  1.0 0.128035035
H  H21  1  0.59600000  0.16140000  0.17430000  1.0 0.1196155152
H  H22  1  0.55810000  0.17550000  0.75940000  1.0 0.1090256249
H  H23  1  0.66900000  0.92800000  0.32210000  1.0 0.1196155152
H  H24  1  0.71330000  0.18510000  0.31300000  1.0 0.1196155152
H  H25  1  0.51030000  0.22390000  0.09140000  1.0 0.1196155152
H  H26  1  0.72760000  0.82000000  0.87380000  1.0 0.128035035
H  H27  1  0.47390000  0.24010000  0.67660000  1.0 0.1196155152
H  H28  1  0.80410000  0.04650000  0.61870000  1.0 0.128035035
H  H29  1  0.66740000  0.02420000  0.10350000  1.0 0.1196155152
H  H30  1  0.54430000  0.95030000  0.86440000  1.0 0.1196155152
H  H31  1  0.48730000  0.98510000  0.75390000  1.0 0.128035035
H  H32  1  0.54890000  0.96610000  0.63200000  1.0 0.1196155152
H  H33  1  0.87440000  0.19100000  0.05160000  1.0 0.1090256249
H  H34  1  0.94080000  0.13040000  0.29230000  1.0 0.1015734114
H  H35  1  0.90180000  0.09060000  0.48400000  1.0 0.0863131105
H  H36  1  0.87340000  0.06300000  0.26950000  1.0 0.1015734114
H  H37  1  0.80400000  0.12620000  0.05490000  1.0 0.1090256249
H  H38  1  0.79950000  0.20490000  0.10470000  1.0 0.0863131105
H  H39  1  0.08130000  0.26710000  0.66100000  1.0 0.128035035
H  H40  1  0.83860000  0.40400000  0.17430000  1.0 0.1196155152
H  H41  1  0.82450000  0.44190000  0.75940000  1.0 0.1090256249
H  H42  1  0.07200000  0.33100000  0.32210000  1.0 0.1196155152
H  H43  1  0.81490000  0.28670000  0.31300000  1.0 0.1196155152
H  H44  1  0.77610000  0.48970000  0.09140000  1.0 0.1196155152
H  H45  1  0.18000000  0.27240000  0.87380000  1.0 0.128035035
H  H46  1  0.75990000  0.52610000  0.67660000  1.0 0.1196155152
H  H47  1  0.95350000  0.19590000  0.61870000  1.0 0.128035035
H  H48  1  0.97580000  0.33260000  0.10350000  1.0 0.1196155152
H  H49  1  0.04970000  0.45570000  0.86440000  1.0 0.1196155152
H  H50  1  0.01490000  0.51270000  0.75390000  1.0 0.128035035
H  H51  1  0.03390000  0.45110000  0.63200000  1.0 0.1196155152
H  H52  1  0.80900000  0.12560000  0.05160000  1.0 0.1090256249
H  H53  1  0.86960000  0.05920000  0.29230000  1.0 0.1015734114
H  H54  1  0.90940000  0.09820000  0.48400000  1.0 0.0863131105
H  H55  1  0.93700000  0.12660000  0.26950000  1.0 0.1015734114
H  H56  1  0.87380000  0.19600000  0.05490000  1.0 0.1090256249
H  H57  1  0.79510000  0.20050000  0.10470000  1.0 0.0863131105
H  H58  1  0.26710000  0.08130000  0.33900000  1.0 0.128035035
H  H59  1  0.40400000  0.83860000  0.82570000  1.0 0.1196155152
H  H60  1  0.44190000  0.82450000  0.24060000  1.0 0.1090256249
H  H61  1  0.33100000  0.07200000  0.67790000  1.0 0.1196155152
H  H62  1  0.28670000  0.81490000  0.68700000  1.0 0.1196155152
H  H63  1  0.48970000  0.77610000  0.90860000  1.0 0.1196155152
H  H64  1  0.27240000  0.18000000  0.12620000  1.0 0.128035035
H  H65  1  0.52610000  0.75990000  0.32340000  1.0 0.1196155152
H  H66  1  0.19590000  0.95350000  0.38130000  1.0 0.128035035
H  H67  1  0.33260000  0.97580000  0.89650000  1.0 0.1196155152
H  H68  1  0.45570000  0.04970000  0.13560000  1.0 0.1196155152
H  H69  1  0.51270000  0.01490000  0.24610000  1.0 0.128035035
H  H70  1  0.45110000  0.03390000  0.36800000  1.0 0.1196155152
H  H71  1  0.12560000  0.80900000  0.94840000  1.0 0.1090256249
H  H72  1  0.05920000  0.86960000  0.70770000  1.0 0.1015734114
H  H73  1  0.09820000  0.90940000  0.51600000  1.0 0.0863131105
H  H74  1  0.12660000  0.93700000  0.73050000  1.0 0.1015734114
H  H75  1  0.19600000  0.87380000  0.94510000  1.0 0.1090256249
H  H76  1  0.20050000  0.79510000  0.89530000  1.0 0.0863131105
C  C1  1  0.12804000  0.64804000  0.47390000  1.0 -0.0312696012
C  C2  1  0.07403000  0.64443000  0.32250000  1.0 0.1407461129
C  C3  1  0.12265000  0.77155000  0.54960000  1.0 0.0237700865
C  C4  1  0.16307000  0.58835000  0.52250000  1.0 0.0863131105
C  C5  1  0.28324000  0.43134000  0.67960000  1.0 0.5947462581
C  C6  1  0.92009000  0.71877000  0.20690000  1.0 -0.1397057958
C  C7  1  0.17753000  0.57201000  0.72400000  1.0 -0.1728109662
C  C8  1  0.18611000  0.54969000  0.37510000  1.0 -0.151010517
C  C9  1  0.92567000  0.68069000  0.81190000  1.0 -0.120947402
C  C10  1  0.15027000  0.71133000  0.58490000  1.0 -0.2223916836
C  C11  1  0.21534000  0.52076000  0.77410000  1.0 -0.1054833438
C  C12  1  0.24064000  0.48476000  0.62430000  1.0 -0.0312696012
C  C13  1  0.04310000  0.70276000  0.28940000  1.0 -0.0381240602
C  C14  1  0.86133000  0.71665000  0.07900000  1.0 -0.0883659683
C  C15  1  0.22475000  0.49881000  0.42460000  1.0 -0.0883659683
C  C16  1  0.98156000  0.70012000  0.14140000  1.0 0.0779526569
C  C17  1  0.06758000  0.76550000  0.40360000  1.0 -0.2368239853
C  C18  1  0.86388000  0.69802000  0.87950000  1.0 -0.0312696012
C  C19  1  0.98375000  0.68057000  0.94210000  1.0 -0.1728109662
C  C20  1  0.80259000  0.69979000  0.73760000  1.0 0.5707131736
C  C21  1  0.98308000  0.53718000  0.24200000  1.0 -0.2368239853
C  C22  1  0.64804000  0.12804000  0.52610000  1.0 -0.0312696012
C  C23  1  0.64443000  0.07403000  0.67750000  1.0 0.1407461129
C  C24  1  0.77155000  0.12265000  0.45040000  1.0 0.0254921383
C  C25  1  0.58835000  0.16307000  0.47750000  1.0 0.0863131105
C  C26  1  0.43134000  0.28324000  0.32040000  1.0 0.5947462581
C  C27  1  0.71877000  0.92009000  0.79310000  1.0 -0.1397057958
C  C28  1  0.57201000  0.17753000  0.27600000  1.0 -0.1728109662
C  C29  1  0.54969000  0.18611000  0.62490000  1.0 -0.151010517
C  C30  1  0.68069000  0.92567000  0.18810000  1.0 -0.120947402
C  C31  1  0.71133000  0.15027000  0.41510000  1.0 -0.2223916836
C  C32  1  0.52076000  0.21534000  0.22590000  1.0 -0.1054833438
C  C33  1  0.48476000  0.24064000  0.37570000  1.0 -0.0312696012
C  C34  1  0.70276000  0.04310000  0.71060000  1.0 -0.0381240602
C  C35  1  0.71665000  0.86133000  0.92100000  1.0 -0.0883659683
C  C36  1  0.49881000  0.22475000  0.57540000  1.0 -0.0883659683
C  C37  1  0.70012000  0.98156000  0.85860000  1.0 0.0779526569
C  C38  1  0.76550000  0.06758000  0.59640000  1.0 -0.2368239853
C  C39  1  0.69802000  0.86388000  0.12050000  1.0 -0.0312696012
C  C40  1  0.68057000  0.98375000  0.05790000  1.0 -0.1728109662
C  C41  1  0.69979000  0.80259000  0.26240000  1.0 0.5707131736
C  C42  1  0.53718000  0.98308000  0.75800000  1.0 -0.2368239853
C  C43  1  0.87196000  0.35196000  0.52610000  1.0 -0.0312696012
C  C44  1  0.92597000  0.35557000  0.67750000  1.0 0.1407461129
C  C45  1  0.87735000  0.22845000  0.45040000  1.0 0.0254921383
C  C46  1  0.83693000  0.41165000  0.47750000  1.0 0.0863131105
C  C47  1  0.71676000  0.56866000  0.32040000  1.0 0.5947462581
C  C48  1  0.07991000  0.28123000  0.79310000  1.0 -0.1397057958
C  C49  1  0.82247000  0.42799000  0.27600000  1.0 -0.1728109662
C  C50  1  0.81389000  0.45031000  0.62490000  1.0 -0.151010517
C  C51  1  0.07433000  0.31931000  0.18810000  1.0 -0.120947402
C  C52  1  0.84973000  0.28867000  0.41510000  1.0 -0.2223916836
C  C53  1  0.78466000  0.47924000  0.22590000  1.0 -0.1054833438
C  C54  1  0.75936000  0.51524000  0.37570000  1.0 -0.0312696012
C  C55  1  0.95690000  0.29724000  0.71060000  1.0 -0.0381240602
C  C56  1  0.13867000  0.28335000  0.92100000  1.0 -0.0883659683
C  C57  1  0.77525000  0.50119000  0.57540000  1.0 -0.0883659683
C  C58  1  0.01844000  0.29988000  0.85860000  1.0 0.0779526569
C  C59  1  0.93242000  0.23450000  0.59640000  1.0 -0.2368239853
C  C60  1  0.13612000  0.30198000  0.12050000  1.0 -0.0312696012
C  C61  1  0.01625000  0.31943000  0.05790000  1.0 -0.1728109662
C  C62  1  0.19741000  0.30021000  0.26240000  1.0 0.5707131736
C  C63  1  0.01692000  0.46282000  0.75800000  1.0 -0.2368239853
C  C64  1  0.35196000  0.87196000  0.47390000  1.0 -0.0312696012
C  C65  1  0.35557000  0.92597000  0.32250000  1.0 0.1407461129
C  C66  1  0.22845000  0.87735000  0.54960000  1.0 0.0237700865
C  C67  1  0.41165000  0.83693000  0.52250000  1.0 0.0863131105
C  C68  1  0.56866000  0.71676000  0.67960000  1.0 0.5947462581
C  C69  1  0.28123000  0.07991000  0.20690000  1.0 -0.1397057958
C  C70  1  0.42799000  0.82247000  0.72400000  1.0 -0.1728109662
C  C71  1  0.45031000  0.81389000  0.37510000  1.0 -0.151010517
C  C72  1  0.31931000  0.07433000  0.81190000  1.0 -0.120947402
C  C73  1  0.28867000  0.84973000  0.58490000  1.0 -0.2223916836
C  C74  1  0.47924000  0.78466000  0.77410000  1.0 -0.1054833438
C  C75  1  0.51524000  0.75936000  0.62430000  1.0 -0.0312696012
C  C76  1  0.29724000  0.95690000  0.28940000  1.0 -0.0381240602
C  C77  1  0.28335000  0.13867000  0.07900000  1.0 -0.0883659683
C  C78  1  0.50119000  0.77525000  0.42460000  1.0 -0.0883659683
C  C79  1  0.29988000  0.01844000  0.14140000  1.0 0.0779526569
C  C80  1  0.23450000  0.93242000  0.40360000  1.0 -0.2368239853
C  C81  1  0.30198000  0.13612000  0.87950000  1.0 -0.0312696012
C  C82  1  0.31943000  0.01625000  0.94210000  1.0 -0.1728109662
C  C83  1  0.30021000  0.19741000  0.73760000  1.0 0.5707131736
C  C84  1  0.46282000  0.01692000  0.24200000  1.0 -0.2368239853
C  C85  1  0.15635000  0.84365000  0.65960000  1.0 0.1588119306
C  C86  1  0.17100000  0.82900000  0.88300000  1.0 -0.4558056928
C  C87  1  0.10527000  0.89473000  0.65280000  1.0 -0.4398021288
C  C88  1  0.84365000  0.15635000  0.34040000  1.0 0.1588119306
C  C89  1  0.82900000  0.17100000  0.11700000  1.0 -0.4545260407
C  C90  1  0.89473000  0.10527000  0.34720000  1.0 -0.4398021288
O  O1  1  0.73823000  0.69463000  0.80040000  1.0 -0.602485571
O  O2  1  0.81349000  0.70955000  0.55320000  1.0 -0.5195013321
O  O3  1  0.28849000  0.41327000  0.86040000  1.0 -0.5880757905
O  O4  1  0.05371000  0.58313000  0.20690000  1.0 -0.1640926637
O  O5  1  0.31291000  0.40733000  0.53640000  1.0 -0.5590908863
O  O6  1  0.69463000  0.73823000  0.19960000  1.0 -0.602485571
O  O7  1  0.70955000  0.81349000  0.44680000  1.0 -0.5195013321
O  O8  1  0.41327000  0.28849000  0.13960000  1.0 -0.5880757905
O  O9  1  0.58313000  0.05371000  0.79310000  1.0 -0.1640926637
O  O10  1  0.40733000  0.31291000  0.46360000  1.0 -0.5590908863
O  O11  1  0.26177000  0.30537000  0.19960000  1.0 -0.602485571
O  O12  1  0.18651000  0.29045000  0.44680000  1.0 -0.5195013321
O  O13  1  0.71151000  0.58673000  0.13960000  1.0 -0.5880757905
O  O14  1  0.94629000  0.41687000  0.79310000  1.0 -0.1640926637
O  O15  1  0.68709000  0.59267000  0.46360000  1.0 -0.5590908863
O  O16  1  0.30537000  0.26177000  0.80040000  1.0 -0.602485571
O  O17  1  0.29045000  0.18651000  0.55320000  1.0 -0.5195013321
O  O18  1  0.58673000  0.71151000  0.86040000  1.0 -0.5880757905
O  O19  1  0.41687000  0.94629000  0.20690000  1.0 -0.1640926637
O  O20  1  0.59267000  0.68709000  0.53640000  1.0 -0.5590908863
