# DDEC6 charges by PACMAN v1.1 (https://github.com/mtap-research/PACMAN-charge/)
data_NEPDUL_ASR_pacman
_symmetry_space_group_name_H-M   'P 1'
_cell_length_a   19.39130000
_cell_length_b   19.39130000
_cell_length_c   6.66290000
_cell_angle_alpha   88.20300000
_cell_angle_beta   91.79700000
_cell_angle_gamma   103.72100000
_symmetry_Int_Tables_number   1
_chemical_formula_structural   Co2H38(C9O2)5
_chemical_formula_sum   'Co4 H76 C90 O20'
_cell_volume   2431.96663510
_cell_formula_units_Z   2
loop_
 _symmetry_equiv_pos_site_id
 _symmetry_equiv_pos_as_xyz
  1  'x, y, z'
loop_
 _atom_site_type_symbol
 _atom_site_label
 _atom_site_symmetry_multiplicity
 _atom_site_fract_x
 _atom_site_fract_y
 _atom_site_fract_z
 _atom_site_occupancy
 _atom_site_charge
Co  Co1  1  0.81622000  0.81622000  0.00000000  1.0 1.0630237797
Co  Co2  1  0.18378000  0.18378000  0.00000000  1.0 1.0630237797
Co  Co3  1  0.76857000  0.76857000  0.50000000  1.0 0.9569097796
Co  Co4  1  0.23143000  0.23143000  0.50000000  1.0 0.9569097796
H  H1  1  0.30300000  0.56800000  0.60370000  1.0 0.1291313891
H  H2  1  0.19870000  0.69410000  0.30950000  1.0 0.1192626092
H  H3  1  0.17080000  0.53760000  0.09510000  1.0 0.1192626092
H  H4  1  0.18350000  0.44570000  0.31850000  1.0 0.1192626092
H  H5  1  0.95220000  0.72260000  0.67810000  1.0 0.1291313891
H  H6  1  0.04530000  0.66970000  0.75780000  1.0 0.1112531785
H  H7  1  0.25440000  0.34860000  0.87410000  1.0 0.1291313891
H  H8  1  0.08230000  0.65950000  0.17470000  1.0 0.1192626092
H  H9  1  0.98770000  0.70870000  0.09160000  1.0 0.1192626092
H  H10  1  0.24760000  0.44100000  0.65850000  1.0 0.1291313891
H  H11  1  0.06290000  0.46890000  0.64430000  1.0 0.1192626092
H  H12  1  0.04680000  0.45820000  0.87380000  1.0 0.1291313891
H  H13  1  0.99530000  0.48810000  0.72820000  1.0 0.1192626092
H  H14  1  0.38330000  0.59790000  0.43040000  1.0 0.0605896713
H  H15  1  0.36010000  0.58590000  0.20430000  1.0 0.0605896713
H  H16  1  0.42490000  0.64790000  0.26250000  1.0 0.072347006
H  H17  1  0.28390000  0.72370000  0.09870000  1.0 0.094176639
H  H18  1  0.35460000  0.70660000  0.03110000  1.0 0.1112531785
H  H19  1  0.28460000  0.64640000  0.03860000  1.0 0.1112531785
H  H20  1  0.56800000  0.30300000  0.39630000  1.0 0.1291313891
H  H21  1  0.69410000  0.19870000  0.69050000  1.0 0.1192626092
H  H22  1  0.53760000  0.17080000  0.90490000  1.0 0.1192626092
H  H23  1  0.44570000  0.18350000  0.68150000  1.0 0.1192626092
H  H24  1  0.72260000  0.95220000  0.32190000  1.0 0.1291313891
H  H25  1  0.66970000  0.04530000  0.24220000  1.0 0.1112531785
H  H26  1  0.34860000  0.25440000  0.12590000  1.0 0.1291313891
H  H27  1  0.65950000  0.08230000  0.82530000  1.0 0.1192626092
H  H28  1  0.70870000  0.98770000  0.90840000  1.0 0.1192626092
H  H29  1  0.44100000  0.24760000  0.34150000  1.0 0.1291313891
H  H30  1  0.46890000  0.06290000  0.35570000  1.0 0.1192626092
H  H31  1  0.45820000  0.04680000  0.12620000  1.0 0.1291313891
H  H32  1  0.48810000  0.99530000  0.27180000  1.0 0.1192626092
H  H33  1  0.59790000  0.38330000  0.56960000  1.0 0.0605896713
H  H34  1  0.58590000  0.36010000  0.79570000  1.0 0.0605896713
H  H35  1  0.64790000  0.42490000  0.73750000  1.0 0.072347006
H  H36  1  0.72370000  0.28390000  0.90130000  1.0 0.094176639
H  H37  1  0.70660000  0.35460000  0.96890000  1.0 0.1112531785
H  H38  1  0.64640000  0.28460000  0.96140000  1.0 0.1112531785
H  H39  1  0.69700000  0.43200000  0.39630000  1.0 0.1291313891
H  H40  1  0.80130000  0.30590000  0.69050000  1.0 0.1192626092
H  H41  1  0.82920000  0.46240000  0.90490000  1.0 0.1192626092
H  H42  1  0.81650000  0.55430000  0.68150000  1.0 0.1192626092
H  H43  1  0.04780000  0.27740000  0.32190000  1.0 0.1291313891
H  H44  1  0.95470000  0.33030000  0.24220000  1.0 0.1112531785
H  H45  1  0.74560000  0.65140000  0.12590000  1.0 0.1291313891
H  H46  1  0.91770000  0.34050000  0.82530000  1.0 0.1192626092
H  H47  1  0.01230000  0.29130000  0.90840000  1.0 0.1192626092
H  H48  1  0.75240000  0.55900000  0.34150000  1.0 0.1291313891
H  H49  1  0.93710000  0.53110000  0.35570000  1.0 0.1192626092
H  H50  1  0.95320000  0.54180000  0.12620000  1.0 0.1291313891
H  H51  1  0.00470000  0.51190000  0.27180000  1.0 0.1291313891
H  H52  1  0.61670000  0.40210000  0.56960000  1.0 0.0605896713
H  H53  1  0.63990000  0.41410000  0.79570000  1.0 0.0605896713
H  H54  1  0.57510000  0.35210000  0.73750000  1.0 0.072347006
H  H55  1  0.71610000  0.27630000  0.90130000  1.0 0.094176639
H  H56  1  0.64540000  0.29340000  0.96890000  1.0 0.1112531785
H  H57  1  0.71540000  0.35360000  0.96140000  1.0 0.1112531785
H  H58  1  0.43200000  0.69700000  0.60370000  1.0 0.1291313891
H  H59  1  0.30590000  0.80130000  0.30950000  1.0 0.1192626092
H  H60  1  0.46240000  0.82920000  0.09510000  1.0 0.1192626092
H  H61  1  0.55430000  0.81650000  0.31850000  1.0 0.1192626092
H  H62  1  0.27740000  0.04780000  0.67810000  1.0 0.1291313891
H  H63  1  0.33030000  0.95470000  0.75780000  1.0 0.1112531785
H  H64  1  0.65140000  0.74560000  0.87410000  1.0 0.1291313891
H  H65  1  0.34050000  0.91770000  0.17470000  1.0 0.1192626092
H  H66  1  0.29130000  0.01230000  0.09160000  1.0 0.1192626092
H  H67  1  0.55900000  0.75240000  0.65850000  1.0 0.1291313891
H  H68  1  0.53110000  0.93710000  0.64430000  1.0 0.1192626092
H  H69  1  0.54180000  0.95320000  0.87380000  1.0 0.1291313891
H  H70  1  0.51190000  0.00470000  0.72820000  1.0 0.1192626092
H  H71  1  0.40210000  0.61670000  0.43040000  1.0 0.0605896713
H  H72  1  0.41410000  0.63990000  0.20430000  1.0 0.0605896713
H  H73  1  0.35210000  0.57510000  0.26250000  1.0 0.072347006
H  H74  1  0.27630000  0.71610000  0.09870000  1.0 0.094176639
H  H75  1  0.29340000  0.64540000  0.03110000  1.0 0.1112531785
H  H76  1  0.35360000  0.71540000  0.03860000  1.0 0.1112531785
C  C1  1  0.21891000  0.38749000  0.11600000  1.0 -0.0286767734
C  C2  1  0.90094000  0.75646000  0.32430000  1.0 0.593376849
C  C3  1  0.26185000  0.63575000  0.43620000  1.0 0.0212448762
C  C4  1  0.07547000  0.66073000  0.47510000  1.0 0.0804655591
C  C5  1  0.20357000  0.55563000  0.70280000  1.0 -0.0355774237
C  C6  1  0.26192000  0.58448000  0.58280000  1.0 -0.2459222635
C  C7  1  0.14221000  0.58179000  0.67340000  1.0 0.1428839007
C  C8  1  0.20010000  0.65930000  0.40790000  1.0 -0.2360705471
C  C9  1  0.13975000  0.63285000  0.52180000  1.0 -0.0286767734
C  C10  1  0.96118000  0.72222000  0.37530000  1.0 -0.0233427676
C  C11  1  0.18829000  0.50011000  0.05140000  1.0 -0.1766421496
C  C12  1  0.20828000  0.49852000  0.85230000  1.0 0.072347006
C  C13  1  0.19504000  0.44456000  0.18440000  1.0 -0.1119691076
C  C14  1  0.97824000  0.70996000  0.57650000  1.0 -0.0966826341
C  C15  1  0.03474000  0.67866000  0.62380000  1.0 -0.1509952879
C  C16  1  0.23814000  0.38666000  0.91940000  1.0 -0.0794289446
C  C17  1  0.05639000  0.67221000  0.27660000  1.0 -0.1630974298
C  C18  1  0.99969000  0.70211000  0.22590000  1.0 -0.1119691076
C  C19  1  0.23348000  0.44172000  0.79040000  1.0 -0.132687982
C  C20  1  0.04400000  0.48760000  0.75660000  1.0 -0.2360705471
C  C21  1  0.22686000  0.32994000  0.26080000  1.0 0.5714800098
C  C22  1  0.38749000  0.21891000  0.88400000  1.0 -0.0286767734
C  C23  1  0.75646000  0.90094000  0.67570000  1.0 0.593376849
C  C24  1  0.63575000  0.26185000  0.56380000  1.0 0.0212448762
C  C25  1  0.66073000  0.07547000  0.52490000  1.0 0.0804655591
C  C26  1  0.55563000  0.20357000  0.29720000  1.0 -0.0286767734
C  C27  1  0.58448000  0.26192000  0.41720000  1.0 -0.2459222635
C  C28  1  0.58179000  0.14221000  0.32660000  1.0 0.1428839007
C  C29  1  0.65930000  0.20010000  0.59210000  1.0 -0.2360705471
C  C30  1  0.63285000  0.13975000  0.47820000  1.0 -0.0286767734
C  C31  1  0.72222000  0.96118000  0.62470000  1.0 -0.0233427676
C  C32  1  0.50011000  0.18829000  0.94860000  1.0 -0.1766421496
C  C33  1  0.49852000  0.20828000  0.14770000  1.0 0.072347006
C  C34  1  0.44456000  0.19504000  0.81560000  1.0 -0.1119691076
C  C35  1  0.70996000  0.97824000  0.42350000  1.0 -0.0966826341
C  C36  1  0.67866000  0.03474000  0.37620000  1.0 -0.1509952879
C  C37  1  0.38666000  0.23814000  0.08060000  1.0 -0.0794289446
C  C38  1  0.67221000  0.05639000  0.72340000  1.0 -0.1630974298
C  C39  1  0.70211000  0.99969000  0.77410000  1.0 -0.1119691076
C  C40  1  0.44172000  0.23348000  0.20960000  1.0 -0.132687982
C  C41  1  0.48760000  0.04400000  0.24340000  1.0 -0.2360705471
C  C42  1  0.32994000  0.22686000  0.73920000  1.0 0.5714800098
C  C43  1  0.78109000  0.61251000  0.88400000  1.0 -0.0286767734
C  C44  1  0.09906000  0.24354000  0.67570000  1.0 0.593376849
C  C45  1  0.73815000  0.36425000  0.56380000  1.0 0.0212448762
C  C46  1  0.92453000  0.33927000  0.52490000  1.0 0.0804655591
C  C47  1  0.79643000  0.44437000  0.29720000  1.0 -0.0355774237
C  C48  1  0.73808000  0.41552000  0.41720000  1.0 -0.2459222635
C  C49  1  0.85779000  0.41821000  0.32660000  1.0 0.1428839007
C  C50  1  0.79990000  0.34070000  0.59210000  1.0 -0.2346302232
C  C51  1  0.86025000  0.36715000  0.47820000  1.0 -0.0286767734
C  C52  1  0.03882000  0.27778000  0.62470000  1.0 -0.0233427676
C  C53  1  0.81171000  0.49989000  0.94860000  1.0 -0.1766421496
C  C54  1  0.79172000  0.50148000  0.14770000  1.0 0.072347006
C  C55  1  0.80496000  0.55544000  0.81560000  1.0 -0.1119691076
C  C56  1  0.02176000  0.29004000  0.42350000  1.0 -0.0966826341
C  C57  1  0.96526000  0.32134000  0.37620000  1.0 -0.1509952879
C  C58  1  0.76186000  0.61334000  0.08060000  1.0 -0.0794289446
C  C59  1  0.94361000  0.32779000  0.72340000  1.0 -0.1630974298
C  C60  1  0.00031000  0.29789000  0.77410000  1.0 -0.1119691076
C  C61  1  0.76652000  0.55828000  0.20960000  1.0 -0.132687982
C  C62  1  0.95600000  0.51240000  0.24340000  1.0 -0.2360705471
C  C63  1  0.77314000  0.67006000  0.73920000  1.0 0.5714800098
C  C64  1  0.61251000  0.78109000  0.11600000  1.0 -0.0286767734
C  C65  1  0.24354000  0.09906000  0.32430000  1.0 0.593376849
C  C66  1  0.36425000  0.73815000  0.43620000  1.0 0.0212448762
C  C67  1  0.33927000  0.92453000  0.47510000  1.0 0.0804655591
C  C68  1  0.44437000  0.79643000  0.70280000  1.0 -0.0355774237
C  C69  1  0.41552000  0.73808000  0.58280000  1.0 -0.2459222635
C  C70  1  0.41821000  0.85779000  0.67340000  1.0 0.1428839007
C  C71  1  0.34070000  0.79990000  0.40790000  1.0 -0.2346302232
C  C72  1  0.36715000  0.86025000  0.52180000  1.0 -0.0286767734
C  C73  1  0.27778000  0.03882000  0.37530000  1.0 -0.0233427676
C  C74  1  0.49989000  0.81171000  0.05140000  1.0 -0.1766421496
C  C75  1  0.50148000  0.79172000  0.85230000  1.0 0.072347006
C  C76  1  0.55544000  0.80496000  0.18440000  1.0 -0.1119691076
C  C77  1  0.29004000  0.02176000  0.57650000  1.0 -0.0966826341
C  C78  1  0.32134000  0.96526000  0.62380000  1.0 -0.1509952879
C  C79  1  0.61334000  0.76186000  0.91940000  1.0 -0.0794289446
C  C80  1  0.32779000  0.94361000  0.27660000  1.0 -0.1630974298
C  C81  1  0.29789000  0.00031000  0.22590000  1.0 -0.1119691076
C  C82  1  0.55828000  0.76652000  0.79040000  1.0 -0.132687982
C  C83  1  0.51240000  0.95600000  0.75660000  1.0 -0.2360705471
C  C84  1  0.67006000  0.77314000  0.26080000  1.0 0.5714800098
C  C85  1  0.32910000  0.67090000  0.31950000  1.0 0.1686353424
C  C86  1  0.37900000  0.62100000  0.30260000  1.0 -0.3179282954
C  C87  1  0.31150000  0.68850000  0.10180000  1.0 -0.4479828736
C  C88  1  0.67090000  0.32910000  0.68050000  1.0 0.1686353424
C  C89  1  0.62100000  0.37900000  0.69740000  1.0 -0.3179282954
C  C90  1  0.68850000  0.31150000  0.89820000  1.0 -0.4479828736
O  O1  1  0.22417000  0.26641000  0.19910000  1.0 -0.6190389058
O  O2  1  0.88104000  0.75882000  0.14290000  1.0 -0.5967645308
O  O3  1  0.23653000  0.34127000  0.44380000  1.0 -0.5143930575
O  O4  1  0.08368000  0.55740000  0.79120000  1.0 -0.1630974298
O  O5  1  0.87516000  0.78256000  0.46700000  1.0 -0.5488936564
O  O6  1  0.26641000  0.22417000  0.80090000  1.0 -0.6190389058
O  O7  1  0.75882000  0.88104000  0.85710000  1.0 -0.5967645308
O  O8  1  0.34127000  0.23653000  0.55620000  1.0 -0.5143930575
O  O9  1  0.55740000  0.08368000  0.20880000  1.0 -0.1630974298
O  O10  1  0.78256000  0.87516000  0.53300000  1.0 -0.5488936564
O  O11  1  0.77583000  0.73359000  0.80090000  1.0 -0.6190389058
O  O12  1  0.11896000  0.24118000  0.85710000  1.0 -0.5967645308
O  O13  1  0.76347000  0.65873000  0.55620000  1.0 -0.5143930575
O  O14  1  0.91632000  0.44260000  0.20880000  1.0 -0.1630974298
O  O15  1  0.12484000  0.21744000  0.53300000  1.0 -0.5488936564
O  O16  1  0.73359000  0.77583000  0.19910000  1.0 -0.6190389058
O  O17  1  0.24118000  0.11896000  0.14290000  1.0 -0.5967645308
O  O18  1  0.65873000  0.76347000  0.44380000  1.0 -0.5143930575
O  O19  1  0.44260000  0.91632000  0.79120000  1.0 -0.1630974298
O  O20  1  0.21744000  0.12484000  0.46700000  1.0 -0.5488936564
