# DDEC6 charges by PACMAN v1.1 (https://github.com/mtap-research/PACMAN-charge/)
data_NERNON_ASR_pacman
_symmetry_space_group_name_H-M   'P 1'
_cell_length_a   15.16900000
_cell_length_b   19.06700000
_cell_length_c   28.04560000
_cell_angle_alpha   90.00000000
_cell_angle_beta   120.04600000
_cell_angle_gamma   90.00000000
_symmetry_Int_Tables_number   1
_chemical_formula_structural   YbNiH48C62S2(N9O10)2
_chemical_formula_sum   'Yb4 Ni4 H192 C248 S8 N72 O80'
_cell_volume   7021.55321353
_cell_formula_units_Z   4
loop_
 _symmetry_equiv_pos_site_id
 _symmetry_equiv_pos_as_xyz
  1  'x, y, z'
loop_
 _atom_site_type_symbol
 _atom_site_label
 _atom_site_symmetry_multiplicity
 _atom_site_fract_x
 _atom_site_fract_y
 _atom_site_fract_z
 _atom_site_occupancy
 _atom_site_charge
Yb  Yb1  1  0.27953000  0.52518000  0.06471000  1.0 1.1097489229
Yb  Yb2  1  0.27953000  0.97482000  0.56471000  1.0 1.1097489229
Yb  Yb3  1  0.72047000  0.47482000  0.93529000  1.0 1.1097489229
Yb  Yb4  1  0.72047000  0.02518000  0.43529000  1.0 1.1097489229
Ni  Ni1  1  0.79582000  0.48739000  0.56339000  1.0 0.6260906688
Ni  Ni2  1  0.79582000  0.01261000  0.06339000  1.0 0.6260906688
Ni  Ni3  1  0.20418000  0.51261000  0.43661000  1.0 0.6260906688
Ni  Ni4  1  0.20418000  0.98739000  0.93661000  1.0 0.6260906688
H  H1  1  0.84510000  0.39480000  0.66470000  1.0 0.1003079744
H  H2  1  0.84510000  0.10520000  0.16470000  1.0 0.1003079744
H  H3  1  0.91730000  0.40000000  0.75810000  1.0 0.119797574
H  H4  1  0.91730000  0.10000000  0.25810000  1.0 0.119797574
H  H5  1  0.97710000  0.60410000  0.75020000  1.0 0.119797574
H  H6  1  0.97710000  0.89590000  0.25020000  1.0 0.119797574
H  H7  1  0.90820000  0.59150000  0.65730000  1.0 0.1090303209
H  H8  1  0.90820000  0.90850000  0.15730000  1.0 0.1090303209
H  H9  1  0.88140000  0.47380000  0.82880000  1.0 0.0615428473
H  H10  1  0.88140000  0.02620000  0.32880000  1.0 0.0615428473
H  H11  1  0.95150000  0.48610000  0.92120000  1.0 0.050605598
H  H12  1  0.95150000  0.01390000  0.42120000  1.0 0.050605598
H  H13  1  0.20540000  0.56250000  0.92900000  1.0 0.1003079744
H  H14  1  0.20540000  0.93750000  0.42900000  1.0 0.1003079744
H  H15  1  0.13500000  0.54720000  0.83730000  1.0 0.0615428473
H  H16  1  0.13500000  0.95280000  0.33730000  1.0 0.0615428473
H  H17  1  0.65560000  0.95910000  0.10340000  1.0 0.1003079744
H  H18  1  0.65560000  0.54090000  0.60340000  1.0 0.1003079744
H  H19  1  0.55630000  0.86500000  0.09640000  1.0 0.119797574
H  H20  1  0.55630000  0.63500000  0.59640000  1.0 0.119797574
H  H21  1  0.64600000  0.76980000  0.00030000  1.0 0.1003079744
H  H22  1  0.64600000  0.73020000  0.50030000  1.0 0.1003079744
H  H23  1  0.74690000  0.86670000  0.01140000  1.0 0.1090303209
H  H24  1  0.74690000  0.63330000  0.51140000  1.0 0.1090303209
H  H25  1  0.56960000  0.73730000  0.11890000  1.0 0.1090303209
H  H26  1  0.56960000  0.76270000  0.61890000  1.0 0.1090303209
H  H27  1  0.47570000  0.64190000  0.11030000  1.0 0.1003079744
H  H28  1  0.47570000  0.85810000  0.61030000  1.0 0.1003079744
H  H29  1  0.38150000  0.63760000  0.94810000  1.0 0.1003079744
H  H30  1  0.38150000  0.86240000  0.44810000  1.0 0.1003079744
H  H31  1  0.48380000  0.73040000  0.95970000  1.0 0.050605598
H  H32  1  0.48380000  0.76960000  0.45970000  1.0 0.050605598
H  H33  1  0.58380000  0.48560000  0.46540000  1.0 0.1090303209
H  H34  1  0.58380000  0.01440000  0.96540000  1.0 0.1090303209
H  H35  1  0.49640000  0.49790000  0.37120000  1.0 0.1314446436
H  H36  1  0.49640000  0.00210000  0.87120000  1.0 0.1314446436
H  H37  1  0.76510000  0.49690000  0.37510000  1.0 0.1314446436
H  H38  1  0.76510000  0.00310000  0.87510000  1.0 0.1314446436
H  H39  1  0.84510000  0.48320000  0.46930000  1.0 0.1090303209
H  H40  1  0.84510000  0.01680000  0.96930000  1.0 0.1090303209
H  H41  1  0.66880000  0.58090000  0.30070000  1.0 0.0878174561
H  H42  1  0.66880000  0.91910000  0.80070000  1.0 0.0878174561
H  H43  1  0.59460000  0.58690000  0.20800000  1.0 0.1090303209
H  H44  1  0.59460000  0.91310000  0.70800000  1.0 0.1090303209
H  H45  1  0.38900000  0.44440000  0.19420000  1.0 0.0878174561
H  H46  1  0.38900000  0.05560000  0.69420000  1.0 0.0878174561
H  H47  1  0.47330000  0.43310000  0.28690000  1.0 0.0878174561
H  H48  1  0.47330000  0.06690000  0.78690000  1.0 0.0878174561
H  H49  1  0.76660000  0.16080000  0.01620000  1.0 0.1090303209
H  H50  1  0.76660000  0.33920000  0.51620000  1.0 0.1090303209
H  H51  1  0.85790000  0.25960000  0.02120000  1.0 0.1090303209
H  H52  1  0.85790000  0.24040000  0.52120000  1.0 0.1090303209
H  H53  1  0.11090000  0.16180000  0.13580000  1.0 0.1090303209
H  H54  1  0.11090000  0.33820000  0.63580000  1.0 0.1090303209
H  H55  1  0.01370000  0.06260000  0.12170000  1.0 0.1003079744
H  H56  1  0.01370000  0.43740000  0.62170000  1.0 0.1003079744
H  H57  1  0.98190000  0.31100000  0.00890000  1.0 0.0801880405
H  H58  1  0.98190000  0.18900000  0.50890000  1.0 0.0801880405
H  H59  1  0.07340000  0.40840000  0.01860000  1.0 0.0701644411
H  H60  1  0.07340000  0.09160000  0.51860000  1.0 0.0701644411
H  H61  1  0.21570000  0.38380000  0.18330000  1.0 0.0615428473
H  H62  1  0.21570000  0.11620000  0.68330000  1.0 0.0615428473
H  H63  1  0.12100000  0.28630000  0.17090000  1.0 0.0801880405
H  H64  1  0.12100000  0.21370000  0.67090000  1.0 0.0801880405
H  H65  1  0.91010000  0.43260000  0.82610000  1.0 0.050605598
H  H66  1  0.91010000  0.06740000  0.32610000  1.0 0.050605598
H  H67  1  0.98200000  0.43200000  0.91810000  1.0 0.040648578
H  H68  1  0.98200000  0.06800000  0.41810000  1.0 0.040648578
H  H69  1  0.17350000  0.58560000  0.92830000  1.0 0.1090303209
H  H70  1  0.17350000  0.91440000  0.42830000  1.0 0.1090303209
H  H71  1  0.09510000  0.58720000  0.83500000  1.0 0.0701644411
H  H72  1  0.09510000  0.91280000  0.33500000  1.0 0.0701644411
H  H73  1  0.55470000  0.74550000  0.62190000  1.0 0.0701644411
H  H74  1  0.55470000  0.75450000  0.12190000  1.0 0.0701644411
H  H75  1  0.43910000  0.82780000  0.61410000  1.0 0.0878174561
H  H76  1  0.43910000  0.67220000  0.11410000  1.0 0.0878174561
H  H77  1  0.33650000  0.83840000  0.45200000  1.0 0.1090303209
H  H78  1  0.33650000  0.66160000  0.95200000  1.0 0.1090303209
H  H79  1  0.44960000  0.75500000  0.46090000  1.0 0.0801880405
H  H80  1  0.44960000  0.74500000  0.96090000  1.0 0.0801880405
H  H81  1  0.47710000  0.59180000  0.31210000  1.0 0.1090303209
H  H82  1  0.47710000  0.90820000  0.81210000  1.0 0.1090303209
H  H83  1  0.39140000  0.61960000  0.22180000  1.0 0.1090303209
H  H84  1  0.39140000  0.88040000  0.72180000  1.0 0.1090303209
H  H85  1  0.54370000  0.46710000  0.19340000  1.0 0.0878174561
H  H86  1  0.54370000  0.03290000  0.69340000  1.0 0.0878174561
H  H87  1  0.61670000  0.43490000  0.28370000  1.0 0.1003079744
H  H88  1  0.61670000  0.06510000  0.78370000  1.0 0.1003079744
H  H89  1  0.00720000  0.20790000  0.50230000  1.0 0.050605598
H  H90  1  0.00720000  0.29210000  0.00230000  1.0 0.050605598
H  H91  1  0.10810000  0.11470000  0.51190000  1.0 0.0316500279
H  H92  1  0.10810000  0.38530000  0.01190000  1.0 0.0316500279
H  H93  1  0.24790000  0.13830000  0.67660000  1.0 0.1003079744
H  H94  1  0.24790000  0.36170000  0.17660000  1.0 0.1003079744
H  H95  1  0.15450000  0.23490000  0.66480000  1.0 0.0878174561
H  H96  1  0.15450000  0.26510000  0.16480000  1.0 0.0878174561
H  H97  1  0.15490000  0.60520000  0.33530000  1.0 0.1003079744
H  H98  1  0.15490000  0.89480000  0.83530000  1.0 0.1003079744
H  H99  1  0.08270000  0.60000000  0.24190000  1.0 0.119797574
H  H100  1  0.08270000  0.90000000  0.74190000  1.0 0.119797574
H  H101  1  0.02290000  0.39590000  0.24980000  1.0 0.119797574
H  H102  1  0.02290000  0.10410000  0.74980000  1.0 0.119797574
H  H103  1  0.09180000  0.40850000  0.34270000  1.0 0.1090303209
H  H104  1  0.09180000  0.09150000  0.84270000  1.0 0.1090303209
H  H105  1  0.11860000  0.52620000  0.17120000  1.0 0.0615428473
H  H106  1  0.11860000  0.97380000  0.67120000  1.0 0.0615428473
H  H107  1  0.04850000  0.51390000  0.07880000  1.0 0.040648578
H  H108  1  0.04850000  0.98610000  0.57880000  1.0 0.050605598
H  H109  1  0.79460000  0.43750000  0.07100000  1.0 0.1003079744
H  H110  1  0.79460000  0.06250000  0.57100000  1.0 0.1003079744
H  H111  1  0.86500000  0.45280000  0.16270000  1.0 0.0615428473
H  H112  1  0.86500000  0.04720000  0.66270000  1.0 0.0615428473
H  H113  1  0.34440000  0.04090000  0.89660000  1.0 0.1003079744
H  H114  1  0.34440000  0.45910000  0.39660000  1.0 0.1003079744
H  H115  1  0.44370000  0.13500000  0.90360000  1.0 0.119797574
H  H116  1  0.44370000  0.36500000  0.40360000  1.0 0.119797574
H  H117  1  0.35400000  0.23020000  0.99970000  1.0 0.1003079744
H  H118  1  0.35400000  0.26980000  0.49970000  1.0 0.1003079744
H  H119  1  0.25310000  0.13330000  0.98860000  1.0 0.1090303209
H  H120  1  0.25310000  0.36670000  0.48860000  1.0 0.1090303209
H  H121  1  0.43040000  0.26270000  0.88110000  1.0 0.1090303209
H  H122  1  0.43040000  0.23730000  0.38110000  1.0 0.1090303209
H  H123  1  0.52430000  0.35810000  0.88970000  1.0 0.1003079744
H  H124  1  0.52430000  0.14190000  0.38970000  1.0 0.1003079744
H  H125  1  0.61850000  0.36240000  0.05190000  1.0 0.1003079744
H  H126  1  0.61850000  0.13760000  0.55190000  1.0 0.1003079744
H  H127  1  0.51620000  0.26960000  0.04030000  1.0 0.050605598
H  H128  1  0.51620000  0.23040000  0.54030000  1.0 0.050605598
H  H129  1  0.41620000  0.51440000  0.53460000  1.0 0.1090303209
H  H130  1  0.41620000  0.98560000  0.03460000  1.0 0.1090303209
H  H131  1  0.50360000  0.50210000  0.62880000  1.0 0.1314446436
H  H132  1  0.50360000  0.99790000  0.12880000  1.0 0.1314446436
H  H133  1  0.23490000  0.50310000  0.62490000  1.0 0.1314446436
H  H134  1  0.23490000  0.99690000  0.12490000  1.0 0.1314446436
H  H135  1  0.15490000  0.51680000  0.53070000  1.0 0.1090303209
H  H136  1  0.15490000  0.98320000  0.03070000  1.0 0.1090303209
H  H137  1  0.33120000  0.41910000  0.69930000  1.0 0.0878174561
H  H138  1  0.33120000  0.08090000  0.19930000  1.0 0.0878174561
H  H139  1  0.40540000  0.41310000  0.79200000  1.0 0.1090303209
H  H140  1  0.40540000  0.08690000  0.29200000  1.0 0.1090303209
H  H141  1  0.61100000  0.55560000  0.80580000  1.0 0.0878174561
H  H142  1  0.61100000  0.94440000  0.30580000  1.0 0.0878174561
H  H143  1  0.52670000  0.56690000  0.71310000  1.0 0.0878174561
H  H144  1  0.52670000  0.93310000  0.21310000  1.0 0.0878174561
H  H145  1  0.23340000  0.83920000  0.98380000  1.0 0.1090303209
H  H146  1  0.23340000  0.66080000  0.48380000  1.0 0.1090303209
H  H147  1  0.14210000  0.74040000  0.97880000  1.0 0.1090303209
H  H148  1  0.14210000  0.75960000  0.47880000  1.0 0.1090303209
H  H149  1  0.88910000  0.83820000  0.86420000  1.0 0.1090303209
H  H150  1  0.88910000  0.66180000  0.36420000  1.0 0.1090303209
H  H151  1  0.98630000  0.93740000  0.87830000  1.0 0.1003079744
H  H152  1  0.98630000  0.56260000  0.37830000  1.0 0.1003079744
H  H153  1  0.01810000  0.68900000  0.99110000  1.0 0.0801880405
H  H154  1  0.01810000  0.81100000  0.49110000  1.0 0.0801880405
H  H155  1  0.92660000  0.59160000  0.98140000  1.0 0.0701644411
H  H156  1  0.92660000  0.90840000  0.48140000  1.0 0.0701644411
H  H157  1  0.78430000  0.61620000  0.81670000  1.0 0.0615428473
H  H158  1  0.78430000  0.88380000  0.31670000  1.0 0.0615428473
H  H159  1  0.87900000  0.71370000  0.82910000  1.0 0.0801880405
H  H160  1  0.87900000  0.78630000  0.32910000  1.0 0.0801880405
H  H161  1  0.08990000  0.56740000  0.17390000  1.0 0.050605598
H  H162  1  0.08990000  0.93260000  0.67390000  1.0 0.050605598
H  H163  1  0.01800000  0.56800000  0.08190000  1.0 0.040648578
H  H164  1  0.01800000  0.93200000  0.58190000  1.0 0.040648578
H  H165  1  0.82650000  0.41440000  0.07170000  1.0 0.1090303209
H  H166  1  0.82650000  0.08560000  0.57170000  1.0 0.1090303209
H  H167  1  0.90490000  0.41280000  0.16500000  1.0 0.0701644411
H  H168  1  0.90490000  0.08720000  0.66500000  1.0 0.0701644411
H  H169  1  0.44530000  0.25450000  0.37810000  1.0 0.0701644411
H  H170  1  0.44530000  0.24550000  0.87810000  1.0 0.0701644411
H  H171  1  0.56090000  0.17220000  0.38590000  1.0 0.0878174561
H  H172  1  0.56090000  0.32780000  0.88590000  1.0 0.0878174561
H  H173  1  0.66350000  0.16160000  0.54800000  1.0 0.1090303209
H  H174  1  0.66350000  0.33840000  0.04800000  1.0 0.1090303209
H  H175  1  0.55040000  0.24500000  0.53910000  1.0 0.0801880405
H  H176  1  0.55040000  0.25500000  0.03910000  1.0 0.0801880405
H  H177  1  0.52290000  0.40820000  0.68790000  1.0 0.1090303209
H  H178  1  0.52290000  0.09180000  0.18790000  1.0 0.1090303209
H  H179  1  0.60860000  0.38040000  0.77820000  1.0 0.1090303209
H  H180  1  0.60860000  0.11960000  0.27820000  1.0 0.1090303209
H  H181  1  0.45630000  0.53290000  0.80660000  1.0 0.0878174561
H  H182  1  0.45630000  0.96710000  0.30660000  1.0 0.0878174561
H  H183  1  0.38330000  0.56510000  0.71630000  1.0 0.1003079744
H  H184  1  0.38330000  0.93490000  0.21630000  1.0 0.1003079744
H  H185  1  0.99280000  0.79210000  0.49770000  1.0 0.050605598
H  H186  1  0.99280000  0.70790000  0.99770000  1.0 0.050605598
H  H187  1  0.89190000  0.88530000  0.48810000  1.0 0.0316500279
H  H188  1  0.89190000  0.61470000  0.98810000  1.0 0.0316500279
H  H189  1  0.75210000  0.86170000  0.32340000  1.0 0.1003079744
H  H190  1  0.75210000  0.63830000  0.82340000  1.0 0.1003079744
H  H191  1  0.84550000  0.76510000  0.33520000  1.0 0.0878174561
H  H192  1  0.84550000  0.73490000  0.83520000  1.0 0.0878174561
C  C1  1  0.87290000  0.43770000  0.68240000  1.0 0.0878174561
C  C2  1  0.87290000  0.06230000  0.18240000  1.0 0.0878174561
C  C3  1  0.91550000  0.43990000  0.73800000  1.0 -0.2597520382
C  C4  1  0.91550000  0.06010000  0.23800000  1.0 -0.2597520382
C  C5  1  0.95600000  0.50320000  0.76410000  1.0 0.225959527
C  C6  1  0.95600000  0.99680000  0.26410000  1.0 0.225959527
C  C7  1  0.95150000  0.56040000  0.73340000  1.0 -0.2687838779
C  C8  1  0.95150000  0.93960000  0.23340000  1.0 -0.2687838779
C  C9  1  0.90890000  0.55250000  0.67800000  1.0 0.0878174561
C  C10  1  0.90890000  0.94750000  0.17800000  1.0 0.0878174561
C  C11  1  0.94790000  0.49160000  0.84950000  1.0 0.0701644411
C  C12  1  0.94790000  0.00840000  0.34950000  1.0 0.0701644411
C  C13  1  0.98930000  0.50000000  0.90460000  1.0 -0.133409954
C  C14  1  0.98930000  0.00000000  0.40460000  1.0 -0.133409954
C  C15  1  0.08700000  0.52880000  0.93810000  1.0 0.2208145751
C  C16  1  0.08700000  0.97120000  0.43810000  1.0 0.2208145751
C  C17  1  0.13880000  0.54460000  0.90910000  1.0 -0.3944485971
C  C18  1  0.13880000  0.95540000  0.40910000  1.0 -0.3944485971
C  C19  1  0.09730000  0.53520000  0.85440000  1.0 0.119797574
C  C20  1  0.09730000  0.96480000  0.35440000  1.0 0.119797574
C  C21  1  0.65400000  0.92010000  0.08250000  1.0 0.0801880405
C  C22  1  0.65400000  0.57990000  0.58250000  1.0 0.0878174561
C  C23  1  0.59430000  0.86450000  0.07830000  1.0 -0.2687838779
C  C24  1  0.59430000  0.63550000  0.57830000  1.0 -0.2687838779
C  C25  1  0.59030000  0.80800000  0.04730000  1.0 0.2117990087
C  C26  1  0.59030000  0.69200000  0.54730000  1.0 0.2117990087
C  C27  1  0.64740000  0.80820000  0.02180000  1.0 -0.2930687734
C  C28  1  0.64740000  0.69180000  0.52180000  1.0 -0.2930687734
C  C29  1  0.70700000  0.86620000  0.02840000  1.0 0.1003079744
C  C30  1  0.70700000  0.63380000  0.52840000  1.0 0.1003079744
C  C31  1  0.52980000  0.71680000  0.08400000  1.0 0.0701644411
C  C32  1  0.52980000  0.78320000  0.58400000  1.0 0.0701644411
C  C33  1  0.47400000  0.66060000  0.07880000  1.0 -0.0912240688
C  C34  1  0.47400000  0.83940000  0.57880000  1.0 -0.0912240688
C  C35  1  0.41180000  0.62800000  0.02680000  1.0 0.1507461748
C  C36  1  0.41180000  0.87200000  0.52680000  1.0 0.1507461748
C  C37  1  0.41940000  0.65770000  0.98330000  1.0 -0.0985326356
C  C38  1  0.41940000  0.84230000  0.48330000  1.0 -0.0985326356
C  C39  1  0.47850000  0.71340000  0.98970000  1.0 0.0701644411
C  C40  1  0.47850000  0.78660000  0.48970000  1.0 0.0701644411
C  C41  1  0.62050000  0.48910000  0.44670000  1.0 0.0801880405
C  C42  1  0.62050000  0.01090000  0.94670000  1.0 0.0801880405
C  C43  1  0.56800000  0.49690000  0.39090000  1.0 -0.2816557729
C  C44  1  0.56800000  0.00310000  0.89090000  1.0 -0.2816557729
C  C45  1  0.62350000  0.50320000  0.36420000  1.0 0.2117990087
C  C46  1  0.62350000  0.99680000  0.86420000  1.0 0.2117990087
C  C47  1  0.72700000  0.49610000  0.39320000  1.0 -0.2597520382
C  C48  1  0.72700000  0.00390000  0.89320000  1.0 -0.2597520382
C  C49  1  0.77380000  0.48780000  0.44900000  1.0 0.1090303209
C  C50  1  0.77380000  0.01220000  0.94900000  1.0 0.1090303209
C  C51  1  0.61190000  0.55250000  0.27880000  1.0 0.050605598
C  C52  1  0.61190000  0.94750000  0.77880000  1.0 0.050605598
C  C53  1  0.56680000  0.55650000  0.22340000  1.0 -0.1887578648
C  C54  1  0.56680000  0.94350000  0.72340000  1.0 -0.1887578648
C  C55  1  0.47960000  0.51710000  0.18750000  1.0 0.1314446436
C  C56  1  0.47960000  0.98290000  0.68750000  1.0 0.1314446436
C  C57  1  0.44720000  0.47200000  0.21520000  1.0 -0.1566105405
C  C58  1  0.44720000  0.02800000  0.71520000  1.0 -0.1566105405
C  C59  1  0.49590000  0.46650000  0.27080000  1.0 -0.0309470625
C  C60  1  0.49590000  0.03350000  0.77080000  1.0 -0.0309470625
C  C61  1  0.83760000  0.16070000  0.04000000  1.0 0.0211474324
C  C62  1  0.83760000  0.33930000  0.54000000  1.0 0.0211474324
C  C63  1  0.89070000  0.22020000  0.04320000  1.0 -0.3944485971
C  C64  1  0.89070000  0.27980000  0.54320000  1.0 -0.3961153893
C  C65  1  0.99420000  0.22050000  0.07990000  1.0 0.1439348987
C  C66  1  0.99420000  0.27950000  0.57990000  1.0 0.1439348987
C  C67  1  0.04080000  0.16210000  0.11030000  1.0 -0.2358909019
C  C68  1  0.04080000  0.33790000  0.61030000  1.0 -0.2310354604
C  C69  1  0.98170000  0.10380000  0.10240000  1.0 0.1003079744
C  C70  1  0.98170000  0.39620000  0.60240000  1.0 0.1003079744
C  C71  1  0.02970000  0.32660000  0.04440000  1.0 -0.0009463251
C  C72  1  0.02970000  0.17340000  0.54440000  1.0 -0.0009463251
C  C73  1  0.08500000  0.38380000  0.05030000  1.0 -0.0985326356
C  C74  1  0.08500000  0.11620000  0.55030000  1.0 -0.0985326356
C  C75  1  0.16060000  0.40870000  0.10260000  1.0 0.1765327087
C  C76  1  0.16060000  0.09130000  0.60260000  1.0 0.1765327087
C  C77  1  0.16870000  0.36940000  0.14720000  1.0 -0.0912240688
C  C78  1  0.16870000  0.13060000  0.64720000  1.0 -0.0912240688
C  C79  1  0.11140000  0.31170000  0.13990000  1.0 -0.0209099296
C  C80  1  0.11140000  0.18830000  0.63990000  1.0 -0.0209099296
C  C81  1  0.95900000  0.58550000  0.55840000  1.0 0.2626260749
C  C82  1  0.95900000  0.91450000  0.05840000  1.0 0.2626260749
C  C83  1  0.63970000  0.39520000  0.57920000  1.0 0.2208145751
C  C84  1  0.63970000  0.10480000  0.07920000  1.0 0.2208145751
C  C85  1  0.96380000  0.46380000  0.84740000  1.0 0.0878174561
C  C86  1  0.96380000  0.03620000  0.34740000  1.0 0.0878174561
C  C87  1  0.00850000  0.46210000  0.90180000  1.0 -0.0985326356
C  C88  1  0.00850000  0.03790000  0.40180000  1.0 -0.0985326356
C  C89  1  0.09450000  0.50350000  0.93650000  1.0 0.225959527
C  C90  1  0.09450000  0.99650000  0.43650000  1.0 0.225959527
C  C91  1  0.12120000  0.55320000  0.90790000  1.0 -0.347532739
C  C92  1  0.12120000  0.94680000  0.40790000  1.0 -0.347532739
C  C93  1  0.07380000  0.55510000  0.85260000  1.0 0.1090303209
C  C94  1  0.07380000  0.94490000  0.35260000  1.0 0.1090303209
C  C95  1  0.51160000  0.76620000  0.58750000  1.0 0.050605598
C  C96  1  0.51160000  0.73380000  0.08750000  1.0 0.050605598
C  C97  1  0.44120000  0.81430000  0.58240000  1.0 -0.0985326356
C  C98  1  0.44120000  0.68570000  0.08240000  1.0 -0.0985326356
C  C99  1  0.37210000  0.84440000  0.53190000  1.0 0.1507461748
C  C100  1  0.37210000  0.65560000  0.03190000  1.0 0.1507461748
C  C101  1  0.38090000  0.82010000  0.48720000  1.0 -0.0912240688
C  C102  1  0.38090000  0.67990000  0.98720000  1.0 -0.0912240688
C  C103  1  0.45000000  0.77190000  0.49250000  1.0 0.0701644411
C  C104  1  0.45000000  0.72810000  0.99250000  1.0 0.0701644411
C  C105  1  0.49140000  0.56780000  0.28750000  1.0 0.0316500279
C  C106  1  0.49140000  0.93220000  0.78750000  1.0 0.0316500279
C  C107  1  0.44010000  0.58340000  0.23400000  1.0 -0.4202271321
C  C108  1  0.44010000  0.91660000  0.73400000  1.0 -0.4202271321
C  C109  1  0.45620000  0.54770000  0.19510000  1.0 0.2117990087
C  C110  1  0.45620000  0.95230000  0.69510000  1.0 0.2117990087
C  C111  1  0.52850000  0.49250000  0.21710000  1.0 -0.0132323347
C  C112  1  0.52850000  0.00750000  0.71710000  1.0 -0.0132323347
C  C113  1  0.57610000  0.47550000  0.27110000  1.0 0.0615428473
C  C114  1  0.57610000  0.02450000  0.77110000  1.0 0.0615428473
C  C115  1  0.05610000  0.19290000  0.53780000  1.0 0.0112542887
C  C116  1  0.05610000  0.30710000  0.03780000  1.0 0.0112542887
C  C117  1  0.11660000  0.13740000  0.54370000  1.0 -0.0985326356
C  C118  1  0.11660000  0.36260000  0.04370000  1.0 -0.0985326356
C  C119  1  0.19180000  0.11240000  0.59570000  1.0 0.1765327087
C  C120  1  0.19180000  0.38760000  0.09570000  1.0 0.1765327087
C  C121  1  0.19990000  0.15220000  0.64070000  1.0 -0.0789682225
C  C122  1  0.19990000  0.34780000  0.14070000  1.0 -0.0789682225
C  C123  1  0.14270000  0.20790000  0.63410000  1.0 0.0024101537
C  C124  1  0.14270000  0.29210000  0.13410000  1.0 0.0024101537
C  C125  1  0.12710000  0.56230000  0.31760000  1.0 0.0878174561
C  C126  1  0.12710000  0.93770000  0.81760000  1.0 0.0878174561
C  C127  1  0.08450000  0.56010000  0.26200000  1.0 -0.2597520382
C  C128  1  0.08450000  0.93990000  0.76200000  1.0 -0.2597520382
C  C129  1  0.04400000  0.49680000  0.23590000  1.0 0.225959527
C  C130  1  0.04400000  0.00320000  0.73590000  1.0 0.225959527
C  C131  1  0.04850000  0.43960000  0.26660000  1.0 -0.2687838779
C  C132  1  0.04850000  0.06040000  0.76660000  1.0 -0.2687838779
C  C133  1  0.09110000  0.44750000  0.32200000  1.0 0.0878174561
C  C134  1  0.09110000  0.05250000  0.82200000  1.0 0.0878174561
C  C135  1  0.05210000  0.50840000  0.15050000  1.0 0.0701644411
C  C136  1  0.05210000  0.99160000  0.65050000  1.0 0.0701644411
C  C137  1  0.01070000  0.50000000  0.09540000  1.0 -0.133409954
C  C138  1  0.01070000  0.00000000  0.59540000  1.0 -0.133409954
C  C139  1  0.91300000  0.47120000  0.06190000  1.0 0.2208145751
C  C140  1  0.91300000  0.02880000  0.56190000  1.0 0.2208145751
C  C141  1  0.86120000  0.45540000  0.09090000  1.0 -0.3944485971
C  C142  1  0.86120000  0.04460000  0.59090000  1.0 -0.3944485971
C  C143  1  0.90270000  0.46480000  0.14560000  1.0 0.119797574
C  C144  1  0.90270000  0.03520000  0.64560000  1.0 0.119797574
C  C145  1  0.34600000  0.07990000  0.91750000  1.0 0.0878174561
C  C146  1  0.34600000  0.42010000  0.41750000  1.0 0.0878174561
C  C147  1  0.40570000  0.13550000  0.92170000  1.0 -0.2687838779
C  C148  1  0.40570000  0.36450000  0.42170000  1.0 -0.2687838779
C  C149  1  0.40970000  0.19200000  0.95270000  1.0 0.2117990087
C  C150  1  0.40970000  0.30800000  0.45270000  1.0 0.2117990087
C  C151  1  0.35260000  0.19180000  0.97820000  1.0 -0.2930687734
C  C152  1  0.35260000  0.30820000  0.47820000  1.0 -0.2930687734
C  C153  1  0.29300000  0.13380000  0.97160000  1.0 0.1003079744
C  C154  1  0.29300000  0.36620000  0.47160000  1.0 0.1003079744
C  C155  1  0.47020000  0.28320000  0.91600000  1.0 0.0701644411
C  C156  1  0.47020000  0.21680000  0.41600000  1.0 0.0701644411
C  C157  1  0.52600000  0.33940000  0.92120000  1.0 -0.0912240688
C  C158  1  0.52600000  0.16060000  0.42120000  1.0 -0.0912240688
C  C159  1  0.58820000  0.37200000  0.97320000  1.0 0.1507461748
C  C160  1  0.58820000  0.12800000  0.47320000  1.0 0.155413889
C  C161  1  0.58060000  0.34230000  0.01670000  1.0 -0.0985326356
C  C162  1  0.58060000  0.15770000  0.51670000  1.0 -0.0985326356
C  C163  1  0.52150000  0.28660000  0.01030000  1.0 0.0701644411
C  C164  1  0.52150000  0.21340000  0.51030000  1.0 0.0701644411
C  C165  1  0.37950000  0.51090000  0.55330000  1.0 0.0801880405
C  C166  1  0.37950000  0.98910000  0.05330000  1.0 0.0801880405
C  C167  1  0.43200000  0.50310000  0.60910000  1.0 -0.2816557729
C  C168  1  0.43200000  0.99690000  0.10910000  1.0 -0.2816557729
C  C169  1  0.37650000  0.49680000  0.63580000  1.0 0.2117990087
C  C170  1  0.37650000  0.00320000  0.13580000  1.0 0.2117990087
C  C171  1  0.27300000  0.50390000  0.60680000  1.0 -0.2597520382
C  C172  1  0.27300000  0.99610000  0.10680000  1.0 -0.2597520382
C  C173  1  0.22620000  0.51220000  0.55100000  1.0 0.1090303209
C  C174  1  0.22620000  0.98780000  0.05100000  1.0 0.1090303209
C  C175  1  0.38810000  0.44750000  0.72120000  1.0 0.050605598
C  C176  1  0.38810000  0.05250000  0.22120000  1.0 0.050605598
C  C177  1  0.43320000  0.44350000  0.77660000  1.0 -0.1887578648
C  C178  1  0.43320000  0.05650000  0.27660000  1.0 -0.1887578648
C  C179  1  0.52040000  0.48290000  0.81250000  1.0 0.1314446436
C  C180  1  0.52040000  0.01710000  0.31250000  1.0 0.1314446436
C  C181  1  0.55280000  0.52800000  0.78480000  1.0 -0.1566105405
C  C182  1  0.55280000  0.97200000  0.28480000  1.0 -0.1566105405
C  C183  1  0.50410000  0.53350000  0.72920000  1.0 -0.0309470625
C  C184  1  0.50410000  0.96650000  0.22920000  1.0 -0.0309470625
C  C185  1  0.16240000  0.83930000  0.96000000  1.0 0.0112542887
C  C186  1  0.16240000  0.66070000  0.46000000  1.0 0.0112542887
C  C187  1  0.10930000  0.77980000  0.95680000  1.0 -0.3961153893
C  C188  1  0.10930000  0.72020000  0.45680000  1.0 -0.3961153893
C  C189  1  0.00580000  0.77950000  0.92010000  1.0 0.1507461748
C  C190  1  0.00580000  0.72050000  0.42010000  1.0 0.1439348987
C  C191  1  0.95920000  0.83790000  0.88970000  1.0 -0.2310354604
C  C192  1  0.95920000  0.66210000  0.38970000  1.0 -0.2358909019
C  C193  1  0.01830000  0.89620000  0.89760000  1.0 0.1003079744
C  C194  1  0.01830000  0.60380000  0.39760000  1.0 0.1003079744
C  C195  1  0.97030000  0.67340000  0.95560000  1.0 -0.0009463251
C  C196  1  0.97030000  0.82660000  0.45560000  1.0 -0.0009463251
C  C197  1  0.91500000  0.61620000  0.94970000  1.0 -0.0985326356
C  C198  1  0.91500000  0.88380000  0.44970000  1.0 -0.0985326356
C  C199  1  0.83940000  0.59130000  0.89740000  1.0 0.1765327087
C  C200  1  0.83940000  0.90870000  0.39740000  1.0 0.1765327087
C  C201  1  0.83130000  0.63060000  0.85280000  1.0 -0.0912240688
C  C202  1  0.83130000  0.86940000  0.35280000  1.0 -0.0912240688
C  C203  1  0.88860000  0.68830000  0.86010000  1.0 -0.0209099296
C  C204  1  0.88860000  0.81170000  0.36010000  1.0 -0.0209099296
C  C205  1  0.04100000  0.41450000  0.44160000  1.0 0.2626260749
C  C206  1  0.04100000  0.08550000  0.94160000  1.0 0.2626260749
C  C207  1  0.36030000  0.60480000  0.42080000  1.0 0.2208145751
C  C208  1  0.36030000  0.89520000  0.92080000  1.0 0.2208145751
C  C209  1  0.03620000  0.53620000  0.15260000  1.0 0.0878174561
C  C210  1  0.03620000  0.96380000  0.65260000  1.0 0.0878174561
C  C211  1  0.99150000  0.53790000  0.09820000  1.0 -0.0985326356
C  C212  1  0.99150000  0.96210000  0.59820000  1.0 -0.0985326356
C  C213  1  0.90550000  0.49650000  0.06350000  1.0 0.225959527
C  C214  1  0.90550000  0.00350000  0.56350000  1.0 0.225959527
C  C215  1  0.87880000  0.44680000  0.09210000  1.0 -0.347532739
C  C216  1  0.87880000  0.05320000  0.59210000  1.0 -0.3449137279
C  C217  1  0.92620000  0.44490000  0.14740000  1.0 0.1090303209
C  C218  1  0.92620000  0.05510000  0.64740000  1.0 0.1090303209
C  C219  1  0.48840000  0.23380000  0.41250000  1.0 0.050605598
C  C220  1  0.48840000  0.26620000  0.91250000  1.0 0.050605598
C  C221  1  0.55880000  0.18570000  0.41760000  1.0 -0.0985326356
C  C222  1  0.55880000  0.31430000  0.91760000  1.0 -0.0985326356
C  C223  1  0.62790000  0.15560000  0.46810000  1.0 0.1507461748
C  C224  1  0.62790000  0.34440000  0.96810000  1.0 0.1507461748
C  C225  1  0.61910000  0.17990000  0.51280000  1.0 -0.0912240688
C  C226  1  0.61910000  0.32010000  0.01280000  1.0 -0.0912240688
C  C227  1  0.55000000  0.22810000  0.50750000  1.0 0.0701644411
C  C228  1  0.55000000  0.27190000  0.00750000  1.0 0.0701644411
C  C229  1  0.50860000  0.43220000  0.71250000  1.0 0.0316500279
C  C230  1  0.50860000  0.06780000  0.21250000  1.0 0.0316500279
C  C231  1  0.55990000  0.41660000  0.76600000  1.0 -0.4202271321
C  C232  1  0.55990000  0.08340000  0.26600000  1.0 -0.4202271321
C  C233  1  0.54380000  0.45230000  0.80490000  1.0 0.2117990087
C  C234  1  0.54380000  0.04770000  0.30490000  1.0 0.2117990087
C  C235  1  0.47150000  0.50750000  0.78290000  1.0 -0.0209099296
C  C236  1  0.47150000  0.99250000  0.28290000  1.0 -0.0132323347
C  C237  1  0.42390000  0.52450000  0.72890000  1.0 0.0615428473
C  C238  1  0.42390000  0.97550000  0.22890000  1.0 0.0615428473
C  C239  1  0.94390000  0.80710000  0.46220000  1.0 0.0112542887
C  C240  1  0.94390000  0.69290000  0.96220000  1.0 0.0112542887
C  C241  1  0.88340000  0.86260000  0.45630000  1.0 -0.0985326356
C  C242  1  0.88340000  0.63740000  0.95630000  1.0 -0.0985326356
C  C243  1  0.80820000  0.88760000  0.40430000  1.0 0.1765327087
C  C244  1  0.80820000  0.61240000  0.90430000  1.0 0.1765327087
C  C245  1  0.80010000  0.84780000  0.35930000  1.0 -0.0789682225
C  C246  1  0.80010000  0.65220000  0.85930000  1.0 -0.0789682225
C  C247  1  0.85730000  0.79210000  0.36590000  1.0 0.0024101537
C  C248  1  0.85730000  0.70790000  0.86590000  1.0 0.0024101537
S  S1  1  0.03700000  0.63790000  0.55010000  1.0 -0.4532754936
S  S2  1  0.03700000  0.86210000  0.05010000  1.0 -0.4532754936
S  S3  1  0.58220000  0.35610000  0.60800000  1.0 -0.347532739
S  S4  1  0.58220000  0.14390000  0.10800000  1.0 -0.347532739
S  S5  1  0.96300000  0.36210000  0.44990000  1.0 -0.4563008913
S  S6  1  0.96300000  0.13790000  0.94990000  1.0 -0.4563008913
S  S7  1  0.41780000  0.64390000  0.39200000  1.0 -0.347532739
S  S8  1  0.41780000  0.85610000  0.89200000  1.0 -0.347532739
N  N1  1  0.86780000  0.49240000  0.65100000  1.0 -0.2223650889
N  N2  1  0.86780000  0.00760000  0.15100000  1.0 -0.2223650889
N  N3  1  0.00100000  0.50850000  0.82330000  1.0 -0.2358909019
N  N4  1  0.00100000  0.99150000  0.32330000  1.0 -0.2358909019
N  N5  1  0.71000000  0.92160000  0.05820000  1.0 -0.2082268623
N  N6  1  0.71000000  0.57840000  0.55820000  1.0 -0.2082268623
N  N7  1  0.53060000  0.74540000  0.03990000  1.0 -0.2310354604
N  N8  1  0.53060000  0.75460000  0.53990000  1.0 -0.2310354604
N  N9  1  0.72190000  0.48610000  0.47580000  1.0 -0.2082268623
N  N10  1  0.72190000  0.01390000  0.97580000  1.0 -0.2082268623
N  N11  1  0.57660000  0.50780000  0.30390000  1.0 0.0316500279
N  N12  1  0.57660000  0.99220000  0.80390000  1.0 0.0316500279
N  N13  1  0.88050000  0.10300000  0.06850000  1.0 -0.1887578648
N  N14  1  0.88050000  0.39700000  0.56850000  1.0 -0.1887578648
N  N15  1  0.04160000  0.29010000  0.08970000  1.0 -0.0662858806
N  N16  1  0.04160000  0.20990000  0.58970000  1.0 -0.0662858806
N  N17  1  0.90590000  0.54990000  0.56550000  1.0 -0.5131887266
N  N18  1  0.90590000  0.95010000  0.06550000  1.0 -0.5131887266
N  N19  1  0.68310000  0.42350000  0.56170000  1.0 -0.4674254277
N  N20  1  0.68310000  0.07650000  0.06170000  1.0 -0.4674254277
N  N21  1  0.35740000  0.40270000  0.04530000  1.0 0.4024320102
N  N22  1  0.35740000  0.09730000  0.54530000  1.0 0.4024320102
N  N23  1  0.19510000  0.64950000  0.08260000  1.0 0.3915672532
N  N24  1  0.19510000  0.85050000  0.58260000  1.0 0.3915672532
N  N25  1  0.99480000  0.51060000  0.82180000  1.0 -0.2310354604
N  N26  1  0.99480000  0.98940000  0.32180000  1.0 -0.2358909019
N  N27  1  0.51990000  0.74750000  0.54270000  1.0 -0.2223650889
N  N28  1  0.51990000  0.75250000  0.04270000  1.0 -0.2223650889
N  N29  1  0.56520000  0.51680000  0.30680000  1.0 0.0211474324
N  N30  1  0.56520000  0.98320000  0.80680000  1.0 0.0211474324
N  N31  1  0.06520000  0.22640000  0.58180000  1.0 0.0112542887
N  N32  1  0.06520000  0.27360000  0.08180000  1.0 0.0112542887
N  N33  1  0.32970000  0.40620000  0.02460000  1.0 0.3679766363
N  N34  1  0.32970000  0.09380000  0.52460000  1.0 0.3679766363
N  N35  1  0.20180000  0.63020000  0.10130000  1.0 0.3814912966
N  N36  1  0.20180000  0.86980000  0.60130000  1.0 0.3814912966
N  N37  1  0.13220000  0.50760000  0.34900000  1.0 -0.2223650889
N  N38  1  0.13220000  0.99240000  0.84900000  1.0 -0.2223650889
N  N39  1  0.99900000  0.49150000  0.17670000  1.0 -0.2358909019
N  N40  1  0.99900000  0.00850000  0.67670000  1.0 -0.2358909019
N  N41  1  0.29000000  0.07840000  0.94180000  1.0 -0.2082268623
N  N42  1  0.29000000  0.42160000  0.44180000  1.0 -0.2082268623
N  N43  1  0.46940000  0.25460000  0.96010000  1.0 -0.2310354604
N  N44  1  0.46940000  0.24540000  0.46010000  1.0 -0.2310354604
N  N45  1  0.27810000  0.51390000  0.52420000  1.0 -0.2082268623
N  N46  1  0.27810000  0.98610000  0.02420000  1.0 -0.2082268623
N  N47  1  0.42340000  0.49220000  0.69610000  1.0 0.0316500279
N  N48  1  0.42340000  0.00780000  0.19610000  1.0 0.0316500279
N  N49  1  0.11950000  0.89700000  0.93150000  1.0 -0.1887578648
N  N50  1  0.11950000  0.60300000  0.43150000  1.0 -0.1887578648
N  N51  1  0.95840000  0.70990000  0.91030000  1.0 -0.0662858806
N  N52  1  0.95840000  0.79010000  0.41030000  1.0 -0.0662858806
N  N53  1  0.09410000  0.45010000  0.43450000  1.0 -0.5131887266
N  N54  1  0.09410000  0.04990000  0.93450000  1.0 -0.5131887266
N  N55  1  0.31690000  0.57650000  0.43830000  1.0 -0.4674254277
N  N56  1  0.31690000  0.92350000  0.93830000  1.0 -0.4674254277
N  N57  1  0.64260000  0.59730000  0.95470000  1.0 0.4024320102
N  N58  1  0.64260000  0.90270000  0.45470000  1.0 0.4024320102
N  N59  1  0.80490000  0.35050000  0.91740000  1.0 0.3915672532
N  N60  1  0.80490000  0.14950000  0.41740000  1.0 0.3915672532
N  N61  1  0.00520000  0.48940000  0.17820000  1.0 -0.2358909019
N  N62  1  0.00520000  0.01060000  0.67820000  1.0 -0.2310354604
N  N63  1  0.48010000  0.25250000  0.45730000  1.0 -0.2223650889
N  N64  1  0.48010000  0.24750000  0.95730000  1.0 -0.2223650889
N  N65  1  0.43480000  0.48320000  0.69320000  1.0 0.0211474324
N  N66  1  0.43480000  0.01680000  0.19320000  1.0 0.0211474324
N  N67  1  0.93480000  0.77360000  0.41820000  1.0 0.0112542887
N  N68  1  0.93480000  0.72640000  0.91820000  1.0 0.0112542887
N  N69  1  0.67030000  0.59380000  0.97540000  1.0 0.3679766363
N  N70  1  0.67030000  0.90620000  0.47540000  1.0 0.3679766363
N  N71  1  0.79820000  0.36980000  0.89870000  1.0 0.3814912966
N  N72  1  0.79820000  0.13020000  0.39870000  1.0 0.3814912966
O  O1  1  0.12680000  0.53630000  0.99010000  1.0 -0.2597520382
O  O2  1  0.12680000  0.96370000  0.49010000  1.0 -0.2597520382
O  O3  1  0.35880000  0.57410000  0.02220000  1.0 -0.2358909019
O  O4  1  0.35880000  0.92590000  0.52220000  1.0 -0.2358909019
O  O5  1  0.43590000  0.52160000  0.13440000  1.0 -0.2223650889
O  O6  1  0.43590000  0.97840000  0.63440000  1.0 -0.2223650889
O  O7  1  0.21430000  0.46190000  0.10820000  1.0 -0.2498248809
O  O8  1  0.21430000  0.03810000  0.60820000  1.0 -0.2498248809
O  O9  1  0.41170000  0.43790000  0.08740000  1.0 -0.2597520382
O  O10  1  0.41170000  0.06210000  0.58740000  1.0 -0.2597520382
O  O11  1  0.27410000  0.42810000  0.00860000  1.0 -0.0309470625
O  O12  1  0.27410000  0.07190000  0.50860000  1.0 -0.0309470625
O  O13  1  0.38920000  0.34670000  0.03740000  1.0 -0.0985326356
O  O14  1  0.38920000  0.15330000  0.53740000  1.0 -0.0985326356
O  O15  1  0.19300000  0.59110000  0.10310000  1.0 -0.0132323347
O  O16  1  0.19300000  0.90890000  0.60310000  1.0 -0.0132323347
O  O17  1  0.24540000  0.65190000  0.05800000  1.0 -0.2816557729
O  O18  1  0.24540000  0.84810000  0.55800000  1.0 -0.2816557729
O  O19  1  0.15510000  0.70190000  0.08820000  1.0 -0.0985326356
O  O20  1  0.15510000  0.79810000  0.58820000  1.0 -0.0985326356
O  O21  1  0.13640000  0.50210000  0.98780000  1.0 -0.2498248809
O  O22  1  0.13640000  0.99790000  0.48780000  1.0 -0.2498248809
O  O23  1  0.30280000  0.88980000  0.52480000  1.0 -0.2223650889
O  O24  1  0.30280000  0.61020000  0.02480000  1.0 -0.2223650889
O  O25  1  0.40920000  0.56300000  0.14500000  1.0 -0.1887578648
O  O26  1  0.40920000  0.93700000  0.64500000  1.0 -0.1887578648
O  O27  1  0.24820000  0.06060000  0.60310000  1.0 -0.2310354604
O  O28  1  0.24820000  0.43940000  0.10310000  1.0 -0.2310354604
O  O29  1  0.34300000  0.46730000  0.01320000  1.0 -0.2082268623
O  O30  1  0.34300000  0.03270000  0.51320000  1.0 -0.2082268623
O  O31  1  0.29830000  0.39690000  0.05760000  1.0 -0.136846877
O  O32  1  0.29830000  0.10310000  0.55760000  1.0 -0.136846877
O  O33  1  0.35110000  0.35470000  0.00510000  1.0 -0.1091150486
O  O34  1  0.35110000  0.14530000  0.50510000  1.0 -0.1091150486
O  O35  1  0.29150000  0.60930000  0.13050000  1.0 -0.2223650889
O  O36  1  0.29150000  0.89070000  0.63050000  1.0 -0.2223650889
O  O37  1  0.14620000  0.60340000  0.05500000  1.0 -0.1536933624
O  O38  1  0.14620000  0.89660000  0.55500000  1.0 -0.1536933624
O  O39  1  0.16740000  0.67820000  0.11760000  1.0 -0.0309470625
O  O40  1  0.16740000  0.82180000  0.61760000  1.0 -0.0309470625
O  O41  1  0.87320000  0.46370000  0.00990000  1.0 -0.2597520382
O  O42  1  0.87320000  0.03630000  0.50990000  1.0 -0.2597520382
O  O43  1  0.64120000  0.42590000  0.97780000  1.0 -0.2358909019
O  O44  1  0.64120000  0.07410000  0.47780000  1.0 -0.2358909019
O  O45  1  0.56410000  0.47840000  0.86560000  1.0 -0.2223650889
O  O46  1  0.56410000  0.02160000  0.36560000  1.0 -0.2223650889
O  O47  1  0.78570000  0.53810000  0.89180000  1.0 -0.2498248809
O  O48  1  0.78570000  0.96190000  0.39180000  1.0 -0.2498248809
O  O49  1  0.58830000  0.56210000  0.91260000  1.0 -0.2597520382
O  O50  1  0.58830000  0.93790000  0.41260000  1.0 -0.2597520382
O  O51  1  0.72590000  0.57190000  0.99140000  1.0 -0.0309470625
O  O52  1  0.72590000  0.92810000  0.49140000  1.0 -0.0309470625
O  O53  1  0.61080000  0.65330000  0.96260000  1.0 -0.0985326356
O  O54  1  0.61080000  0.84670000  0.46260000  1.0 -0.0985326356
O  O55  1  0.80700000  0.40890000  0.89690000  1.0 -0.0132323347
O  O56  1  0.80700000  0.09110000  0.39690000  1.0 -0.0132323347
O  O57  1  0.75460000  0.34810000  0.94200000  1.0 -0.2816557729
O  O58  1  0.75460000  0.15190000  0.44200000  1.0 -0.2816557729
O  O59  1  0.84490000  0.29810000  0.91180000  1.0 -0.0985326356
O  O60  1  0.84490000  0.20190000  0.41180000  1.0 -0.0985326356
O  O61  1  0.86360000  0.49790000  0.01220000  1.0 -0.2498248809
O  O62  1  0.86360000  0.00210000  0.51220000  1.0 -0.2498248809
O  O63  1  0.69720000  0.11020000  0.47520000  1.0 -0.2223650889
O  O64  1  0.69720000  0.38980000  0.97520000  1.0 -0.2223650889
O  O65  1  0.59080000  0.43700000  0.85500000  1.0 -0.1887578648
O  O66  1  0.59080000  0.06300000  0.35500000  1.0 -0.1887578648
O  O67  1  0.75180000  0.93940000  0.39690000  1.0 -0.2310354604
O  O68  1  0.75180000  0.56060000  0.89690000  1.0 -0.2310354604
O  O69  1  0.65700000  0.53270000  0.98680000  1.0 -0.2031720349
O  O70  1  0.65700000  0.96730000  0.48680000  1.0 -0.2082268623
O  O71  1  0.70170000  0.60310000  0.94240000  1.0 -0.136846877
O  O72  1  0.70170000  0.89690000  0.44240000  1.0 -0.136846877
O  O73  1  0.64890000  0.64530000  0.99490000  1.0 -0.1091150486
O  O74  1  0.64890000  0.85470000  0.49490000  1.0 -0.1091150486
O  O75  1  0.70850000  0.39070000  0.86950000  1.0 -0.2223650889
O  O76  1  0.70850000  0.10930000  0.36950000  1.0 -0.2223650889
O  O77  1  0.85380000  0.39660000  0.94500000  1.0 -0.1566105405
O  O78  1  0.85380000  0.10340000  0.44500000  1.0 -0.1566105405
O  O79  1  0.83260000  0.32180000  0.88240000  1.0 -0.0309470625
O  O80  1  0.83260000  0.17820000  0.38240000  1.0 -0.0309470625
