# DDEC6 charges by PACMAN v1.1 (https://github.com/mtap-research/PACMAN-charge/)
data_NERVAJ_ASR_pacman
_symmetry_space_group_name_H-M   'P 1'
_cell_length_a   30.09130000
_cell_length_b   30.09130000
_cell_length_c   30.09130000
_cell_angle_alpha   80.28440000
_cell_angle_beta   80.28440000
_cell_angle_gamma   80.28440000
_symmetry_Int_Tables_number   1
_chemical_formula_structural   Zn3H67C77NO22
_chemical_formula_sum   'Zn36 H804 C924 N12 O264'
_cell_volume   26193.88231890
_cell_formula_units_Z   12
loop_
 _symmetry_equiv_pos_site_id
 _symmetry_equiv_pos_as_xyz
  1  'x, y, z'
loop_
 _atom_site_type_symbol
 _atom_site_label
 _atom_site_symmetry_multiplicity
 _atom_site_fract_x
 _atom_site_fract_y
 _atom_site_fract_z
 _atom_site_occupancy
 _atom_site_charge
Zn  Zn1  1  0.69750000  0.19464000  0.18528000  1.0 0.933640585
Zn  Zn2  1  0.19464000  0.18528000  0.69750000  1.0 0.933640585
Zn  Zn3  1  0.18528000  0.69750000  0.19464000  1.0 0.933640585
Zn  Zn4  1  0.30536000  0.80250000  0.31472000  1.0 0.933640585
Zn  Zn5  1  0.31472000  0.30536000  0.80250000  1.0 0.933640585
Zn  Zn6  1  0.80250000  0.31472000  0.30536000  1.0 0.933640585
Zn  Zn7  1  0.30250000  0.80536000  0.81472000  1.0 0.933640585
Zn  Zn8  1  0.80536000  0.81472000  0.30250000  1.0 0.933640585
Zn  Zn9  1  0.81472000  0.30250000  0.80536000  1.0 0.933640585
Zn  Zn10  1  0.69464000  0.19750000  0.68528000  1.0 0.933640585
Zn  Zn11  1  0.68528000  0.69464000  0.19750000  1.0 0.933640585
Zn  Zn12  1  0.19750000  0.68528000  0.69464000  1.0 0.933640585
Zn  Zn13  1  0.58075000  0.19431000  0.21409000  1.0 0.954506746
Zn  Zn14  1  0.19431000  0.21409000  0.58075000  1.0 0.954506746
Zn  Zn15  1  0.21409000  0.58075000  0.19431000  1.0 0.954506746
Zn  Zn16  1  0.30569000  0.91925000  0.28591000  1.0 0.954506746
Zn  Zn17  1  0.28591000  0.30569000  0.91925000  1.0 0.954506746
Zn  Zn18  1  0.91925000  0.28591000  0.30569000  1.0 0.954506746
Zn  Zn19  1  0.41925000  0.80569000  0.78591000  1.0 0.954506746
Zn  Zn20  1  0.80569000  0.78591000  0.41925000  1.0 0.954506746
Zn  Zn21  1  0.78591000  0.41925000  0.80569000  1.0 0.954506746
Zn  Zn22  1  0.69431000  0.08075000  0.71409000  1.0 0.954506746
Zn  Zn23  1  0.71409000  0.69431000  0.08075000  1.0 0.9555119134
Zn  Zn24  1  0.08075000  0.71409000  0.69431000  1.0 0.954506746
Zn  Zn25  1  0.84203000  0.74897000  0.51871000  1.0 0.7880598363
Zn  Zn26  1  0.74897000  0.51871000  0.84203000  1.0 0.7880598363
Zn  Zn27  1  0.51871000  0.84203000  0.74897000  1.0 0.7880598363
Zn  Zn28  1  0.75103000  0.65797000  0.98129000  1.0 0.7880598363
Zn  Zn29  1  0.98129000  0.75103000  0.65797000  1.0 0.7880598363
Zn  Zn30  1  0.65797000  0.98129000  0.75103000  1.0 0.7880598363
Zn  Zn31  1  0.15797000  0.25103000  0.48129000  1.0 0.7880598363
Zn  Zn32  1  0.25103000  0.48129000  0.15797000  1.0 0.7880598363
Zn  Zn33  1  0.48129000  0.15797000  0.25103000  1.0 0.7880598363
Zn  Zn34  1  0.24897000  0.34203000  0.01871000  1.0 0.7880598363
Zn  Zn35  1  0.01871000  0.24897000  0.34203000  1.0 0.7880598363
Zn  Zn36  1  0.34203000  0.01871000  0.24897000  1.0 0.7880598363
H  H1  1  0.71990000  0.07570000  0.11800000  1.0 0.1289424074
H  H2  1  0.07570000  0.11800000  0.71990000  1.0 0.1289424074
H  H3  1  0.11800000  0.71990000  0.07570000  1.0 0.1289424074
H  H4  1  0.42430000  0.78010000  0.38200000  1.0 0.1289424074
H  H5  1  0.38200000  0.42430000  0.78010000  1.0 0.1289424074
H  H6  1  0.78010000  0.38200000  0.42430000  1.0 0.1289424074
H  H7  1  0.28010000  0.92430000  0.88200000  1.0 0.1289424074
H  H8  1  0.92430000  0.88200000  0.28010000  1.0 0.1289424074
H  H9  1  0.88200000  0.28010000  0.92430000  1.0 0.1289424074
H  H10  1  0.57570000  0.21990000  0.61800000  1.0 0.1289424074
H  H11  1  0.61800000  0.57570000  0.21990000  1.0 0.1289424074
H  H12  1  0.21990000  0.61800000  0.57570000  1.0 0.1289424074
H  H13  1  0.71960000  0.01510000  0.08020000  1.0 0.1108265549
H  H14  1  0.01510000  0.08020000  0.71960000  1.0 0.1108265549
H  H15  1  0.08020000  0.71960000  0.01510000  1.0 0.1108265549
H  H16  1  0.48490000  0.78040000  0.41980000  1.0 0.1108265549
H  H17  1  0.41980000  0.48490000  0.78040000  1.0 0.1108265549
H  H18  1  0.78040000  0.41980000  0.48490000  1.0 0.1108265549
H  H19  1  0.28040000  0.98490000  0.91980000  1.0 0.1108265549
H  H20  1  0.98490000  0.91980000  0.28040000  1.0 0.1108265549
H  H21  1  0.91980000  0.28040000  0.98490000  1.0 0.1108265549
H  H22  1  0.51510000  0.21960000  0.58020000  1.0 0.1108265549
H  H23  1  0.58020000  0.51510000  0.21960000  1.0 0.1108265549
H  H24  1  0.21960000  0.58020000  0.51510000  1.0 0.1108265549
H  H25  1  0.65140000  0.99620000  0.06920000  1.0 0.1399860271
H  H26  1  0.99620000  0.06920000  0.65140000  1.0 0.1466739525
H  H27  1  0.06920000  0.65140000  0.99620000  1.0 0.1466739525
H  H28  1  0.50380000  0.84860000  0.43080000  1.0 0.1466739525
H  H29  1  0.43080000  0.50380000  0.84860000  1.0 0.1466739525
H  H30  1  0.84860000  0.43080000  0.50380000  1.0 0.1466739525
H  H31  1  0.34860000  0.00380000  0.93080000  1.0 0.1466739525
H  H32  1  0.00380000  0.93080000  0.34860000  1.0 0.1466739525
H  H33  1  0.93080000  0.34860000  0.00380000  1.0 0.1466739525
H  H34  1  0.49620000  0.15140000  0.56920000  1.0 0.1466739525
H  H35  1  0.56920000  0.49620000  0.15140000  1.0 0.1466739525
H  H36  1  0.15140000  0.56920000  0.49620000  1.0 0.1466739525
H  H37  1  0.58340000  0.10130000  0.12990000  1.0 0.1289424074
H  H38  1  0.10130000  0.12990000  0.58340000  1.0 0.1289424074
H  H39  1  0.12990000  0.58340000  0.10130000  1.0 0.1289424074
H  H40  1  0.39870000  0.91660000  0.37010000  1.0 0.1289424074
H  H41  1  0.37010000  0.39870000  0.91660000  1.0 0.1289424074
H  H42  1  0.91660000  0.37010000  0.39870000  1.0 0.1289424074
H  H43  1  0.41660000  0.89870000  0.87010000  1.0 0.1289424074
H  H44  1  0.89870000  0.87010000  0.41660000  1.0 0.1289424074
H  H45  1  0.87010000  0.41660000  0.89870000  1.0 0.1289424074
H  H46  1  0.60130000  0.08340000  0.62990000  1.0 0.1289424074
H  H47  1  0.62990000  0.60130000  0.08340000  1.0 0.1289424074
H  H48  1  0.08340000  0.62990000  0.60130000  1.0 0.1289424074
H  H49  1  0.52250000  0.05810000  0.13410000  1.0 0.0988006447
H  H50  1  0.05810000  0.13410000  0.52250000  1.0 0.0988006447
H  H51  1  0.13410000  0.52250000  0.05810000  1.0 0.0988006447
H  H52  1  0.44190000  0.97750000  0.36590000  1.0 0.0988006447
H  H53  1  0.36590000  0.44190000  0.97750000  1.0 0.0988006447
H  H54  1  0.97750000  0.36590000  0.44190000  1.0 0.0988006447
H  H55  1  0.47750000  0.94190000  0.86590000  1.0 0.0988006447
H  H56  1  0.94190000  0.86590000  0.47750000  1.0 0.0988006447
H  H57  1  0.86590000  0.47750000  0.94190000  1.0 0.0988006447
H  H58  1  0.55810000  0.02250000  0.63410000  1.0 0.0988006447
H  H59  1  0.63410000  0.55810000  0.02250000  1.0 0.0988006447
H  H60  1  0.02250000  0.63410000  0.55810000  1.0 0.0988006447
H  H61  1  0.53060000  0.09190000  0.08860000  1.0 0.0902054147
H  H62  1  0.09190000  0.08860000  0.53060000  1.0 0.0902054147
H  H63  1  0.08860000  0.53060000  0.09190000  1.0 0.0902054147
H  H64  1  0.40810000  0.96940000  0.41140000  1.0 0.0902054147
H  H65  1  0.41140000  0.40810000  0.96940000  1.0 0.0902054147
H  H66  1  0.96940000  0.41140000  0.40810000  1.0 0.0902054147
H  H67  1  0.46940000  0.90810000  0.91140000  1.0 0.0902054147
H  H68  1  0.90810000  0.91140000  0.46940000  1.0 0.0902054147
H  H69  1  0.91140000  0.46940000  0.90810000  1.0 0.0902054147
H  H70  1  0.59190000  0.03060000  0.58860000  1.0 0.0902054147
H  H71  1  0.58860000  0.59190000  0.03060000  1.0 0.0902054147
H  H72  1  0.03060000  0.58860000  0.59190000  1.0 0.0902054147
H  H73  1  0.53110000  0.07530000  0.98140000  1.0 0.1399860271
H  H74  1  0.07530000  0.98140000  0.53110000  1.0 0.1399860271
H  H75  1  0.98140000  0.53110000  0.07530000  1.0 0.1399860271
H  H76  1  0.42470000  0.96890000  0.51860000  1.0 0.1399860271
H  H77  1  0.51860000  0.42470000  0.96890000  1.0 0.1399860271
H  H78  1  0.96890000  0.51860000  0.42470000  1.0 0.1399860271
H  H79  1  0.46890000  0.92470000  0.01860000  1.0 0.1399860271
H  H80  1  0.92470000  0.01860000  0.46890000  1.0 0.1399860271
H  H81  1  0.01860000  0.46890000  0.92470000  1.0 0.1399860271
H  H82  1  0.57530000  0.03110000  0.48140000  1.0 0.1399860271
H  H83  1  0.48140000  0.57530000  0.03110000  1.0 0.1399860271
H  H84  1  0.03110000  0.48140000  0.57530000  1.0 0.1399860271
H  H85  1  0.49560000  0.11700000  0.99530000  1.0 0.1289424074
H  H86  1  0.11700000  0.99530000  0.49560000  1.0 0.1289424074
H  H87  1  0.99530000  0.49560000  0.11700000  1.0 0.1289424074
H  H88  1  0.38300000  0.00440000  0.50470000  1.0 0.1289424074
H  H89  1  0.50470000  0.38300000  0.00440000  1.0 0.1289424074
H  H90  1  0.00440000  0.50470000  0.38300000  1.0 0.1289424074
H  H91  1  0.50440000  0.88300000  0.00470000  1.0 0.1289424074
H  H92  1  0.88300000  0.00470000  0.50440000  1.0 0.1289424074
H  H93  1  0.00470000  0.50440000  0.88300000  1.0 0.1289424074
H  H94  1  0.61700000  0.99560000  0.49530000  1.0 0.1289424074
H  H95  1  0.49530000  0.61700000  0.99560000  1.0 0.1289424074
H  H96  1  0.99560000  0.49530000  0.61700000  1.0 0.1289424074
H  H97  1  0.53620000  0.09830000  0.02290000  1.0 0.1289424074
H  H98  1  0.09830000  0.02290000  0.53620000  1.0 0.1289424074
H  H99  1  0.02290000  0.53620000  0.09830000  1.0 0.1289424074
H  H100  1  0.40170000  0.96380000  0.47710000  1.0 0.1289424074
H  H101  1  0.47710000  0.40170000  0.96380000  1.0 0.1289424074
H  H102  1  0.96380000  0.47710000  0.40170000  1.0 0.1289424074
H  H103  1  0.46380000  0.90170000  0.97710000  1.0 0.1289424074
H  H104  1  0.90170000  0.97710000  0.46380000  1.0 0.1289424074
H  H105  1  0.97710000  0.46380000  0.90170000  1.0 0.1289424074
H  H106  1  0.59830000  0.03620000  0.52290000  1.0 0.1289424074
H  H107  1  0.52290000  0.59830000  0.03620000  1.0 0.1289424074
H  H108  1  0.03620000  0.52290000  0.59830000  1.0 0.1289424074
H  H109  1  0.46070000  0.00440000  0.18000000  1.0 0.1466739525
H  H110  1  0.00440000  0.18000000  0.46070000  1.0 0.1466739525
H  H111  1  0.18000000  0.46070000  0.00440000  1.0 0.1466739525
H  H112  1  0.49560000  0.03930000  0.32000000  1.0 0.1466739525
H  H113  1  0.32000000  0.49560000  0.03930000  1.0 0.1466739525
H  H114  1  0.03930000  0.32000000  0.49560000  1.0 0.1466739525
H  H115  1  0.53930000  0.99560000  0.82000000  1.0 0.1466739525
H  H116  1  0.99560000  0.82000000  0.53930000  1.0 0.1466739525
H  H117  1  0.82000000  0.53930000  0.99560000  1.0 0.1466739525
H  H118  1  0.50440000  0.96070000  0.68000000  1.0 0.1466739525
H  H119  1  0.68000000  0.50440000  0.96070000  1.0 0.1466739525
H  H120  1  0.96070000  0.68000000  0.50440000  1.0 0.1466739525
H  H121  1  0.47970000  0.95770000  0.16240000  1.0 0.1289424074
H  H122  1  0.95770000  0.16240000  0.47970000  1.0 0.1289424074
H  H123  1  0.16240000  0.47970000  0.95770000  1.0 0.1289424074
H  H124  1  0.54230000  0.02030000  0.33760000  1.0 0.1289424074
H  H125  1  0.33760000  0.54230000  0.02030000  1.0 0.1289424074
H  H126  1  0.02030000  0.33760000  0.54230000  1.0 0.1289424074
H  H127  1  0.52030000  0.04230000  0.83760000  1.0 0.1289424074
H  H128  1  0.04230000  0.83760000  0.52030000  1.0 0.1289424074
H  H129  1  0.83760000  0.52030000  0.04230000  1.0 0.1289424074
H  H130  1  0.45770000  0.97970000  0.66240000  1.0 0.1289424074
H  H131  1  0.66240000  0.45770000  0.97970000  1.0 0.1289424074
H  H132  1  0.97970000  0.66240000  0.45770000  1.0 0.1289424074
H  H133  1  0.51200000  0.99430000  0.15860000  1.0 0.1289424074
H  H134  1  0.99430000  0.15860000  0.51200000  1.0 0.1289424074
H  H135  1  0.15860000  0.51200000  0.99430000  1.0 0.1289424074
H  H136  1  0.50570000  0.98800000  0.34140000  1.0 0.1289424074
H  H137  1  0.34140000  0.50570000  0.98800000  1.0 0.1289424074
H  H138  1  0.98800000  0.34140000  0.50570000  1.0 0.1289424074
H  H139  1  0.48800000  0.00570000  0.84140000  1.0 0.1289424074
H  H140  1  0.00570000  0.84140000  0.48800000  1.0 0.1289424074
H  H141  1  0.84140000  0.48800000  0.00570000  1.0 0.1289424074
H  H142  1  0.49430000  0.01200000  0.65860000  1.0 0.1289424074
H  H143  1  0.65860000  0.49430000  0.01200000  1.0 0.1289424074
H  H144  1  0.01200000  0.65860000  0.49430000  1.0 0.1289424074
H  H145  1  0.39490000  0.97470000  0.01570000  1.0 0.1466739525
H  H146  1  0.97470000  0.01570000  0.39490000  1.0 0.1466739525
H  H147  1  0.01570000  0.39490000  0.97470000  1.0 0.1466739525
H  H148  1  0.52530000  0.10510000  0.48430000  1.0 0.1466739525
H  H149  1  0.48430000  0.52530000  0.10510000  1.0 0.1466739525
H  H150  1  0.10510000  0.48430000  0.52530000  1.0 0.1466739525
H  H151  1  0.60510000  0.02530000  0.98430000  1.0 0.1466739525
H  H152  1  0.02530000  0.98430000  0.60510000  1.0 0.1466739525
H  H153  1  0.98430000  0.60510000  0.02530000  1.0 0.1466739525
H  H154  1  0.47470000  0.89490000  0.51570000  1.0 0.1466739525
H  H155  1  0.51570000  0.47470000  0.89490000  1.0 0.1466739525
H  H156  1  0.89490000  0.51570000  0.47470000  1.0 0.1466739525
H  H157  1  0.36200000  0.99080000  0.05800000  1.0 0.1289424074
H  H158  1  0.99080000  0.05800000  0.36200000  1.0 0.1289424074
H  H159  1  0.05800000  0.36200000  0.99080000  1.0 0.1289424074
H  H160  1  0.50920000  0.13800000  0.44200000  1.0 0.1289424074
H  H161  1  0.44200000  0.50920000  0.13800000  1.0 0.1289424074
H  H162  1  0.13800000  0.44200000  0.50920000  1.0 0.1289424074
H  H163  1  0.63800000  0.00920000  0.94200000  1.0 0.1289424074
H  H164  1  0.00920000  0.94200000  0.63800000  1.0 0.1289424074
H  H165  1  0.94200000  0.63800000  0.00920000  1.0 0.1289424074
H  H166  1  0.49080000  0.86200000  0.55800000  1.0 0.1289424074
H  H167  1  0.55800000  0.49080000  0.86200000  1.0 0.1289424074
H  H168  1  0.86200000  0.55800000  0.49080000  1.0 0.1289424074
H  H169  1  0.37020000  0.02510000  0.01310000  1.0 0.1289424074
H  H170  1  0.02510000  0.01310000  0.37020000  1.0 0.1289424074
H  H171  1  0.01310000  0.37020000  0.02510000  1.0 0.1289424074
H  H172  1  0.47490000  0.12980000  0.48690000  1.0 0.1289424074
H  H173  1  0.48690000  0.47490000  0.12980000  1.0 0.1289424074
H  H174  1  0.12980000  0.48690000  0.47490000  1.0 0.1289424074
H  H175  1  0.62980000  0.97490000  0.98690000  1.0 0.1289424074
H  H176  1  0.97490000  0.98690000  0.62980000  1.0 0.1289424074
H  H177  1  0.98690000  0.62980000  0.97490000  1.0 0.1289424074
H  H178  1  0.52510000  0.87020000  0.51310000  1.0 0.1289424074
H  H179  1  0.51310000  0.52510000  0.87020000  1.0 0.1289424074
H  H180  1  0.87020000  0.51310000  0.52510000  1.0 0.1289424074
H  H181  1  0.37390000  0.97070000  0.12170000  1.0 0.0988006447
H  H182  1  0.97070000  0.12170000  0.37390000  1.0 0.0988006447
H  H183  1  0.12170000  0.37390000  0.97070000  1.0 0.0988006447
H  H184  1  0.52930000  0.12610000  0.37830000  1.0 0.0988006447
H  H185  1  0.37830000  0.52930000  0.12610000  1.0 0.0988006447
H  H186  1  0.12610000  0.37830000  0.52930000  1.0 0.0988006447
H  H187  1  0.62610000  0.02930000  0.87830000  1.0 0.0988006447
H  H188  1  0.02930000  0.87830000  0.62610000  1.0 0.0988006447
H  H189  1  0.87830000  0.62610000  0.02930000  1.0 0.0988006447
H  H190  1  0.47070000  0.87390000  0.62170000  1.0 0.0988006447
H  H191  1  0.62170000  0.47070000  0.87390000  1.0 0.0988006447
H  H192  1  0.87390000  0.62170000  0.47070000  1.0 0.0988006447
H  H193  1  0.41110000  0.95850000  0.15460000  1.0 0.0988006447
H  H194  1  0.95850000  0.15460000  0.41110000  1.0 0.0988006447
H  H195  1  0.15460000  0.41110000  0.95850000  1.0 0.0988006447
H  H196  1  0.54150000  0.08890000  0.34540000  1.0 0.0988006447
H  H197  1  0.34540000  0.54150000  0.08890000  1.0 0.0988006447
H  H198  1  0.08890000  0.34540000  0.54150000  1.0 0.0988006447
H  H199  1  0.58890000  0.04150000  0.84540000  1.0 0.0988006447
H  H200  1  0.04150000  0.84540000  0.58890000  1.0 0.0988006447
H  H201  1  0.84540000  0.58890000  0.04150000  1.0 0.0988006447
H  H202  1  0.45850000  0.91110000  0.65460000  1.0 0.0988006447
H  H203  1  0.65460000  0.45850000  0.91110000  1.0 0.0988006447
H  H204  1  0.91110000  0.65460000  0.45850000  1.0 0.0988006447
H  H205  1  0.36460000  0.90320000  0.18110000  1.0 0.1399860271
H  H206  1  0.90320000  0.18110000  0.36460000  1.0 0.1399860271
H  H207  1  0.18110000  0.36460000  0.90320000  1.0 0.1399860271
H  H208  1  0.59680000  0.13540000  0.31890000  1.0 0.1399860271
H  H209  1  0.31890000  0.59680000  0.13540000  1.0 0.1399860271
H  H210  1  0.13540000  0.31890000  0.59680000  1.0 0.1399860271
H  H211  1  0.63540000  0.09680000  0.81890000  1.0 0.1399860271
H  H212  1  0.09680000  0.81890000  0.63540000  1.0 0.1399860271
H  H213  1  0.81890000  0.63540000  0.09680000  1.0 0.1399860271
H  H214  1  0.40320000  0.86460000  0.68110000  1.0 0.1399860271
H  H215  1  0.68110000  0.40320000  0.86460000  1.0 0.1399860271
H  H216  1  0.86460000  0.68110000  0.40320000  1.0 0.1399860271
H  H217  1  0.44030000  0.84560000  0.07720000  1.0 0.1399860271
H  H218  1  0.84560000  0.07720000  0.44030000  1.0 0.1399860271
H  H219  1  0.07720000  0.44030000  0.84560000  1.0 0.1399860271
H  H220  1  0.65440000  0.05970000  0.42280000  1.0 0.1399860271
H  H221  1  0.42280000  0.65440000  0.05970000  1.0 0.1399860271
H  H222  1  0.05970000  0.42280000  0.65440000  1.0 0.1399860271
H  H223  1  0.55970000  0.15440000  0.92280000  1.0 0.1399860271
H  H224  1  0.15440000  0.92280000  0.55970000  1.0 0.1399860271
H  H225  1  0.92280000  0.55970000  0.15440000  1.0 0.1399860271
H  H226  1  0.34560000  0.94030000  0.57720000  1.0 0.1399860271
H  H227  1  0.57720000  0.34560000  0.94030000  1.0 0.1399860271
H  H228  1  0.94030000  0.57720000  0.34560000  1.0 0.1399860271
H  H229  1  0.43130000  0.03430000  0.96170000  1.0 0.0988006447
H  H230  1  0.03430000  0.96170000  0.43130000  1.0 0.0988006447
H  H231  1  0.96170000  0.43130000  0.03430000  1.0 0.0988006447
H  H232  1  0.46570000  0.06870000  0.53830000  1.0 0.0988006447
H  H233  1  0.53830000  0.46570000  0.06870000  1.0 0.0988006447
H  H234  1  0.06870000  0.53830000  0.46570000  1.0 0.0988006447
H  H235  1  0.56870000  0.96570000  0.03830000  1.0 0.0988006447
H  H236  1  0.96570000  0.03830000  0.56870000  1.0 0.0988006447
H  H237  1  0.03830000  0.56870000  0.96570000  1.0 0.0988006447
H  H238  1  0.53430000  0.93130000  0.46170000  1.0 0.0988006447
H  H239  1  0.46170000  0.53430000  0.93130000  1.0 0.0988006447
H  H240  1  0.93130000  0.46170000  0.53430000  1.0 0.0988006447
H  H241  1  0.47460000  0.05910000  0.95360000  1.0 0.0988006447
H  H242  1  0.05910000  0.95360000  0.47460000  1.0 0.0988006447
H  H243  1  0.95360000  0.47460000  0.05910000  1.0 0.0988006447
H  H244  1  0.44090000  0.02540000  0.54640000  1.0 0.0988006447
H  H245  1  0.54640000  0.44090000  0.02540000  1.0 0.0988006447
H  H246  1  0.02540000  0.54640000  0.44090000  1.0 0.0988006447
H  H247  1  0.52540000  0.94090000  0.04640000  1.0 0.0988006447
H  H248  1  0.94090000  0.04640000  0.52540000  1.0 0.0988006447
H  H249  1  0.04640000  0.52540000  0.94090000  1.0 0.0988006447
H  H250  1  0.55910000  0.97460000  0.45360000  1.0 0.0988006447
H  H251  1  0.45360000  0.55910000  0.97460000  1.0 0.0988006447
H  H252  1  0.97460000  0.45360000  0.55910000  1.0 0.0988006447
H  H253  1  0.36990000  0.17560000  0.94570000  1.0 0.1399860271
H  H254  1  0.17560000  0.94570000  0.36990000  1.0 0.1399860271
H  H255  1  0.94570000  0.36990000  0.17560000  1.0 0.1399860271
H  H256  1  0.32440000  0.13010000  0.55430000  1.0 0.1399860271
H  H257  1  0.55430000  0.32440000  0.13010000  1.0 0.1399860271
H  H258  1  0.13010000  0.55430000  0.32440000  1.0 0.1399860271
H  H259  1  0.63010000  0.82440000  0.05430000  1.0 0.1399860271
H  H260  1  0.82440000  0.05430000  0.63010000  1.0 0.1399860271
H  H261  1  0.05430000  0.63010000  0.82440000  1.0 0.1399860271
H  H262  1  0.67560000  0.86990000  0.44570000  1.0 0.1399860271
H  H263  1  0.44570000  0.67560000  0.86990000  1.0 0.1399860271
H  H264  1  0.86990000  0.44570000  0.67560000  1.0 0.1399860271
H  H265  1  0.38410000  0.17660000  0.81050000  1.0 0.1202149947
H  H266  1  0.17660000  0.81050000  0.38410000  1.0 0.1202149947
H  H267  1  0.81050000  0.38410000  0.17660000  1.0 0.1202149947
H  H268  1  0.32340000  0.11590000  0.68950000  1.0 0.1202149947
H  H269  1  0.68950000  0.32340000  0.11590000  1.0 0.1202149947
H  H270  1  0.11590000  0.68950000  0.32340000  1.0 0.1202149947
H  H271  1  0.61590000  0.82340000  0.18950000  1.0 0.1202149947
H  H272  1  0.82340000  0.18950000  0.61590000  1.0 0.1202149947
H  H273  1  0.18950000  0.61590000  0.82340000  1.0 0.1202149947
H  H274  1  0.67660000  0.88410000  0.31050000  1.0 0.1202149947
H  H275  1  0.31050000  0.67660000  0.88410000  1.0 0.1202149947
H  H276  1  0.88410000  0.31050000  0.67660000  1.0 0.1202149947
H  H277  1  0.43130000  0.10870000  0.81740000  1.0 0.1108265549
H  H278  1  0.10870000  0.81740000  0.43130000  1.0 0.1108265549
H  H279  1  0.81740000  0.43130000  0.10870000  1.0 0.1108265549
H  H280  1  0.39130000  0.06870000  0.68260000  1.0 0.1108265549
H  H281  1  0.68260000  0.39130000  0.06870000  1.0 0.1108265549
H  H282  1  0.06870000  0.68260000  0.39130000  1.0 0.1108265549
H  H283  1  0.56870000  0.89130000  0.18260000  1.0 0.1108265549
H  H284  1  0.89130000  0.18260000  0.56870000  1.0 0.1108265549
H  H285  1  0.18260000  0.56870000  0.89130000  1.0 0.1108265549
H  H286  1  0.60870000  0.93130000  0.31740000  1.0 0.1108265549
H  H287  1  0.31740000  0.60870000  0.93130000  1.0 0.1108265549
H  H288  1  0.93130000  0.31740000  0.60870000  1.0 0.1108265549
H  H289  1  0.44550000  0.07090000  0.88840000  1.0 0.1289424074
H  H290  1  0.07090000  0.88840000  0.44550000  1.0 0.1289424074
H  H291  1  0.88840000  0.44550000  0.07090000  1.0 0.1289424074
H  H292  1  0.42910000  0.05450000  0.61160000  1.0 0.1289424074
H  H293  1  0.61160000  0.42910000  0.05450000  1.0 0.1289424074
H  H294  1  0.05450000  0.61160000  0.42910000  1.0 0.1289424074
H  H295  1  0.55450000  0.92910000  0.11160000  1.0 0.1289424074
H  H296  1  0.92910000  0.11160000  0.55450000  1.0 0.1289424074
H  H297  1  0.11160000  0.55450000  0.92910000  1.0 0.1289424074
H  H298  1  0.57090000  0.94550000  0.38840000  1.0 0.1289424074
H  H299  1  0.38840000  0.57090000  0.94550000  1.0 0.1289424074
H  H300  1  0.94550000  0.38840000  0.57090000  1.0 0.1289424074
H  H301  1  0.91680000  0.15490000  0.27690000  1.0 0.1289424074
H  H302  1  0.15490000  0.27690000  0.91680000  1.0 0.1289424074
H  H303  1  0.27690000  0.91680000  0.15490000  1.0 0.1289424074
H  H304  1  0.34510000  0.58320000  0.22310000  1.0 0.1289424074
H  H305  1  0.22310000  0.34510000  0.58320000  1.0 0.1289424074
H  H306  1  0.58320000  0.22310000  0.34510000  1.0 0.1289424074
H  H307  1  0.08320000  0.84510000  0.72310000  1.0 0.1289424074
H  H308  1  0.84510000  0.72310000  0.08320000  1.0 0.1289424074
H  H309  1  0.72310000  0.08320000  0.84510000  1.0 0.1289424074
H  H310  1  0.65490000  0.41680000  0.77690000  1.0 0.1289424074
H  H311  1  0.77690000  0.65490000  0.41680000  1.0 0.1289424074
H  H312  1  0.41680000  0.77690000  0.65490000  1.0 0.1289424074
H  H313  1  0.98880000  0.04000000  0.23760000  1.0 0.1289424074
H  H314  1  0.04000000  0.23760000  0.98880000  1.0 0.1289424074
H  H315  1  0.23760000  0.98880000  0.04000000  1.0 0.1289424074
H  H316  1  0.46000000  0.51120000  0.26240000  1.0 0.1289424074
H  H317  1  0.26240000  0.46000000  0.51120000  1.0 0.1289424074
H  H318  1  0.51120000  0.26240000  0.46000000  1.0 0.1289424074
H  H319  1  0.01120000  0.96000000  0.76240000  1.0 0.1289424074
H  H320  1  0.96000000  0.76240000  0.01120000  1.0 0.1289424074
H  H321  1  0.76240000  0.01120000  0.96000000  1.0 0.1289424074
H  H322  1  0.54000000  0.48880000  0.73760000  1.0 0.1289424074
H  H323  1  0.73760000  0.54000000  0.48880000  1.0 0.1289424074
H  H324  1  0.48880000  0.73760000  0.54000000  1.0 0.1289424074
H  H325  1  0.05540000  0.06680000  0.23870000  1.0 0.1108265549
H  H326  1  0.06680000  0.23870000  0.05540000  1.0 0.1108265549
H  H327  1  0.23870000  0.05540000  0.06680000  1.0 0.1108265549
H  H328  1  0.43320000  0.44460000  0.26130000  1.0 0.1108265549
H  H329  1  0.26130000  0.43320000  0.44460000  1.0 0.1108265549
H  H330  1  0.44460000  0.26130000  0.43320000  1.0 0.1108265549
H  H331  1  0.94460000  0.93320000  0.76130000  1.0 0.1108265549
H  H332  1  0.93320000  0.76130000  0.94460000  1.0 0.1108265549
H  H333  1  0.76130000  0.94460000  0.93320000  1.0 0.1108265549
H  H334  1  0.56680000  0.55540000  0.73870000  1.0 0.1108265549
H  H335  1  0.73870000  0.56680000  0.55540000  1.0 0.1108265549
H  H336  1  0.55540000  0.73870000  0.56680000  1.0 0.1108265549
H  H337  1  0.05290000  0.13740000  0.26060000  1.0 0.1289424074
H  H338  1  0.13740000  0.26060000  0.05290000  1.0 0.1289424074
H  H339  1  0.26060000  0.05290000  0.13740000  1.0 0.1289424074
H  H340  1  0.36260000  0.44710000  0.23940000  1.0 0.1289424074
H  H341  1  0.23940000  0.36260000  0.44710000  1.0 0.1289424074
H  H342  1  0.44710000  0.23940000  0.36260000  1.0 0.1289424074
H  H343  1  0.94710000  0.86260000  0.73940000  1.0 0.1289424074
H  H344  1  0.86260000  0.73940000  0.94710000  1.0 0.1289424074
H  H345  1  0.73940000  0.94710000  0.86260000  1.0 0.1289424074
H  H346  1  0.63740000  0.55290000  0.76060000  1.0 0.1289424074
H  H347  1  0.76060000  0.63740000  0.55290000  1.0 0.1289424074
H  H348  1  0.55290000  0.76060000  0.63740000  1.0 0.1289424074
H  H349  1  0.85580000  0.12110000  0.26490000  1.0 0.0988006447
H  H350  1  0.12110000  0.26490000  0.85580000  1.0 0.0988006447
H  H351  1  0.26490000  0.85580000  0.12110000  1.0 0.0988006447
H  H352  1  0.37890000  0.64420000  0.23510000  1.0 0.0988006447
H  H353  1  0.23510000  0.37890000  0.64420000  1.0 0.0988006447
H  H354  1  0.64420000  0.23510000  0.37890000  1.0 0.0988006447
H  H355  1  0.14420000  0.87890000  0.73510000  1.0 0.0988006447
H  H356  1  0.87890000  0.73510000  0.14420000  1.0 0.0988006447
H  H357  1  0.73510000  0.14420000  0.87890000  1.0 0.0988006447
H  H358  1  0.62110000  0.35580000  0.76490000  1.0 0.0988006447
H  H359  1  0.76490000  0.62110000  0.35580000  1.0 0.0988006447
H  H360  1  0.35580000  0.76490000  0.62110000  1.0 0.0988006447
H  H361  1  0.87390000  0.09960000  0.31090000  1.0 0.0988006447
H  H362  1  0.09960000  0.31090000  0.87390000  1.0 0.0988006447
H  H363  1  0.31090000  0.87390000  0.09960000  1.0 0.0988006447
H  H364  1  0.40040000  0.62610000  0.18910000  1.0 0.0988006447
H  H365  1  0.18910000  0.40040000  0.62610000  1.0 0.0988006447
H  H366  1  0.62610000  0.18910000  0.40040000  1.0 0.0988006447
H  H367  1  0.12610000  0.90040000  0.68910000  1.0 0.0988006447
H  H368  1  0.90040000  0.68910000  0.12610000  1.0 0.0988006447
H  H369  1  0.68910000  0.12610000  0.90040000  1.0 0.0988006447
H  H370  1  0.59960000  0.37390000  0.81090000  1.0 0.0988006447
H  H371  1  0.81090000  0.59960000  0.37390000  1.0 0.0988006447
H  H372  1  0.37390000  0.81090000  0.59960000  1.0 0.0988006447
H  H373  1  0.78700000  0.08910000  0.19890000  1.0 0.1289424074
H  H374  1  0.08910000  0.19890000  0.78700000  1.0 0.1289424074
H  H375  1  0.19890000  0.78700000  0.08910000  1.0 0.1289424074
H  H376  1  0.41090000  0.71300000  0.30110000  1.0 0.1289424074
H  H377  1  0.30110000  0.41090000  0.71300000  1.0 0.1289424074
H  H378  1  0.71300000  0.30110000  0.41090000  1.0 0.1289424074
H  H379  1  0.21300000  0.91090000  0.80110000  1.0 0.1289424074
H  H380  1  0.91090000  0.80110000  0.21300000  1.0 0.1289424074
H  H381  1  0.80110000  0.21300000  0.91090000  1.0 0.1289424074
H  H382  1  0.58910000  0.28700000  0.69890000  1.0 0.1289424074
H  H383  1  0.69890000  0.58910000  0.28700000  1.0 0.1289424074
H  H384  1  0.28700000  0.69890000  0.58910000  1.0 0.1289424074
H  H385  1  0.82880000  0.10670000  0.21150000  1.0 0.1202149947
H  H386  1  0.10670000  0.21150000  0.82880000  1.0 0.1202149947
H  H387  1  0.21150000  0.82880000  0.10670000  1.0 0.1202149947
H  H388  1  0.39330000  0.67120000  0.28850000  1.0 0.1202149947
H  H389  1  0.28850000  0.39330000  0.67120000  1.0 0.1202149947
H  H390  1  0.67120000  0.28850000  0.39330000  1.0 0.1202149947
H  H391  1  0.17120000  0.89330000  0.78850000  1.0 0.1202149947
H  H392  1  0.89330000  0.78850000  0.17120000  1.0 0.1202149947
H  H393  1  0.78850000  0.17120000  0.89330000  1.0 0.1202149947
H  H394  1  0.60670000  0.32880000  0.71150000  1.0 0.1202149947
H  H395  1  0.71150000  0.60670000  0.32880000  1.0 0.1202149947
H  H396  1  0.32880000  0.71150000  0.60670000  1.0 0.1202149947
H  H397  1  0.77910000  0.12850000  0.22860000  1.0 0.1289424074
H  H398  1  0.12850000  0.22860000  0.77910000  1.0 0.1289424074
H  H399  1  0.22860000  0.77910000  0.12850000  1.0 0.1289424074
H  H400  1  0.37150000  0.72090000  0.27140000  1.0 0.1289424074
H  H401  1  0.27140000  0.37150000  0.72090000  1.0 0.1289424074
H  H402  1  0.72090000  0.27140000  0.37150000  1.0 0.1289424074
H  H403  1  0.22090000  0.87150000  0.77140000  1.0 0.1289424074
H  H404  1  0.87150000  0.77140000  0.22090000  1.0 0.1289424074
H  H405  1  0.77140000  0.22090000  0.87150000  1.0 0.1289424074
H  H406  1  0.62850000  0.27910000  0.72860000  1.0 0.1289424074
H  H407  1  0.72860000  0.62850000  0.27910000  1.0 0.1289424074
H  H408  1  0.27910000  0.72860000  0.62850000  1.0 0.1289424074
H  H409  1  0.69370000  0.00060000  0.32250000  1.0 0.1289424074
H  H410  1  0.00060000  0.32250000  0.69370000  1.0 0.1289424074
H  H411  1  0.32250000  0.69370000  0.00060000  1.0 0.1289424074
H  H412  1  0.49940000  0.80630000  0.17750000  1.0 0.1289424074
H  H413  1  0.17750000  0.49940000  0.80630000  1.0 0.1289424074
H  H414  1  0.80630000  0.17750000  0.49940000  1.0 0.1289424074
H  H415  1  0.30630000  0.99940000  0.67750000  1.0 0.1289424074
H  H416  1  0.99940000  0.67750000  0.30630000  1.0 0.1289424074
H  H417  1  0.67750000  0.30630000  0.99940000  1.0 0.1289424074
H  H418  1  0.50060000  0.19370000  0.82250000  1.0 0.1289424074
H  H419  1  0.82250000  0.50060000  0.19370000  1.0 0.1289424074
H  H420  1  0.19370000  0.82250000  0.50060000  1.0 0.1289424074
H  H421  1  0.71350000  0.98220000  0.36820000  1.0 0.1289424074
H  H422  1  0.98220000  0.36820000  0.71350000  1.0 0.1289424074
H  H423  1  0.36820000  0.71350000  0.98220000  1.0 0.1289424074
H  H424  1  0.51780000  0.78650000  0.13180000  1.0 0.1289424074
H  H425  1  0.13180000  0.51780000  0.78650000  1.0 0.1289424074
H  H426  1  0.78650000  0.13180000  0.51780000  1.0 0.1289424074
H  H427  1  0.28650000  0.01780000  0.63180000  1.0 0.1289424074
H  H428  1  0.01780000  0.63180000  0.28650000  1.0 0.1289424074
H  H429  1  0.63180000  0.28650000  0.01780000  1.0 0.1289424074
H  H430  1  0.48220000  0.21350000  0.86820000  1.0 0.1289424074
H  H431  1  0.86820000  0.48220000  0.21350000  1.0 0.1289424074
H  H432  1  0.21350000  0.86820000  0.48220000  1.0 0.1289424074
H  H433  1  0.72590000  0.95380000  0.32750000  1.0 0.1399860271
H  H434  1  0.95380000  0.32750000  0.72590000  1.0 0.1399860271
H  H435  1  0.32750000  0.72590000  0.95380000  1.0 0.1399860271
H  H436  1  0.54620000  0.77410000  0.17250000  1.0 0.1399860271
H  H437  1  0.17250000  0.54620000  0.77410000  1.0 0.1399860271
H  H438  1  0.77410000  0.17250000  0.54620000  1.0 0.1399860271
H  H439  1  0.27410000  0.04620000  0.67250000  1.0 0.1399860271
H  H440  1  0.04620000  0.67250000  0.27410000  1.0 0.1399860271
H  H441  1  0.67250000  0.27410000  0.04620000  1.0 0.1399860271
H  H442  1  0.45380000  0.22590000  0.82750000  1.0 0.1399860271
H  H443  1  0.82750000  0.45380000  0.22590000  1.0 0.1399860271
H  H444  1  0.22590000  0.82750000  0.45380000  1.0 0.1399860271
H  H445  1  0.86610000  0.00780000  0.38500000  1.0 0.1289424074
H  H446  1  0.00780000  0.38500000  0.86610000  1.0 0.1289424074
H  H447  1  0.38500000  0.86610000  0.00780000  1.0 0.1289424074
H  H448  1  0.49220000  0.63390000  0.11500000  1.0 0.1289424074
H  H449  1  0.11500000  0.49220000  0.63390000  1.0 0.1289424074
H  H450  1  0.63390000  0.11500000  0.49220000  1.0 0.1289424074
H  H451  1  0.13390000  0.99220000  0.61500000  1.0 0.1289424074
H  H452  1  0.99220000  0.61500000  0.13390000  1.0 0.1289424074
H  H453  1  0.61500000  0.13390000  0.99220000  1.0 0.1289424074
H  H454  1  0.50780000  0.36610000  0.88500000  1.0 0.1289424074
H  H455  1  0.88500000  0.50780000  0.36610000  1.0 0.1289424074
H  H456  1  0.36610000  0.88500000  0.50780000  1.0 0.1289424074
H  H457  1  0.89220000  0.03980000  0.34640000  1.0 0.1289424074
H  H458  1  0.03980000  0.34640000  0.89220000  1.0 0.1289424074
H  H459  1  0.34640000  0.89220000  0.03980000  1.0 0.1289424074
H  H460  1  0.46020000  0.60780000  0.15360000  1.0 0.1289424074
H  H461  1  0.15360000  0.46020000  0.60780000  1.0 0.1289424074
H  H462  1  0.60780000  0.15360000  0.46020000  1.0 0.1289424074
H  H463  1  0.10780000  0.96020000  0.65360000  1.0 0.1289424074
H  H464  1  0.96020000  0.65360000  0.10780000  1.0 0.1289424074
H  H465  1  0.65360000  0.10780000  0.96020000  1.0 0.1289424074
H  H466  1  0.53980000  0.39220000  0.84640000  1.0 0.1289424074
H  H467  1  0.84640000  0.53980000  0.39220000  1.0 0.1289424074
H  H468  1  0.39220000  0.84640000  0.53980000  1.0 0.1289424074
H  H469  1  0.89610000  0.98780000  0.34320000  1.0 0.1399860271
H  H470  1  0.98780000  0.34320000  0.89610000  1.0 0.1399860271
H  H471  1  0.34320000  0.89610000  0.98780000  1.0 0.1399860271
H  H472  1  0.51220000  0.60390000  0.15680000  1.0 0.1399860271
H  H473  1  0.15680000  0.51220000  0.60390000  1.0 0.1399860271
H  H474  1  0.60390000  0.15680000  0.51220000  1.0 0.1399860271
H  H475  1  0.10390000  0.01220000  0.65680000  1.0 0.1399860271
H  H476  1  0.01220000  0.65680000  0.10390000  1.0 0.1399860271
H  H477  1  0.65680000  0.10390000  0.01220000  1.0 0.1399860271
H  H478  1  0.48780000  0.39610000  0.84320000  1.0 0.1399860271
H  H479  1  0.84320000  0.48780000  0.39610000  1.0 0.1399860271
H  H480  1  0.39610000  0.84320000  0.48780000  1.0 0.1399860271
H  H481  1  0.70410000  0.99290000  0.47880000  1.0 0.0988006447
H  H482  1  0.99290000  0.47880000  0.70410000  1.0 0.0988006447
H  H483  1  0.47880000  0.70410000  0.99290000  1.0 0.0988006447
H  H484  1  0.50710000  0.79590000  0.02120000  1.0 0.0988006447
H  H485  1  0.02120000  0.50710000  0.79590000  1.0 0.0988006447
H  H486  1  0.79590000  0.02120000  0.50710000  1.0 0.0988006447
H  H487  1  0.29590000  0.00710000  0.52120000  1.0 0.0988006447
H  H488  1  0.00710000  0.52120000  0.29590000  1.0 0.0988006447
H  H489  1  0.52120000  0.29590000  0.00710000  1.0 0.0988006447
H  H490  1  0.49290000  0.20410000  0.97880000  1.0 0.0988006447
H  H491  1  0.97880000  0.49290000  0.20410000  1.0 0.0988006447
H  H492  1  0.20410000  0.97880000  0.49290000  1.0 0.0988006447
H  H493  1  0.67980000  0.94800000  0.54290000  1.0 0.1108265549
H  H494  1  0.94800000  0.54290000  0.67980000  1.0 0.1108265549
H  H495  1  0.54290000  0.67980000  0.94800000  1.0 0.1108265549
H  H496  1  0.55200000  0.82020000  0.95710000  1.0 0.1108265549
H  H497  1  0.95710000  0.55200000  0.82020000  1.0 0.1108265549
H  H498  1  0.82020000  0.95710000  0.55200000  1.0 0.1108265549
H  H499  1  0.32020000  0.05200000  0.45710000  1.0 0.1108265549
H  H500  1  0.05200000  0.45710000  0.32020000  1.0 0.1108265549
H  H501  1  0.45710000  0.32020000  0.05200000  1.0 0.1108265549
H  H502  1  0.44800000  0.17980000  0.04290000  1.0 0.1108265549
H  H503  1  0.04290000  0.44800000  0.17980000  1.0 0.1108265549
H  H504  1  0.17980000  0.04290000  0.44800000  1.0 0.1108265549
H  H505  1  0.70970000  0.87180000  0.55590000  1.0 0.1108265549
H  H506  1  0.87180000  0.55590000  0.70970000  1.0 0.1108265549
H  H507  1  0.55590000  0.70970000  0.87180000  1.0 0.1108265549
H  H508  1  0.62820000  0.79030000  0.94410000  1.0 0.1108265549
H  H509  1  0.94410000  0.62820000  0.79030000  1.0 0.1108265549
H  H510  1  0.79030000  0.94410000  0.62820000  1.0 0.1108265549
H  H511  1  0.29030000  0.12820000  0.44410000  1.0 0.1108265549
H  H512  1  0.12820000  0.44410000  0.29030000  1.0 0.1108265549
H  H513  1  0.44410000  0.29030000  0.12820000  1.0 0.1108265549
H  H514  1  0.37180000  0.20970000  0.05590000  1.0 0.1108265549
H  H515  1  0.05590000  0.37180000  0.20970000  1.0 0.1108265549
H  H516  1  0.20970000  0.05590000  0.37180000  1.0 0.1108265549
H  H517  1  0.79820000  0.88890000  0.44100000  1.0 0.1202149947
H  H518  1  0.88890000  0.44100000  0.79820000  1.0 0.1202149947
H  H519  1  0.44100000  0.79820000  0.88890000  1.0 0.1202149947
H  H520  1  0.61110000  0.70180000  0.05900000  1.0 0.1202149947
H  H521  1  0.05900000  0.61110000  0.70180000  1.0 0.1202149947
H  H522  1  0.70180000  0.05900000  0.61110000  1.0 0.1202149947
H  H523  1  0.20180000  0.11110000  0.55900000  1.0 0.1202149947
H  H524  1  0.11110000  0.55900000  0.20180000  1.0 0.1202149947
H  H525  1  0.55900000  0.20180000  0.11110000  1.0 0.1202149947
H  H526  1  0.38890000  0.29820000  0.94100000  1.0 0.1202149947
H  H527  1  0.94100000  0.38890000  0.29820000  1.0 0.1202149947
H  H528  1  0.29820000  0.94100000  0.38890000  1.0 0.1202149947
H  H529  1  0.69110000  0.06150000  0.28280000  1.0 0.0902054147
H  H530  1  0.06150000  0.28280000  0.69110000  1.0 0.0902054147
H  H531  1  0.28280000  0.69110000  0.06150000  1.0 0.0902054147
H  H532  1  0.43850000  0.80890000  0.21720000  1.0 0.0902054147
H  H533  1  0.21720000  0.43850000  0.80890000  1.0 0.0902054147
H  H534  1  0.80890000  0.21720000  0.43850000  1.0 0.0902054147
H  H535  1  0.30890000  0.93850000  0.71720000  1.0 0.0902054147
H  H536  1  0.93850000  0.71720000  0.30890000  1.0 0.0902054147
H  H537  1  0.71720000  0.30890000  0.93850000  1.0 0.0902054147
H  H538  1  0.56150000  0.19110000  0.78280000  1.0 0.0902054147
H  H539  1  0.78280000  0.56150000  0.19110000  1.0 0.0902054147
H  H540  1  0.19110000  0.78280000  0.56150000  1.0 0.0902054147
H  H541  1  0.71810000  0.08190000  0.23660000  1.0 0.1108265549
H  H542  1  0.08190000  0.23660000  0.71810000  1.0 0.1108265549
H  H543  1  0.23660000  0.71810000  0.08190000  1.0 0.1108265549
H  H544  1  0.41810000  0.78190000  0.26340000  1.0 0.1108265549
H  H545  1  0.26340000  0.41810000  0.78190000  1.0 0.1108265549
H  H546  1  0.78190000  0.26340000  0.41810000  1.0 0.1108265549
H  H547  1  0.28190000  0.91810000  0.76340000  1.0 0.1108265549
H  H548  1  0.91810000  0.76340000  0.28190000  1.0 0.1108265549
H  H549  1  0.76340000  0.28190000  0.91810000  1.0 0.1108265549
H  H550  1  0.58190000  0.21810000  0.73660000  1.0 0.1108265549
H  H551  1  0.73660000  0.58190000  0.21810000  1.0 0.1108265549
H  H552  1  0.21810000  0.73660000  0.58190000  1.0 0.1108265549
H  H553  1  0.63570000  0.08130000  0.24820000  1.0 0.1289424074
H  H554  1  0.08130000  0.24820000  0.63570000  1.0 0.1289424074
H  H555  1  0.24820000  0.63570000  0.08130000  1.0 0.1289424074
H  H556  1  0.41870000  0.86430000  0.25180000  1.0 0.1289424074
H  H557  1  0.25180000  0.41870000  0.86430000  1.0 0.1289424074
H  H558  1  0.86430000  0.25180000  0.41870000  1.0 0.1289424074
H  H559  1  0.36430000  0.91870000  0.75180000  1.0 0.1289424074
H  H560  1  0.91870000  0.75180000  0.36430000  1.0 0.1289424074
H  H561  1  0.75180000  0.36430000  0.91870000  1.0 0.1289424074
H  H562  1  0.58130000  0.13570000  0.74820000  1.0 0.1289424074
H  H563  1  0.74820000  0.58130000  0.13570000  1.0 0.1289424074
H  H564  1  0.13570000  0.74820000  0.58130000  1.0 0.1289424074
H  H565  1  0.54390000  0.01200000  0.22330000  1.0 0.1202149947
H  H566  1  0.01200000  0.22330000  0.54390000  1.0 0.1202149947
H  H567  1  0.22330000  0.54390000  0.01200000  1.0 0.1202149947
H  H568  1  0.48800000  0.95610000  0.27670000  1.0 0.1202149947
H  H569  1  0.27670000  0.48800000  0.95610000  1.0 0.1202149947
H  H570  1  0.95610000  0.27670000  0.48800000  1.0 0.1202149947
H  H571  1  0.45610000  0.98800000  0.77670000  1.0 0.1202149947
H  H572  1  0.98800000  0.77670000  0.45610000  1.0 0.1202149947
H  H573  1  0.77670000  0.45610000  0.98800000  1.0 0.1202149947
H  H574  1  0.51200000  0.04390000  0.72330000  1.0 0.1202149947
H  H575  1  0.72330000  0.51200000  0.04390000  1.0 0.1202149947
H  H576  1  0.04390000  0.72330000  0.51200000  1.0 0.1202149947
H  H577  1  0.60020000  0.95190000  0.21030000  1.0 0.1108265549
H  H578  1  0.95190000  0.21030000  0.60020000  1.0 0.1108265549
H  H579  1  0.21030000  0.60020000  0.95190000  1.0 0.1108265549
H  H580  1  0.54810000  0.89980000  0.28970000  1.0 0.1108265549
H  H581  1  0.28970000  0.54810000  0.89980000  1.0 0.1108265549
H  H582  1  0.89980000  0.28970000  0.54810000  1.0 0.1108265549
H  H583  1  0.39980000  0.04810000  0.78970000  1.0 0.1108265549
H  H584  1  0.04810000  0.78970000  0.39980000  1.0 0.1108265549
H  H585  1  0.78970000  0.39980000  0.04810000  1.0 0.1108265549
H  H586  1  0.45190000  0.10020000  0.71030000  1.0 0.1108265549
H  H587  1  0.71030000  0.45190000  0.10020000  1.0 0.1108265549
H  H588  1  0.10020000  0.71030000  0.45190000  1.0 0.1108265549
H  H589  1  0.67620000  0.95430000  0.21740000  1.0 0.1399860271
H  H590  1  0.95430000  0.21740000  0.67620000  1.0 0.1399860271
H  H591  1  0.21740000  0.67620000  0.95430000  1.0 0.1399860271
H  H592  1  0.54570000  0.82380000  0.28260000  1.0 0.1399860271
H  H593  1  0.28260000  0.54570000  0.82380000  1.0 0.1399860271
H  H594  1  0.82380000  0.28260000  0.54570000  1.0 0.1399860271
H  H595  1  0.32380000  0.04570000  0.78260000  1.0 0.1399860271
H  H596  1  0.04570000  0.78260000  0.32380000  1.0 0.1399860271
H  H597  1  0.78260000  0.32380000  0.04570000  1.0 0.1399860271
H  H598  1  0.45430000  0.17620000  0.71740000  1.0 0.1399860271
H  H599  1  0.71740000  0.45430000  0.17620000  1.0 0.1399860271
H  H600  1  0.17620000  0.71740000  0.45430000  1.0 0.1399860271
H  H601  1  0.79030000  0.93390000  0.37330000  1.0 0.0902054147
H  H602  1  0.93390000  0.37330000  0.79030000  1.0 0.0902054147
H  H603  1  0.37330000  0.79030000  0.93390000  1.0 0.0902054147
H  H604  1  0.56610000  0.70970000  0.12670000  1.0 0.0902054147
H  H605  1  0.12670000  0.56610000  0.70970000  1.0 0.0902054147
H  H606  1  0.70970000  0.12670000  0.56610000  1.0 0.0902054147
H  H607  1  0.20970000  0.06610000  0.62670000  1.0 0.0902054147
H  H608  1  0.06610000  0.62670000  0.20970000  1.0 0.0902054147
H  H609  1  0.62670000  0.20970000  0.06610000  1.0 0.0902054147
H  H610  1  0.43390000  0.29030000  0.87330000  1.0 0.0902054147
H  H611  1  0.87330000  0.43390000  0.29030000  1.0 0.0902054147
H  H612  1  0.29030000  0.87330000  0.43390000  1.0 0.0902054147
H  H613  1  0.83020000  0.95220000  0.38890000  1.0 0.1202149947
H  H614  1  0.95220000  0.38890000  0.83020000  1.0 0.1202149947
H  H615  1  0.38890000  0.83020000  0.95220000  1.0 0.1202149947
H  H616  1  0.54780000  0.66980000  0.11110000  1.0 0.1202149947
H  H617  1  0.11110000  0.54780000  0.66980000  1.0 0.1202149947
H  H618  1  0.66980000  0.11110000  0.54780000  1.0 0.1202149947
H  H619  1  0.16980000  0.04780000  0.61110000  1.0 0.1202149947
H  H620  1  0.04780000  0.61110000  0.16980000  1.0 0.1202149947
H  H621  1  0.61110000  0.16980000  0.04780000  1.0 0.1202149947
H  H622  1  0.45220000  0.33020000  0.88890000  1.0 0.1202149947
H  H623  1  0.88890000  0.45220000  0.33020000  1.0 0.1202149947
H  H624  1  0.33020000  0.88890000  0.45220000  1.0 0.1202149947
H  H625  1  0.36170000  0.77230000  0.17210000  1.0 0.1202149947
H  H626  1  0.77230000  0.17210000  0.36170000  1.0 0.1202149947
H  H627  1  0.17210000  0.36170000  0.77230000  1.0 0.1202149947
H  H628  1  0.72770000  0.13830000  0.32790000  1.0 0.1202149947
H  H629  1  0.32790000  0.72770000  0.13830000  1.0 0.1202149947
H  H630  1  0.13830000  0.32790000  0.72770000  1.0 0.1202149947
H  H631  1  0.63830000  0.22770000  0.82790000  1.0 0.1202149947
H  H632  1  0.22770000  0.82790000  0.63830000  1.0 0.1202149947
H  H633  1  0.82790000  0.63830000  0.22770000  1.0 0.1202149947
H  H634  1  0.27230000  0.86170000  0.67210000  1.0 0.1202149947
H  H635  1  0.67210000  0.27230000  0.86170000  1.0 0.1202149947
H  H636  1  0.86170000  0.67210000  0.27230000  1.0 0.1202149947
H  H637  1  0.41530000  0.77720000  0.10760000  1.0 0.1108265549
H  H638  1  0.77720000  0.10760000  0.41530000  1.0 0.1108265549
H  H639  1  0.10760000  0.41530000  0.77720000  1.0 0.1108265549
H  H640  1  0.72280000  0.08470000  0.39240000  1.0 0.1108265549
H  H641  1  0.39240000  0.72280000  0.08470000  1.0 0.1108265549
H  H642  1  0.08470000  0.39240000  0.72280000  1.0 0.1108265549
H  H643  1  0.58470000  0.22280000  0.89240000  1.0 0.1108265549
H  H644  1  0.22280000  0.89240000  0.58470000  1.0 0.1108265549
H  H645  1  0.89240000  0.58470000  0.22280000  1.0 0.1108265549
H  H646  1  0.27720000  0.91530000  0.60760000  1.0 0.1108265549
H  H647  1  0.60760000  0.27720000  0.91530000  1.0 0.1108265549
H  H648  1  0.91530000  0.60760000  0.27720000  1.0 0.1108265549
H  H649  1  0.92930000  0.62890000  0.61670000  1.0 0.1202149947
H  H650  1  0.62890000  0.61670000  0.92930000  1.0 0.1202149947
H  H651  1  0.61670000  0.92930000  0.62890000  1.0 0.1202149947
H  H652  1  0.87110000  0.57070000  0.88330000  1.0 0.1202149947
H  H653  1  0.88330000  0.87110000  0.57070000  1.0 0.1202149947
H  H654  1  0.57070000  0.88330000  0.87110000  1.0 0.1202149947
H  H655  1  0.07070000  0.37110000  0.38330000  1.0 0.1202149947
H  H656  1  0.37110000  0.38330000  0.07070000  1.0 0.1202149947
H  H657  1  0.38330000  0.07070000  0.37110000  1.0 0.1202149947
H  H658  1  0.12890000  0.42930000  0.11670000  1.0 0.1202149947
H  H659  1  0.11670000  0.12890000  0.42930000  1.0 0.1202149947
H  H660  1  0.42930000  0.11670000  0.12890000  1.0 0.1202149947
H  H661  1  0.94700000  0.66130000  0.64340000  1.0 0.1399860271
H  H662  1  0.66130000  0.64340000  0.94700000  1.0 0.1399860271
H  H663  1  0.64340000  0.94700000  0.66130000  1.0 0.1399860271
H  H664  1  0.83870000  0.55300000  0.85660000  1.0 0.1399860271
H  H665  1  0.85660000  0.83870000  0.55300000  1.0 0.1399860271
H  H666  1  0.55300000  0.85660000  0.83870000  1.0 0.1399860271
H  H667  1  0.05300000  0.33870000  0.35660000  1.0 0.1399860271
H  H668  1  0.33870000  0.35660000  0.05300000  1.0 0.1399860271
H  H669  1  0.35660000  0.05300000  0.33870000  1.0 0.1399860271
H  H670  1  0.16130000  0.44700000  0.14340000  1.0 0.1399860271
H  H671  1  0.14340000  0.16130000  0.44700000  1.0 0.1399860271
H  H672  1  0.44700000  0.14340000  0.16130000  1.0 0.1399860271
H  H673  1  0.93510000  0.67890000  0.59420000  1.0 0.1289424074
H  H674  1  0.67890000  0.59420000  0.93510000  1.0 0.1289424074
H  H675  1  0.59420000  0.93510000  0.67890000  1.0 0.1289424074
H  H676  1  0.82110000  0.56490000  0.90580000  1.0 0.1289424074
H  H677  1  0.90580000  0.82110000  0.56490000  1.0 0.1289424074
H  H678  1  0.56490000  0.90580000  0.82110000  1.0 0.1289424074
H  H679  1  0.06490000  0.32110000  0.40580000  1.0 0.1289424074
H  H680  1  0.32110000  0.40580000  0.06490000  1.0 0.1289424074
H  H681  1  0.40580000  0.06490000  0.32110000  1.0 0.1289424074
H  H682  1  0.17890000  0.43510000  0.09420000  1.0 0.1289424074
H  H683  1  0.09420000  0.17890000  0.43510000  1.0 0.1289424074
H  H684  1  0.43510000  0.09420000  0.17890000  1.0 0.1289424074
H  H685  1  0.84870000  0.69140000  0.70260000  1.0 0.1108265549
H  H686  1  0.69140000  0.70260000  0.84870000  1.0 0.1108265549
H  H687  1  0.70260000  0.84870000  0.69140000  1.0 0.1108265549
H  H688  1  0.80860000  0.65130000  0.79740000  1.0 0.1108265549
H  H689  1  0.79740000  0.80860000  0.65130000  1.0 0.1108265549
H  H690  1  0.65130000  0.79740000  0.80860000  1.0 0.1108265549
H  H691  1  0.15130000  0.30860000  0.29740000  1.0 0.1108265549
H  H692  1  0.30860000  0.29740000  0.15130000  1.0 0.1108265549
H  H693  1  0.29740000  0.15130000  0.30860000  1.0 0.1108265549
H  H694  1  0.19140000  0.34870000  0.20260000  1.0 0.1108265549
H  H695  1  0.20260000  0.19140000  0.34870000  1.0 0.1108265549
H  H696  1  0.34870000  0.20260000  0.19140000  1.0 0.1108265549
H  H697  1  0.88830000  0.65020000  0.70540000  1.0 0.1289424074
H  H698  1  0.65020000  0.70540000  0.88830000  1.0 0.1289424074
H  H699  1  0.70540000  0.88830000  0.65020000  1.0 0.1289424074
H  H700  1  0.84980000  0.61170000  0.79460000  1.0 0.1289424074
H  H701  1  0.79460000  0.84980000  0.61170000  1.0 0.1289424074
H  H702  1  0.61170000  0.79460000  0.84980000  1.0 0.1289424074
H  H703  1  0.11170000  0.34980000  0.29460000  1.0 0.1289424074
H  H704  1  0.34980000  0.29460000  0.11170000  1.0 0.1289424074
H  H705  1  0.29460000  0.11170000  0.34980000  1.0 0.1289424074
H  H706  1  0.15020000  0.38830000  0.20540000  1.0 0.1289424074
H  H707  1  0.20540000  0.15020000  0.38830000  1.0 0.1289424074
H  H708  1  0.38830000  0.20540000  0.15020000  1.0 0.1289424074
H  H709  1  0.84110000  0.64350000  0.69390000  1.0 0.1289424074
H  H710  1  0.64350000  0.69390000  0.84110000  1.0 0.1289424074
H  H711  1  0.69390000  0.84110000  0.64350000  1.0 0.1289424074
H  H712  1  0.85650000  0.65890000  0.80610000  1.0 0.1289424074
H  H713  1  0.80610000  0.85650000  0.65890000  1.0 0.1289424074
H  H714  1  0.65890000  0.80610000  0.85650000  1.0 0.1289424074
H  H715  1  0.15890000  0.35650000  0.30610000  1.0 0.1289424074
H  H716  1  0.35650000  0.30610000  0.15890000  1.0 0.1289424074
H  H717  1  0.30610000  0.15890000  0.35650000  1.0 0.1289424074
H  H718  1  0.14350000  0.34110000  0.19390000  1.0 0.1289424074
H  H719  1  0.19390000  0.14350000  0.34110000  1.0 0.1289424074
H  H720  1  0.34110000  0.19390000  0.14350000  1.0 0.1289424074
H  H721  1  0.81330000  0.75110000  0.64680000  1.0 0.0988006447
H  H722  1  0.75110000  0.64680000  0.81330000  1.0 0.0988006447
H  H723  1  0.64680000  0.81330000  0.75110000  1.0 0.0988006447
H  H724  1  0.74890000  0.68670000  0.85320000  1.0 0.0988006447
H  H725  1  0.85320000  0.74890000  0.68670000  1.0 0.0988006447
H  H726  1  0.68670000  0.85320000  0.74890000  1.0 0.0988006447
H  H727  1  0.18670000  0.24890000  0.35320000  1.0 0.0988006447
H  H728  1  0.24890000  0.35320000  0.18670000  1.0 0.0988006447
H  H729  1  0.35320000  0.18670000  0.24890000  1.0 0.0988006447
H  H730  1  0.25110000  0.31330000  0.14680000  1.0 0.0988006447
H  H731  1  0.14680000  0.25110000  0.31330000  1.0 0.0988006447
H  H732  1  0.31330000  0.14680000  0.25110000  1.0 0.0988006447
H  H733  1  0.79430000  0.70460000  0.65350000  1.0 0.1289424074
H  H734  1  0.70460000  0.65350000  0.79430000  1.0 0.1289424074
H  H735  1  0.65350000  0.79430000  0.70460000  1.0 0.1289424074
H  H736  1  0.79540000  0.70570000  0.84650000  1.0 0.1289424074
H  H737  1  0.84650000  0.79540000  0.70570000  1.0 0.1289424074
H  H738  1  0.70570000  0.84650000  0.79540000  1.0 0.1289424074
H  H739  1  0.20570000  0.29540000  0.34650000  1.0 0.1289424074
H  H740  1  0.29540000  0.34650000  0.20570000  1.0 0.1289424074
H  H741  1  0.34650000  0.20570000  0.29540000  1.0 0.1289424074
H  H742  1  0.20460000  0.29430000  0.15350000  1.0 0.1289424074
H  H743  1  0.15350000  0.20460000  0.29430000  1.0 0.1289424074
H  H744  1  0.29430000  0.15350000  0.20460000  1.0 0.1289424074
H  H745  1  0.79300000  0.73730000  0.60710000  1.0 0.1594025251
H  H746  1  0.73730000  0.60710000  0.79300000  1.0 0.1594025251
H  H747  1  0.60710000  0.79300000  0.73730000  1.0 0.1594025251
H  H748  1  0.76270000  0.70700000  0.89290000  1.0 0.1594025251
H  H749  1  0.89290000  0.76270000  0.70700000  1.0 0.1594025251
H  H750  1  0.70700000  0.89290000  0.76270000  1.0 0.1594025251
H  H751  1  0.20700000  0.26270000  0.39290000  1.0 0.1594025251
H  H752  1  0.26270000  0.39290000  0.20700000  1.0 0.1594025251
H  H753  1  0.39290000  0.20700000  0.26270000  1.0 0.1594025251
H  H754  1  0.23730000  0.29300000  0.10710000  1.0 0.1594025251
H  H755  1  0.10710000  0.23730000  0.29300000  1.0 0.1594025251
H  H756  1  0.29300000  0.10710000  0.23730000  1.0 0.1594025251
H  H757  1  0.55830000  0.20180000  0.10400000  1.0 0.1289424074
H  H758  1  0.20180000  0.10400000  0.55830000  1.0 0.1289424074
H  H759  1  0.10400000  0.55830000  0.20180000  1.0 0.1289424074
H  H760  1  0.29820000  0.94170000  0.39600000  1.0 0.1289424074
H  H761  1  0.39600000  0.29820000  0.94170000  1.0 0.1289424074
H  H762  1  0.94170000  0.39600000  0.29820000  1.0 0.1289424074
H  H763  1  0.44170000  0.79820000  0.89600000  1.0 0.1289424074
H  H764  1  0.79820000  0.89600000  0.44170000  1.0 0.1289424074
H  H765  1  0.89600000  0.44170000  0.79820000  1.0 0.1289424074
H  H766  1  0.70180000  0.05830000  0.60400000  1.0 0.1289424074
H  H767  1  0.60400000  0.70180000  0.05830000  1.0 0.1289424074
H  H768  1  0.05830000  0.60400000  0.70180000  1.0 0.1289424074
H  H769  1  0.50240000  0.19790000  0.99280000  1.0 0.0902054147
H  H770  1  0.19790000  0.99280000  0.50240000  1.0 0.0902054147
H  H771  1  0.99280000  0.50240000  0.19790000  1.0 0.0902054147
H  H772  1  0.30210000  0.99760000  0.50720000  1.0 0.0902054147
H  H773  1  0.50720000  0.30210000  0.99760000  1.0 0.0902054147
H  H774  1  0.99760000  0.50720000  0.30210000  1.0 0.0902054147
H  H775  1  0.49760000  0.80210000  0.00720000  1.0 0.0902054147
H  H776  1  0.80210000  0.00720000  0.49760000  1.0 0.0902054147
H  H777  1  0.00720000  0.49760000  0.80210000  1.0 0.0902054147
H  H778  1  0.69790000  0.00240000  0.49280000  1.0 0.0902054147
H  H779  1  0.49280000  0.69790000  0.00240000  1.0 0.0902054147
H  H780  1  0.00240000  0.49280000  0.69790000  1.0 0.0902054147
H  H781  1  0.43720000  0.18710000  0.03580000  1.0 0.1108265549
H  H782  1  0.18710000  0.03580000  0.43720000  1.0 0.1108265549
H  H783  1  0.03580000  0.43720000  0.18710000  1.0 0.1108265549
H  H784  1  0.31290000  0.06280000  0.46420000  1.0 0.1108265549
H  H785  1  0.46420000  0.31290000  0.06280000  1.0 0.1108265549
H  H786  1  0.06280000  0.46420000  0.31290000  1.0 0.1108265549
H  H787  1  0.56280000  0.81290000  0.96420000  1.0 0.1108265549
H  H788  1  0.81290000  0.96420000  0.56280000  1.0 0.1108265549
H  H789  1  0.96420000  0.56280000  0.81290000  1.0 0.1108265549
H  H790  1  0.68710000  0.93720000  0.53580000  1.0 0.1108265549
H  H791  1  0.53580000  0.68710000  0.93720000  1.0 0.1108265549
H  H792  1  0.93720000  0.53580000  0.68710000  1.0 0.1108265549
H  H793  1  0.43060000  0.17670000  0.11430000  1.0 0.082991597
H  H794  1  0.17670000  0.11430000  0.43060000  1.0 0.082991597
H  H795  1  0.11430000  0.43060000  0.17670000  1.0 0.082991597
H  H796  1  0.32330000  0.06940000  0.38570000  1.0 0.082991597
H  H797  1  0.38570000  0.32330000  0.06940000  1.0 0.082991597
H  H798  1  0.06940000  0.38570000  0.32330000  1.0 0.082991597
H  H799  1  0.56940000  0.82330000  0.88570000  1.0 0.082991597
H  H800  1  0.82330000  0.88570000  0.56940000  1.0 0.082991597
H  H801  1  0.88570000  0.56940000  0.82330000  1.0 0.082991597
H  H802  1  0.67670000  0.93060000  0.61430000  1.0 0.082991597
H  H803  1  0.61430000  0.67670000  0.93060000  1.0 0.082991597
H  H804  1  0.93060000  0.61430000  0.67670000  1.0 0.082991597
C  C1  1  0.65232000  0.09495000  0.12685000  1.0 -0.0198430056
C  C2  1  0.09495000  0.12685000  0.65232000  1.0 -0.0198430056
C  C3  1  0.12685000  0.65232000  0.09495000  1.0 -0.0198430056
C  C4  1  0.40505000  0.84768000  0.37315000  1.0 -0.0198430056
C  C5  1  0.37315000  0.40505000  0.84768000  1.0 -0.0198430056
C  C6  1  0.84768000  0.37315000  0.40505000  1.0 -0.0198430056
C  C7  1  0.34768000  0.90505000  0.87315000  1.0 -0.0198430056
C  C8  1  0.90505000  0.87315000  0.34768000  1.0 -0.0198430056
C  C9  1  0.87315000  0.34768000  0.90505000  1.0 -0.0198430056
C  C10  1  0.59495000  0.15232000  0.62685000  1.0 -0.0198430056
C  C11  1  0.62685000  0.59495000  0.15232000  1.0 -0.0198430056
C  C12  1  0.15232000  0.62685000  0.59495000  1.0 -0.0198430056
C  C13  1  0.69251000  0.06879000  0.11264000  1.0 -0.1303766953
C  C14  1  0.06879000  0.11264000  0.69251000  1.0 -0.1303766953
C  C15  1  0.11264000  0.69251000  0.06879000  1.0 -0.1303766953
C  C16  1  0.43121000  0.80749000  0.38736000  1.0 -0.1303766953
C  C17  1  0.38736000  0.43121000  0.80749000  1.0 -0.1303766953
C  C18  1  0.80749000  0.38736000  0.43121000  1.0 -0.1303766953
C  C19  1  0.30749000  0.93121000  0.88736000  1.0 -0.1303766953
C  C20  1  0.93121000  0.88736000  0.30749000  1.0 -0.1303766953
C  C21  1  0.88736000  0.30749000  0.93121000  1.0 -0.1303766953
C  C22  1  0.56879000  0.19251000  0.61264000  1.0 -0.1303766953
C  C23  1  0.61264000  0.56879000  0.19251000  1.0 -0.1303766953
C  C24  1  0.19251000  0.61264000  0.56879000  1.0 -0.1303766953
C  C25  1  0.69239000  0.03226000  0.09052000  1.0 -0.0816902503
C  C26  1  0.03226000  0.09052000  0.69239000  1.0 -0.0816902503
C  C27  1  0.09052000  0.69239000  0.03226000  1.0 -0.0816902503
C  C28  1  0.46774000  0.80761000  0.40948000  1.0 -0.0816902503
C  C29  1  0.40948000  0.46774000  0.80761000  1.0 -0.0816902503
C  C30  1  0.80761000  0.40948000  0.46774000  1.0 -0.0816902503
C  C31  1  0.30761000  0.96774000  0.90948000  1.0 -0.0816902503
C  C32  1  0.96774000  0.90948000  0.30761000  1.0 -0.0816902503
C  C33  1  0.90948000  0.30761000  0.96774000  1.0 -0.0816902503
C  C34  1  0.53226000  0.19239000  0.59052000  1.0 -0.0816902503
C  C35  1  0.59052000  0.53226000  0.19239000  1.0 -0.0816902503
C  C36  1  0.19239000  0.59052000  0.53226000  1.0 -0.0816902503
C  C37  1  0.65159000  0.02117000  0.08367000  1.0 -0.2099556221
C  C38  1  0.02117000  0.08367000  0.65159000  1.0 -0.2099556221
C  C39  1  0.08367000  0.65159000  0.02117000  1.0 -0.2099556221
C  C40  1  0.47883000  0.84841000  0.41633000  1.0 -0.2099556221
C  C41  1  0.41633000  0.47883000  0.84841000  1.0 -0.2099556221
C  C42  1  0.84841000  0.41633000  0.47883000  1.0 -0.2099556221
C  C43  1  0.34841000  0.97883000  0.91633000  1.0 -0.2099556221
C  C44  1  0.97883000  0.91633000  0.34841000  1.0 -0.2099556221
C  C45  1  0.91633000  0.34841000  0.97883000  1.0 -0.2099556221
C  C46  1  0.52117000  0.15159000  0.58367000  1.0 -0.2099556221
C  C47  1  0.58367000  0.52117000  0.15159000  1.0 -0.2099556221
C  C48  1  0.15159000  0.58367000  0.52117000  1.0 -0.2099556221
C  C49  1  0.61107000  0.04697000  0.09821000  1.0 0.2543112792
C  C50  1  0.04697000  0.09821000  0.61107000  1.0 0.2543112792
C  C51  1  0.09821000  0.61107000  0.04697000  1.0 0.2543112792
C  C52  1  0.45303000  0.88893000  0.40179000  1.0 0.2543112792
C  C53  1  0.40179000  0.45303000  0.88893000  1.0 0.2543112792
C  C54  1  0.88893000  0.40179000  0.45303000  1.0 0.2543112792
C  C55  1  0.38893000  0.95303000  0.90179000  1.0 0.2543112792
C  C56  1  0.95303000  0.90179000  0.38893000  1.0 0.2543112792
C  C57  1  0.90179000  0.38893000  0.95303000  1.0 0.2543112792
C  C58  1  0.54697000  0.11107000  0.59821000  1.0 0.2543112792
C  C59  1  0.59821000  0.54697000  0.11107000  1.0 0.2543112792
C  C60  1  0.11107000  0.59821000  0.54697000  1.0 0.2543112792
C  C61  1  0.61085000  0.08398000  0.12001000  1.0 -0.2649682307
C  C62  1  0.08398000  0.12001000  0.61085000  1.0 -0.2649682307
C  C63  1  0.12001000  0.61085000  0.08398000  1.0 -0.2649682307
C  C64  1  0.41602000  0.88915000  0.37999000  1.0 -0.2649682307
C  C65  1  0.37999000  0.41602000  0.88915000  1.0 -0.2649682307
C  C66  1  0.88915000  0.37999000  0.41602000  1.0 -0.2649682307
C  C67  1  0.38915000  0.91602000  0.87999000  1.0 -0.2649682307
C  C68  1  0.91602000  0.87999000  0.38915000  1.0 -0.2649682307
C  C69  1  0.87999000  0.38915000  0.91602000  1.0 -0.2649682307
C  C70  1  0.58398000  0.11085000  0.62001000  1.0 -0.2649682307
C  C71  1  0.62001000  0.58398000  0.11085000  1.0 -0.2649682307
C  C72  1  0.11085000  0.62001000  0.58398000  1.0 -0.2649682307
C  C73  1  0.65149000  0.13499000  0.15118000  1.0 0.5819508713
C  C74  1  0.13499000  0.15118000  0.65149000  1.0 0.5819508713
C  C75  1  0.15118000  0.65149000  0.13499000  1.0 0.5819508713
C  C76  1  0.36501000  0.84851000  0.34882000  1.0 0.5819508713
C  C77  1  0.34882000  0.36501000  0.84851000  1.0 0.5819508713
C  C78  1  0.84851000  0.34882000  0.36501000  1.0 0.5819508713
C  C79  1  0.34851000  0.86501000  0.84882000  1.0 0.5819508713
C  C80  1  0.86501000  0.84882000  0.34851000  1.0 0.5819508713
C  C81  1  0.84882000  0.34851000  0.86501000  1.0 0.5819508713
C  C82  1  0.63499000  0.15149000  0.65118000  1.0 0.5819508713
C  C83  1  0.65118000  0.63499000  0.15149000  1.0 0.5819508713
C  C84  1  0.15149000  0.65118000  0.63499000  1.0 0.5819508713
C  C85  1  0.46915000  0.01008000  0.11019000  1.0 0.0902054147
C  C86  1  0.01008000  0.11019000  0.46915000  1.0 0.0902054147
C  C87  1  0.11019000  0.46915000  0.01008000  1.0 0.0902054147
C  C88  1  0.48992000  0.03085000  0.38981000  1.0 0.0902054147
C  C89  1  0.38981000  0.48992000  0.03085000  1.0 0.0902054147
C  C90  1  0.03085000  0.38981000  0.48992000  1.0 0.0902054147
C  C91  1  0.53085000  0.98992000  0.88981000  1.0 0.0902054147
C  C92  1  0.98992000  0.88981000  0.53085000  1.0 0.0902054147
C  C93  1  0.88981000  0.53085000  0.98992000  1.0 0.0902054147
C  C94  1  0.51008000  0.96915000  0.61019000  1.0 0.0902054147
C  C95  1  0.61019000  0.51008000  0.96915000  1.0 0.0902054147
C  C96  1  0.96915000  0.61019000  0.51008000  1.0 0.0902054147
C  C97  1  0.43339000  0.99588000  0.09376000  1.0 -0.0495219969
C  C98  1  0.99588000  0.09376000  0.43339000  1.0 -0.0495219969
C  C99  1  0.09376000  0.43339000  0.99588000  1.0 -0.0495219969
C  C100  1  0.50412000  0.06661000  0.40624000  1.0 -0.0495219969
C  C101  1  0.40624000  0.50412000  0.06661000  1.0 -0.0495219969
C  C102  1  0.06661000  0.40624000  0.50412000  1.0 -0.0495219969
C  C103  1  0.56661000  0.00412000  0.90624000  1.0 -0.0495219969
C  C104  1  0.00412000  0.90624000  0.56661000  1.0 -0.0495219969
C  C105  1  0.90624000  0.56661000  0.00412000  1.0 -0.0495219969
C  C106  1  0.49588000  0.93339000  0.59376000  1.0 -0.0495219969
C  C107  1  0.59376000  0.49588000  0.93339000  1.0 -0.0495219969
C  C108  1  0.93339000  0.59376000  0.49588000  1.0 -0.0495219969
C  C109  1  0.42367000  0.01345000  0.04946000  1.0 0.0902054147
C  C110  1  0.01345000  0.04946000  0.42367000  1.0 0.0902054147
C  C111  1  0.04946000  0.42367000  0.01345000  1.0 0.0902054147
C  C112  1  0.48655000  0.07633000  0.45054000  1.0 0.0902054147
C  C113  1  0.45054000  0.48655000  0.07633000  1.0 0.0902054147
C  C114  1  0.07633000  0.45054000  0.48655000  1.0 0.0902054147
C  C115  1  0.57633000  0.98655000  0.95054000  1.0 0.0902054147
C  C116  1  0.98655000  0.95054000  0.57633000  1.0 0.0902054147
C  C117  1  0.95054000  0.57633000  0.98655000  1.0 0.0902054147
C  C118  1  0.51345000  0.92367000  0.54946000  1.0 0.0902054147
C  C119  1  0.54946000  0.51345000  0.92367000  1.0 0.0902054147
C  C120  1  0.92367000  0.54946000  0.51345000  1.0 0.0902054147
C  C121  1  0.45110000  0.04258000  0.02155000  1.0 -0.0393190462
C  C122  1  0.04258000  0.02155000  0.45110000  1.0 -0.0393190462
C  C123  1  0.02155000  0.45110000  0.04258000  1.0 -0.0393190462
C  C124  1  0.45742000  0.04890000  0.47845000  1.0 -0.0393190462
C  C125  1  0.47845000  0.45742000  0.04890000  1.0 -0.0393190462
C  C126  1  0.04890000  0.47845000  0.45742000  1.0 -0.0393190462
C  C127  1  0.54890000  0.95742000  0.97845000  1.0 -0.0393190462
C  C128  1  0.95742000  0.97845000  0.54890000  1.0 -0.0393190462
C  C129  1  0.97845000  0.54890000  0.95742000  1.0 -0.0393190462
C  C130  1  0.54258000  0.95110000  0.52155000  1.0 -0.0393190462
C  C131  1  0.52155000  0.54258000  0.95110000  1.0 -0.0393190462
C  C132  1  0.95110000  0.52155000  0.54258000  1.0 -0.0393190462
C  C133  1  0.52961000  0.06020000  0.10119000  1.0 -0.0601324932
C  C134  1  0.06020000  0.10119000  0.52961000  1.0 -0.0601324932
C  C135  1  0.10119000  0.52961000  0.06020000  1.0 -0.0601324932
C  C136  1  0.43980000  0.97039000  0.39881000  1.0 -0.0601324932
C  C137  1  0.39881000  0.43980000  0.97039000  1.0 -0.0601324932
C  C138  1  0.97039000  0.39881000  0.43980000  1.0 -0.0601324932
C  C139  1  0.47039000  0.93980000  0.89881000  1.0 -0.0601324932
C  C140  1  0.93980000  0.89881000  0.47039000  1.0 -0.0601324932
C  C141  1  0.89881000  0.47039000  0.93980000  1.0 -0.0601324932
C  C142  1  0.56020000  0.02961000  0.60119000  1.0 -0.0601324932
C  C143  1  0.60119000  0.56020000  0.02961000  1.0 -0.0601324932
C  C144  1  0.02961000  0.60119000  0.56020000  1.0 -0.0601324932
C  C145  1  0.51493000  0.09011000  0.00652000  1.0 -0.4825457195
C  C146  1  0.09011000  0.00652000  0.51493000  1.0 -0.4825457195
C  C147  1  0.00652000  0.51493000  0.09011000  1.0 -0.4825457195
C  C148  1  0.40989000  0.98507000  0.49348000  1.0 -0.4825457195
C  C149  1  0.49348000  0.40989000  0.98507000  1.0 -0.4825457195
C  C150  1  0.98507000  0.49348000  0.40989000  1.0 -0.4825457195
C  C151  1  0.48507000  0.90989000  0.99348000  1.0 -0.4825457195
C  C152  1  0.90989000  0.99348000  0.48507000  1.0 -0.4825457195
C  C153  1  0.99348000  0.48507000  0.90989000  1.0 -0.4825457195
C  C154  1  0.59011000  0.01493000  0.50652000  1.0 -0.4825457195
C  C155  1  0.50652000  0.59011000  0.01493000  1.0 -0.4825457195
C  C156  1  0.01493000  0.50652000  0.59011000  1.0 -0.4825457195
C  C157  1  0.48160000  0.98974000  0.15711000  1.0 -0.4720600092
C  C158  1  0.98974000  0.15711000  0.48160000  1.0 -0.4720600092
C  C159  1  0.15711000  0.48160000  0.98974000  1.0 -0.4720600092
C  C160  1  0.51026000  0.01840000  0.34289000  1.0 -0.4720600092
C  C161  1  0.34289000  0.51026000  0.01840000  1.0 -0.4720600092
C  C162  1  0.01840000  0.34289000  0.51026000  1.0 -0.4720600092
C  C163  1  0.51840000  0.01026000  0.84289000  1.0 -0.4720600092
C  C164  1  0.01026000  0.84289000  0.51840000  1.0 -0.4720600092
C  C165  1  0.84289000  0.51840000  0.01026000  1.0 -0.4720600092
C  C166  1  0.48974000  0.98160000  0.65711000  1.0 -0.4720600092
C  C167  1  0.65711000  0.48974000  0.98160000  1.0 -0.4720600092
C  C168  1  0.98160000  0.65711000  0.48974000  1.0 -0.4720600092
C  C169  1  0.38420000  0.99977000  0.03253000  1.0 -0.4629336738
C  C170  1  0.99977000  0.03253000  0.38420000  1.0 -0.4629336738
C  C171  1  0.03253000  0.38420000  0.99977000  1.0 -0.4629336738
C  C172  1  0.50023000  0.11580000  0.46747000  1.0 -0.4629336738
C  C173  1  0.46747000  0.50023000  0.11580000  1.0 -0.4629336738
C  C174  1  0.11580000  0.46747000  0.50023000  1.0 -0.4629336738
C  C175  1  0.61580000  0.00023000  0.96747000  1.0 -0.4629336738
C  C176  1  0.00023000  0.96747000  0.61580000  1.0 -0.4629336738
C  C177  1  0.96747000  0.61580000  0.00023000  1.0 -0.4629336738
C  C178  1  0.49977000  0.88420000  0.53253000  1.0 -0.4629336738
C  C179  1  0.53253000  0.49977000  0.88420000  1.0 -0.4629336738
C  C180  1  0.88420000  0.53253000  0.49977000  1.0 -0.4629336738
C  C181  1  0.40623000  0.96161000  0.12312000  1.0 -0.0601324932
C  C182  1  0.96161000  0.12312000  0.40623000  1.0 -0.0601324932
C  C183  1  0.12312000  0.40623000  0.96161000  1.0 -0.0601324932
C  C184  1  0.53839000  0.09377000  0.37688000  1.0 -0.0601324932
C  C185  1  0.37688000  0.53839000  0.09377000  1.0 -0.0601324932
C  C186  1  0.09377000  0.37688000  0.53839000  1.0 -0.0601324932
C  C187  1  0.59377000  0.03839000  0.87688000  1.0 -0.0601324932
C  C188  1  0.03839000  0.87688000  0.59377000  1.0 -0.0601324932
C  C189  1  0.87688000  0.59377000  0.03839000  1.0 -0.0601324932
C  C190  1  0.46161000  0.90623000  0.62312000  1.0 -0.0601324932
C  C191  1  0.62312000  0.46161000  0.90623000  1.0 -0.0601324932
C  C192  1  0.90623000  0.62312000  0.46161000  1.0 -0.0601324932
C  C193  1  0.48598000  0.05780000  0.03805000  1.0 0.0902054147
C  C194  1  0.05780000  0.03805000  0.48598000  1.0 0.0902054147
C  C195  1  0.03805000  0.48598000  0.05780000  1.0 0.0902054147
C  C196  1  0.44220000  0.01402000  0.46195000  1.0 0.0902054147
C  C197  1  0.46195000  0.44220000  0.01402000  1.0 0.0902054147
C  C198  1  0.01402000  0.46195000  0.44220000  1.0 0.0902054147
C  C199  1  0.51402000  0.94220000  0.96195000  1.0 0.0902054147
C  C200  1  0.94220000  0.96195000  0.51402000  1.0 0.0902054147
C  C201  1  0.96195000  0.51402000  0.94220000  1.0 0.0902054147
C  C202  1  0.55780000  0.98598000  0.53805000  1.0 0.0902054147
C  C203  1  0.53805000  0.55780000  0.98598000  1.0 0.0902054147
C  C204  1  0.98598000  0.53805000  0.55780000  1.0 0.0902054147
C  C205  1  0.35914000  0.83663000  0.18416000  1.0 -0.0198430056
C  C206  1  0.83663000  0.18416000  0.35914000  1.0 -0.0198430056
C  C207  1  0.18416000  0.35914000  0.83663000  1.0 -0.0198430056
C  C208  1  0.66337000  0.14086000  0.31584000  1.0 -0.0198430056
C  C209  1  0.31584000  0.66337000  0.14086000  1.0 -0.0198430056
C  C210  1  0.14086000  0.31584000  0.66337000  1.0 -0.0198430056
C  C211  1  0.64086000  0.16337000  0.81584000  1.0 -0.0198430056
C  C212  1  0.16337000  0.81584000  0.64086000  1.0 -0.0198430056
C  C213  1  0.81584000  0.64086000  0.16337000  1.0 -0.0198430056
C  C214  1  0.33663000  0.85914000  0.68416000  1.0 -0.0198430056
C  C215  1  0.68416000  0.33663000  0.85914000  1.0 -0.0198430056
C  C216  1  0.85914000  0.68416000  0.33663000  1.0 -0.0198430056
C  C217  1  0.37446000  0.87795000  0.16607000  1.0 -0.2430319779
C  C218  1  0.87795000  0.16607000  0.37446000  1.0 -0.2430319779
C  C219  1  0.16607000  0.37446000  0.87795000  1.0 -0.2430319779
C  C220  1  0.62205000  0.12554000  0.33393000  1.0 -0.2430319779
C  C221  1  0.33393000  0.62205000  0.12554000  1.0 -0.2430319779
C  C222  1  0.12554000  0.33393000  0.62205000  1.0 -0.2430319779
C  C223  1  0.62554000  0.12205000  0.83393000  1.0 -0.2430319779
C  C224  1  0.12205000  0.83393000  0.62554000  1.0 -0.2430319779
C  C225  1  0.83393000  0.62554000  0.12205000  1.0 -0.2430319779
C  C226  1  0.37795000  0.87446000  0.66607000  1.0 -0.2430319779
C  C227  1  0.66607000  0.37795000  0.87446000  1.0 -0.2430319779
C  C228  1  0.87446000  0.66607000  0.37795000  1.0 -0.2430319779
C  C229  1  0.41969000  0.84346000  0.10391000  1.0 -0.2099556221
C  C230  1  0.84346000  0.10391000  0.41969000  1.0 -0.2099556221
C  C231  1  0.10391000  0.41969000  0.84346000  1.0 -0.2099556221
C  C232  1  0.65654000  0.08031000  0.39609000  1.0 -0.2099556221
C  C233  1  0.39609000  0.65654000  0.08031000  1.0 -0.2099556221
C  C234  1  0.08031000  0.39609000  0.65654000  1.0 -0.2099556221
C  C235  1  0.58031000  0.15654000  0.89609000  1.0 -0.2099556221
C  C236  1  0.15654000  0.89609000  0.58031000  1.0 -0.2099556221
C  C237  1  0.89609000  0.58031000  0.15654000  1.0 -0.2099556221
C  C238  1  0.34346000  0.91969000  0.60391000  1.0 -0.2099556221
C  C239  1  0.60391000  0.34346000  0.91969000  1.0 -0.2099556221
C  C240  1  0.91969000  0.60391000  0.34346000  1.0 -0.2099556221
C  C241  1  0.33239000  0.83151000  0.23022000  1.0 0.5586541849
C  C242  1  0.83151000  0.23022000  0.33239000  1.0 0.5586541849
C  C243  1  0.23022000  0.33239000  0.83151000  1.0 0.5586541849
C  C244  1  0.66849000  0.16761000  0.26978000  1.0 0.5586541849
C  C245  1  0.26978000  0.66849000  0.16761000  1.0 0.5586541849
C  C246  1  0.16761000  0.26978000  0.66849000  1.0 0.5586541849
C  C247  1  0.66761000  0.16849000  0.76978000  1.0 0.5586541849
C  C248  1  0.16849000  0.76978000  0.66761000  1.0 0.5586541849
C  C249  1  0.76978000  0.66761000  0.16849000  1.0 0.5586541849
C  C250  1  0.33151000  0.83239000  0.73022000  1.0 0.5586541849
C  C251  1  0.73022000  0.33151000  0.83239000  1.0 0.5586541849
C  C252  1  0.83239000  0.73022000  0.33151000  1.0 0.5586541849
C  C253  1  0.44526000  0.05681000  0.97209000  1.0 -0.0704590017
C  C254  1  0.05681000  0.97209000  0.44526000  1.0 -0.0704590017
C  C255  1  0.97209000  0.44526000  0.05681000  1.0 -0.0704590017
C  C256  1  0.44319000  0.05474000  0.52791000  1.0 -0.0704590017
C  C257  1  0.52791000  0.44319000  0.05474000  1.0 -0.0704590017
C  C258  1  0.05474000  0.52791000  0.44319000  1.0 -0.0704590017
C  C259  1  0.55474000  0.94319000  0.02791000  1.0 -0.0704590017
C  C260  1  0.94319000  0.02791000  0.55474000  1.0 -0.0704590017
C  C261  1  0.02791000  0.55474000  0.94319000  1.0 -0.0704590017
C  C262  1  0.55681000  0.94526000  0.47209000  1.0 -0.0704590017
C  C263  1  0.47209000  0.55681000  0.94526000  1.0 -0.0704590017
C  C264  1  0.94526000  0.47209000  0.55681000  1.0 -0.0704590017
C  C265  1  0.40909000  0.11973000  0.92428000  1.0 0.2573834069
C  C266  1  0.11973000  0.92428000  0.40909000  1.0 0.2573834069
C  C267  1  0.92428000  0.40909000  0.11973000  1.0 0.2573834069
C  C268  1  0.38027000  0.09091000  0.57572000  1.0 0.2573834069
C  C269  1  0.57572000  0.38027000  0.09091000  1.0 0.2573834069
C  C270  1  0.09091000  0.57572000  0.38027000  1.0 0.2573834069
C  C271  1  0.59091000  0.88027000  0.07572000  1.0 0.2573834069
C  C272  1  0.88027000  0.07572000  0.59091000  1.0 0.2573834069
C  C273  1  0.07572000  0.59091000  0.88027000  1.0 0.2573834069
C  C274  1  0.61973000  0.90909000  0.42428000  1.0 0.2573834069
C  C275  1  0.42428000  0.61973000  0.90909000  1.0 0.2573834069
C  C276  1  0.90909000  0.42428000  0.61973000  1.0 0.2573834069
C  C277  1  0.38175000  0.16165000  0.91999000  1.0 -0.2223326259
C  C278  1  0.16165000  0.91999000  0.38175000  1.0 -0.2223326259
C  C279  1  0.91999000  0.38175000  0.16165000  1.0 -0.2223326259
C  C280  1  0.33835000  0.11825000  0.58001000  1.0 -0.2223326259
C  C281  1  0.58001000  0.33835000  0.11825000  1.0 -0.2223326259
C  C282  1  0.11825000  0.58001000  0.33835000  1.0 -0.2223326259
C  C283  1  0.61825000  0.83835000  0.08001000  1.0 -0.2223326259
C  C284  1  0.83835000  0.08001000  0.61825000  1.0 -0.2223326259
C  C285  1  0.08001000  0.61825000  0.83835000  1.0 -0.2223326259
C  C286  1  0.66165000  0.88175000  0.41999000  1.0 -0.2223326259
C  C287  1  0.41999000  0.66165000  0.88175000  1.0 -0.2223326259
C  C288  1  0.88175000  0.41999000  0.66165000  1.0 -0.2223326259
C  C289  1  0.37185000  0.18285000  0.87755000  1.0 -0.0110234092
C  C290  1  0.18285000  0.87755000  0.37185000  1.0 -0.0110234092
C  C291  1  0.87755000  0.37185000  0.18285000  1.0 -0.0110234092
C  C292  1  0.31715000  0.12815000  0.62245000  1.0 -0.0110234092
C  C293  1  0.62245000  0.31715000  0.12815000  1.0 -0.0110234092
C  C294  1  0.12815000  0.62245000  0.31715000  1.0 -0.0110234092
C  C295  1  0.62815000  0.81715000  0.12245000  1.0 -0.0110234092
C  C296  1  0.81715000  0.12245000  0.62815000  1.0 -0.0110234092
C  C297  1  0.12245000  0.62815000  0.81715000  1.0 -0.0110234092
C  C298  1  0.68285000  0.87185000  0.37755000  1.0 -0.0110234092
C  C299  1  0.37755000  0.68285000  0.87185000  1.0 -0.0110234092
C  C300  1  0.87185000  0.37755000  0.68285000  1.0 -0.0110234092
C  C301  1  0.39058000  0.16245000  0.83908000  1.0 -0.1303766953
C  C302  1  0.16245000  0.83908000  0.39058000  1.0 -0.1303766953
C  C303  1  0.83908000  0.39058000  0.16245000  1.0 -0.1303766953
C  C304  1  0.33755000  0.10942000  0.66092000  1.0 -0.1303766953
C  C305  1  0.66092000  0.33755000  0.10942000  1.0 -0.1303766953
C  C306  1  0.10942000  0.66092000  0.33755000  1.0 -0.1303766953
C  C307  1  0.60942000  0.83755000  0.16092000  1.0 -0.1303766953
C  C308  1  0.83755000  0.16092000  0.60942000  1.0 -0.1303766953
C  C309  1  0.16092000  0.60942000  0.83755000  1.0 -0.1303766953
C  C310  1  0.66245000  0.89058000  0.33908000  1.0 -0.1303766953
C  C311  1  0.33908000  0.66245000  0.89058000  1.0 -0.1303766953
C  C312  1  0.89058000  0.33908000  0.66245000  1.0 -0.1303766953
C  C313  1  0.41831000  0.12175000  0.84338000  1.0 -0.0704590017
C  C314  1  0.12175000  0.84338000  0.41831000  1.0 -0.0704590017
C  C315  1  0.84338000  0.41831000  0.12175000  1.0 -0.0704590017
C  C316  1  0.37825000  0.08169000  0.65662000  1.0 -0.0704590017
C  C317  1  0.65662000  0.37825000  0.08169000  1.0 -0.0704590017
C  C318  1  0.08169000  0.65662000  0.37825000  1.0 -0.0704590017
C  C319  1  0.58169000  0.87825000  0.15662000  1.0 -0.0704590017
C  C320  1  0.87825000  0.15662000  0.58169000  1.0 -0.0704590017
C  C321  1  0.15662000  0.58169000  0.87825000  1.0 -0.0704590017
C  C322  1  0.62175000  0.91831000  0.34338000  1.0 -0.0704590017
C  C323  1  0.34338000  0.62175000  0.91831000  1.0 -0.0704590017
C  C324  1  0.91831000  0.34338000  0.62175000  1.0 -0.0704590017
C  C325  1  0.42744000  0.09922000  0.88573000  1.0 -0.2291883534
C  C326  1  0.09922000  0.88573000  0.42744000  1.0 -0.2291883534
C  C327  1  0.88573000  0.42744000  0.09922000  1.0 -0.2291883534
C  C328  1  0.40078000  0.07256000  0.61427000  1.0 -0.2291883534
C  C329  1  0.61427000  0.40078000  0.07256000  1.0 -0.2291883534
C  C330  1  0.07256000  0.61427000  0.40078000  1.0 -0.2291883534
C  C331  1  0.57256000  0.90078000  0.11427000  1.0 -0.2291883534
C  C332  1  0.90078000  0.11427000  0.57256000  1.0 -0.2291883534
C  C333  1  0.11427000  0.57256000  0.90078000  1.0 -0.2291883534
C  C334  1  0.59922000  0.92744000  0.38573000  1.0 -0.2291883534
C  C335  1  0.38573000  0.59922000  0.92744000  1.0 -0.2291883534
C  C336  1  0.92744000  0.38573000  0.59922000  1.0 -0.2291883534
C  C337  1  0.34175000  0.22839000  0.87306000  1.0 0.5977784253
C  C338  1  0.22839000  0.87306000  0.34175000  1.0 0.5977784253
C  C339  1  0.87306000  0.34175000  0.22839000  1.0 0.5977784253
C  C340  1  0.27161000  0.15825000  0.62694000  1.0 0.5977784253
C  C341  1  0.62694000  0.27161000  0.15825000  1.0 0.5977784253
C  C342  1  0.15825000  0.62694000  0.27161000  1.0 0.5977784253
C  C343  1  0.65825000  0.77161000  0.12694000  1.0 0.5977784253
C  C344  1  0.77161000  0.12694000  0.65825000  1.0 0.5977784253
C  C345  1  0.12694000  0.65825000  0.77161000  1.0 0.5977784253
C  C346  1  0.72839000  0.84175000  0.37306000  1.0 0.5977784253
C  C347  1  0.37306000  0.72839000  0.84175000  1.0 0.5977784253
C  C348  1  0.84175000  0.37306000  0.72839000  1.0 0.5977784253
C  C349  1  0.98382000  0.19827000  0.28546000  1.0 0.5819508713
C  C350  1  0.19827000  0.28546000  0.98382000  1.0 0.5819508713
C  C351  1  0.28546000  0.98382000  0.19827000  1.0 0.5819508713
C  C352  1  0.30173000  0.51618000  0.21454000  1.0 0.5819508713
C  C353  1  0.21454000  0.30173000  0.51618000  1.0 0.5819508713
C  C354  1  0.51618000  0.21454000  0.30173000  1.0 0.5819508713
C  C355  1  0.01618000  0.80173000  0.71454000  1.0 0.5819508713
C  C356  1  0.80173000  0.71454000  0.01618000  1.0 0.5819508713
C  C357  1  0.71454000  0.01618000  0.80173000  1.0 0.5819508713
C  C358  1  0.69827000  0.48382000  0.78546000  1.0 0.5819508713
C  C359  1  0.78546000  0.69827000  0.48382000  1.0 0.5819508713
C  C360  1  0.48382000  0.78546000  0.69827000  1.0 0.5819508713
C  C361  1  0.98529000  0.15314000  0.27002000  1.0 -0.0110234092
C  C362  1  0.15314000  0.27002000  0.98529000  1.0 -0.0110234092
C  C363  1  0.27002000  0.98529000  0.15314000  1.0 -0.0110234092
C  C364  1  0.34686000  0.51471000  0.22998000  1.0 -0.0110234092
C  C365  1  0.22998000  0.34686000  0.51471000  1.0 -0.0110234092
C  C366  1  0.51471000  0.22998000  0.34686000  1.0 -0.0110234092
C  C367  1  0.01471000  0.84686000  0.72998000  1.0 -0.0110234092
C  C368  1  0.84686000  0.72998000  0.01471000  1.0 -0.0110234092
C  C369  1  0.72998000  0.01471000  0.84686000  1.0 -0.0110234092
C  C370  1  0.65314000  0.48529000  0.77002000  1.0 -0.0110234092
C  C371  1  0.77002000  0.65314000  0.48529000  1.0 -0.0110234092
C  C372  1  0.48529000  0.77002000  0.65314000  1.0 -0.0110234092
C  C373  1  0.94466000  0.13707000  0.26966000  1.0 -0.2291883534
C  C374  1  0.13707000  0.26966000  0.94466000  1.0 -0.2291883534
C  C375  1  0.26966000  0.94466000  0.13707000  1.0 -0.2291883534
C  C376  1  0.36293000  0.55534000  0.23034000  1.0 -0.2291883534
C  C377  1  0.23034000  0.36293000  0.55534000  1.0 -0.2291883534
C  C378  1  0.55534000  0.23034000  0.36293000  1.0 -0.2291883534
C  C379  1  0.05534000  0.86293000  0.73034000  1.0 -0.2291883534
C  C380  1  0.86293000  0.73034000  0.05534000  1.0 -0.2291883534
C  C381  1  0.73034000  0.05534000  0.86293000  1.0 -0.2291883534
C  C382  1  0.63707000  0.44466000  0.76966000  1.0 -0.2291883534
C  C383  1  0.76966000  0.63707000  0.44466000  1.0 -0.2291883534
C  C384  1  0.44466000  0.76966000  0.63707000  1.0 -0.2291883534
C  C385  1  0.94651000  0.09402000  0.25839000  1.0 0.2412492975
C  C386  1  0.09402000  0.25839000  0.94651000  1.0 0.2412492975
C  C387  1  0.25839000  0.94651000  0.09402000  1.0 0.2412492975
C  C388  1  0.40598000  0.55349000  0.24161000  1.0 0.2412492975
C  C389  1  0.24161000  0.40598000  0.55349000  1.0 0.2412492975
C  C390  1  0.55349000  0.24161000  0.40598000  1.0 0.2412492975
C  C391  1  0.05349000  0.90598000  0.74161000  1.0 0.2412492975
C  C392  1  0.90598000  0.74161000  0.05349000  1.0 0.2412492975
C  C393  1  0.74161000  0.05349000  0.90598000  1.0 0.2412492975
C  C394  1  0.59402000  0.44651000  0.75839000  1.0 0.2412492975
C  C395  1  0.75839000  0.59402000  0.44651000  1.0 0.2412492975
C  C396  1  0.44651000  0.75839000  0.59402000  1.0 0.2412492975
C  C397  1  0.98788000  0.06841000  0.24629000  1.0 -0.1914500662
C  C398  1  0.06841000  0.24629000  0.98788000  1.0 -0.1914500662
C  C399  1  0.24629000  0.98788000  0.06841000  1.0 -0.1914500662
C  C400  1  0.43159000  0.51212000  0.25371000  1.0 -0.1914500662
C  C401  1  0.25371000  0.43159000  0.51212000  1.0 -0.1914500662
C  C402  1  0.51212000  0.25371000  0.43159000  1.0 -0.1914500662
C  C403  1  0.01212000  0.93159000  0.75371000  1.0 -0.1914500662
C  C404  1  0.93159000  0.75371000  0.01212000  1.0 -0.1914500662
C  C405  1  0.75371000  0.01212000  0.93159000  1.0 -0.1914500662
C  C406  1  0.56841000  0.48788000  0.74629000  1.0 -0.1914500662
C  C407  1  0.74629000  0.56841000  0.48788000  1.0 -0.1914500662
C  C408  1  0.48788000  0.74629000  0.56841000  1.0 -0.1914500662
C  C409  1  0.02754000  0.08434000  0.24674000  1.0 -0.0859980904
C  C410  1  0.08434000  0.24674000  0.02754000  1.0 -0.0859980904
C  C411  1  0.24674000  0.02754000  0.08434000  1.0 -0.0816902503
C  C412  1  0.41566000  0.47246000  0.25326000  1.0 -0.0859980904
C  C413  1  0.25326000  0.41566000  0.47246000  1.0 -0.0859980904
C  C414  1  0.47246000  0.25326000  0.41566000  1.0 -0.0859980904
C  C415  1  0.97246000  0.91566000  0.75326000  1.0 -0.0859980904
C  C416  1  0.91566000  0.75326000  0.97246000  1.0 -0.0859980904
C  C417  1  0.75326000  0.97246000  0.91566000  1.0 -0.0859980904
C  C418  1  0.58434000  0.52754000  0.74674000  1.0 -0.0859980904
C  C419  1  0.74674000  0.58434000  0.52754000  1.0 -0.0859980904
C  C420  1  0.52754000  0.74674000  0.58434000  1.0 -0.0859980904
C  C421  1  0.02596000  0.12678000  0.25940000  1.0 -0.1303766953
C  C422  1  0.12678000  0.25940000  0.02596000  1.0 -0.1303766953
C  C423  1  0.25940000  0.02596000  0.12678000  1.0 -0.1303766953
C  C424  1  0.37322000  0.47404000  0.24060000  1.0 -0.1303766953
C  C425  1  0.24060000  0.37322000  0.47404000  1.0 -0.1303766953
C  C426  1  0.47404000  0.24060000  0.37322000  1.0 -0.1303766953
C  C427  1  0.97404000  0.87322000  0.74060000  1.0 -0.1303766953
C  C428  1  0.87322000  0.74060000  0.97404000  1.0 -0.1303766953
C  C429  1  0.74060000  0.97404000  0.87322000  1.0 -0.1303766953
C  C430  1  0.62678000  0.52596000  0.75940000  1.0 -0.1303766953
C  C431  1  0.75940000  0.62678000  0.52596000  1.0 -0.1303766953
C  C432  1  0.52596000  0.75940000  0.62678000  1.0 -0.1303766953
C  C433  1  0.40409000  0.88140000  0.12573000  1.0 0.2573834069
C  C434  1  0.88140000  0.12573000  0.40409000  1.0 0.2573834069
C  C435  1  0.12573000  0.40409000  0.88140000  1.0 0.2573834069
C  C436  1  0.61860000  0.09591000  0.37427000  1.0 0.2573834069
C  C437  1  0.37427000  0.61860000  0.09591000  1.0 0.2573834069
C  C438  1  0.09591000  0.37427000  0.61860000  1.0 0.2573834069
C  C439  1  0.59591000  0.11860000  0.87427000  1.0 0.2573834069
C  C440  1  0.11860000  0.87427000  0.59591000  1.0 0.2573834069
C  C441  1  0.87427000  0.59591000  0.11860000  1.0 0.2573834069
C  C442  1  0.38140000  0.90409000  0.62573000  1.0 0.2573834069
C  C443  1  0.62573000  0.38140000  0.90409000  1.0 0.2573834069
C  C444  1  0.90409000  0.62573000  0.38140000  1.0 0.2573834069
C  C445  1  0.86805000  0.09280000  0.28224000  1.0 -0.0393190462
C  C446  1  0.09280000  0.28224000  0.86805000  1.0 -0.0393190462
C  C447  1  0.28224000  0.86805000  0.09280000  1.0 -0.0393190462
C  C448  1  0.40720000  0.63195000  0.21776000  1.0 -0.0393190462
C  C449  1  0.21776000  0.40720000  0.63195000  1.0 -0.0393190462
C  C450  1  0.63195000  0.21776000  0.40720000  1.0 -0.0393190462
C  C451  1  0.13195000  0.90720000  0.71776000  1.0 -0.0393190462
C  C452  1  0.90720000  0.71776000  0.13195000  1.0 -0.0393190462
C  C453  1  0.71776000  0.13195000  0.90720000  1.0 -0.0393190462
C  C454  1  0.59280000  0.36805000  0.78224000  1.0 -0.0393190462
C  C455  1  0.78224000  0.59280000  0.36805000  1.0 -0.0393190462
C  C456  1  0.36805000  0.78224000  0.59280000  1.0 -0.0393190462
C  C457  1  0.83310000  0.05946000  0.29158000  1.0 -0.0393190462
C  C458  1  0.05946000  0.29158000  0.83310000  1.0 -0.0393190462
C  C459  1  0.29158000  0.83310000  0.05946000  1.0 -0.0393190462
C  C460  1  0.44054000  0.66690000  0.20842000  1.0 -0.0393190462
C  C461  1  0.20842000  0.44054000  0.66690000  1.0 -0.0393190462
C  C462  1  0.66690000  0.20842000  0.44054000  1.0 -0.0393190462
C  C463  1  0.16690000  0.94054000  0.70842000  1.0 -0.0393190462
C  C464  1  0.94054000  0.70842000  0.16690000  1.0 -0.0393190462
C  C465  1  0.70842000  0.16690000  0.94054000  1.0 -0.0393190462
C  C466  1  0.55946000  0.33310000  0.79158000  1.0 -0.0393190462
C  C467  1  0.79158000  0.55946000  0.33310000  1.0 -0.0393190462
C  C468  1  0.33310000  0.79158000  0.55946000  1.0 -0.0393190462
C  C469  1  0.79738000  0.06574000  0.26501000  1.0 0.0988006447
C  C470  1  0.06574000  0.26501000  0.79738000  1.0 0.0988006447
C  C471  1  0.26501000  0.79738000  0.06574000  1.0 0.0988006447
C  C472  1  0.43426000  0.70262000  0.23499000  1.0 0.0988006447
C  C473  1  0.23499000  0.43426000  0.70262000  1.0 0.0988006447
C  C474  1  0.70262000  0.23499000  0.43426000  1.0 0.0988006447
C  C475  1  0.20262000  0.93426000  0.73499000  1.0 0.0988006447
C  C476  1  0.93426000  0.73499000  0.20262000  1.0 0.0988006447
C  C477  1  0.73499000  0.20262000  0.93426000  1.0 0.0988006447
C  C478  1  0.56574000  0.29738000  0.76501000  1.0 0.0988006447
C  C479  1  0.76501000  0.56574000  0.29738000  1.0 0.0988006447
C  C480  1  0.29738000  0.76501000  0.56574000  1.0 0.0988006447
C  C481  1  0.79814000  0.10071000  0.22208000  1.0 -0.4356777512
C  C482  1  0.10071000  0.22208000  0.79814000  1.0 -0.4356777512
C  C483  1  0.22208000  0.79814000  0.10071000  1.0 -0.4356777512
C  C484  1  0.39929000  0.70186000  0.27792000  1.0 -0.4356777512
C  C485  1  0.27792000  0.39929000  0.70186000  1.0 -0.4356777512
C  C486  1  0.70186000  0.27792000  0.39929000  1.0 -0.4356777512
C  C487  1  0.20186000  0.89929000  0.77792000  1.0 -0.4356777512
C  C488  1  0.89929000  0.77792000  0.20186000  1.0 -0.4356777512
C  C489  1  0.77792000  0.20186000  0.89929000  1.0 -0.4356777512
C  C490  1  0.60071000  0.29814000  0.72208000  1.0 -0.4356777512
C  C491  1  0.72208000  0.60071000  0.29814000  1.0 -0.4356777512
C  C492  1  0.29814000  0.72208000  0.60071000  1.0 -0.4356777512
C  C493  1  0.76045000  0.04132000  0.27908000  1.0 -0.0393190462
C  C494  1  0.04132000  0.27908000  0.76045000  1.0 -0.0393190462
C  C495  1  0.27908000  0.76045000  0.04132000  1.0 -0.0393190462
C  C496  1  0.45868000  0.73955000  0.22092000  1.0 -0.0393190462
C  C497  1  0.22092000  0.45868000  0.73955000  1.0 -0.0393190462
C  C498  1  0.73955000  0.22092000  0.45868000  1.0 -0.0393190462
C  C499  1  0.23955000  0.95868000  0.72092000  1.0 -0.0393190462
C  C500  1  0.95868000  0.72092000  0.23955000  1.0 -0.0393190462
C  C501  1  0.72092000  0.23955000  0.95868000  1.0 -0.0393190462
C  C502  1  0.54132000  0.26045000  0.77908000  1.0 -0.0393190462
C  C503  1  0.77908000  0.54132000  0.26045000  1.0 -0.0393190462
C  C504  1  0.26045000  0.77908000  0.54132000  1.0 -0.0393190462
C  C505  1  0.75999000  0.00816000  0.31789000  1.0 0.0988006447
C  C506  1  0.00816000  0.31789000  0.75999000  1.0 0.0988006447
C  C507  1  0.31789000  0.75999000  0.00816000  1.0 0.0988006447
C  C508  1  0.49184000  0.74001000  0.18211000  1.0 0.0988006447
C  C509  1  0.18211000  0.49184000  0.74001000  1.0 0.0988006447
C  C510  1  0.74001000  0.18211000  0.49184000  1.0 0.0988006447
C  C511  1  0.24001000  0.99184000  0.68211000  1.0 0.0988006447
C  C512  1  0.99184000  0.68211000  0.24001000  1.0 0.0988006447
C  C513  1  0.68211000  0.24001000  0.99184000  1.0 0.0988006447
C  C514  1  0.50816000  0.25999000  0.81789000  1.0 0.0988006447
C  C515  1  0.81789000  0.50816000  0.25999000  1.0 0.0988006447
C  C516  1  0.25999000  0.81789000  0.50816000  1.0 0.0988006447
C  C517  1  0.71972000  0.98402000  0.33562000  1.0 -0.4825457195
C  C518  1  0.98402000  0.33562000  0.71972000  1.0 -0.4825457195
C  C519  1  0.33562000  0.71972000  0.98402000  1.0 -0.4825457195
C  C520  1  0.51598000  0.78028000  0.16438000  1.0 -0.4825457195
C  C521  1  0.16438000  0.51598000  0.78028000  1.0 -0.4825457195
C  C522  1  0.78028000  0.16438000  0.51598000  1.0 -0.4825457195
C  C523  1  0.28028000  0.01598000  0.66438000  1.0 -0.4825457195
C  C524  1  0.01598000  0.66438000  0.28028000  1.0 -0.4825457195
C  C525  1  0.66438000  0.28028000  0.01598000  1.0 -0.4825457195
C  C526  1  0.48402000  0.21972000  0.83562000  1.0 -0.4825457195
C  C527  1  0.83562000  0.48402000  0.21972000  1.0 -0.4825457195
C  C528  1  0.21972000  0.83562000  0.48402000  1.0 -0.4825457195
C  C529  1  0.83550000  0.02350000  0.32781000  1.0 0.082991597
C  C530  1  0.02350000  0.32781000  0.83550000  1.0 0.082991597
C  C531  1  0.32781000  0.83550000  0.02350000  1.0 0.082991597
C  C532  1  0.47650000  0.66450000  0.17219000  1.0 0.082991597
C  C533  1  0.17219000  0.47650000  0.66450000  1.0 0.082991597
C  C534  1  0.66450000  0.17219000  0.47650000  1.0 0.082991597
C  C535  1  0.16450000  0.97650000  0.67219000  1.0 0.082991597
C  C536  1  0.97650000  0.67219000  0.16450000  1.0 0.082991597
C  C537  1  0.67219000  0.16450000  0.97650000  1.0 0.082991597
C  C538  1  0.52350000  0.33550000  0.82781000  1.0 0.082991597
C  C539  1  0.82781000  0.52350000  0.33550000  1.0 0.082991597
C  C540  1  0.33550000  0.82781000  0.52350000  1.0 0.082991597
C  C541  1  0.87611000  0.01385000  0.35289000  1.0 -0.4825457195
C  C542  1  0.01385000  0.35289000  0.87611000  1.0 -0.4825457195
C  C543  1  0.35289000  0.87611000  0.01385000  1.0 -0.4825457195
C  C544  1  0.48615000  0.62389000  0.14711000  1.0 -0.4825457195
C  C545  1  0.14711000  0.48615000  0.62389000  1.0 -0.4825457195
C  C546  1  0.62389000  0.14711000  0.48615000  1.0 -0.4825457195
C  C547  1  0.12389000  0.98615000  0.64711000  1.0 -0.4825457195
C  C548  1  0.98615000  0.64711000  0.12389000  1.0 -0.4825457195
C  C549  1  0.64711000  0.12389000  0.98615000  1.0 -0.4825457195
C  C550  1  0.51385000  0.37611000  0.85289000  1.0 -0.4825457195
C  C551  1  0.85289000  0.51385000  0.37611000  1.0 -0.4825457195
C  C552  1  0.37611000  0.85289000  0.51385000  1.0 -0.4825457195
C  C553  1  0.75549000  0.94595000  0.45411000  1.0 0.1399860271
C  C554  1  0.94595000  0.45411000  0.75549000  1.0 0.1399860271
C  C555  1  0.45411000  0.75549000  0.94595000  1.0 0.1289424074
C  C556  1  0.55405000  0.74451000  0.04589000  1.0 0.1289424074
C  C557  1  0.04589000  0.55405000  0.74451000  1.0 0.1289424074
C  C558  1  0.74451000  0.04589000  0.55405000  1.0 0.1289424074
C  C559  1  0.24451000  0.05405000  0.54589000  1.0 0.1289424074
C  C560  1  0.05405000  0.54589000  0.24451000  1.0 0.1289424074
C  C561  1  0.54589000  0.24451000  0.05405000  1.0 0.1289424074
C  C562  1  0.44595000  0.25549000  0.95411000  1.0 0.1289424074
C  C563  1  0.95411000  0.44595000  0.25549000  1.0 0.1289424074
C  C564  1  0.25549000  0.95411000  0.44595000  1.0 0.1289424074
C  C565  1  0.71819000  0.96299000  0.48469000  1.0 -0.2099556221
C  C566  1  0.96299000  0.48469000  0.71819000  1.0 -0.2099556221
C  C567  1  0.48469000  0.71819000  0.96299000  1.0 -0.2099556221
C  C568  1  0.53701000  0.78181000  0.01531000  1.0 -0.2099556221
C  C569  1  0.01531000  0.53701000  0.78181000  1.0 -0.2099556221
C  C570  1  0.78181000  0.01531000  0.53701000  1.0 -0.2099556221
C  C571  1  0.28181000  0.03701000  0.51531000  1.0 -0.2099556221
C  C572  1  0.03701000  0.51531000  0.28181000  1.0 -0.2099556221
C  C573  1  0.51531000  0.28181000  0.03701000  1.0 -0.2099556221
C  C574  1  0.46299000  0.21819000  0.98469000  1.0 -0.2099556221
C  C575  1  0.98469000  0.46299000  0.21819000  1.0 -0.2099556221
C  C576  1  0.21819000  0.98469000  0.46299000  1.0 -0.2099556221
C  C577  1  0.70330000  0.93600000  0.52210000  1.0 -0.0601324932
C  C578  1  0.93600000  0.52210000  0.70330000  1.0 -0.0601324932
C  C579  1  0.52210000  0.70330000  0.93600000  1.0 -0.0601324932
C  C580  1  0.56400000  0.79670000  0.97790000  1.0 -0.0601324932
C  C581  1  0.97790000  0.56400000  0.79670000  1.0 -0.0601324932
C  C582  1  0.79670000  0.97790000  0.56400000  1.0 -0.0601324932
C  C583  1  0.29670000  0.06400000  0.47790000  1.0 -0.0601324932
C  C584  1  0.06400000  0.47790000  0.29670000  1.0 -0.0601324932
C  C585  1  0.47790000  0.29670000  0.06400000  1.0 -0.0601324932
C  C586  1  0.43600000  0.20330000  0.02210000  1.0 -0.0601324932
C  C587  1  0.02210000  0.43600000  0.20330000  1.0 -0.0601324932
C  C588  1  0.20330000  0.02210000  0.43600000  1.0 -0.0601324932
C  C589  1  0.72191000  0.89061000  0.53061000  1.0 -0.1980688534
C  C590  1  0.89061000  0.53061000  0.72191000  1.0 -0.1980688534
C  C591  1  0.53061000  0.72191000  0.89061000  1.0 -0.1980688534
C  C592  1  0.60939000  0.77809000  0.96939000  1.0 -0.1980688534
C  C593  1  0.96939000  0.60939000  0.77809000  1.0 -0.1980688534
C  C594  1  0.77809000  0.96939000  0.60939000  1.0 -0.1980688534
C  C595  1  0.27809000  0.10939000  0.46939000  1.0 -0.1980688534
C  C596  1  0.10939000  0.46939000  0.27809000  1.0 -0.1980688534
C  C597  1  0.46939000  0.27809000  0.10939000  1.0 -0.1980688534
C  C598  1  0.39061000  0.22191000  0.03061000  1.0 -0.1980688534
C  C599  1  0.03061000  0.39061000  0.22191000  1.0 -0.1980688534
C  C600  1  0.22191000  0.03061000  0.39061000  1.0 -0.1980688534
C  C601  1  0.75842000  0.87390000  0.50118000  1.0 0.0030077845
C  C602  1  0.87390000  0.50118000  0.75842000  1.0 0.0030077845
C  C603  1  0.50118000  0.75842000  0.87390000  1.0 0.0030077845
C  C604  1  0.62610000  0.74158000  0.99882000  1.0 0.0030077845
C  C605  1  0.99882000  0.62610000  0.74158000  1.0 0.0030077845
C  C606  1  0.74158000  0.99882000  0.62610000  1.0 0.0030077845
C  C607  1  0.24158000  0.12610000  0.49882000  1.0 0.0030077845
C  C608  1  0.12610000  0.49882000  0.24158000  1.0 0.0030077845
C  C609  1  0.49882000  0.24158000  0.12610000  1.0 0.0030077845
C  C610  1  0.37390000  0.25842000  0.00118000  1.0 0.0030077845
C  C611  1  0.00118000  0.37390000  0.25842000  1.0 0.0030077845
C  C612  1  0.25842000  0.00118000  0.37390000  1.0 0.0030077845
C  C613  1  0.77466000  0.90095000  0.46194000  1.0 -0.1303766953
C  C614  1  0.90095000  0.46194000  0.77466000  1.0 -0.1303766953
C  C615  1  0.46194000  0.77466000  0.90095000  1.0 -0.1303766953
C  C616  1  0.59905000  0.72534000  0.03806000  1.0 -0.1303766953
C  C617  1  0.03806000  0.59905000  0.72534000  1.0 -0.1303766953
C  C618  1  0.72534000  0.03806000  0.59905000  1.0 -0.1303766953
C  C619  1  0.22534000  0.09905000  0.53806000  1.0 -0.1303766953
C  C620  1  0.09905000  0.53806000  0.22534000  1.0 -0.1303766953
C  C621  1  0.53806000  0.22534000  0.09905000  1.0 -0.1303766953
C  C622  1  0.40095000  0.27466000  0.96194000  1.0 -0.1303766953
C  C623  1  0.96194000  0.40095000  0.27466000  1.0 -0.1303766953
C  C624  1  0.27466000  0.96194000  0.40095000  1.0 -0.1303766953
C  C625  1  0.71622000  0.05481000  0.25894000  1.0 -0.0601324932
C  C626  1  0.05481000  0.25894000  0.71622000  1.0 -0.0601324932
C  C627  1  0.25894000  0.71622000  0.05481000  1.0 -0.0601324932
C  C628  1  0.44519000  0.78378000  0.24106000  1.0 -0.0601324932
C  C629  1  0.24106000  0.44519000  0.78378000  1.0 -0.0601324932
C  C630  1  0.78378000  0.24106000  0.44519000  1.0 -0.0601324932
C  C631  1  0.28378000  0.94519000  0.74106000  1.0 -0.0601324932
C  C632  1  0.94519000  0.74106000  0.28378000  1.0 -0.0601324932
C  C633  1  0.74106000  0.28378000  0.94519000  1.0 -0.0601324932
C  C634  1  0.55481000  0.21622000  0.75894000  1.0 -0.0601324932
C  C635  1  0.75894000  0.55481000  0.21622000  1.0 -0.0601324932
C  C636  1  0.21622000  0.75894000  0.55481000  1.0 -0.0601324932
C  C637  1  0.66432000  0.01862000  0.23381000  1.0 0.2699586011
C  C638  1  0.01862000  0.23381000  0.66432000  1.0 0.2699586011
C  C639  1  0.23381000  0.66432000  0.01862000  1.0 0.2699586011
C  C640  1  0.48138000  0.83568000  0.26619000  1.0 0.2699586011
C  C641  1  0.26619000  0.48138000  0.83568000  1.0 0.2699586011
C  C642  1  0.83568000  0.26619000  0.48138000  1.0 0.2699586011
C  C643  1  0.33568000  0.98138000  0.76619000  1.0 0.2699586011
C  C644  1  0.98138000  0.76619000  0.33568000  1.0 0.2699586011
C  C645  1  0.76619000  0.33568000  0.98138000  1.0 0.2699586011
C  C646  1  0.51862000  0.16432000  0.73381000  1.0 0.2699586011
C  C647  1  0.73381000  0.51862000  0.16432000  1.0 0.2699586011
C  C648  1  0.16432000  0.73381000  0.51862000  1.0 0.2699586011
C  C649  1  0.62898000  0.05483000  0.24029000  1.0 -0.2494680693
C  C650  1  0.05483000  0.24029000  0.62898000  1.0 -0.2494680693
C  C651  1  0.24029000  0.62898000  0.05483000  1.0 -0.2494680693
C  C652  1  0.44517000  0.87102000  0.25971000  1.0 -0.2494680693
C  C653  1  0.25971000  0.44517000  0.87102000  1.0 -0.2494680693
C  C654  1  0.87102000  0.25971000  0.44517000  1.0 -0.2494680693
C  C655  1  0.37102000  0.94517000  0.75971000  1.0 -0.2494680693
C  C656  1  0.94517000  0.75971000  0.37102000  1.0 -0.2494680693
C  C657  1  0.75971000  0.37102000  0.94517000  1.0 -0.2494680693
C  C658  1  0.55483000  0.12898000  0.74029000  1.0 -0.2494680693
C  C659  1  0.74029000  0.55483000  0.12898000  1.0 -0.2494680693
C  C660  1  0.12898000  0.74029000  0.55483000  1.0 -0.2494680693
C  C661  1  0.57391000  0.01421000  0.22531000  1.0 -0.1384893388
C  C662  1  0.01421000  0.22531000  0.57391000  1.0 -0.1384893388
C  C663  1  0.22531000  0.57391000  0.01421000  1.0 -0.1384893388
C  C664  1  0.48579000  0.92609000  0.27469000  1.0 -0.1384893388
C  C665  1  0.27469000  0.48579000  0.92609000  1.0 -0.1384893388
C  C666  1  0.92609000  0.27469000  0.48579000  1.0 -0.1384893388
C  C667  1  0.42609000  0.98579000  0.77469000  1.0 -0.1384893388
C  C668  1  0.98579000  0.77469000  0.42609000  1.0 -0.1384893388
C  C669  1  0.77469000  0.42609000  0.98579000  1.0 -0.1384893388
C  C670  1  0.51421000  0.07391000  0.72531000  1.0 -0.1384893388
C  C671  1  0.72531000  0.51421000  0.07391000  1.0 -0.1384893388
C  C672  1  0.07391000  0.72531000  0.51421000  1.0 -0.1384893388
C  C673  1  0.60781000  0.97791000  0.21811000  1.0 -0.0962701483
C  C674  1  0.97791000  0.21811000  0.60781000  1.0 -0.0962701483
C  C675  1  0.21811000  0.60781000  0.97791000  1.0 -0.0962701483
C  C676  1  0.52209000  0.89219000  0.28189000  1.0 -0.0962701483
C  C677  1  0.28189000  0.52209000  0.89219000  1.0 -0.0962701483
C  C678  1  0.89219000  0.28189000  0.52209000  1.0 -0.0962701483
C  C679  1  0.39219000  0.02209000  0.78189000  1.0 -0.0962701483
C  C680  1  0.02209000  0.78189000  0.39219000  1.0 -0.0962701483
C  C681  1  0.78189000  0.39219000  0.02209000  1.0 -0.0962701483
C  C682  1  0.47791000  0.10781000  0.71811000  1.0 -0.0962701483
C  C683  1  0.71811000  0.47791000  0.10781000  1.0 -0.0962701483
C  C684  1  0.10781000  0.71811000  0.47791000  1.0 -0.0962701483
C  C685  1  0.58418000  0.05268000  0.23531000  1.0 0.0030077845
C  C686  1  0.05268000  0.23531000  0.58418000  1.0 0.0030077845
C  C687  1  0.23531000  0.58418000  0.05268000  1.0 0.0030077845
C  C688  1  0.44732000  0.91582000  0.26469000  1.0 0.0030077845
C  C689  1  0.26469000  0.44732000  0.91582000  1.0 0.0030077845
C  C690  1  0.91582000  0.26469000  0.44732000  1.0 0.0030077845
C  C691  1  0.41582000  0.94732000  0.76469000  1.0 0.0030077845
C  C692  1  0.94732000  0.76469000  0.41582000  1.0 0.0030077845
C  C693  1  0.76469000  0.41582000  0.94732000  1.0 0.0030077845
C  C694  1  0.55268000  0.08418000  0.73531000  1.0 0.0030077845
C  C695  1  0.73531000  0.55268000  0.08418000  1.0 0.0030077845
C  C696  1  0.08418000  0.73531000  0.55268000  1.0 0.0030077845
C  C697  1  0.65379000  0.97909000  0.22219000  1.0 -0.2291883534
C  C698  1  0.97909000  0.22219000  0.65379000  1.0 -0.2291883534
C  C699  1  0.22219000  0.65379000  0.97909000  1.0 -0.2291883534
C  C700  1  0.52091000  0.84621000  0.27781000  1.0 -0.2291883534
C  C701  1  0.27781000  0.52091000  0.84621000  1.0 -0.2291883534
C  C702  1  0.84621000  0.27781000  0.52091000  1.0 -0.2291883534
C  C703  1  0.34621000  0.02091000  0.77781000  1.0 -0.2291883534
C  C704  1  0.02091000  0.77781000  0.34621000  1.0 -0.2291883534
C  C705  1  0.77781000  0.34621000  0.02091000  1.0 -0.2291883534
C  C706  1  0.47909000  0.15379000  0.72219000  1.0 -0.2291883534
C  C707  1  0.72219000  0.47909000  0.15379000  1.0 -0.2291883534
C  C708  1  0.15379000  0.72219000  0.47909000  1.0 -0.2291883534
C  C709  1  0.79965000  0.99801000  0.34052000  1.0 -0.1120846954
C  C710  1  0.99801000  0.34052000  0.79965000  1.0 -0.1120846954
C  C711  1  0.34052000  0.79965000  0.99801000  1.0 -0.1120846954
C  C712  1  0.50199000  0.70035000  0.15948000  1.0 -0.1120846954
C  C713  1  0.15948000  0.50199000  0.70035000  1.0 -0.1120846954
C  C714  1  0.70035000  0.15948000  0.50199000  1.0 -0.1120846954
C  C715  1  0.20035000  0.00199000  0.65948000  1.0 -0.1120846954
C  C716  1  0.00199000  0.65948000  0.20035000  1.0 -0.1120846954
C  C717  1  0.65948000  0.20035000  0.00199000  1.0 -0.1120846954
C  C718  1  0.49801000  0.29965000  0.84052000  1.0 -0.1120846954
C  C719  1  0.84052000  0.49801000  0.29965000  1.0 -0.1120846954
C  C720  1  0.29965000  0.84052000  0.49801000  1.0 -0.1120846954
C  C721  1  0.54875000  0.09395000  0.24255000  1.0 0.5408267236
C  C722  1  0.09395000  0.24255000  0.54875000  1.0 0.5408267236
C  C723  1  0.24255000  0.54875000  0.09395000  1.0 0.5408267236
C  C724  1  0.40605000  0.95125000  0.25745000  1.0 0.5408267236
C  C725  1  0.25745000  0.40605000  0.95125000  1.0 0.5408267236
C  C726  1  0.95125000  0.25745000  0.40605000  1.0 0.5408267236
C  C727  1  0.45125000  0.90605000  0.75745000  1.0 0.5408267236
C  C728  1  0.90605000  0.75745000  0.45125000  1.0 0.5408267236
C  C729  1  0.75745000  0.45125000  0.90605000  1.0 0.5408267236
C  C730  1  0.59395000  0.04875000  0.74255000  1.0 0.5408267236
C  C731  1  0.74255000  0.59395000  0.04875000  1.0 0.5408267236
C  C732  1  0.04875000  0.74255000  0.59395000  1.0 0.5408267236
C  C733  1  0.79975000  0.96062000  0.38084000  1.0 0.0235186083
C  C734  1  0.96062000  0.38084000  0.79975000  1.0 0.0235186083
C  C735  1  0.38084000  0.79975000  0.96062000  1.0 0.0235186083
C  C736  1  0.53938000  0.70025000  0.11916000  1.0 0.0235186083
C  C737  1  0.11916000  0.53938000  0.70025000  1.0 0.0235186083
C  C738  1  0.70025000  0.11916000  0.53938000  1.0 0.0235186083
C  C739  1  0.20025000  0.03938000  0.61916000  1.0 0.0235186083
C  C740  1  0.03938000  0.61916000  0.20025000  1.0 0.0235186083
C  C741  1  0.61916000  0.20025000  0.03938000  1.0 0.0235186083
C  C742  1  0.46062000  0.29975000  0.88084000  1.0 0.0235186083
C  C743  1  0.88084000  0.46062000  0.29975000  1.0 0.0235186083
C  C744  1  0.29975000  0.88084000  0.46062000  1.0 0.0235186083
C  C745  1  0.49372000  0.04253000  0.08284000  1.0 -0.0495219969
C  C746  1  0.04253000  0.08284000  0.49372000  1.0 -0.0495219969
C  C747  1  0.08284000  0.49372000  0.04253000  1.0 -0.0495219969
C  C748  1  0.45747000  0.00628000  0.41716000  1.0 -0.0495219969
C  C749  1  0.41716000  0.45747000  0.00628000  1.0 -0.0495219969
C  C750  1  0.00628000  0.41716000  0.45747000  1.0 -0.0495219969
C  C751  1  0.50628000  0.95747000  0.91716000  1.0 -0.0495219969
C  C752  1  0.95747000  0.91716000  0.50628000  1.0 -0.0495219969
C  C753  1  0.91716000  0.50628000  0.95747000  1.0 -0.0495219969
C  C754  1  0.54253000  0.99372000  0.58284000  1.0 -0.0495219969
C  C755  1  0.58284000  0.54253000  0.99372000  1.0 -0.0495219969
C  C756  1  0.99372000  0.58284000  0.54253000  1.0 -0.0495219969
C  C757  1  0.37329000  0.79951000  0.16114000  1.0 -0.148021069
C  C758  1  0.79951000  0.16114000  0.37329000  1.0 -0.148021069
C  C759  1  0.16114000  0.37329000  0.79951000  1.0 -0.148021069
C  C760  1  0.70049000  0.12671000  0.33886000  1.0 -0.148021069
C  C761  1  0.33886000  0.70049000  0.12671000  1.0 -0.148021069
C  C762  1  0.12671000  0.33886000  0.70049000  1.0 -0.148021069
C  C763  1  0.62671000  0.20049000  0.83886000  1.0 -0.148021069
C  C764  1  0.20049000  0.83886000  0.62671000  1.0 -0.148021069
C  C765  1  0.83886000  0.62671000  0.20049000  1.0 -0.148021069
C  C766  1  0.29951000  0.87329000  0.66114000  1.0 -0.148021069
C  C767  1  0.66114000  0.29951000  0.87329000  1.0 -0.148021069
C  C768  1  0.87329000  0.66114000  0.29951000  1.0 -0.148021069
C  C769  1  0.40462000  0.80273000  0.12194000  1.0 -0.0859980904
C  C770  1  0.80273000  0.12194000  0.40462000  1.0 -0.0859980904
C  C771  1  0.12194000  0.40462000  0.80273000  1.0 -0.0859980904
C  C772  1  0.69727000  0.09538000  0.37806000  1.0 -0.0859980904
C  C773  1  0.37806000  0.69727000  0.09538000  1.0 -0.0859980904
C  C774  1  0.09538000  0.37806000  0.69727000  1.0 -0.0859980904
C  C775  1  0.59538000  0.19727000  0.87806000  1.0 -0.0859980904
C  C776  1  0.19727000  0.87806000  0.59538000  1.0 -0.0859980904
C  C777  1  0.87806000  0.59538000  0.19727000  1.0 -0.0859980904
C  C778  1  0.30273000  0.90462000  0.62194000  1.0 -0.0859980904
C  C779  1  0.62194000  0.30273000  0.90462000  1.0 -0.0859980904
C  C780  1  0.90462000  0.62194000  0.30273000  1.0 -0.0859980904
C  C781  1  0.85666000  0.70306000  0.61416000  1.0 0.4416832881
C  C782  1  0.70306000  0.61416000  0.85666000  1.0 0.4416832881
C  C783  1  0.61416000  0.85666000  0.70306000  1.0 0.4416832881
C  C784  1  0.79694000  0.64334000  0.88584000  1.0 0.4416832881
C  C785  1  0.88584000  0.79694000  0.64334000  1.0 0.4416832881
C  C786  1  0.64334000  0.88584000  0.79694000  1.0 0.4416832881
C  C787  1  0.14334000  0.29694000  0.38584000  1.0 0.4416832881
C  C788  1  0.29694000  0.38584000  0.14334000  1.0 0.4416832881
C  C789  1  0.38584000  0.14334000  0.29694000  1.0 0.4416832881
C  C790  1  0.20306000  0.35666000  0.11416000  1.0 0.4416832881
C  C791  1  0.11416000  0.20306000  0.35666000  1.0 0.4416832881
C  C792  1  0.35666000  0.11416000  0.20306000  1.0 0.4416832881
C  C793  1  0.92690000  0.65990000  0.62230000  1.0 -0.4261092388
C  C794  1  0.65990000  0.62230000  0.92690000  1.0 -0.4261092388
C  C795  1  0.62230000  0.92690000  0.65990000  1.0 -0.4261092388
C  C796  1  0.84010000  0.57310000  0.87770000  1.0 -0.4261092388
C  C797  1  0.87770000  0.84010000  0.57310000  1.0 -0.4261092388
C  C798  1  0.57310000  0.87770000  0.84010000  1.0 -0.4261092388
C  C799  1  0.07310000  0.34010000  0.37770000  1.0 -0.4261092388
C  C800  1  0.34010000  0.37770000  0.07310000  1.0 -0.4261092388
C  C801  1  0.37770000  0.07310000  0.34010000  1.0 -0.4261092388
C  C802  1  0.15990000  0.42690000  0.12230000  1.0 -0.4261092388
C  C803  1  0.12230000  0.15990000  0.42690000  1.0 -0.4261092388
C  C804  1  0.42690000  0.12230000  0.15990000  1.0 -0.4261092388
C  C805  1  0.86290000  0.66430000  0.69000000  1.0 -0.3442266229
C  C806  1  0.66430000  0.69000000  0.86290000  1.0 -0.3442266229
C  C807  1  0.69000000  0.86290000  0.66430000  1.0 -0.3442266229
C  C808  1  0.83570000  0.63710000  0.81000000  1.0 -0.3442266229
C  C809  1  0.81000000  0.83570000  0.63710000  1.0 -0.3442266229
C  C810  1  0.63710000  0.81000000  0.83570000  1.0 -0.3442266229
C  C811  1  0.13710000  0.33570000  0.31000000  1.0 -0.3442266229
C  C812  1  0.33570000  0.31000000  0.13710000  1.0 -0.3442266229
C  C813  1  0.31000000  0.13710000  0.33570000  1.0 -0.3442266229
C  C814  1  0.16430000  0.36290000  0.19000000  1.0 -0.3442266229
C  C815  1  0.19000000  0.16430000  0.36290000  1.0 -0.3442266229
C  C816  1  0.36290000  0.19000000  0.16430000  1.0 -0.3442266229
C  C817  1  0.81010000  0.72610000  0.63210000  1.0 -0.3918368065
C  C818  1  0.72610000  0.63210000  0.81010000  1.0 -0.3918368065
C  C819  1  0.63210000  0.81010000  0.72610000  1.0 -0.3918368065
C  C820  1  0.77390000  0.68990000  0.86790000  1.0 -0.3918368065
C  C821  1  0.86790000  0.77390000  0.68990000  1.0 -0.3918368065
C  C822  1  0.68990000  0.86790000  0.77390000  1.0 -0.3918368065
C  C823  1  0.18990000  0.27390000  0.36790000  1.0 -0.3918368065
C  C824  1  0.27390000  0.36790000  0.18990000  1.0 -0.3918368065
C  C825  1  0.36790000  0.18990000  0.27390000  1.0 -0.3918368065
C  C826  1  0.22610000  0.31010000  0.13210000  1.0 -0.3918368065
C  C827  1  0.13210000  0.22610000  0.31010000  1.0 -0.3918368065
C  C828  1  0.31010000  0.13210000  0.22610000  1.0 -0.3918368065
C  C829  1  0.78190000  0.82690000  0.51150000  1.0 0.2855924921
C  C830  1  0.82690000  0.51150000  0.78190000  1.0 0.2855924921
C  C831  1  0.51150000  0.78190000  0.82690000  1.0 0.2855924921
C  C832  1  0.67310000  0.71810000  0.98850000  1.0 0.2855924921
C  C833  1  0.98850000  0.67310000  0.71810000  1.0 0.2855924921
C  C834  1  0.71810000  0.98850000  0.67310000  1.0 0.2855924921
C  C835  1  0.21810000  0.17310000  0.48850000  1.0 0.2855924921
C  C836  1  0.17310000  0.48850000  0.21810000  1.0 0.2855924921
C  C837  1  0.48850000  0.21810000  0.17310000  1.0 0.2855924921
C  C838  1  0.32690000  0.28190000  0.01150000  1.0 0.2855924921
C  C839  1  0.01150000  0.32690000  0.28190000  1.0 0.2855924921
C  C840  1  0.28190000  0.01150000  0.32690000  1.0 0.2855924921
C  C841  1  0.49300000  0.18690000  0.16590000  1.0 0.2412492975
C  C842  1  0.18690000  0.16590000  0.49300000  1.0 0.2412492975
C  C843  1  0.16590000  0.49300000  0.18690000  1.0 0.2412492975
C  C844  1  0.31310000  0.00700000  0.33410000  1.0 0.2412492975
C  C845  1  0.33410000  0.31310000  0.00700000  1.0 0.2412492975
C  C846  1  0.00700000  0.33410000  0.31310000  1.0 0.2412492975
C  C847  1  0.50700000  0.81310000  0.83410000  1.0 0.2412492975
C  C848  1  0.81310000  0.83410000  0.50700000  1.0 0.2412492975
C  C849  1  0.83410000  0.50700000  0.81310000  1.0 0.2412492975
C  C850  1  0.68690000  0.99300000  0.66590000  1.0 0.2412492975
C  C851  1  0.66590000  0.68690000  0.99300000  1.0 0.2412492975
C  C852  1  0.99300000  0.66590000  0.68690000  1.0 0.2412492975
C  C853  1  0.49237000  0.19057000  0.11747000  1.0 0.007782644
C  C854  1  0.19057000  0.11747000  0.49237000  1.0 0.007782644
C  C855  1  0.11747000  0.49237000  0.19057000  1.0 0.007782644
C  C856  1  0.30943000  0.00763000  0.38253000  1.0 0.007782644
C  C857  1  0.38253000  0.30943000  0.00763000  1.0 0.007782644
C  C858  1  0.00763000  0.38253000  0.30943000  1.0 0.007782644
C  C859  1  0.50763000  0.80943000  0.88253000  1.0 0.007782644
C  C860  1  0.80943000  0.88253000  0.50763000  1.0 0.007782644
C  C861  1  0.88253000  0.50763000  0.80943000  1.0 0.007782644
C  C862  1  0.69057000  0.99237000  0.61747000  1.0 0.007782644
C  C863  1  0.61747000  0.69057000  0.99237000  1.0 0.007782644
C  C864  1  0.99237000  0.61747000  0.69057000  1.0 0.007782644
C  C865  1  0.53400000  0.19800000  0.09040000  1.0 -0.1169666045
C  C866  1  0.19800000  0.09040000  0.53400000  1.0 -0.1169666045
C  C867  1  0.09040000  0.53400000  0.19800000  1.0 -0.1169666045
C  C868  1  0.30200000  0.96600000  0.40960000  1.0 -0.1169666045
C  C869  1  0.40960000  0.30200000  0.96600000  1.0 -0.1169666045
C  C870  1  0.96600000  0.40960000  0.30200000  1.0 -0.1169666045
C  C871  1  0.46600000  0.80200000  0.90960000  1.0 -0.1169666045
C  C872  1  0.80200000  0.90960000  0.46600000  1.0 -0.1169666045
C  C873  1  0.90960000  0.46600000  0.80200000  1.0 -0.1169666045
C  C874  1  0.69800000  0.03400000  0.59040000  1.0 -0.1169666045
C  C875  1  0.59040000  0.69800000  0.03400000  1.0 -0.1169666045
C  C876  1  0.03400000  0.59040000  0.69800000  1.0 -0.1169666045
C  C877  1  0.53930000  0.19970000  0.04290000  1.0 0.0902054147
C  C878  1  0.19970000  0.04290000  0.53930000  1.0 0.0902054147
C  C879  1  0.04290000  0.53930000  0.19970000  1.0 0.0902054147
C  C880  1  0.30030000  0.96070000  0.45710000  1.0 0.0902054147
C  C881  1  0.45710000  0.30030000  0.96070000  1.0 0.0902054147
C  C882  1  0.96070000  0.45710000  0.30030000  1.0 0.0902054147
C  C883  1  0.46070000  0.80030000  0.95710000  1.0 0.0902054147
C  C884  1  0.80030000  0.95710000  0.46070000  1.0 0.0902054147
C  C885  1  0.95710000  0.46070000  0.80030000  1.0 0.0902054147
C  C886  1  0.69970000  0.03930000  0.54290000  1.0 0.0902054147
C  C887  1  0.54290000  0.69970000  0.03930000  1.0 0.0902054147
C  C888  1  0.03930000  0.54290000  0.69970000  1.0 0.0902054147
C  C889  1  0.50050000  0.19570000  0.02420000  1.0 -0.1793494398
C  C890  1  0.19570000  0.02420000  0.50050000  1.0 -0.1793494398
C  C891  1  0.02420000  0.50050000  0.19570000  1.0 -0.1793494398
C  C892  1  0.30430000  0.99950000  0.47580000  1.0 -0.1793494398
C  C893  1  0.47580000  0.30430000  0.99950000  1.0 -0.1793494398
C  C894  1  0.99950000  0.47580000  0.30430000  1.0 -0.1793494398
C  C895  1  0.49950000  0.80430000  0.97580000  1.0 -0.1793494398
C  C896  1  0.80430000  0.97580000  0.49950000  1.0 -0.1793494398
C  C897  1  0.97580000  0.49950000  0.80430000  1.0 -0.1793494398
C  C898  1  0.69570000  0.00050000  0.52420000  1.0 -0.1793494398
C  C899  1  0.52420000  0.69570000  0.00050000  1.0 -0.1793494398
C  C900  1  0.00050000  0.52420000  0.69570000  1.0 -0.1793494398
C  C901  1  0.46210000  0.18890000  0.04960000  1.0 -0.0704590017
C  C902  1  0.18890000  0.04960000  0.46210000  1.0 -0.0704590017
C  C903  1  0.04960000  0.46210000  0.18890000  1.0 -0.0704590017
C  C904  1  0.31110000  0.03790000  0.45040000  1.0 -0.0704590017
C  C905  1  0.45040000  0.31110000  0.03790000  1.0 -0.0704590017
C  C906  1  0.03790000  0.45040000  0.31110000  1.0 -0.0704590017
C  C907  1  0.53790000  0.81110000  0.95040000  1.0 -0.0704590017
C  C908  1  0.81110000  0.95040000  0.53790000  1.0 -0.0704590017
C  C909  1  0.95040000  0.53790000  0.81110000  1.0 -0.0704590017
C  C910  1  0.68890000  0.96210000  0.54960000  1.0 -0.0704590017
C  C911  1  0.54960000  0.68890000  0.96210000  1.0 -0.0704590017
C  C912  1  0.96210000  0.54960000  0.68890000  1.0 -0.0704590017
C  C913  1  0.45760000  0.18420000  0.09690000  1.0 -0.2494680693
C  C914  1  0.18420000  0.09690000  0.45760000  1.0 -0.2494680693
C  C915  1  0.09690000  0.45760000  0.18420000  1.0 -0.2494680693
C  C916  1  0.31580000  0.04240000  0.40310000  1.0 -0.2494680693
C  C917  1  0.40310000  0.31580000  0.04240000  1.0 -0.2494680693
C  C918  1  0.04240000  0.40310000  0.31580000  1.0 -0.2494680693
C  C919  1  0.54240000  0.81580000  0.90310000  1.0 -0.2494680693
C  C920  1  0.81580000  0.90310000  0.54240000  1.0 -0.2494680693
C  C921  1  0.90310000  0.54240000  0.81580000  1.0 -0.2494680693
C  C922  1  0.68420000  0.95760000  0.59690000  1.0 -0.2494680693
C  C923  1  0.59690000  0.68420000  0.95760000  1.0 -0.2494680693
C  C924  1  0.95760000  0.59690000  0.68420000  1.0 -0.2494680693
N  N1  1  0.87850000  0.67600000  0.64200000  1.0 -0.0816902503
N  N2  1  0.67600000  0.64200000  0.87850000  1.0 -0.0816902503
N  N3  1  0.64200000  0.87850000  0.67600000  1.0 -0.0816902503
N  N4  1  0.82400000  0.62150000  0.85800000  1.0 -0.0816902503
N  N5  1  0.85800000  0.82400000  0.62150000  1.0 -0.0816902503
N  N6  1  0.62150000  0.85800000  0.82400000  1.0 -0.0816902503
N  N7  1  0.12150000  0.32400000  0.35800000  1.0 -0.0816902503
N  N8  1  0.32400000  0.35800000  0.12150000  1.0 -0.0816902503
N  N9  1  0.35800000  0.12150000  0.32400000  1.0 -0.0816902503
N  N10  1  0.17600000  0.37850000  0.14200000  1.0 -0.0816902503
N  N11  1  0.14200000  0.17600000  0.37850000  1.0 -0.0816902503
N  N12  1  0.37850000  0.14200000  0.17600000  1.0 -0.0816902503
O  O1  1  0.55966000  0.12833000  0.25438000  1.0 -0.5802929179
O  O2  1  0.12833000  0.25438000  0.55966000  1.0 -0.5802929179
O  O3  1  0.25438000  0.55966000  0.12833000  1.0 -0.5802929179
O  O4  1  0.37167000  0.94034000  0.24562000  1.0 -0.5802929179
O  O5  1  0.24562000  0.37167000  0.94034000  1.0 -0.5802929179
O  O6  1  0.94034000  0.24562000  0.37167000  1.0 -0.5802929179
O  O7  1  0.44034000  0.87167000  0.74562000  1.0 -0.5802929179
O  O8  1  0.87167000  0.74562000  0.44034000  1.0 -0.5802929179
O  O9  1  0.74562000  0.44034000  0.87167000  1.0 -0.5802929179
O  O10  1  0.62833000  0.05966000  0.75438000  1.0 -0.5802929179
O  O11  1  0.75438000  0.62833000  0.05966000  1.0 -0.5802929179
O  O12  1  0.05966000  0.75438000  0.62833000  1.0 -0.5802929179
O  O13  1  0.51027000  0.09194000  0.23486000  1.0 -0.496109023
O  O14  1  0.09194000  0.23486000  0.51027000  1.0 -0.496109023
O  O15  1  0.23486000  0.51027000  0.09194000  1.0 -0.496109023
O  O16  1  0.40806000  0.98973000  0.26514000  1.0 -0.496109023
O  O17  1  0.26514000  0.40806000  0.98973000  1.0 -0.496109023
O  O18  1  0.98973000  0.26514000  0.40806000  1.0 -0.496109023
O  O19  1  0.48973000  0.90806000  0.76514000  1.0 -0.496109023
O  O20  1  0.90806000  0.76514000  0.48973000  1.0 -0.496109023
O  O21  1  0.76514000  0.48973000  0.90806000  1.0 -0.496109023
O  O22  1  0.59194000  0.01027000  0.73486000  1.0 -0.496109023
O  O23  1  0.73486000  0.59194000  0.01027000  1.0 -0.496109023
O  O24  1  0.01027000  0.73486000  0.59194000  1.0 -0.496109023
O  O25  1  0.70828000  0.01839000  0.23796000  1.0 -0.148021069
O  O26  1  0.01839000  0.23796000  0.70828000  1.0 -0.148021069
O  O27  1  0.23796000  0.70828000  0.01839000  1.0 -0.148021069
O  O28  1  0.48161000  0.79172000  0.26204000  1.0 -0.148021069
O  O29  1  0.26204000  0.48161000  0.79172000  1.0 -0.148021069
O  O30  1  0.79172000  0.26204000  0.48161000  1.0 -0.148021069
O  O31  1  0.29172000  0.98161000  0.76204000  1.0 -0.148021069
O  O32  1  0.98161000  0.76204000  0.29172000  1.0 -0.148021069
O  O33  1  0.76204000  0.29172000  0.98161000  1.0 -0.148021069
O  O34  1  0.51839000  0.20828000  0.73796000  1.0 -0.148021069
O  O35  1  0.73796000  0.51839000  0.20828000  1.0 -0.148021069
O  O36  1  0.20828000  0.73796000  0.51839000  1.0 -0.148021069
O  O37  1  0.76916000  0.97684000  0.41792000  1.0 -0.0110234092
O  O38  1  0.97684000  0.41792000  0.76916000  1.0 -0.0110234092
O  O39  1  0.41792000  0.76916000  0.97684000  1.0 -0.0110234092
O  O40  1  0.52316000  0.73084000  0.08208000  1.0 -0.0110234092
O  O41  1  0.08208000  0.52316000  0.73084000  1.0 -0.0110234092
O  O42  1  0.73084000  0.08208000  0.52316000  1.0 -0.0110234092
O  O43  1  0.23084000  0.02316000  0.58208000  1.0 -0.0110234092
O  O44  1  0.02316000  0.58208000  0.23084000  1.0 -0.0110234092
O  O45  1  0.58208000  0.23084000  0.02316000  1.0 -0.0110234092
O  O46  1  0.47684000  0.26916000  0.91792000  1.0 -0.0110234092
O  O47  1  0.91792000  0.47684000  0.26916000  1.0 -0.0110234092
O  O48  1  0.26916000  0.91792000  0.47684000  1.0 -0.0110234092
O  O49  1  0.80554000  0.81058000  0.48021000  1.0 -0.2732594101
O  O50  1  0.81058000  0.48021000  0.80554000  1.0 -0.2732594101
O  O51  1  0.48021000  0.80554000  0.81058000  1.0 -0.2732594101
O  O52  1  0.68942000  0.69446000  0.01979000  1.0 -0.2732594101
O  O53  1  0.01979000  0.68942000  0.69446000  1.0 -0.2732594101
O  O54  1  0.69446000  0.01979000  0.68942000  1.0 -0.2732594101
O  O55  1  0.19446000  0.18942000  0.51979000  1.0 -0.2732594101
O  O56  1  0.18942000  0.51979000  0.19446000  1.0 -0.2732594101
O  O57  1  0.51979000  0.19446000  0.18942000  1.0 -0.2732594101
O  O58  1  0.31058000  0.30554000  0.98021000  1.0 -0.2732594101
O  O59  1  0.98021000  0.31058000  0.30554000  1.0 -0.2750608765
O  O60  1  0.30554000  0.98021000  0.31058000  1.0 -0.2732594101
O  O61  1  0.61373000  0.15720000  0.16298000  1.0 -0.5802929179
O  O62  1  0.15720000  0.16298000  0.61373000  1.0 -0.5802929179
O  O63  1  0.16298000  0.61373000  0.15720000  1.0 -0.5802929179
O  O64  1  0.34280000  0.88627000  0.33702000  1.0 -0.5802929179
O  O65  1  0.33702000  0.34280000  0.88627000  1.0 -0.5802929179
O  O66  1  0.88627000  0.33702000  0.34280000  1.0 -0.5802929179
O  O67  1  0.38627000  0.84280000  0.83702000  1.0 -0.5802929179
O  O68  1  0.84280000  0.83702000  0.38627000  1.0 -0.5802929179
O  O69  1  0.83702000  0.38627000  0.84280000  1.0 -0.5802929179
O  O70  1  0.65720000  0.11373000  0.66298000  1.0 -0.5802929179
O  O71  1  0.66298000  0.65720000  0.11373000  1.0 -0.5802929179
O  O72  1  0.11373000  0.66298000  0.65720000  1.0 -0.5802929179
O  O73  1  0.68951000  0.14314000  0.15748000  1.0 -0.5592885706
O  O74  1  0.14314000  0.15748000  0.68951000  1.0 -0.5592885706
O  O75  1  0.15748000  0.68951000  0.14314000  1.0 -0.5592885706
O  O76  1  0.35686000  0.81049000  0.34252000  1.0 -0.5592885706
O  O77  1  0.34252000  0.35686000  0.81049000  1.0 -0.5592885706
O  O78  1  0.81049000  0.34252000  0.35686000  1.0 -0.5592885706
O  O79  1  0.31049000  0.85686000  0.84252000  1.0 -0.5592885706
O  O80  1  0.85686000  0.84252000  0.31049000  1.0 -0.5592885706
O  O81  1  0.84252000  0.31049000  0.85686000  1.0 -0.5592885706
O  O82  1  0.64314000  0.18951000  0.65748000  1.0 -0.5592885706
O  O83  1  0.65748000  0.64314000  0.18951000  1.0 -0.5592885706
O  O84  1  0.18951000  0.65748000  0.64314000  1.0 -0.5592885706
O  O85  1  0.90858000  0.07424000  0.25805000  1.0 -0.1589402463
O  O86  1  0.07424000  0.25805000  0.90858000  1.0 -0.1589402463
O  O87  1  0.25805000  0.90858000  0.07424000  1.0 -0.1589402463
O  O88  1  0.42576000  0.59142000  0.24195000  1.0 -0.1589402463
O  O89  1  0.24195000  0.42576000  0.59142000  1.0 -0.1589402463
O  O90  1  0.59142000  0.24195000  0.42576000  1.0 -0.1589402463
O  O91  1  0.09142000  0.92576000  0.74195000  1.0 -0.1589402463
O  O92  1  0.92576000  0.74195000  0.09142000  1.0 -0.1589402463
O  O93  1  0.74195000  0.09142000  0.92576000  1.0 -0.1589402463
O  O94  1  0.57424000  0.40858000  0.75805000  1.0 -0.1589402463
O  O95  1  0.75805000  0.57424000  0.40858000  1.0 -0.1589402463
O  O96  1  0.40858000  0.75805000  0.57424000  1.0 -0.1589402463
O  O97  1  0.95091000  0.22837000  0.27819000  1.0 -0.5307929062
O  O98  1  0.22837000  0.27819000  0.95091000  1.0 -0.5307929062
O  O99  1  0.27819000  0.95091000  0.22837000  1.0 -0.5307929062
O  O100  1  0.27163000  0.54909000  0.22181000  1.0 -0.5307929062
O  O101  1  0.22181000  0.27163000  0.54909000  1.0 -0.5307929062
O  O102  1  0.54909000  0.22181000  0.27163000  1.0 -0.5307929062
O  O103  1  0.04909000  0.77163000  0.72181000  1.0 -0.5307929062
O  O104  1  0.77163000  0.72181000  0.04909000  1.0 -0.5307929062
O  O105  1  0.72181000  0.04909000  0.77163000  1.0 -0.5307929062
O  O106  1  0.72837000  0.45091000  0.77819000  1.0 -0.5307929062
O  O107  1  0.77819000  0.72837000  0.45091000  1.0 -0.5307929062
O  O108  1  0.45091000  0.77819000  0.72837000  1.0 -0.5307929062
O  O109  1  0.01590000  0.20231000  0.30532000  1.0 -0.5498906814
O  O110  1  0.20231000  0.30532000  0.01590000  1.0 -0.5498906814
O  O111  1  0.30532000  0.01590000  0.20231000  1.0 -0.5498906814
O  O112  1  0.29769000  0.48410000  0.19468000  1.0 -0.5498906814
O  O113  1  0.19468000  0.29769000  0.48410000  1.0 -0.5498906814
O  O114  1  0.48410000  0.19468000  0.29769000  1.0 -0.5498906814
O  O115  1  0.98410000  0.79769000  0.69468000  1.0 -0.5498906814
O  O116  1  0.79769000  0.69468000  0.98410000  1.0 -0.5498906814
O  O117  1  0.69468000  0.98410000  0.79769000  1.0 -0.5498906814
O  O118  1  0.70231000  0.51590000  0.80532000  1.0 -0.5498906814
O  O119  1  0.80532000  0.70231000  0.51590000  1.0 -0.5498906814
O  O120  1  0.51590000  0.80532000  0.70231000  1.0 -0.5498906814
O  O121  1  0.57277000  0.03337000  0.08888000  1.0 -0.1980688534
O  O122  1  0.03337000  0.08888000  0.57277000  1.0 -0.1980688534
O  O123  1  0.08888000  0.57277000  0.03337000  1.0 -0.1980688534
O  O124  1  0.46663000  0.92723000  0.41112000  1.0 -0.1980688534
O  O125  1  0.41112000  0.46663000  0.92723000  1.0 -0.1980688534
O  O126  1  0.92723000  0.41112000  0.46663000  1.0 -0.1980688534
O  O127  1  0.42723000  0.96663000  0.91112000  1.0 -0.1980688534
O  O128  1  0.96663000  0.91112000  0.42723000  1.0 -0.1980688534
O  O129  1  0.91112000  0.42723000  0.96663000  1.0 -0.1980688534
O  O130  1  0.53337000  0.07277000  0.58888000  1.0 -0.1980688534
O  O131  1  0.58888000  0.53337000  0.07277000  1.0 -0.1980688534
O  O132  1  0.07277000  0.58888000  0.53337000  1.0 -0.1980688534
O  O133  1  0.42225000  0.91928000  0.10506000  1.0 -0.1793494398
O  O134  1  0.91928000  0.10506000  0.42225000  1.0 -0.1793494398
O  O135  1  0.10506000  0.42225000  0.91928000  1.0 -0.1793494398
O  O136  1  0.58072000  0.07775000  0.39494000  1.0 -0.1793494398
O  O137  1  0.39494000  0.58072000  0.07775000  1.0 -0.1793494398
O  O138  1  0.07775000  0.39494000  0.58072000  1.0 -0.1793494398
O  O139  1  0.57775000  0.08072000  0.89494000  1.0 -0.1793494398
O  O140  1  0.08072000  0.89494000  0.57775000  1.0 -0.1793494398
O  O141  1  0.89494000  0.57775000  0.08072000  1.0 -0.1793494398
O  O142  1  0.41928000  0.92225000  0.60506000  1.0 -0.1793494398
O  O143  1  0.60506000  0.41928000  0.92225000  1.0 -0.1793494398
O  O144  1  0.92225000  0.60506000  0.41928000  1.0 -0.1793494398
O  O145  1  0.41650000  0.10051000  0.96762000  1.0 -0.1914500662
O  O146  1  0.10051000  0.96762000  0.41650000  1.0 -0.1914500662
O  O147  1  0.96762000  0.41650000  0.10051000  1.0 -0.1914500662
O  O148  1  0.39949000  0.08350000  0.53238000  1.0 -0.1914500662
O  O149  1  0.53238000  0.39949000  0.08350000  1.0 -0.1914500662
O  O150  1  0.08350000  0.53238000  0.39949000  1.0 -0.1914500662
O  O151  1  0.58350000  0.89949000  0.03238000  1.0 -0.1914500662
O  O152  1  0.89949000  0.03238000  0.58350000  1.0 -0.1914500662
O  O153  1  0.03238000  0.58350000  0.89949000  1.0 -0.1914500662
O  O154  1  0.60051000  0.91650000  0.46762000  1.0 -0.1914500662
O  O155  1  0.46762000  0.60051000  0.91650000  1.0 -0.1914500662
O  O156  1  0.91650000  0.46762000  0.60051000  1.0 -0.1914500662
O  O157  1  0.33817000  0.24691000  0.83232000  1.0 -0.5802929179
O  O158  1  0.24691000  0.83232000  0.33817000  1.0 -0.5802929179
O  O159  1  0.83232000  0.33817000  0.24691000  1.0 -0.5802929179
O  O160  1  0.25309000  0.16183000  0.66768000  1.0 -0.5802929179
O  O161  1  0.66768000  0.25309000  0.16183000  1.0 -0.5802929179
O  O162  1  0.16183000  0.66768000  0.25309000  1.0 -0.5802929179
O  O163  1  0.66183000  0.75309000  0.16768000  1.0 -0.5802929179
O  O164  1  0.75309000  0.16768000  0.66183000  1.0 -0.5802929179
O  O165  1  0.16768000  0.66183000  0.75309000  1.0 -0.5802929179
O  O166  1  0.74691000  0.83817000  0.33232000  1.0 -0.5802929179
O  O167  1  0.33232000  0.74691000  0.83817000  1.0 -0.5802929179
O  O168  1  0.83817000  0.33232000  0.74691000  1.0 -0.5802929179
O  O169  1  0.32270000  0.24465000  0.90813000  1.0 -0.5498906814
O  O170  1  0.24465000  0.90813000  0.32270000  1.0 -0.5498906814
O  O171  1  0.90813000  0.32270000  0.24465000  1.0 -0.5498906814
O  O172  1  0.25535000  0.17730000  0.59187000  1.0 -0.5498906814
O  O173  1  0.59187000  0.25535000  0.17730000  1.0 -0.5498906814
O  O174  1  0.17730000  0.59187000  0.25535000  1.0 -0.5498906814
O  O175  1  0.67730000  0.75535000  0.09187000  1.0 -0.5498906814
O  O176  1  0.75535000  0.09187000  0.67730000  1.0 -0.5498906814
O  O177  1  0.09187000  0.67730000  0.75535000  1.0 -0.5498906814
O  O178  1  0.74465000  0.82270000  0.40813000  1.0 -0.5498906814
O  O179  1  0.40813000  0.74465000  0.82270000  1.0 -0.5498906814
O  O180  1  0.82270000  0.40813000  0.74465000  1.0 -0.5498906814
O  O181  1  0.32263000  0.86354000  0.25172000  1.0 -0.5062300109
O  O182  1  0.86354000  0.25172000  0.32263000  1.0 -0.5062300109
O  O183  1  0.25172000  0.32263000  0.86354000  1.0 -0.5062300109
O  O184  1  0.63646000  0.17737000  0.24828000  1.0 -0.5062300109
O  O185  1  0.24828000  0.63646000  0.17737000  1.0 -0.5062300109
O  O186  1  0.17737000  0.24828000  0.63646000  1.0 -0.5062300109
O  O187  1  0.67737000  0.13646000  0.74828000  1.0 -0.5062300109
O  O188  1  0.13646000  0.74828000  0.67737000  1.0 -0.5062300109
O  O189  1  0.74828000  0.67737000  0.13646000  1.0 -0.5062300109
O  O190  1  0.36354000  0.82263000  0.75172000  1.0 -0.5062300109
O  O191  1  0.75172000  0.36354000  0.82263000  1.0 -0.5062300109
O  O192  1  0.82263000  0.75172000  0.36354000  1.0 -0.5062300109
O  O193  1  0.32260000  0.79295000  0.24926000  1.0 -0.5152877712
O  O194  1  0.79295000  0.24926000  0.32260000  1.0 -0.5152877712
O  O195  1  0.24926000  0.32260000  0.79295000  1.0 -0.5152877712
O  O196  1  0.70705000  0.17740000  0.25074000  1.0 -0.5152877712
O  O197  1  0.25074000  0.70705000  0.17740000  1.0 -0.5152877712
O  O198  1  0.17740000  0.25074000  0.70705000  1.0 -0.5152877712
O  O199  1  0.67740000  0.20705000  0.75074000  1.0 -0.5152877712
O  O200  1  0.20705000  0.75074000  0.67740000  1.0 -0.5152877712
O  O201  1  0.75074000  0.67740000  0.20705000  1.0 -0.5152877712
O  O202  1  0.29295000  0.82260000  0.74926000  1.0 -0.5152877712
O  O203  1  0.74926000  0.29295000  0.82260000  1.0 -0.5152877712
O  O204  1  0.82260000  0.74926000  0.29295000  1.0 -0.5152877712
O  O205  1  0.87500000  0.71430000  0.57300000  1.0 -0.2099556221
O  O206  1  0.71430000  0.57300000  0.87500000  1.0 -0.2099556221
O  O207  1  0.57300000  0.87500000  0.71430000  1.0 -0.2099556221
O  O208  1  0.78570000  0.62500000  0.92700000  1.0 -0.2099556221
O  O209  1  0.92700000  0.78570000  0.62500000  1.0 -0.2099556221
O  O210  1  0.62500000  0.92700000  0.78570000  1.0 -0.2099556221
O  O211  1  0.12500000  0.28570000  0.42700000  1.0 -0.2099556221
O  O212  1  0.28570000  0.42700000  0.12500000  1.0 -0.2099556221
O  O213  1  0.42700000  0.12500000  0.28570000  1.0 -0.2099556221
O  O214  1  0.21430000  0.37500000  0.07300000  1.0 -0.2099556221
O  O215  1  0.07300000  0.21430000  0.37500000  1.0 -0.2099556221
O  O216  1  0.37500000  0.07300000  0.21430000  1.0 -0.2099556221
O  O217  1  0.77641000  0.80413000  0.54915000  1.0 -0.2291883534
O  O218  1  0.80413000  0.54915000  0.77641000  1.0 -0.2291883534
O  O219  1  0.54915000  0.77641000  0.80413000  1.0 -0.2291883534
O  O220  1  0.69587000  0.72359000  0.95085000  1.0 -0.2291883534
O  O221  1  0.95085000  0.69587000  0.72359000  1.0 -0.2291883534
O  O222  1  0.72359000  0.95085000  0.69587000  1.0 -0.2291883534
O  O223  1  0.22359000  0.19587000  0.45085000  1.0 -0.2291883534
O  O224  1  0.19587000  0.45085000  0.22359000  1.0 -0.2291883534
O  O225  1  0.45085000  0.22359000  0.19587000  1.0 -0.2291883534
O  O226  1  0.30413000  0.27641000  0.04915000  1.0 -0.2291883534
O  O227  1  0.04915000  0.30413000  0.27641000  1.0 -0.2291883534
O  O228  1  0.27641000  0.04915000  0.30413000  1.0 -0.2291883534
O  O229  1  0.41920000  0.15210000  0.26970000  1.0 -0.0301650885
O  O230  1  0.15210000  0.26970000  0.41920000  1.0 -0.0301650885
O  O231  1  0.26970000  0.41920000  0.15210000  1.0 -0.0301650885
O  O232  1  0.34790000  0.08080000  0.23030000  1.0 -0.0301650885
O  O233  1  0.23030000  0.34790000  0.08080000  1.0 -0.0301650885
O  O234  1  0.08080000  0.23030000  0.34790000  1.0 -0.0301650885
O  O235  1  0.58080000  0.84790000  0.73030000  1.0 -0.0301650885
O  O236  1  0.84790000  0.73030000  0.58080000  1.0 -0.0301650885
O  O237  1  0.73030000  0.58080000  0.84790000  1.0 -0.0301650885
O  O238  1  0.65210000  0.91920000  0.76970000  1.0 -0.0301650885
O  O239  1  0.76970000  0.65210000  0.91920000  1.0 -0.0301650885
O  O240  1  0.91920000  0.76970000  0.65210000  1.0 -0.0301650885
O  O241  1  0.45708000  0.17008000  0.19278000  1.0 -0.2494680693
O  O242  1  0.17008000  0.19278000  0.45708000  1.0 -0.2494680693
O  O243  1  0.19278000  0.45708000  0.17008000  1.0 -0.2494680693
O  O244  1  0.32992000  0.04292000  0.30722000  1.0 -0.2494680693
O  O245  1  0.30722000  0.32992000  0.04292000  1.0 -0.2494680693
O  O246  1  0.04292000  0.30722000  0.32992000  1.0 -0.2494680693
O  O247  1  0.54292000  0.82992000  0.80722000  1.0 -0.2494680693
O  O248  1  0.82992000  0.80722000  0.54292000  1.0 -0.2494680693
O  O249  1  0.80722000  0.54292000  0.82992000  1.0 -0.2494680693
O  O250  1  0.67008000  0.95708000  0.69278000  1.0 -0.2494680693
O  O251  1  0.69278000  0.67008000  0.95708000  1.0 -0.2494680693
O  O252  1  0.95708000  0.69278000  0.67008000  1.0 -0.2494680693
O  O253  1  0.57900000  0.20590000  0.01440000  1.0 -0.0301650885
O  O254  1  0.20590000  0.01440000  0.57900000  1.0 -0.0301650885
O  O255  1  0.01440000  0.57900000  0.20590000  1.0 -0.0301650885
O  O256  1  0.29410000  0.92100000  0.48560000  1.0 -0.0301650885
O  O257  1  0.48560000  0.29410000  0.92100000  1.0 -0.0301650885
O  O258  1  0.92100000  0.48560000  0.29410000  1.0 -0.0301650885
O  O259  1  0.42100000  0.79410000  0.98560000  1.0 -0.0301650885
O  O260  1  0.79410000  0.98560000  0.42100000  1.0 -0.0301650885
O  O261  1  0.98560000  0.42100000  0.79410000  1.0 -0.0301650885
O  O262  1  0.70590000  0.07900000  0.51440000  1.0 -0.0301650885
O  O263  1  0.51440000  0.70590000  0.07900000  1.0 -0.0301650885
O  O264  1  0.07900000  0.51440000  0.70590000  1.0 -0.0301650885
