# DDEC6 charges by PACMAN v1.1 (https://github.com/mtap-research/PACMAN-charge/)
data_NERVEN_ASR_pacman
_symmetry_space_group_name_H-M   'P 1'
_cell_length_a   30.45460000
_cell_length_b   30.45460000
_cell_length_c   30.45460000
_cell_angle_alpha   80.29890000
_cell_angle_beta   80.29890000
_cell_angle_gamma   80.29890000
_symmetry_Int_Tables_number   1
_chemical_formula_structural   Cd4H54C66O19
_chemical_formula_sum   'Cd48 H648 C792 O228'
_cell_volume   27157.20161723
_cell_formula_units_Z   12
loop_
 _symmetry_equiv_pos_site_id
 _symmetry_equiv_pos_as_xyz
  1  'x, y, z'
loop_
 _atom_site_type_symbol
 _atom_site_label
 _atom_site_symmetry_multiplicity
 _atom_site_fract_x
 _atom_site_fract_y
 _atom_site_fract_z
 _atom_site_occupancy
 _atom_site_charge
Cd  Cd1  1  0.18781000  0.18438000  0.70504000  1.0 1.0337908638
Cd  Cd2  1  0.18438000  0.70504000  0.18781000  1.0 1.0337908638
Cd  Cd3  1  0.31219000  0.79496000  0.31562000  1.0 1.0337908638
Cd  Cd4  1  0.70504000  0.18781000  0.18438000  1.0 1.0337908638
Cd  Cd5  1  0.79496000  0.31562000  0.31219000  1.0 1.0337908638
Cd  Cd6  1  0.31562000  0.31219000  0.79496000  1.0 1.0337908638
Cd  Cd7  1  0.81219000  0.81562000  0.29496000  1.0 1.0337908638
Cd  Cd8  1  0.81562000  0.29496000  0.81219000  1.0 1.0337908638
Cd  Cd9  1  0.68781000  0.20504000  0.68438000  1.0 1.0337908638
Cd  Cd10  1  0.29496000  0.81219000  0.81562000  1.0 1.0337908638
Cd  Cd11  1  0.20504000  0.68438000  0.68781000  1.0 1.0337908638
Cd  Cd12  1  0.68438000  0.68781000  0.20504000  1.0 1.0350304996
Cd  Cd13  1  0.18669000  0.21427000  0.58029000  1.0 1.0985666071
Cd  Cd14  1  0.21427000  0.58029000  0.18669000  1.0 1.0985666071
Cd  Cd15  1  0.31331000  0.91971000  0.28573000  1.0 1.0985666071
Cd  Cd16  1  0.58029000  0.18669000  0.21427000  1.0 1.0985666071
Cd  Cd17  1  0.91971000  0.28573000  0.31331000  1.0 1.0985666071
Cd  Cd18  1  0.28573000  0.31331000  0.91971000  1.0 1.0985666071
Cd  Cd19  1  0.81331000  0.78573000  0.41971000  1.0 1.0985666071
Cd  Cd20  1  0.78573000  0.41971000  0.81331000  1.0 1.0985666071
Cd  Cd21  1  0.68669000  0.08029000  0.71427000  1.0 1.0985666071
Cd  Cd22  1  0.41971000  0.81331000  0.78573000  1.0 1.0985666071
Cd  Cd23  1  0.08029000  0.71427000  0.68669000  1.0 1.0985666071
Cd  Cd24  1  0.71427000  0.68669000  0.08029000  1.0 1.0985666071
Cd  Cd25  1  0.14488000  0.25848000  0.47007000  1.0 0.67605646
Cd  Cd26  1  0.25848000  0.47007000  0.14488000  1.0 0.67605646
Cd  Cd27  1  0.35512000  0.02993000  0.24152000  1.0 0.67605646
Cd  Cd28  1  0.47007000  0.14488000  0.25848000  1.0 0.673331276
Cd  Cd29  1  0.02993000  0.24152000  0.35512000  1.0 0.67605646
Cd  Cd30  1  0.24152000  0.35512000  0.02993000  1.0 0.67605646
Cd  Cd31  1  0.85512000  0.74152000  0.52993000  1.0 0.673331276
Cd  Cd32  1  0.74152000  0.52993000  0.85512000  1.0 0.673331276
Cd  Cd33  1  0.64488000  0.97007000  0.75848000  1.0 0.673331276
Cd  Cd34  1  0.52993000  0.85512000  0.74152000  1.0 0.67605646
Cd  Cd35  1  0.97007000  0.75848000  0.64488000  1.0 0.673331276
Cd  Cd36  1  0.75848000  0.64488000  0.97007000  1.0 0.673331276
Cd  Cd37  1  0.16587000  0.25338000  0.47554000  1.0 0.5655899201
Cd  Cd38  1  0.25338000  0.47554000  0.16587000  1.0 0.5631357449
Cd  Cd39  1  0.33413000  0.02446000  0.24662000  1.0 0.5631357449
Cd  Cd40  1  0.47554000  0.16587000  0.25338000  1.0 0.5631357449
Cd  Cd41  1  0.02446000  0.24662000  0.33413000  1.0 0.5655899201
Cd  Cd42  1  0.24662000  0.33413000  0.02446000  1.0 0.5631357449
Cd  Cd43  1  0.83413000  0.74662000  0.52446000  1.0 0.5631357449
Cd  Cd44  1  0.74662000  0.52446000  0.83413000  1.0 0.5631357449
Cd  Cd45  1  0.66587000  0.97554000  0.75338000  1.0 0.5631357449
Cd  Cd46  1  0.52446000  0.83413000  0.74662000  1.0 0.5510359312
Cd  Cd47  1  0.97554000  0.75338000  0.66587000  1.0 0.5631357449
Cd  Cd48  1  0.75338000  0.66587000  0.97554000  1.0 0.5631357449
H  H1  1  0.09330000  0.12740000  0.58400000  1.0 0.1300218104
H  H2  1  0.12740000  0.58400000  0.09330000  1.0 0.1300218104
H  H3  1  0.40670000  0.91600000  0.37260000  1.0 0.1300218104
H  H4  1  0.58400000  0.09330000  0.12740000  1.0 0.1300218104
H  H5  1  0.91600000  0.37260000  0.40670000  1.0 0.1300218104
H  H6  1  0.37260000  0.40670000  0.91600000  1.0 0.1300218104
H  H7  1  0.90670000  0.87260000  0.41600000  1.0 0.1300218104
H  H8  1  0.87260000  0.41600000  0.90670000  1.0 0.1300218104
H  H9  1  0.59330000  0.08400000  0.62740000  1.0 0.1300218104
H  H10  1  0.41600000  0.90670000  0.87260000  1.0 0.1300218104
H  H11  1  0.08400000  0.62740000  0.59330000  1.0 0.1300218104
H  H12  1  0.62740000  0.59330000  0.08400000  1.0 0.1300218104
H  H13  1  0.98410000  0.07230000  0.64870000  1.0 0.1415386017
H  H14  1  0.07230000  0.64870000  0.98410000  1.0 0.1415386017
H  H15  1  0.51590000  0.85130000  0.42770000  1.0 0.1415386017
H  H16  1  0.64870000  0.98410000  0.07230000  1.0 0.1415386017
H  H17  1  0.85130000  0.42770000  0.51590000  1.0 0.1415386017
H  H18  1  0.42770000  0.51590000  0.85130000  1.0 0.1415386017
H  H19  1  0.01590000  0.92770000  0.35130000  1.0 0.1415386017
H  H20  1  0.92770000  0.35130000  0.01590000  1.0 0.1415386017
H  H21  1  0.48410000  0.14870000  0.57230000  1.0 0.1415386017
H  H22  1  0.35130000  0.01590000  0.92770000  1.0 0.1415386017
H  H23  1  0.14870000  0.57230000  0.48410000  1.0 0.1415386017
H  H24  1  0.57230000  0.48410000  0.14870000  1.0 0.1415386017
H  H25  1  0.99770000  0.08790000  0.71670000  1.0 0.1112989959
H  H26  1  0.08790000  0.71670000  0.99770000  1.0 0.1112989959
H  H27  1  0.50230000  0.78330000  0.41210000  1.0 0.1112989959
H  H28  1  0.71670000  0.99770000  0.08790000  1.0 0.1112989959
H  H29  1  0.78330000  0.41210000  0.50230000  1.0 0.1112989959
H  H30  1  0.41210000  0.50230000  0.78330000  1.0 0.1112989959
H  H31  1  0.00230000  0.91210000  0.28330000  1.0 0.1112989959
H  H32  1  0.91210000  0.28330000  0.00230000  1.0 0.1112989959
H  H33  1  0.49770000  0.21670000  0.58790000  1.0 0.1112989959
H  H34  1  0.28330000  0.00230000  0.91210000  1.0 0.1112989959
H  H35  1  0.21670000  0.58790000  0.49770000  1.0 0.1112989959
H  H36  1  0.58790000  0.49770000  0.21670000  1.0 0.1112989959
H  H37  1  0.05950000  0.12410000  0.71920000  1.0 0.1300218104
H  H38  1  0.12410000  0.71920000  0.05950000  1.0 0.1300218104
H  H39  1  0.44050000  0.78080000  0.37590000  1.0 0.1300218104
H  H40  1  0.71920000  0.05950000  0.12410000  1.0 0.1300218104
H  H41  1  0.78080000  0.37590000  0.44050000  1.0 0.1300218104
H  H42  1  0.37590000  0.44050000  0.78080000  1.0 0.1300218104
H  H43  1  0.94050000  0.87590000  0.28080000  1.0 0.1300218104
H  H44  1  0.87590000  0.28080000  0.94050000  1.0 0.1300218104
H  H45  1  0.55950000  0.21920000  0.62410000  1.0 0.1300218104
H  H46  1  0.28080000  0.94050000  0.87590000  1.0 0.1300218104
H  H47  1  0.21920000  0.62410000  0.55950000  1.0 0.1300218104
H  H48  1  0.62410000  0.55950000  0.21920000  1.0 0.1300218104
H  H49  1  0.05560000  0.13070000  0.52270000  1.0 0.0989995393
H  H50  1  0.13070000  0.52270000  0.05560000  1.0 0.0989995393
H  H51  1  0.44440000  0.97730000  0.36930000  1.0 0.0989995393
H  H52  1  0.52270000  0.05560000  0.13070000  1.0 0.0989995393
H  H53  1  0.97730000  0.36930000  0.44440000  1.0 0.0989995393
H  H54  1  0.36930000  0.44440000  0.97730000  1.0 0.0989995393
H  H55  1  0.94440000  0.86930000  0.47730000  1.0 0.0989995393
H  H56  1  0.86930000  0.47730000  0.94440000  1.0 0.0989995393
H  H57  1  0.55560000  0.02270000  0.63070000  1.0 0.0989995393
H  H58  1  0.47730000  0.94440000  0.86930000  1.0 0.0989995393
H  H59  1  0.02270000  0.63070000  0.55560000  1.0 0.0989995393
H  H60  1  0.63070000  0.55560000  0.02270000  1.0 0.0989995393
H  H61  1  0.08730000  0.08380000  0.53400000  1.0 0.0908570924
H  H62  1  0.08380000  0.53400000  0.08730000  1.0 0.0908570924
H  H63  1  0.41270000  0.96600000  0.41620000  1.0 0.0908570924
H  H64  1  0.53400000  0.08730000  0.08380000  1.0 0.0908570924
H  H65  1  0.96600000  0.41620000  0.41270000  1.0 0.0908570924
H  H66  1  0.41620000  0.41270000  0.96600000  1.0 0.0908570924
H  H67  1  0.91270000  0.91620000  0.46600000  1.0 0.0908570924
H  H68  1  0.91620000  0.46600000  0.91270000  1.0 0.0908570924
H  H69  1  0.58730000  0.03400000  0.58380000  1.0 0.0908570924
H  H70  1  0.46600000  0.91270000  0.91620000  1.0 0.0908570924
H  H71  1  0.03400000  0.58380000  0.58730000  1.0 0.0908570924
H  H72  1  0.58380000  0.58730000  0.03400000  1.0 0.0908570924
H  H73  1  0.97520000  0.12290000  0.37150000  1.0 0.0908570924
H  H74  1  0.12290000  0.37150000  0.97520000  1.0 0.0908570924
H  H75  1  0.52480000  0.12850000  0.37710000  1.0 0.0908570924
H  H76  1  0.37150000  0.97520000  0.12290000  1.0 0.0908570924
H  H77  1  0.12850000  0.37710000  0.52480000  1.0 0.0908570924
H  H78  1  0.37710000  0.52480000  0.12850000  1.0 0.0908570924
H  H79  1  0.02480000  0.87710000  0.62850000  1.0 0.0908570924
H  H80  1  0.87710000  0.62850000  0.02480000  1.0 0.0908570924
H  H81  1  0.47520000  0.87150000  0.62290000  1.0 0.0908570924
H  H82  1  0.62850000  0.02480000  0.87710000  1.0 0.0908570924
H  H83  1  0.87150000  0.62290000  0.47520000  1.0 0.0908570924
H  H84  1  0.62290000  0.47520000  0.87150000  1.0 0.0908570924
H  H85  1  0.95680000  0.15120000  0.41260000  1.0 0.0908570924
H  H86  1  0.15120000  0.41260000  0.95680000  1.0 0.0908570924
H  H87  1  0.54320000  0.08740000  0.34880000  1.0 0.0908570924
H  H88  1  0.41260000  0.95680000  0.15120000  1.0 0.0908570924
H  H89  1  0.08740000  0.34880000  0.54320000  1.0 0.0908570924
H  H90  1  0.34880000  0.54320000  0.08740000  1.0 0.0908570924
H  H91  1  0.04320000  0.84880000  0.58740000  1.0 0.0908570924
H  H92  1  0.84880000  0.58740000  0.04320000  1.0 0.0908570924
H  H93  1  0.45680000  0.91260000  0.65120000  1.0 0.0908570924
H  H94  1  0.58740000  0.04320000  0.84880000  1.0 0.0908570924
H  H95  1  0.91260000  0.65120000  0.45680000  1.0 0.0908570924
H  H96  1  0.65120000  0.45680000  0.91260000  1.0 0.0908570924
H  H97  1  0.90270000  0.18040000  0.36880000  1.0 0.1415386017
H  H98  1  0.18040000  0.36880000  0.90270000  1.0 0.1415386017
H  H99  1  0.59730000  0.13120000  0.31960000  1.0 0.1415386017
H  H100  1  0.36880000  0.90270000  0.18040000  1.0 0.1415386017
H  H101  1  0.13120000  0.31960000  0.59730000  1.0 0.1415386017
H  H102  1  0.31960000  0.59730000  0.13120000  1.0 0.1415386017
H  H103  1  0.09730000  0.81960000  0.63120000  1.0 0.1415386017
H  H104  1  0.81960000  0.63120000  0.09730000  1.0 0.1415386017
H  H105  1  0.40270000  0.86880000  0.68040000  1.0 0.1415386017
H  H106  1  0.63120000  0.09730000  0.81960000  1.0 0.1415386017
H  H107  1  0.86880000  0.68040000  0.40270000  1.0 0.1415386017
H  H108  1  0.68040000  0.40270000  0.86880000  1.0 0.1415386017
H  H109  1  0.77450000  0.16440000  0.36270000  1.0 0.1192125298
H  H110  1  0.16440000  0.36270000  0.77450000  1.0 0.1192125298
H  H111  1  0.72550000  0.13730000  0.33560000  1.0 0.1192125298
H  H112  1  0.36270000  0.77450000  0.16440000  1.0 0.1192125298
H  H113  1  0.13730000  0.33560000  0.72550000  1.0 0.1192125298
H  H114  1  0.33560000  0.72550000  0.13730000  1.0 0.1192125298
H  H115  1  0.22550000  0.83560000  0.63730000  1.0 0.1192125298
H  H116  1  0.83560000  0.63730000  0.22550000  1.0 0.1192125298
H  H117  1  0.27450000  0.86270000  0.66440000  1.0 0.1192125298
H  H118  1  0.63730000  0.22550000  0.83560000  1.0 0.1192125298
H  H119  1  0.86270000  0.66440000  0.27450000  1.0 0.1192125298
H  H120  1  0.66440000  0.27450000  0.86270000  1.0 0.1192125298
H  H121  1  0.78940000  0.08870000  0.39470000  1.0 0.1112989959
H  H122  1  0.08870000  0.39470000  0.78940000  1.0 0.1112989959
H  H123  1  0.71060000  0.10530000  0.41130000  1.0 0.1112989959
H  H124  1  0.39470000  0.78940000  0.08870000  1.0 0.1112989959
H  H125  1  0.10530000  0.41130000  0.71060000  1.0 0.1112989959
H  H126  1  0.41130000  0.71060000  0.10530000  1.0 0.1112989959
H  H127  1  0.21060000  0.91130000  0.60530000  1.0 0.1112989959
H  H128  1  0.91130000  0.60530000  0.21060000  1.0 0.1112989959
H  H129  1  0.28940000  0.89470000  0.58870000  1.0 0.1112989959
H  H130  1  0.60530000  0.21060000  0.91130000  1.0 0.1112989959
H  H131  1  0.89470000  0.58870000  0.28940000  1.0 0.1112989959
H  H132  1  0.58870000  0.28940000  0.89470000  1.0 0.1112989959
H  H133  1  0.85840000  0.06070000  0.41730000  1.0 0.1415386017
H  H134  1  0.06070000  0.41730000  0.85840000  1.0 0.1415386017
H  H135  1  0.64160000  0.08270000  0.43930000  1.0 0.1415386017
H  H136  1  0.41730000  0.85840000  0.06070000  1.0 0.1415386017
H  H137  1  0.08270000  0.43930000  0.64160000  1.0 0.1415386017
H  H138  1  0.43930000  0.64160000  0.08270000  1.0 0.1415386017
H  H139  1  0.14160000  0.93930000  0.58270000  1.0 0.1415386017
H  H140  1  0.93930000  0.58270000  0.14160000  1.0 0.1415386017
H  H141  1  0.35840000  0.91730000  0.56070000  1.0 0.1415386017
H  H142  1  0.58270000  0.14160000  0.93930000  1.0 0.1415386017
H  H143  1  0.91730000  0.56070000  0.35840000  1.0 0.1415386017
H  H144  1  0.56070000  0.35840000  0.91730000  1.0 0.1415386017
H  H145  1  0.03590000  0.96170000  0.42730000  1.0 0.0989995393
H  H146  1  0.96170000  0.42730000  0.03590000  1.0 0.0989995393
H  H147  1  0.46410000  0.07270000  0.53830000  1.0 0.0989995393
H  H148  1  0.42730000  0.03590000  0.96170000  1.0 0.0989995393
H  H149  1  0.07270000  0.53830000  0.46410000  1.0 0.0989995393
H  H150  1  0.53830000  0.46410000  0.07270000  1.0 0.0989995393
H  H151  1  0.96410000  0.03830000  0.57270000  1.0 0.0989995393
H  H152  1  0.03830000  0.57270000  0.96410000  1.0 0.0989995393
H  H153  1  0.53590000  0.92730000  0.46170000  1.0 0.0989995393
H  H154  1  0.57270000  0.96410000  0.03830000  1.0 0.0989995393
H  H155  1  0.92730000  0.46170000  0.53590000  1.0 0.0989995393
H  H156  1  0.46170000  0.53590000  0.92730000  1.0 0.0989995393
H  H157  1  0.05880000  0.95230000  0.47230000  1.0 0.0989995393
H  H158  1  0.95230000  0.47230000  0.05880000  1.0 0.0989995393
H  H159  1  0.44120000  0.02770000  0.54770000  1.0 0.0989995393
H  H160  1  0.47230000  0.05880000  0.95230000  1.0 0.0989995393
H  H161  1  0.02770000  0.54770000  0.44120000  1.0 0.0989995393
H  H162  1  0.54770000  0.44120000  0.02770000  1.0 0.0989995393
H  H163  1  0.94120000  0.04770000  0.52770000  1.0 0.0989995393
H  H164  1  0.04770000  0.52770000  0.94120000  1.0 0.0989995393
H  H165  1  0.55880000  0.97230000  0.45230000  1.0 0.0989995393
H  H166  1  0.52770000  0.94120000  0.04770000  1.0 0.0989995393
H  H167  1  0.97230000  0.45230000  0.55880000  1.0 0.0989995393
H  H168  1  0.45230000  0.55880000  0.97230000  1.0 0.0989995393
H  H169  1  0.17930000  0.94750000  0.37340000  1.0 0.1415386017
H  H170  1  0.94750000  0.37340000  0.17930000  1.0 0.1415386017
H  H171  1  0.32070000  0.12660000  0.55250000  1.0 0.1415386017
H  H172  1  0.37340000  0.17930000  0.94750000  1.0 0.1415386017
H  H173  1  0.12660000  0.55250000  0.32070000  1.0 0.1415386017
H  H174  1  0.55250000  0.32070000  0.12660000  1.0 0.1415386017
H  H175  1  0.82070000  0.05250000  0.62660000  1.0 0.1415386017
H  H176  1  0.05250000  0.62660000  0.82070000  1.0 0.1415386017
H  H177  1  0.67930000  0.87340000  0.44750000  1.0 0.1415386017
H  H178  1  0.62660000  0.82070000  0.05250000  1.0 0.1415386017
H  H179  1  0.87340000  0.44750000  0.67930000  1.0 0.1415386017
H  H180  1  0.44750000  0.67930000  0.87340000  1.0 0.1415386017
H  H181  1  0.18530000  0.81240000  0.38940000  1.0 0.1192125298
H  H182  1  0.81240000  0.38940000  0.18530000  1.0 0.1192125298
H  H183  1  0.31470000  0.11060000  0.68760000  1.0 0.1192125298
H  H184  1  0.38940000  0.18530000  0.81240000  1.0 0.1192125298
H  H185  1  0.11060000  0.68760000  0.31470000  1.0 0.1192125298
H  H186  1  0.68760000  0.31470000  0.11060000  1.0 0.1192125298
H  H187  1  0.81470000  0.18760000  0.61060000  1.0 0.1192125298
H  H188  1  0.18760000  0.61060000  0.81470000  1.0 0.1192125298
H  H189  1  0.68530000  0.88940000  0.31240000  1.0 0.1192125298
H  H190  1  0.61060000  0.81470000  0.18760000  1.0 0.1192125298
H  H191  1  0.88940000  0.31240000  0.68530000  1.0 0.1192125298
H  H192  1  0.31240000  0.68530000  0.88940000  1.0 0.1192125298
H  H193  1  0.11280000  0.81810000  0.43040000  1.0 0.1112989959
H  H194  1  0.81810000  0.43040000  0.11280000  1.0 0.1112989959
H  H195  1  0.38720000  0.06960000  0.68190000  1.0 0.1112989959
H  H196  1  0.43040000  0.11280000  0.81810000  1.0 0.1112989959
H  H197  1  0.06960000  0.68190000  0.38720000  1.0 0.1112989959
H  H198  1  0.68190000  0.38720000  0.06960000  1.0 0.1112989959
H  H199  1  0.88720000  0.18190000  0.56960000  1.0 0.1112989959
H  H200  1  0.18190000  0.56960000  0.88720000  1.0 0.1112989959
H  H201  1  0.61280000  0.93040000  0.31810000  1.0 0.1112989959
H  H202  1  0.56960000  0.88720000  0.18190000  1.0 0.1112989959
H  H203  1  0.93040000  0.31810000  0.61280000  1.0 0.1112989959
H  H204  1  0.31810000  0.61280000  0.93040000  1.0 0.1112989959
H  H205  1  0.07270000  0.88890000  0.44230000  1.0 0.1300218104
H  H206  1  0.88890000  0.44230000  0.07270000  1.0 0.1300218104
H  H207  1  0.42730000  0.05770000  0.61110000  1.0 0.1300218104
H  H208  1  0.44230000  0.07270000  0.88890000  1.0 0.1300218104
H  H209  1  0.05770000  0.61110000  0.42730000  1.0 0.1300218104
H  H210  1  0.61110000  0.42730000  0.05770000  1.0 0.1300218104
H  H211  1  0.92730000  0.11110000  0.55770000  1.0 0.1300218104
H  H212  1  0.11110000  0.55770000  0.92730000  1.0 0.1300218104
H  H213  1  0.57270000  0.94230000  0.38890000  1.0 0.1300218104
H  H214  1  0.55770000  0.92730000  0.11110000  1.0 0.1300218104
H  H215  1  0.94230000  0.38890000  0.57270000  1.0 0.1300218104
H  H216  1  0.38890000  0.57270000  0.94230000  1.0 0.1300218104
H  H217  1  0.95570000  0.15860000  0.47710000  1.0 0.1300218104
H  H218  1  0.15860000  0.47710000  0.95570000  1.0 0.1300218104
H  H219  1  0.54430000  0.02290000  0.34140000  1.0 0.1300218104
H  H220  1  0.47710000  0.95570000  0.15860000  1.0 0.1300218104
H  H221  1  0.02290000  0.34140000  0.54430000  1.0 0.1300218104
H  H222  1  0.34140000  0.54430000  0.02290000  1.0 0.1300218104
H  H223  1  0.04430000  0.84140000  0.52290000  1.0 0.1300218104
H  H224  1  0.84140000  0.52290000  0.04430000  1.0 0.1300218104
H  H225  1  0.45570000  0.97710000  0.65860000  1.0 0.1300218104
H  H226  1  0.52290000  0.04430000  0.84140000  1.0 0.1300218104
H  H227  1  0.97710000  0.65860000  0.45570000  1.0 0.1300218104
H  H228  1  0.65860000  0.45570000  0.97710000  1.0 0.1300218104
H  H229  1  0.99050000  0.15470000  0.51190000  1.0 0.1300218104
H  H230  1  0.15470000  0.51190000  0.99050000  1.0 0.1300218104
H  H231  1  0.50950000  0.98810000  0.34530000  1.0 0.1300218104
H  H232  1  0.51190000  0.99050000  0.15470000  1.0 0.1300218104
H  H233  1  0.98810000  0.34530000  0.50950000  1.0 0.1300218104
H  H234  1  0.34530000  0.50950000  0.98810000  1.0 0.1300218104
H  H235  1  0.00950000  0.84530000  0.48810000  1.0 0.1300218104
H  H236  1  0.84530000  0.48810000  0.00950000  1.0 0.1300218104
H  H237  1  0.49050000  0.01190000  0.65470000  1.0 0.1300218104
H  H238  1  0.48810000  0.00950000  0.84530000  1.0 0.1300218104
H  H239  1  0.01190000  0.65470000  0.49050000  1.0 0.1300218104
H  H240  1  0.65470000  0.49050000  0.01190000  1.0 0.1300218104
H  H241  1  0.00300000  0.17670000  0.46060000  1.0 0.1506274223
H  H242  1  0.17670000  0.46060000  0.00300000  1.0 0.1506274223
H  H243  1  0.49700000  0.03940000  0.32330000  1.0 0.1506274223
H  H244  1  0.46060000  0.00300000  0.17670000  1.0 0.1506274223
H  H245  1  0.03940000  0.32330000  0.49700000  1.0 0.1506274223
H  H246  1  0.32330000  0.49700000  0.03940000  1.0 0.1506274223
H  H247  1  0.99700000  0.82330000  0.53940000  1.0 0.1506274223
H  H248  1  0.82330000  0.53940000  0.99700000  1.0 0.1506274223
H  H249  1  0.50300000  0.96060000  0.67670000  1.0 0.1506274223
H  H250  1  0.53940000  0.99700000  0.82330000  1.0 0.1506274223
H  H251  1  0.96060000  0.67670000  0.50300000  1.0 0.1506274223
H  H252  1  0.67670000  0.50300000  0.96060000  1.0 0.1506274223
H  H253  1  0.97780000  0.01870000  0.38850000  1.0 0.1415386017
H  H254  1  0.01870000  0.38850000  0.97780000  1.0 0.1415386017
H  H255  1  0.52220000  0.11150000  0.48130000  1.0 0.1415386017
H  H256  1  0.38850000  0.97780000  0.01870000  1.0 0.1415386017
H  H257  1  0.11150000  0.48130000  0.52220000  1.0 0.1415386017
H  H258  1  0.48130000  0.52220000  0.11150000  1.0 0.1415386017
H  H259  1  0.02220000  0.98130000  0.61150000  1.0 0.1415386017
H  H260  1  0.98130000  0.61150000  0.02220000  1.0 0.1415386017
H  H261  1  0.47780000  0.88850000  0.51870000  1.0 0.1415386017
H  H262  1  0.61150000  0.02220000  0.98130000  1.0 0.1415386017
H  H263  1  0.88850000  0.51870000  0.47780000  1.0 0.1415386017
H  H264  1  0.51870000  0.47780000  0.88850000  1.0 0.1415386017
H  H265  1  0.99980000  0.05920000  0.35690000  1.0 0.1300218104
H  H266  1  0.05920000  0.35690000  0.99980000  1.0 0.1300218104
H  H267  1  0.50020000  0.14310000  0.44080000  1.0 0.1300218104
H  H268  1  0.35690000  0.99980000  0.05920000  1.0 0.1300218104
H  H269  1  0.14310000  0.44080000  0.50020000  1.0 0.1300218104
H  H270  1  0.44080000  0.50020000  0.14310000  1.0 0.1300218104
H  H271  1  0.00020000  0.94080000  0.64310000  1.0 0.1300218104
H  H272  1  0.94080000  0.64310000  0.00020000  1.0 0.1300218104
H  H273  1  0.49980000  0.85690000  0.55920000  1.0 0.1300218104
H  H274  1  0.64310000  0.00020000  0.94080000  1.0 0.1300218104
H  H275  1  0.85690000  0.55920000  0.49980000  1.0 0.1300218104
H  H276  1  0.55920000  0.49980000  0.85690000  1.0 0.1300218104
H  H277  1  0.03020000  0.01170000  0.36860000  1.0 0.1300218104
H  H278  1  0.01170000  0.36860000  0.03020000  1.0 0.1300218104
H  H279  1  0.46980000  0.13140000  0.48830000  1.0 0.1300218104
H  H280  1  0.36860000  0.03020000  0.01170000  1.0 0.1300218104
H  H281  1  0.13140000  0.48830000  0.46980000  1.0 0.1300218104
H  H282  1  0.48830000  0.46980000  0.13140000  1.0 0.1300218104
H  H283  1  0.96980000  0.98830000  0.63140000  1.0 0.1300218104
H  H284  1  0.98830000  0.63140000  0.96980000  1.0 0.1300218104
H  H285  1  0.53020000  0.86860000  0.51170000  1.0 0.1300218104
H  H286  1  0.63140000  0.96980000  0.98830000  1.0 0.1300218104
H  H287  1  0.86860000  0.51170000  0.53020000  1.0 0.1300218104
H  H288  1  0.51170000  0.53020000  0.86860000  1.0 0.1300218104
H  H289  1  0.06640000  0.99160000  0.54390000  1.0 0.1415386017
H  H290  1  0.99160000  0.54390000  0.06640000  1.0 0.1415386017
H  H291  1  0.43360000  0.95610000  0.50840000  1.0 0.1415386017
H  H292  1  0.54390000  0.06640000  0.99160000  1.0 0.1415386017
H  H293  1  0.95610000  0.50840000  0.43360000  1.0 0.1415386017
H  H294  1  0.50840000  0.43360000  0.95610000  1.0 0.1415386017
H  H295  1  0.93360000  0.00840000  0.45610000  1.0 0.1415386017
H  H296  1  0.00840000  0.45610000  0.93360000  1.0 0.1415386017
H  H297  1  0.56640000  0.04390000  0.49160000  1.0 0.1415386017
H  H298  1  0.45610000  0.93360000  0.00840000  1.0 0.1415386017
H  H299  1  0.04390000  0.49160000  0.56640000  1.0 0.1415386017
H  H300  1  0.49160000  0.56640000  0.04390000  1.0 0.1415386017
H  H301  1  0.10140000  0.97880000  0.50100000  1.0 0.1300218104
H  H302  1  0.97880000  0.50100000  0.10140000  1.0 0.1300218104
H  H303  1  0.39860000  0.99900000  0.52120000  1.0 0.1300218104
H  H304  1  0.50100000  0.10140000  0.97880000  1.0 0.1300218104
H  H305  1  0.99900000  0.52120000  0.39860000  1.0 0.1300218104
H  H306  1  0.52120000  0.39860000  0.99900000  1.0 0.1300218104
H  H307  1  0.89860000  0.02120000  0.49900000  1.0 0.1300218104
H  H308  1  0.02120000  0.49900000  0.89860000  1.0 0.1300218104
H  H309  1  0.60140000  0.00100000  0.47880000  1.0 0.1300218104
H  H310  1  0.49900000  0.89860000  0.02120000  1.0 0.1300218104
H  H311  1  0.00100000  0.47880000  0.60140000  1.0 0.1300218104
H  H312  1  0.47880000  0.60140000  0.00100000  1.0 0.1300218104
H  H313  1  0.10680000  0.02000000  0.52490000  1.0 0.1300218104
H  H314  1  0.02000000  0.52490000  0.10680000  1.0 0.1300218104
H  H315  1  0.39320000  0.97510000  0.48000000  1.0 0.1300218104
H  H316  1  0.52490000  0.10680000  0.02000000  1.0 0.1300218104
H  H317  1  0.97510000  0.48000000  0.39320000  1.0 0.1300218104
H  H318  1  0.48000000  0.39320000  0.97510000  1.0 0.1300218104
H  H319  1  0.89320000  0.98000000  0.47510000  1.0 0.1300218104
H  H320  1  0.98000000  0.47510000  0.89320000  1.0 0.1300218104
H  H321  1  0.60680000  0.02490000  0.52000000  1.0 0.1300218104
H  H322  1  0.47510000  0.89320000  0.98000000  1.0 0.1300218104
H  H323  1  0.02490000  0.52000000  0.60680000  1.0 0.1300218104
H  H324  1  0.52000000  0.60680000  0.02490000  1.0 0.1300218104
H  H325  1  0.07680000  0.25530000  0.63190000  1.0 0.1415386017
H  H326  1  0.25530000  0.63190000  0.07680000  1.0 0.1415386017
H  H327  1  0.42320000  0.86810000  0.24470000  1.0 0.1415386017
H  H328  1  0.63190000  0.07680000  0.25530000  1.0 0.1415386017
H  H329  1  0.86810000  0.24470000  0.42320000  1.0 0.1415386017
H  H330  1  0.24470000  0.42320000  0.86810000  1.0 0.1415386017
H  H331  1  0.92320000  0.74470000  0.36810000  1.0 0.1415386017
H  H332  1  0.74470000  0.36810000  0.92320000  1.0 0.1415386017
H  H333  1  0.57680000  0.13190000  0.75530000  1.0 0.1415386017
H  H334  1  0.36810000  0.92320000  0.74470000  1.0 0.1415386017
H  H335  1  0.13190000  0.75530000  0.57680000  1.0 0.1415386017
H  H336  1  0.75530000  0.57680000  0.13190000  1.0 0.1415386017
H  H337  1  0.95260000  0.21980000  0.67310000  1.0 0.1300218104
H  H338  1  0.21980000  0.67310000  0.95260000  1.0 0.1300218104
H  H339  1  0.54740000  0.82690000  0.28020000  1.0 0.1300218104
H  H340  1  0.67310000  0.95260000  0.21980000  1.0 0.1300218104
H  H341  1  0.82690000  0.28020000  0.54740000  1.0 0.1300218104
H  H342  1  0.28020000  0.54740000  0.82690000  1.0 0.1300218104
H  H343  1  0.04740000  0.78020000  0.32690000  1.0 0.1300218104
H  H344  1  0.78020000  0.32690000  0.04740000  1.0 0.1300218104
H  H345  1  0.45260000  0.17310000  0.71980000  1.0 0.1300218104
H  H346  1  0.32690000  0.04740000  0.78020000  1.0 0.1300218104
H  H347  1  0.17310000  0.71980000  0.45260000  1.0 0.1300218104
H  H348  1  0.71980000  0.45260000  0.17310000  1.0 0.1300218104
H  H349  1  0.94900000  0.20720000  0.60200000  1.0 0.1112989959
H  H350  1  0.20720000  0.60200000  0.94900000  1.0 0.1112989959
H  H351  1  0.55100000  0.89800000  0.29280000  1.0 0.1112989959
H  H352  1  0.60200000  0.94900000  0.20720000  1.0 0.1112989959
H  H353  1  0.89800000  0.29280000  0.55100000  1.0 0.1112989959
H  H354  1  0.29280000  0.55100000  0.89800000  1.0 0.1112989959
H  H355  1  0.05100000  0.79280000  0.39800000  1.0 0.1112989959
H  H356  1  0.79280000  0.39800000  0.05100000  1.0 0.1112989959
H  H357  1  0.44900000  0.10200000  0.70720000  1.0 0.1112989959
H  H358  1  0.39800000  0.05100000  0.79280000  1.0 0.1112989959
H  H359  1  0.10200000  0.70720000  0.44900000  1.0 0.1112989959
H  H360  1  0.70720000  0.44900000  0.10200000  1.0 0.1112989959
H  H361  1  0.00840000  0.21940000  0.54300000  1.0 0.1300218104
H  H362  1  0.21940000  0.54300000  0.00840000  1.0 0.1300218104
H  H363  1  0.49160000  0.95700000  0.28060000  1.0 0.1300218104
H  H364  1  0.54300000  0.00840000  0.21940000  1.0 0.1300218104
H  H365  1  0.95700000  0.28060000  0.49160000  1.0 0.1300218104
H  H366  1  0.28060000  0.49160000  0.95700000  1.0 0.1300218104
H  H367  1  0.99160000  0.78060000  0.45700000  1.0 0.1300218104
H  H368  1  0.78060000  0.45700000  0.99160000  1.0 0.1300218104
H  H369  1  0.50840000  0.04300000  0.71940000  1.0 0.1300218104
H  H370  1  0.45700000  0.99160000  0.78060000  1.0 0.1300218104
H  H371  1  0.04300000  0.71940000  0.50840000  1.0 0.1300218104
H  H372  1  0.71940000  0.50840000  0.04300000  1.0 0.1300218104
H  H373  1  0.07730000  0.23990000  0.71610000  1.0 0.0908570924
H  H374  1  0.23990000  0.71610000  0.07730000  1.0 0.0908570924
H  H375  1  0.42270000  0.78390000  0.26010000  1.0 0.0908570924
H  H376  1  0.71610000  0.07730000  0.23990000  1.0 0.0908570924
H  H377  1  0.78390000  0.26010000  0.42270000  1.0 0.0908570924
H  H378  1  0.26010000  0.42270000  0.78390000  1.0 0.0908570924
H  H379  1  0.92270000  0.76010000  0.28390000  1.0 0.0908570924
H  H380  1  0.76010000  0.28390000  0.92270000  1.0 0.0908570924
H  H381  1  0.57730000  0.21610000  0.73990000  1.0 0.0908570924
H  H382  1  0.28390000  0.92270000  0.76010000  1.0 0.0908570924
H  H383  1  0.21610000  0.73990000  0.57730000  1.0 0.0908570924
H  H384  1  0.73990000  0.57730000  0.21610000  1.0 0.0908570924
H  H385  1  0.06030000  0.28880000  0.69050000  1.0 0.0837104925
H  H386  1  0.28880000  0.69050000  0.06030000  1.0 0.0837104925
H  H387  1  0.43970000  0.80950000  0.21120000  1.0 0.0837104925
H  H388  1  0.69050000  0.06030000  0.28880000  1.0 0.0837104925
H  H389  1  0.80950000  0.21120000  0.43970000  1.0 0.0837104925
H  H390  1  0.21120000  0.43970000  0.80950000  1.0 0.0837104925
H  H391  1  0.93970000  0.71120000  0.30950000  1.0 0.0837104925
H  H392  1  0.71120000  0.30950000  0.93970000  1.0 0.0837104925
H  H393  1  0.56030000  0.19050000  0.78880000  1.0 0.0908570924
H  H394  1  0.30950000  0.93970000  0.71120000  1.0 0.0837104925
H  H395  1  0.19050000  0.78880000  0.56030000  1.0 0.0837104925
H  H396  1  0.78880000  0.56030000  0.19050000  1.0 0.0837104925
H  H397  1  0.05360000  0.21500000  0.88260000  1.0 0.0989995393
H  H398  1  0.21500000  0.88260000  0.05360000  1.0 0.0989995393
H  H399  1  0.44640000  0.61740000  0.28500000  1.0 0.0989995393
H  H400  1  0.88260000  0.05360000  0.21500000  1.0 0.0989995393
H  H401  1  0.61740000  0.28500000  0.44640000  1.0 0.0989995393
H  H402  1  0.28500000  0.44640000  0.61740000  1.0 0.0989995393
H  H403  1  0.94640000  0.78500000  0.11740000  1.0 0.0989995393
H  H404  1  0.78500000  0.11740000  0.94640000  1.0 0.0989995393
H  H405  1  0.55360000  0.38260000  0.71500000  1.0 0.0989995393
H  H406  1  0.11740000  0.94640000  0.78500000  1.0 0.0989995393
H  H407  1  0.38260000  0.71500000  0.55360000  1.0 0.0989995393
H  H408  1  0.71500000  0.55360000  0.38260000  1.0 0.0989995393
H  H409  1  0.02540000  0.25520000  0.90840000  1.0 0.0908570924
H  H410  1  0.25520000  0.90840000  0.02540000  1.0 0.0908570924
H  H411  1  0.47460000  0.59160000  0.24480000  1.0 0.0908570924
H  H412  1  0.90840000  0.02540000  0.25520000  1.0 0.0908570924
H  H413  1  0.59160000  0.24480000  0.47460000  1.0 0.0908570924
H  H414  1  0.24480000  0.47460000  0.59160000  1.0 0.0908570924
H  H415  1  0.97460000  0.74480000  0.09160000  1.0 0.0908570924
H  H416  1  0.74480000  0.09160000  0.97460000  1.0 0.0908570924
H  H417  1  0.52540000  0.40840000  0.75520000  1.0 0.0908570924
H  H418  1  0.09160000  0.97460000  0.74480000  1.0 0.0908570924
H  H419  1  0.40840000  0.75520000  0.52540000  1.0 0.0908570924
H  H420  1  0.75520000  0.52540000  0.40840000  1.0 0.0908570924
H  H421  1  0.15910000  0.28010000  0.91360000  1.0 0.1415386017
H  H422  1  0.28010000  0.91360000  0.15910000  1.0 0.1415386017
H  H423  1  0.34090000  0.58640000  0.21990000  1.0 0.1415386017
H  H424  1  0.91360000  0.15910000  0.28010000  1.0 0.1415386017
H  H425  1  0.58640000  0.21990000  0.34090000  1.0 0.1415386017
H  H426  1  0.21990000  0.34090000  0.58640000  1.0 0.1415386017
H  H427  1  0.84090000  0.71990000  0.08640000  1.0 0.1415386017
H  H428  1  0.71990000  0.08640000  0.84090000  1.0 0.1415386017
H  H429  1  0.65910000  0.41360000  0.78010000  1.0 0.1415386017
H  H430  1  0.08640000  0.84090000  0.71990000  1.0 0.1415386017
H  H431  1  0.41360000  0.78010000  0.65910000  1.0 0.1415386017
H  H432  1  0.78010000  0.65910000  0.41360000  1.0 0.1415386017
H  H433  1  0.12850000  0.25800000  0.04970000  1.0 0.1300218104
H  H434  1  0.25800000  0.04970000  0.12850000  1.0 0.1300218104
H  H435  1  0.37150000  0.45030000  0.24200000  1.0 0.1300218104
H  H436  1  0.04970000  0.12850000  0.25800000  1.0 0.1300218104
H  H437  1  0.45030000  0.24200000  0.37150000  1.0 0.1300218104
H  H438  1  0.24200000  0.37150000  0.45030000  1.0 0.1300218104
H  H439  1  0.87150000  0.74200000  0.95030000  1.0 0.1300218104
H  H440  1  0.74200000  0.95030000  0.87150000  1.0 0.1300218104
H  H441  1  0.62850000  0.54970000  0.75800000  1.0 0.1300218104
H  H442  1  0.95030000  0.87150000  0.74200000  1.0 0.1300218104
H  H443  1  0.54970000  0.75800000  0.62850000  1.0 0.1300218104
H  H444  1  0.75800000  0.62850000  0.54970000  1.0 0.1300218104
H  H445  1  0.06250000  0.23200000  0.04180000  1.0 0.1112989959
H  H446  1  0.23200000  0.04180000  0.06250000  1.0 0.1112989959
H  H447  1  0.43750000  0.45820000  0.26800000  1.0 0.1112989959
H  H448  1  0.04180000  0.06250000  0.23200000  1.0 0.1112989959
H  H449  1  0.45820000  0.26800000  0.43750000  1.0 0.1112989959
H  H450  1  0.26800000  0.43750000  0.45820000  1.0 0.1112989959
H  H451  1  0.93750000  0.76800000  0.95820000  1.0 0.1112989959
H  H452  1  0.76800000  0.95820000  0.93750000  1.0 0.1112989959
H  H453  1  0.56250000  0.54180000  0.73200000  1.0 0.1112989959
H  H454  1  0.95820000  0.93750000  0.76800000  1.0 0.1112989959
H  H455  1  0.54180000  0.73200000  0.56250000  1.0 0.1112989959
H  H456  1  0.73200000  0.56250000  0.54180000  1.0 0.1112989959
H  H457  1  0.04300000  0.23170000  0.97190000  1.0 0.1300218104
H  H458  1  0.23170000  0.97190000  0.04300000  1.0 0.1300218104
H  H459  1  0.45700000  0.52810000  0.26830000  1.0 0.1300218104
H  H460  1  0.97190000  0.04300000  0.23170000  1.0 0.1300218104
H  H461  1  0.52810000  0.26830000  0.45700000  1.0 0.1300218104
H  H462  1  0.26830000  0.45700000  0.52810000  1.0 0.1300218104
H  H463  1  0.95700000  0.76830000  0.02810000  1.0 0.1300218104
H  H464  1  0.76830000  0.02810000  0.95700000  1.0 0.1300218104
H  H465  1  0.54300000  0.47190000  0.73170000  1.0 0.1300218104
H  H466  1  0.02810000  0.95700000  0.76830000  1.0 0.1300218104
H  H467  1  0.47190000  0.73170000  0.54300000  1.0 0.1300218104
H  H468  1  0.73170000  0.54300000  0.47190000  1.0 0.1300218104
H  H469  1  0.94090000  0.37910000  0.83180000  1.0 0.0908570924
H  H470  1  0.37910000  0.83180000  0.94090000  1.0 0.0908570924
H  H471  1  0.55910000  0.66820000  0.12090000  1.0 0.0908570924
H  H472  1  0.83180000  0.94090000  0.37910000  1.0 0.0908570924
H  H473  1  0.66820000  0.12090000  0.55910000  1.0 0.0908570924
H  H474  1  0.12090000  0.55910000  0.66820000  1.0 0.0908570924
H  H475  1  0.05910000  0.62090000  0.16820000  1.0 0.0908570924
H  H476  1  0.62090000  0.16820000  0.05910000  1.0 0.0908570924
H  H477  1  0.44090000  0.33180000  0.87910000  1.0 0.0908570924
H  H478  1  0.16820000  0.05910000  0.62090000  1.0 0.0908570924
H  H479  1  0.33180000  0.87910000  0.44090000  1.0 0.0908570924
H  H480  1  0.87910000  0.44090000  0.33180000  1.0 0.0908570924
H  H481  1  0.94080000  0.38350000  0.77860000  1.0 0.0989995393
H  H482  1  0.38350000  0.77860000  0.94080000  1.0 0.0989995393
H  H483  1  0.55920000  0.72140000  0.11650000  1.0 0.0989995393
H  H484  1  0.77860000  0.94080000  0.38350000  1.0 0.0989995393
H  H485  1  0.72140000  0.11650000  0.55920000  1.0 0.0989995393
H  H486  1  0.11650000  0.55920000  0.72140000  1.0 0.0989995393
H  H487  1  0.05920000  0.61650000  0.22140000  1.0 0.0989995393
H  H488  1  0.61650000  0.22140000  0.05920000  1.0 0.0989995393
H  H489  1  0.44080000  0.27860000  0.88350000  1.0 0.0989995393
H  H490  1  0.22140000  0.05920000  0.61650000  1.0 0.0989995393
H  H491  1  0.27860000  0.88350000  0.44080000  1.0 0.0989995393
H  H492  1  0.88350000  0.44080000  0.27860000  1.0 0.0989995393
H  H493  1  0.89360000  0.44390000  0.80500000  1.0 0.1300218104
H  H494  1  0.44390000  0.80500000  0.89360000  1.0 0.1300218104
H  H495  1  0.60640000  0.69500000  0.05610000  1.0 0.1300218104
H  H496  1  0.80500000  0.89360000  0.44390000  1.0 0.1300218104
H  H497  1  0.69500000  0.05610000  0.60640000  1.0 0.1300218104
H  H498  1  0.05610000  0.60640000  0.69500000  1.0 0.1300218104
H  H499  1  0.10640000  0.55610000  0.19500000  1.0 0.1300218104
H  H500  1  0.55610000  0.19500000  0.10640000  1.0 0.1300218104
H  H501  1  0.39360000  0.30500000  0.94390000  1.0 0.1300218104
H  H502  1  0.19500000  0.10640000  0.55610000  1.0 0.1300218104
H  H503  1  0.30500000  0.94390000  0.39360000  1.0 0.1300218104
H  H504  1  0.94390000  0.39360000  0.30500000  1.0 0.1300218104
H  H505  1  0.89300000  0.57300000  0.82320000  1.0 0.1300218104
H  H506  1  0.57300000  0.82320000  0.89300000  1.0 0.1300218104
H  H507  1  0.60700000  0.67680000  0.92700000  1.0 0.1300218104
H  H508  1  0.82320000  0.89300000  0.57300000  1.0 0.1192125298
H  H509  1  0.67680000  0.92700000  0.60700000  1.0 0.1300218104
H  H510  1  0.92700000  0.60700000  0.67680000  1.0 0.1300218104
H  H511  1  0.10700000  0.42700000  0.17680000  1.0 0.1300218104
H  H512  1  0.42700000  0.17680000  0.10700000  1.0 0.1300218104
H  H513  1  0.39300000  0.32320000  0.07300000  1.0 0.1300218104
H  H514  1  0.17680000  0.10700000  0.42700000  1.0 0.1300218104
H  H515  1  0.32320000  0.07300000  0.39300000  1.0 0.1300218104
H  H516  1  0.07300000  0.39300000  0.32320000  1.0 0.1300218104
H  H517  1  0.97180000  0.55970000  0.81230000  1.0 0.1192125298
H  H518  1  0.55970000  0.81230000  0.97180000  1.0 0.1192125298
H  H519  1  0.52820000  0.68770000  0.94030000  1.0 0.1192125298
H  H520  1  0.81230000  0.97180000  0.55970000  1.0 0.1192125298
H  H521  1  0.68770000  0.94030000  0.52820000  1.0 0.1192125298
H  H522  1  0.94030000  0.52820000  0.68770000  1.0 0.1192125298
H  H523  1  0.02820000  0.44030000  0.18770000  1.0 0.1192125298
H  H524  1  0.44030000  0.18770000  0.02820000  1.0 0.1192125298
H  H525  1  0.47180000  0.31230000  0.05970000  1.0 0.1192125298
H  H526  1  0.18770000  0.02820000  0.44030000  1.0 0.1192125298
H  H527  1  0.31230000  0.05970000  0.47180000  1.0 0.1192125298
H  H528  1  0.05970000  0.47180000  0.31230000  1.0 0.1192125298
H  H529  1  0.01030000  0.49060000  0.79940000  1.0 0.1415386017
H  H530  1  0.49060000  0.79940000  0.01030000  1.0 0.1415386017
H  H531  1  0.48970000  0.70060000  0.00940000  1.0 0.1415386017
H  H532  1  0.79940000  0.01030000  0.49060000  1.0 0.1415386017
H  H533  1  0.70060000  0.00940000  0.48970000  1.0 0.1415386017
H  H534  1  0.00940000  0.48970000  0.70060000  1.0 0.1415386017
H  H535  1  0.98970000  0.50940000  0.20060000  1.0 0.1415386017
H  H536  1  0.50940000  0.20060000  0.98970000  1.0 0.1415386017
H  H537  1  0.51030000  0.29940000  0.99060000  1.0 0.1415386017
H  H538  1  0.20060000  0.98970000  0.50940000  1.0 0.1415386017
H  H539  1  0.29940000  0.99060000  0.51030000  1.0 0.1415386017
H  H540  1  0.99060000  0.51030000  0.29940000  1.0 0.1415386017
H  H541  1  0.06470000  0.18890000  0.82140000  1.0 0.1192125298
H  H542  1  0.18890000  0.82140000  0.06470000  1.0 0.1192125298
H  H543  1  0.43530000  0.67860000  0.31110000  1.0 0.1192125298
H  H544  1  0.82140000  0.06470000  0.18890000  1.0 0.1192125298
H  H545  1  0.67860000  0.31110000  0.43530000  1.0 0.1192125298
H  H546  1  0.31110000  0.43530000  0.67860000  1.0 0.1192125298
H  H547  1  0.93530000  0.81110000  0.17860000  1.0 0.1192125298
H  H548  1  0.81110000  0.17860000  0.93530000  1.0 0.1192125298
H  H549  1  0.56470000  0.32140000  0.68890000  1.0 0.1192125298
H  H550  1  0.17860000  0.93530000  0.81110000  1.0 0.1192125298
H  H551  1  0.32140000  0.68890000  0.56470000  1.0 0.1192125298
H  H552  1  0.68890000  0.56470000  0.32140000  1.0 0.1192125298
H  H553  1  0.08050000  0.20130000  0.76860000  1.0 0.1192125298
H  H554  1  0.20130000  0.76860000  0.08050000  1.0 0.1192125298
H  H555  1  0.41950000  0.73140000  0.29870000  1.0 0.1192125298
H  H556  1  0.76860000  0.08050000  0.20130000  1.0 0.1192125298
H  H557  1  0.73140000  0.29870000  0.41950000  1.0 0.1192125298
H  H558  1  0.29870000  0.41950000  0.73140000  1.0 0.1192125298
H  H559  1  0.91950000  0.79870000  0.23140000  1.0 0.1192125298
H  H560  1  0.79870000  0.23140000  0.91950000  1.0 0.1192125298
H  H561  1  0.58050000  0.26860000  0.70130000  1.0 0.1192125298
H  H562  1  0.23140000  0.91950000  0.79870000  1.0 0.1192125298
H  H563  1  0.26860000  0.70130000  0.58050000  1.0 0.1192125298
H  H564  1  0.70130000  0.58050000  0.26860000  1.0 0.1192125298
H  H565  1  0.10880000  0.21260000  0.80400000  1.0 0.1300218104
H  H566  1  0.21260000  0.80400000  0.10880000  1.0 0.1300218104
H  H567  1  0.39120000  0.69600000  0.28740000  1.0 0.1300218104
H  H568  1  0.80400000  0.10880000  0.21260000  1.0 0.1300218104
H  H569  1  0.69600000  0.28740000  0.39120000  1.0 0.1300218104
H  H570  1  0.28740000  0.39120000  0.69600000  1.0 0.1300218104
H  H571  1  0.89120000  0.78740000  0.19600000  1.0 0.1300218104
H  H572  1  0.78740000  0.19600000  0.89120000  1.0 0.1300218104
H  H573  1  0.60880000  0.30400000  0.71260000  1.0 0.1300218104
H  H574  1  0.19600000  0.89120000  0.78740000  1.0 0.1300218104
H  H575  1  0.30400000  0.71260000  0.60880000  1.0 0.1300218104
H  H576  1  0.71260000  0.60880000  0.30400000  1.0 0.1300218104
H  H577  1  0.02720000  0.34310000  0.89160000  1.0 0.1415386017
H  H578  1  0.34310000  0.89160000  0.02720000  1.0 0.1415386017
H  H579  1  0.47280000  0.60840000  0.15690000  1.0 0.1415386017
H  H580  1  0.89160000  0.02720000  0.34310000  1.0 0.1415386017
H  H581  1  0.60840000  0.15690000  0.47280000  1.0 0.1415386017
H  H582  1  0.15690000  0.47280000  0.60840000  1.0 0.1415386017
H  H583  1  0.97280000  0.65690000  0.10840000  1.0 0.1415386017
H  H584  1  0.65690000  0.10840000  0.97280000  1.0 0.1415386017
H  H585  1  0.52720000  0.39160000  0.84310000  1.0 0.1415386017
H  H586  1  0.10840000  0.97280000  0.65690000  1.0 0.1415386017
H  H587  1  0.39160000  0.84310000  0.52720000  1.0 0.1415386017
H  H588  1  0.84310000  0.52720000  0.39160000  1.0 0.1415386017
H  H589  1  0.98070000  0.36800000  0.87600000  1.0 0.1300218104
H  H590  1  0.36800000  0.87600000  0.98070000  1.0 0.1300218104
H  H591  1  0.51930000  0.62400000  0.13200000  1.0 0.1300218104
H  H592  1  0.87600000  0.98070000  0.36800000  1.0 0.1300218104
H  H593  1  0.62400000  0.13200000  0.51930000  1.0 0.1300218104
H  H594  1  0.13200000  0.51930000  0.62400000  1.0 0.1300218104
H  H595  1  0.01930000  0.63200000  0.12400000  1.0 0.1300218104
H  H596  1  0.63200000  0.12400000  0.01930000  1.0 0.1300218104
H  H597  1  0.48070000  0.37600000  0.86800000  1.0 0.1300218104
H  H598  1  0.12400000  0.01930000  0.63200000  1.0 0.1300218104
H  H599  1  0.37600000  0.86800000  0.48070000  1.0 0.1300218104
H  H600  1  0.86800000  0.48070000  0.37600000  1.0 0.1300218104
H  H601  1  0.98310000  0.31900000  0.90520000  1.0 0.1300218104
H  H602  1  0.31900000  0.90520000  0.98310000  1.0 0.1300218104
H  H603  1  0.51690000  0.59480000  0.18100000  1.0 0.1300218104
H  H604  1  0.90520000  0.98310000  0.31900000  1.0 0.1300218104
H  H605  1  0.59480000  0.18100000  0.51690000  1.0 0.1300218104
H  H606  1  0.18100000  0.51690000  0.59480000  1.0 0.1300218104
H  H607  1  0.01690000  0.68100000  0.09480000  1.0 0.1300218104
H  H608  1  0.68100000  0.09480000  0.01690000  1.0 0.1300218104
H  H609  1  0.48310000  0.40520000  0.81900000  1.0 0.1300218104
H  H610  1  0.09480000  0.01690000  0.68100000  1.0 0.1300218104
H  H611  1  0.40520000  0.81900000  0.48310000  1.0 0.1300218104
H  H612  1  0.81900000  0.48310000  0.40520000  1.0 0.1300218104
H  H613  1  0.01870000  0.34600000  0.69110000  1.0 0.1300218104
H  H614  1  0.34600000  0.69110000  0.01870000  1.0 0.1300218104
H  H615  1  0.48130000  0.80890000  0.15400000  1.0 0.1300218104
H  H616  1  0.69110000  0.01870000  0.34600000  1.0 0.1300218104
H  H617  1  0.80890000  0.15400000  0.48130000  1.0 0.1300218104
H  H618  1  0.15400000  0.48130000  0.80890000  1.0 0.1300218104
H  H619  1  0.98130000  0.65400000  0.30890000  1.0 0.1300218104
H  H620  1  0.65400000  0.30890000  0.98130000  1.0 0.1300218104
H  H621  1  0.51870000  0.19110000  0.84600000  1.0 0.1300218104
H  H622  1  0.30890000  0.98130000  0.65400000  1.0 0.1300218104
H  H623  1  0.19110000  0.84600000  0.51870000  1.0 0.1300218104
H  H624  1  0.84600000  0.51870000  0.19110000  1.0 0.1300218104
H  H625  1  0.96730000  0.34130000  0.71090000  1.0 0.1415386017
H  H626  1  0.34130000  0.71090000  0.96730000  1.0 0.1415386017
H  H627  1  0.53270000  0.78910000  0.15870000  1.0 0.1415386017
H  H628  1  0.71090000  0.96730000  0.34130000  1.0 0.1415386017
H  H629  1  0.78910000  0.15870000  0.53270000  1.0 0.1415386017
H  H630  1  0.15870000  0.53270000  0.78910000  1.0 0.1415386017
H  H631  1  0.03270000  0.65870000  0.28910000  1.0 0.1415386017
H  H632  1  0.65870000  0.28910000  0.03270000  1.0 0.1415386017
H  H633  1  0.46730000  0.21090000  0.84130000  1.0 0.1415386017
H  H634  1  0.28910000  0.03270000  0.65870000  1.0 0.1415386017
H  H635  1  0.21090000  0.84130000  0.46730000  1.0 0.1415386017
H  H636  1  0.84130000  0.46730000  0.21090000  1.0 0.1415386017
H  H637  1  0.98900000  0.38270000  0.71980000  1.0 0.1300218104
H  H638  1  0.38270000  0.71980000  0.98900000  1.0 0.1300218104
H  H639  1  0.51100000  0.78020000  0.11730000  1.0 0.1300218104
H  H640  1  0.71980000  0.98900000  0.38270000  1.0 0.1300218104
H  H641  1  0.78020000  0.11730000  0.51100000  1.0 0.1300218104
H  H642  1  0.11730000  0.51100000  0.78020000  1.0 0.1300218104
H  H643  1  0.01100000  0.61730000  0.28020000  1.0 0.1300218104
H  H644  1  0.61730000  0.28020000  0.01100000  1.0 0.1300218104
H  H645  1  0.48900000  0.21980000  0.88270000  1.0 0.1300218104
H  H646  1  0.28020000  0.01100000  0.61730000  1.0 0.1300218104
H  H647  1  0.21980000  0.88270000  0.48900000  1.0 0.1300218104
H  H648  1  0.88270000  0.48900000  0.21980000  1.0 0.1300218104
C  C1  1  0.12167000  0.15319000  0.65170000  1.0 0.5784153471
C  C2  1  0.15319000  0.65170000  0.12167000  1.0 0.5784153471
C  C3  1  0.37833000  0.84830000  0.34681000  1.0 0.5784153471
C  C4  1  0.65170000  0.12167000  0.15319000  1.0 0.5784153471
C  C5  1  0.84830000  0.34681000  0.37833000  1.0 0.5784153471
C  C6  1  0.34681000  0.37833000  0.84830000  1.0 0.5784153471
C  C7  1  0.87833000  0.84681000  0.34830000  1.0 0.5784153471
C  C8  1  0.84681000  0.34830000  0.87833000  1.0 0.5784153471
C  C9  1  0.62167000  0.15170000  0.65319000  1.0 0.5784153471
C  C10  1  0.34830000  0.87833000  0.84681000  1.0 0.5784153471
C  C11  1  0.15170000  0.65319000  0.62167000  1.0 0.5784153471
C  C12  1  0.65319000  0.62167000  0.15170000  1.0 0.5784153471
C  C13  1  0.08200000  0.12978000  0.65202000  1.0 -0.008974991
C  C14  1  0.12978000  0.65202000  0.08200000  1.0 -0.008974991
C  C15  1  0.41800000  0.84798000  0.37022000  1.0 -0.008974991
C  C16  1  0.65202000  0.08200000  0.12978000  1.0 -0.008974991
C  C17  1  0.84798000  0.37022000  0.41800000  1.0 -0.008974991
C  C18  1  0.37022000  0.41800000  0.84798000  1.0 -0.008974991
C  C19  1  0.91800000  0.87022000  0.34798000  1.0 -0.008974991
C  C20  1  0.87022000  0.34798000  0.91800000  1.0 -0.008974991
C  C21  1  0.58200000  0.15202000  0.62978000  1.0 -0.008974991
C  C22  1  0.34798000  0.91800000  0.87022000  1.0 -0.008974991
C  C23  1  0.15202000  0.62978000  0.58200000  1.0 -0.008974991
C  C24  1  0.62978000  0.58200000  0.15202000  1.0 -0.008974991
C  C25  1  0.07388000  0.11974000  0.61105000  1.0 -0.2398256487
C  C26  1  0.11974000  0.61105000  0.07388000  1.0 -0.2398256487
C  C27  1  0.42612000  0.88895000  0.38026000  1.0 -0.2398256487
C  C28  1  0.61105000  0.07388000  0.11974000  1.0 -0.2398256487
C  C29  1  0.88895000  0.38026000  0.42612000  1.0 -0.2398256487
C  C30  1  0.38026000  0.42612000  0.88895000  1.0 -0.2398256487
C  C31  1  0.92612000  0.88026000  0.38895000  1.0 -0.2398256487
C  C32  1  0.88026000  0.38895000  0.92612000  1.0 -0.2398256487
C  C33  1  0.57388000  0.11105000  0.61974000  1.0 -0.2398256487
C  C34  1  0.38895000  0.92612000  0.88026000  1.0 -0.2398256487
C  C35  1  0.11105000  0.61974000  0.57388000  1.0 -0.2398256487
C  C36  1  0.61974000  0.57388000  0.11105000  1.0 -0.2398256487
C  C37  1  0.03711000  0.09852000  0.61021000  1.0 0.2539943908
C  C38  1  0.09852000  0.61021000  0.03711000  1.0 0.2539943908
C  C39  1  0.46289000  0.88979000  0.40148000  1.0 0.2539943908
C  C40  1  0.61021000  0.03711000  0.09852000  1.0 0.2539943908
C  C41  1  0.88979000  0.40148000  0.46289000  1.0 0.2539943908
C  C42  1  0.40148000  0.46289000  0.88979000  1.0 0.2539943908
C  C43  1  0.96289000  0.90148000  0.38979000  1.0 0.2539943908
C  C44  1  0.90148000  0.38979000  0.96289000  1.0 0.2539943908
C  C45  1  0.53711000  0.11021000  0.59852000  1.0 0.2539943908
C  C46  1  0.38979000  0.96289000  0.90148000  1.0 0.2539943908
C  C47  1  0.11021000  0.59852000  0.53711000  1.0 0.2539943908
C  C48  1  0.59852000  0.53711000  0.11021000  1.0 0.2539943908
C  C49  1  0.00917000  0.08689000  0.64951000  1.0 -0.2112928823
C  C50  1  0.08689000  0.64951000  0.00917000  1.0 -0.2112928823
C  C51  1  0.49083000  0.85049000  0.41311000  1.0 -0.2112928823
C  C52  1  0.64951000  0.00917000  0.08689000  1.0 -0.2112928823
C  C53  1  0.85049000  0.41311000  0.49083000  1.0 -0.2112928823
C  C54  1  0.41311000  0.49083000  0.85049000  1.0 -0.2112928823
C  C55  1  0.99083000  0.91311000  0.35049000  1.0 -0.2112928823
C  C56  1  0.91311000  0.35049000  0.99083000  1.0 -0.2112928823
C  C57  1  0.50917000  0.14951000  0.58689000  1.0 -0.2112928823
C  C58  1  0.35049000  0.99083000  0.91311000  1.0 -0.2112928823
C  C59  1  0.14951000  0.58689000  0.50917000  1.0 -0.2112928823
C  C60  1  0.58689000  0.50917000  0.14951000  1.0 -0.2112928823
C  C61  1  0.01718000  0.09618000  0.68978000  1.0 -0.0877136845
C  C62  1  0.09618000  0.68978000  0.01718000  1.0 -0.0877136845
C  C63  1  0.48282000  0.81022000  0.40382000  1.0 -0.0877136845
C  C64  1  0.68978000  0.01718000  0.09618000  1.0 -0.0877136845
C  C65  1  0.81022000  0.40382000  0.48282000  1.0 -0.0877136845
C  C66  1  0.40382000  0.48282000  0.81022000  1.0 -0.0877136845
C  C67  1  0.98282000  0.90382000  0.31022000  1.0 -0.0877136845
C  C68  1  0.90382000  0.31022000  0.98282000  1.0 -0.0877136845
C  C69  1  0.51718000  0.18978000  0.59618000  1.0 -0.0877136845
C  C70  1  0.31022000  0.98282000  0.90382000  1.0 -0.0877136845
C  C71  1  0.18978000  0.59618000  0.51718000  1.0 -0.0877136845
C  C72  1  0.59618000  0.51718000  0.18978000  1.0 -0.0877136845
C  C73  1  0.05393000  0.11769000  0.69125000  1.0 -0.1296073194
C  C74  1  0.11769000  0.69125000  0.05393000  1.0 -0.1296073194
C  C75  1  0.44607000  0.80875000  0.38231000  1.0 -0.1296073194
C  C76  1  0.69125000  0.05393000  0.11769000  1.0 -0.1296073194
C  C77  1  0.80875000  0.38231000  0.44607000  1.0 -0.1296073194
C  C78  1  0.38231000  0.44607000  0.80875000  1.0 -0.1296073194
C  C79  1  0.94607000  0.88231000  0.30875000  1.0 -0.1296073194
C  C80  1  0.88231000  0.30875000  0.94607000  1.0 -0.1296073194
C  C81  1  0.55393000  0.19125000  0.61769000  1.0 -0.1296073194
C  C82  1  0.30875000  0.94607000  0.88231000  1.0 -0.1296073194
C  C83  1  0.19125000  0.61769000  0.55393000  1.0 -0.1296073194
C  C84  1  0.61769000  0.55393000  0.19125000  1.0 -0.1296073194
C  C85  1  0.05607000  0.09779000  0.53051000  1.0 -0.0601865654
C  C86  1  0.09779000  0.53051000  0.05607000  1.0 -0.0601865654
C  C87  1  0.44393000  0.96949000  0.40221000  1.0 -0.0601865654
C  C88  1  0.53051000  0.05607000  0.09779000  1.0 -0.0601865654
C  C89  1  0.96949000  0.40221000  0.44393000  1.0 -0.0601865654
C  C90  1  0.40221000  0.44393000  0.96949000  1.0 -0.0601865654
C  C91  1  0.94393000  0.90221000  0.46949000  1.0 -0.0601865654
C  C92  1  0.90221000  0.46949000  0.94393000  1.0 -0.0601865654
C  C93  1  0.55607000  0.03051000  0.59779000  1.0 -0.0601865654
C  C94  1  0.46949000  0.94393000  0.90221000  1.0 -0.0601865654
C  C95  1  0.03051000  0.59779000  0.55607000  1.0 -0.0601865654
C  C96  1  0.59779000  0.55607000  0.03051000  1.0 -0.0601865654
C  C97  1  0.04043000  0.07952000  0.49404000  1.0 -0.0478092353
C  C98  1  0.07952000  0.49404000  0.04043000  1.0 -0.0478092353
C  C99  1  0.45957000  0.00596000  0.42048000  1.0 -0.0478092353
C  C100  1  0.49404000  0.04043000  0.07952000  1.0 -0.0478092353
C  C101  1  0.00596000  0.42048000  0.45957000  1.0 -0.0478092353
C  C102  1  0.42048000  0.45957000  0.00596000  1.0 -0.0478092353
C  C103  1  0.95957000  0.92048000  0.50596000  1.0 -0.0478092353
C  C104  1  0.92048000  0.50596000  0.95957000  1.0 -0.0478092353
C  C105  1  0.54043000  0.99404000  0.57952000  1.0 -0.0478092353
C  C106  1  0.50596000  0.95957000  0.92048000  1.0 -0.0478092353
C  C107  1  0.99404000  0.57952000  0.54043000  1.0 -0.0478092353
C  C108  1  0.57952000  0.54043000  0.99404000  1.0 -0.0478092353
C  C109  1  0.00898000  0.10714000  0.46832000  1.0 0.0908570924
C  C110  1  0.10714000  0.46832000  0.00898000  1.0 0.0908570924
C  C111  1  0.49102000  0.03168000  0.39286000  1.0 0.0908570924
C  C112  1  0.46832000  0.00898000  0.10714000  1.0 0.0908570924
C  C113  1  0.03168000  0.39286000  0.49102000  1.0 0.0908570924
C  C114  1  0.39286000  0.49102000  0.03168000  1.0 0.0908570924
C  C115  1  0.99102000  0.89286000  0.53168000  1.0 0.0908570924
C  C116  1  0.89286000  0.53168000  0.99102000  1.0 0.0908570924
C  C117  1  0.50898000  0.96832000  0.60714000  1.0 0.0908570924
C  C118  1  0.53168000  0.99102000  0.89286000  1.0 0.0908570924
C  C119  1  0.96832000  0.60714000  0.50898000  1.0 0.0908570924
C  C120  1  0.60714000  0.50898000  0.96832000  1.0 0.0908570924
C  C121  1  0.99774000  0.09162000  0.43106000  1.0 -0.0395567288
C  C122  1  0.09162000  0.43106000  0.99774000  1.0 -0.0395567288
C  C123  1  0.50226000  0.06894000  0.40838000  1.0 -0.0395567288
C  C124  1  0.43106000  0.99774000  0.09162000  1.0 -0.0395567288
C  C125  1  0.06894000  0.40838000  0.50226000  1.0 -0.0395567288
C  C126  1  0.40838000  0.50226000  0.06894000  1.0 -0.0395567288
C  C127  1  0.00226000  0.90838000  0.56894000  1.0 -0.0395567288
C  C128  1  0.90838000  0.56894000  0.00226000  1.0 -0.0395567288
C  C129  1  0.49774000  0.93106000  0.59162000  1.0 -0.0395567288
C  C130  1  0.56894000  0.00226000  0.90838000  1.0 -0.0395567288
C  C131  1  0.93106000  0.59162000  0.49774000  1.0 -0.0395567288
C  C132  1  0.59162000  0.49774000  0.93106000  1.0 -0.0395567288
C  C133  1  0.01582000  0.04858000  0.42107000  1.0 0.0908570924
C  C134  1  0.04858000  0.42107000  0.01582000  1.0 0.0908570924
C  C135  1  0.48418000  0.07893000  0.45142000  1.0 0.0908570924
C  C136  1  0.42107000  0.01582000  0.04858000  1.0 0.0908570924
C  C137  1  0.07893000  0.45142000  0.48418000  1.0 0.0908570924
C  C138  1  0.45142000  0.48418000  0.07893000  1.0 0.0908570924
C  C139  1  0.98418000  0.95142000  0.57893000  1.0 0.0908570924
C  C140  1  0.95142000  0.57893000  0.98418000  1.0 0.0908570924
C  C141  1  0.51582000  0.92107000  0.54858000  1.0 0.0908570924
C  C142  1  0.57893000  0.98418000  0.95142000  1.0 0.0908570924
C  C143  1  0.92107000  0.54858000  0.51582000  1.0 0.0908570924
C  C144  1  0.54858000  0.51582000  0.92107000  1.0 0.0908570924
C  C145  1  0.04313000  0.01978000  0.44971000  1.0 -0.0395567288
C  C146  1  0.01978000  0.44971000  0.04313000  1.0 -0.0395567288
C  C147  1  0.45687000  0.05029000  0.48022000  1.0 -0.0395567288
C  C148  1  0.44971000  0.04313000  0.01978000  1.0 -0.0395567288
C  C149  1  0.05029000  0.48022000  0.45687000  1.0 -0.0395567288
C  C150  1  0.48022000  0.45687000  0.05029000  1.0 -0.0395567288
C  C151  1  0.95687000  0.98022000  0.55029000  1.0 -0.0395567288
C  C152  1  0.98022000  0.55029000  0.95687000  1.0 -0.0395567288
C  C153  1  0.54313000  0.94971000  0.51978000  1.0 -0.0395567288
C  C154  1  0.55029000  0.95687000  0.98022000  1.0 -0.0395567288
C  C155  1  0.94971000  0.51978000  0.54313000  1.0 -0.0395567288
C  C156  1  0.51978000  0.54313000  0.94971000  1.0 -0.0395567288
C  C157  1  0.05572000  0.03535000  0.48578000  1.0 0.0908570924
C  C158  1  0.03535000  0.48578000  0.05572000  1.0 0.0908570924
C  C159  1  0.44428000  0.01422000  0.46465000  1.0 0.0908570924
C  C160  1  0.48578000  0.05572000  0.03535000  1.0 0.0908570924
C  C161  1  0.01422000  0.46465000  0.44428000  1.0 0.0908570924
C  C162  1  0.46465000  0.44428000  0.01422000  1.0 0.0908570924
C  C163  1  0.94428000  0.96465000  0.51422000  1.0 0.0908570924
C  C164  1  0.96465000  0.51422000  0.94428000  1.0 0.0908570924
C  C165  1  0.55572000  0.98578000  0.53535000  1.0 0.0908570924
C  C166  1  0.51422000  0.94428000  0.96465000  1.0 0.0908570924
C  C167  1  0.98578000  0.53535000  0.55572000  1.0 0.0908570924
C  C168  1  0.53535000  0.55572000  0.98578000  1.0 0.0908570924
C  C169  1  0.96376000  0.12056000  0.40406000  1.0 -0.0601865654
C  C170  1  0.12056000  0.40406000  0.96376000  1.0 -0.0601865654
C  C171  1  0.53624000  0.09594000  0.37944000  1.0 -0.0601865654
C  C172  1  0.40406000  0.96376000  0.12056000  1.0 -0.0601865654
C  C173  1  0.09594000  0.37944000  0.53624000  1.0 -0.0601865654
C  C174  1  0.37944000  0.53624000  0.09594000  1.0 -0.0601865654
C  C175  1  0.03624000  0.87944000  0.59594000  1.0 -0.0601865654
C  C176  1  0.87944000  0.59594000  0.03624000  1.0 -0.0601865654
C  C177  1  0.46376000  0.90406000  0.62056000  1.0 -0.0601865654
C  C178  1  0.59594000  0.03624000  0.87944000  1.0 -0.0601865654
C  C179  1  0.90406000  0.62056000  0.46376000  1.0 -0.0601865654
C  C180  1  0.62056000  0.46376000  0.90406000  1.0 -0.0601865654
C  C181  1  0.88638000  0.11855000  0.39696000  1.0 0.2583978594
C  C182  1  0.11855000  0.39696000  0.88638000  1.0 0.2583978594
C  C183  1  0.61362000  0.10304000  0.38145000  1.0 0.2583978594
C  C184  1  0.39696000  0.88638000  0.11855000  1.0 0.2583978594
C  C185  1  0.10304000  0.38145000  0.61362000  1.0 0.2583978594
C  C186  1  0.38145000  0.61362000  0.10304000  1.0 0.2583978594
C  C187  1  0.11362000  0.88145000  0.60304000  1.0 0.2583978594
C  C188  1  0.88145000  0.60304000  0.11362000  1.0 0.2583978594
C  C189  1  0.38638000  0.89696000  0.61855000  1.0 0.2583978594
C  C190  1  0.60304000  0.11362000  0.88145000  1.0 0.2583978594
C  C191  1  0.89696000  0.61855000  0.38638000  1.0 0.2583978594
C  C192  1  0.61855000  0.38638000  0.89696000  1.0 0.2583978594
C  C193  1  0.87939000  0.16212000  0.37496000  1.0 -0.2492811663
C  C194  1  0.16212000  0.37496000  0.87939000  1.0 -0.2492811663
C  C195  1  0.62061000  0.12504000  0.33788000  1.0 -0.2492811663
C  C196  1  0.37496000  0.87939000  0.16212000  1.0 -0.2492811663
C  C197  1  0.12504000  0.33788000  0.62061000  1.0 -0.2492811663
C  C198  1  0.33788000  0.62061000  0.12504000  1.0 -0.2492811663
C  C199  1  0.12061000  0.83788000  0.62504000  1.0 -0.2492811663
C  C200  1  0.83788000  0.62504000  0.12061000  1.0 -0.2492811663
C  C201  1  0.37939000  0.87496000  0.66212000  1.0 -0.2492811663
C  C202  1  0.62504000  0.12061000  0.83788000  1.0 -0.2492811663
C  C203  1  0.87496000  0.66212000  0.37939000  1.0 -0.2492811663
C  C204  1  0.66212000  0.37939000  0.87496000  1.0 -0.2492811663
C  C205  1  0.83740000  0.17865000  0.36214000  1.0 -0.008974991
C  C206  1  0.17865000  0.36214000  0.83740000  1.0 -0.008974991
C  C207  1  0.66260000  0.13786000  0.32135000  1.0 -0.008974991
C  C208  1  0.36214000  0.83740000  0.17865000  1.0 -0.008974991
C  C209  1  0.13786000  0.32135000  0.66260000  1.0 -0.008974991
C  C210  1  0.32135000  0.66260000  0.13786000  1.0 -0.008974991
C  C211  1  0.16260000  0.82135000  0.63786000  1.0 -0.008974991
C  C212  1  0.82135000  0.63786000  0.16260000  1.0 -0.008974991
C  C213  1  0.33740000  0.86214000  0.67865000  1.0 -0.008974991
C  C214  1  0.63786000  0.16260000  0.82135000  1.0 -0.008974991
C  C215  1  0.86214000  0.67865000  0.33740000  1.0 -0.008974991
C  C216  1  0.67865000  0.33740000  0.86214000  1.0 -0.008974991
C  C217  1  0.80357000  0.15227000  0.37042000  1.0 -0.1296073194
C  C218  1  0.15227000  0.37042000  0.80357000  1.0 -0.1296073194
C  C219  1  0.69643000  0.12958000  0.34773000  1.0 -0.1296073194
C  C220  1  0.37042000  0.80357000  0.15227000  1.0 -0.1296073194
C  C221  1  0.12958000  0.34773000  0.69643000  1.0 -0.1296073194
C  C222  1  0.34773000  0.69643000  0.12958000  1.0 -0.1296073194
C  C223  1  0.19643000  0.84773000  0.62958000  1.0 -0.1296073194
C  C224  1  0.84773000  0.62958000  0.19643000  1.0 -0.1296073194
C  C225  1  0.30357000  0.87042000  0.65227000  1.0 -0.1296073194
C  C226  1  0.62958000  0.19643000  0.84773000  1.0 -0.1296073194
C  C227  1  0.87042000  0.65227000  0.30357000  1.0 -0.1296073194
C  C228  1  0.65227000  0.30357000  0.87042000  1.0 -0.1296073194
C  C229  1  0.81212000  0.10762000  0.39032000  1.0 -0.0601865654
C  C230  1  0.10762000  0.39032000  0.81212000  1.0 -0.0601865654
C  C231  1  0.68788000  0.10968000  0.39238000  1.0 -0.0601865654
C  C232  1  0.39032000  0.81212000  0.10762000  1.0 -0.0601865654
C  C233  1  0.10968000  0.39238000  0.68788000  1.0 -0.0601865654
C  C234  1  0.39238000  0.68788000  0.10968000  1.0 -0.0601865654
C  C235  1  0.18788000  0.89238000  0.60968000  1.0 -0.0601865654
C  C236  1  0.89238000  0.60968000  0.18788000  1.0 -0.0601865654
C  C237  1  0.31212000  0.89032000  0.60762000  1.0 -0.0601865654
C  C238  1  0.60968000  0.18788000  0.89238000  1.0 -0.0601865654
C  C239  1  0.89032000  0.60762000  0.31212000  1.0 -0.0601865654
C  C240  1  0.60762000  0.31212000  0.89032000  1.0 -0.0601865654
C  C241  1  0.85281000  0.09113000  0.40347000  1.0 -0.1992262026
C  C242  1  0.09113000  0.40347000  0.85281000  1.0 -0.1992262026
C  C243  1  0.64719000  0.09653000  0.40887000  1.0 -0.1992262026
C  C244  1  0.40347000  0.85281000  0.09113000  1.0 -0.1992262026
C  C245  1  0.09653000  0.40887000  0.64719000  1.0 -0.1992262026
C  C246  1  0.40887000  0.64719000  0.09653000  1.0 -0.1992262026
C  C247  1  0.14719000  0.90887000  0.59653000  1.0 -0.1992262026
C  C248  1  0.90887000  0.59653000  0.14719000  1.0 -0.1992262026
C  C249  1  0.35281000  0.90347000  0.59113000  1.0 -0.1992262026
C  C250  1  0.59653000  0.14719000  0.90887000  1.0 -0.1992262026
C  C251  1  0.90347000  0.59113000  0.35281000  1.0 -0.1992262026
C  C252  1  0.59113000  0.35281000  0.90347000  1.0 -0.1992262026
C  C253  1  0.82804000  0.22638000  0.34084000  1.0 0.5631357449
C  C254  1  0.22638000  0.34084000  0.82804000  1.0 0.5631357449
C  C255  1  0.67196000  0.15916000  0.27362000  1.0 0.5631357449
C  C256  1  0.34084000  0.82804000  0.22638000  1.0 0.5631357449
C  C257  1  0.15916000  0.27362000  0.67196000  1.0 0.5631357449
C  C258  1  0.27362000  0.67196000  0.15916000  1.0 0.5631357449
C  C259  1  0.17196000  0.77362000  0.65916000  1.0 0.5631357449
C  C260  1  0.77362000  0.65916000  0.17196000  1.0 0.5631357449
C  C261  1  0.32804000  0.84084000  0.72638000  1.0 0.5631357449
C  C262  1  0.65916000  0.17196000  0.77362000  1.0 0.5631357449
C  C263  1  0.84084000  0.72638000  0.32804000  1.0 0.5631357449
C  C264  1  0.72638000  0.32804000  0.84084000  1.0 0.5631357449
C  C265  1  0.05763000  0.97167000  0.44288000  1.0 -0.0797403707
C  C266  1  0.97167000  0.44288000  0.05763000  1.0 -0.0797403707
C  C267  1  0.44237000  0.05712000  0.52833000  1.0 -0.0797403707
C  C268  1  0.44288000  0.05763000  0.97167000  1.0 -0.0797403707
C  C269  1  0.05712000  0.52833000  0.44237000  1.0 -0.0797403707
C  C270  1  0.52833000  0.44237000  0.05712000  1.0 -0.0797403707
C  C271  1  0.94237000  0.02833000  0.55712000  1.0 -0.0797403707
C  C272  1  0.02833000  0.55712000  0.94237000  1.0 -0.0797403707
C  C273  1  0.55763000  0.94288000  0.47167000  1.0 -0.0797403707
C  C274  1  0.55712000  0.94237000  0.02833000  1.0 -0.0797403707
C  C275  1  0.94288000  0.47167000  0.55763000  1.0 -0.0797403707
C  C276  1  0.47167000  0.55763000  0.94288000  1.0 -0.0797403707
C  C277  1  0.12207000  0.92520000  0.40955000  1.0 0.2583978594
C  C278  1  0.92520000  0.40955000  0.12207000  1.0 0.2583978594
C  C279  1  0.37793000  0.09045000  0.57480000  1.0 0.2583978594
C  C280  1  0.40955000  0.12207000  0.92520000  1.0 0.2583978594
C  C281  1  0.09045000  0.57480000  0.37793000  1.0 0.2583978594
C  C282  1  0.57480000  0.37793000  0.09045000  1.0 0.2583978594
C  C283  1  0.87793000  0.07480000  0.59045000  1.0 0.2583978594
C  C284  1  0.07480000  0.59045000  0.87793000  1.0 0.2583978594
C  C285  1  0.62207000  0.90955000  0.42520000  1.0 0.2583978594
C  C286  1  0.59045000  0.87793000  0.07480000  1.0 0.2583978594
C  C287  1  0.90955000  0.42520000  0.62207000  1.0 0.2583978594
C  C288  1  0.42520000  0.62207000  0.90955000  1.0 0.2583978594
C  C289  1  0.16554000  0.92128000  0.38479000  1.0 -0.2112928823
C  C290  1  0.92128000  0.38479000  0.16554000  1.0 -0.2112928823
C  C291  1  0.33446000  0.11521000  0.57872000  1.0 -0.2112928823
C  C292  1  0.38479000  0.16554000  0.92128000  1.0 -0.2112928823
C  C293  1  0.11521000  0.57872000  0.33446000  1.0 -0.2112928823
C  C294  1  0.57872000  0.33446000  0.11521000  1.0 -0.2112928823
C  C295  1  0.83446000  0.07872000  0.61521000  1.0 -0.2112928823
C  C296  1  0.07872000  0.61521000  0.83446000  1.0 -0.2112928823
C  C297  1  0.66554000  0.88479000  0.42128000  1.0 -0.2112928823
C  C298  1  0.61521000  0.83446000  0.07872000  1.0 -0.2112928823
C  C299  1  0.88479000  0.42128000  0.66554000  1.0 -0.2112928823
C  C300  1  0.42128000  0.66554000  0.88479000  1.0 -0.2112928823
C  C301  1  0.18814000  0.87967000  0.37716000  1.0 -0.008974991
C  C302  1  0.87967000  0.37716000  0.18814000  1.0 -0.008974991
C  C303  1  0.31186000  0.12284000  0.62033000  1.0 -0.008974991
C  C304  1  0.37716000  0.18814000  0.87967000  1.0 -0.008974991
C  C305  1  0.12284000  0.62033000  0.31186000  1.0 -0.008974991
C  C306  1  0.62033000  0.31186000  0.12284000  1.0 -0.008974991
C  C307  1  0.81186000  0.12033000  0.62284000  1.0 -0.008974991
C  C308  1  0.12033000  0.62284000  0.81186000  1.0 -0.008974991
C  C309  1  0.68814000  0.87716000  0.37967000  1.0 -0.008974991
C  C310  1  0.62284000  0.81186000  0.12033000  1.0 -0.008974991
C  C311  1  0.87716000  0.37967000  0.68814000  1.0 -0.008974991
C  C312  1  0.37967000  0.68814000  0.87716000  1.0 -0.008974991
C  C313  1  0.16906000  0.84106000  0.39426000  1.0 -0.141136282
C  C314  1  0.84106000  0.39426000  0.16906000  1.0 -0.141136282
C  C315  1  0.33094000  0.10574000  0.65894000  1.0 -0.141136282
C  C316  1  0.39426000  0.16906000  0.84106000  1.0 -0.141136282
C  C317  1  0.10574000  0.65894000  0.33094000  1.0 -0.141136282
C  C318  1  0.65894000  0.33094000  0.10574000  1.0 -0.141136282
C  C319  1  0.83094000  0.15894000  0.60574000  1.0 -0.141136282
C  C320  1  0.15894000  0.60574000  0.83094000  1.0 -0.141136282
C  C321  1  0.66906000  0.89426000  0.34106000  1.0 -0.141136282
C  C322  1  0.60574000  0.83094000  0.15894000  1.0 -0.141136282
C  C323  1  0.89426000  0.34106000  0.66906000  1.0 -0.141136282
C  C324  1  0.34106000  0.66906000  0.89426000  1.0 -0.141136282
C  C325  1  0.12620000  0.84440000  0.41860000  1.0 -0.0877136845
C  C326  1  0.84440000  0.41860000  0.12620000  1.0 -0.0877136845
C  C327  1  0.37380000  0.08140000  0.65560000  1.0 -0.0877136845
C  C328  1  0.41860000  0.12620000  0.84440000  1.0 -0.0877136845
C  C329  1  0.08140000  0.65560000  0.37380000  1.0 -0.0877136845
C  C330  1  0.65560000  0.37380000  0.08140000  1.0 -0.0877136845
C  C331  1  0.87380000  0.15560000  0.58140000  1.0 -0.0877136845
C  C332  1  0.15560000  0.58140000  0.87380000  1.0 -0.0877136845
C  C333  1  0.62620000  0.91860000  0.34440000  1.0 -0.0877136845
C  C334  1  0.58140000  0.87380000  0.15560000  1.0 -0.0877136845
C  C335  1  0.91860000  0.34440000  0.62620000  1.0 -0.0877136845
C  C336  1  0.34440000  0.62620000  0.91860000  1.0 -0.0877136845
C  C337  1  0.10241000  0.88661000  0.42601000  1.0 -0.2333426657
C  C338  1  0.88661000  0.42601000  0.10241000  1.0 -0.2333426657
C  C339  1  0.39759000  0.07399000  0.61339000  1.0 -0.2333426657
C  C340  1  0.42601000  0.10241000  0.88661000  1.0 -0.2333426657
C  C341  1  0.07399000  0.61339000  0.39759000  1.0 -0.2333426657
C  C342  1  0.61339000  0.39759000  0.07399000  1.0 -0.2333426657
C  C343  1  0.89759000  0.11339000  0.57399000  1.0 -0.2333426657
C  C344  1  0.11339000  0.57399000  0.89759000  1.0 -0.2333426657
C  C345  1  0.60241000  0.92601000  0.38661000  1.0 -0.2333426657
C  C346  1  0.57399000  0.89759000  0.11339000  1.0 -0.2333426657
C  C347  1  0.92601000  0.38661000  0.60241000  1.0 -0.2333426657
C  C348  1  0.38661000  0.60241000  0.92601000  1.0 -0.2333426657
C  C349  1  0.23461000  0.87587000  0.34949000  1.0 0.6030951941
C  C350  1  0.87587000  0.34949000  0.23461000  1.0 0.6030951941
C  C351  1  0.26539000  0.15051000  0.62413000  1.0 0.6030951941
C  C352  1  0.34949000  0.23461000  0.87587000  1.0 0.6030951941
C  C353  1  0.15051000  0.62413000  0.26539000  1.0 0.6030951941
C  C354  1  0.62413000  0.26539000  0.15051000  1.0 0.6030951941
C  C355  1  0.76539000  0.12413000  0.65051000  1.0 0.6030951941
C  C356  1  0.12413000  0.65051000  0.76539000  1.0 0.6030951941
C  C357  1  0.73461000  0.84949000  0.37587000  1.0 0.6030951941
C  C358  1  0.65051000  0.76539000  0.12413000  1.0 0.6030951941
C  C359  1  0.84949000  0.37587000  0.73461000  1.0 0.6030951941
C  C360  1  0.37587000  0.73461000  0.84949000  1.0 0.6030951941
C  C361  1  0.98767000  0.15345000  0.48061000  1.0 -0.4756160747
C  C362  1  0.15345000  0.48061000  0.98767000  1.0 -0.4756160747
C  C363  1  0.51233000  0.01939000  0.34655000  1.0 -0.4756160747
C  C364  1  0.48061000  0.98767000  0.15345000  1.0 -0.4756160747
C  C365  1  0.01939000  0.34655000  0.51233000  1.0 -0.4756160747
C  C366  1  0.34655000  0.51233000  0.01939000  1.0 -0.4756160747
C  C367  1  0.01233000  0.84655000  0.51939000  1.0 -0.4756160747
C  C368  1  0.84655000  0.51939000  0.01233000  1.0 -0.4756160747
C  C369  1  0.48767000  0.98061000  0.65345000  1.0 -0.4756160747
C  C370  1  0.51939000  0.01233000  0.84655000  1.0 -0.4756160747
C  C371  1  0.98061000  0.65345000  0.48767000  1.0 -0.4756160747
C  C372  1  0.65345000  0.48767000  0.98061000  1.0 -0.4756160747
C  C373  1  0.00491000  0.03321000  0.38021000  1.0 -0.4688472719
C  C374  1  0.03321000  0.38021000  0.00491000  1.0 -0.4688472719
C  C375  1  0.49509000  0.11979000  0.46679000  1.0 -0.4688472719
C  C376  1  0.38021000  0.00491000  0.03321000  1.0 -0.4688472719
C  C377  1  0.11979000  0.46679000  0.49509000  1.0 -0.4688472719
C  C378  1  0.46679000  0.49509000  0.11979000  1.0 -0.4688472719
C  C379  1  0.99509000  0.96679000  0.61979000  1.0 -0.4688472719
C  C380  1  0.96679000  0.61979000  0.99509000  1.0 -0.4688472719
C  C381  1  0.50491000  0.88021000  0.53321000  1.0 -0.4688472719
C  C382  1  0.61979000  0.99509000  0.96679000  1.0 -0.4688472719
C  C383  1  0.88021000  0.53321000  0.50491000  1.0 -0.4688472719
C  C384  1  0.53321000  0.50491000  0.88021000  1.0 -0.4688472719
C  C385  1  0.08514000  0.00360000  0.51667000  1.0 -0.4756160747
C  C386  1  0.00360000  0.51667000  0.08514000  1.0 -0.4756160747
C  C387  1  0.41486000  0.98333000  0.49640000  1.0 -0.4756160747
C  C388  1  0.51667000  0.08514000  0.00360000  1.0 -0.4756160747
C  C389  1  0.98333000  0.49640000  0.41486000  1.0 -0.4756160747
C  C390  1  0.49640000  0.41486000  0.98333000  1.0 -0.4756160747
C  C391  1  0.91486000  0.99640000  0.48333000  1.0 -0.4756160747
C  C392  1  0.99640000  0.48333000  0.91486000  1.0 -0.4756160747
C  C393  1  0.58514000  0.01667000  0.50360000  1.0 -0.4756160747
C  C394  1  0.48333000  0.91486000  0.99640000  1.0 -0.4756160747
C  C395  1  0.01667000  0.50360000  0.58514000  1.0 -0.4756160747
C  C396  1  0.50360000  0.58514000  0.01667000  1.0 -0.4756160747
C  C397  1  0.08683000  0.24505000  0.54569000  1.0 0.5510359312
C  C398  1  0.24505000  0.54569000  0.08683000  1.0 0.5510359312
C  C399  1  0.41317000  0.95431000  0.25495000  1.0 0.5510359312
C  C400  1  0.54569000  0.08683000  0.24505000  1.0 0.5510359312
C  C401  1  0.95431000  0.25495000  0.41317000  1.0 0.5510359312
C  C402  1  0.25495000  0.41317000  0.95431000  1.0 0.5510359312
C  C403  1  0.91317000  0.75495000  0.45431000  1.0 0.5510359312
C  C404  1  0.75495000  0.45431000  0.91317000  1.0 0.5510359312
C  C405  1  0.58683000  0.04569000  0.74505000  1.0 0.5510359312
C  C406  1  0.45431000  0.91317000  0.75495000  1.0 0.5510359312
C  C407  1  0.04569000  0.74505000  0.58683000  1.0 0.5510359312
C  C408  1  0.74505000  0.58683000  0.04569000  1.0 0.5510359312
C  C409  1  0.04823000  0.23833000  0.58273000  1.0 0.0104601405
C  C410  1  0.23833000  0.58273000  0.04823000  1.0 0.0104601405
C  C411  1  0.45177000  0.91727000  0.26167000  1.0 0.0104601405
C  C412  1  0.58273000  0.04823000  0.23833000  1.0 0.0104601405
C  C413  1  0.91727000  0.26167000  0.45177000  1.0 0.0104601405
C  C414  1  0.26167000  0.45177000  0.91727000  1.0 0.0104601405
C  C415  1  0.95177000  0.76167000  0.41727000  1.0 0.0104601405
C  C416  1  0.76167000  0.41727000  0.95177000  1.0 0.0104601405
C  C417  1  0.54823000  0.08273000  0.73833000  1.0 0.0104601405
C  C418  1  0.41727000  0.95177000  0.76167000  1.0 0.0104601405
C  C419  1  0.08273000  0.73833000  0.54823000  1.0 0.0104601405
C  C420  1  0.73833000  0.54823000  0.08273000  1.0 0.0104601405
C  C421  1  0.05059000  0.24589000  0.62579000  1.0 -0.2333426657
C  C422  1  0.24589000  0.62579000  0.05059000  1.0 -0.2333426657
C  C423  1  0.44941000  0.87421000  0.25411000  1.0 -0.2333426657
C  C424  1  0.62579000  0.05059000  0.24589000  1.0 -0.2333426657
C  C425  1  0.87421000  0.25411000  0.44941000  1.0 -0.2333426657
C  C426  1  0.25411000  0.44941000  0.87421000  1.0 -0.2333426657
C  C427  1  0.94941000  0.75411000  0.37421000  1.0 -0.2333426657
C  C428  1  0.75411000  0.37421000  0.94941000  1.0 -0.2333426657
C  C429  1  0.55059000  0.12579000  0.74589000  1.0 -0.2333426657
C  C430  1  0.37421000  0.94941000  0.75411000  1.0 -0.2333426657
C  C431  1  0.12579000  0.74589000  0.55059000  1.0 -0.2333426657
C  C432  1  0.74589000  0.55059000  0.12579000  1.0 -0.2333426657
C  C433  1  0.01581000  0.24011000  0.65951000  1.0 0.265785332
C  C434  1  0.24011000  0.65951000  0.01581000  1.0 0.265785332
C  C435  1  0.48419000  0.84049000  0.25989000  1.0 0.265785332
C  C436  1  0.65951000  0.01581000  0.24011000  1.0 0.265785332
C  C437  1  0.84049000  0.25989000  0.48419000  1.0 0.265785332
C  C438  1  0.25989000  0.48419000  0.84049000  1.0 0.265785332
C  C439  1  0.98419000  0.75989000  0.34049000  1.0 0.265785332
C  C440  1  0.75989000  0.34049000  0.98419000  1.0 0.265785332
C  C441  1  0.51581000  0.15951000  0.74011000  1.0 0.265785332
C  C442  1  0.34049000  0.98419000  0.75989000  1.0 0.265785332
C  C443  1  0.15951000  0.74011000  0.51581000  1.0 0.265785332
C  C444  1  0.74011000  0.51581000  0.15951000  1.0 0.265785332
C  C445  1  0.97706000  0.22476000  0.64986000  1.0 -0.1992262026
C  C446  1  0.22476000  0.64986000  0.97706000  1.0 -0.1992262026
C  C447  1  0.52294000  0.85014000  0.27524000  1.0 -0.1992262026
C  C448  1  0.64986000  0.97706000  0.22476000  1.0 -0.1992262026
C  C449  1  0.85014000  0.27524000  0.52294000  1.0 -0.1992262026
C  C450  1  0.27524000  0.52294000  0.85014000  1.0 -0.1992262026
C  C451  1  0.02294000  0.77524000  0.35014000  1.0 -0.1992262026
C  C452  1  0.77524000  0.35014000  0.02294000  1.0 -0.1992262026
C  C453  1  0.47706000  0.14986000  0.72476000  1.0 -0.1992262026
C  C454  1  0.35014000  0.02294000  0.77524000  1.0 -0.1992262026
C  C455  1  0.14986000  0.72476000  0.47706000  1.0 -0.1992262026
C  C456  1  0.72476000  0.47706000  0.14986000  1.0 -0.1992262026
C  C457  1  0.97504000  0.21744000  0.60784000  1.0 -0.0797403707
C  C458  1  0.21744000  0.60784000  0.97504000  1.0 -0.0797403707
C  C459  1  0.52496000  0.89216000  0.28256000  1.0 -0.0797403707
C  C460  1  0.60784000  0.97504000  0.21744000  1.0 -0.0797403707
C  C461  1  0.89216000  0.28256000  0.52496000  1.0 -0.0797403707
C  C462  1  0.28256000  0.52496000  0.89216000  1.0 -0.0797403707
C  C463  1  0.02496000  0.78256000  0.39216000  1.0 -0.0797403707
C  C464  1  0.78256000  0.39216000  0.02496000  1.0 -0.0797403707
C  C465  1  0.47504000  0.10784000  0.71744000  1.0 -0.0797403707
C  C466  1  0.39216000  0.02496000  0.78256000  1.0 -0.0797403707
C  C467  1  0.10784000  0.71744000  0.47504000  1.0 -0.0797403707
C  C468  1  0.71744000  0.47504000  0.10784000  1.0 -0.0797403707
C  C469  1  0.01030000  0.22420000  0.57260000  1.0 -0.1500939027
C  C470  1  0.22420000  0.57260000  0.01030000  1.0 -0.1500939027
C  C471  1  0.48970000  0.92740000  0.27580000  1.0 -0.1500939027
C  C472  1  0.57260000  0.01030000  0.22420000  1.0 -0.1500939027
C  C473  1  0.92740000  0.27580000  0.48970000  1.0 -0.1500939027
C  C474  1  0.27580000  0.48970000  0.92740000  1.0 -0.1500939027
C  C475  1  0.98970000  0.77580000  0.42740000  1.0 -0.1500939027
C  C476  1  0.77580000  0.42740000  0.98970000  1.0 -0.1500939027
C  C477  1  0.51030000  0.07260000  0.72420000  1.0 -0.1500939027
C  C478  1  0.42740000  0.98970000  0.77580000  1.0 -0.1500939027
C  C479  1  0.07260000  0.72420000  0.51030000  1.0 -0.1500939027
C  C480  1  0.72420000  0.51030000  0.07260000  1.0 -0.1500939027
C  C481  1  0.05112000  0.26412000  0.71422000  1.0 -0.0601865654
C  C482  1  0.26412000  0.71422000  0.05112000  1.0 -0.072837225
C  C483  1  0.44888000  0.78578000  0.23588000  1.0 -0.0601865654
C  C484  1  0.71422000  0.05112000  0.26412000  1.0 -0.0601865654
C  C485  1  0.78578000  0.23588000  0.44888000  1.0 -0.0601865654
C  C486  1  0.23588000  0.44888000  0.78578000  1.0 -0.0601865654
C  C487  1  0.94888000  0.73588000  0.28578000  1.0 -0.0601865654
C  C488  1  0.73588000  0.28578000  0.94888000  1.0 -0.0601865654
C  C489  1  0.55112000  0.21422000  0.76412000  1.0 -0.0601865654
C  C490  1  0.28578000  0.94888000  0.73588000  1.0 -0.0601865654
C  C491  1  0.21422000  0.76412000  0.55112000  1.0 -0.0601865654
C  C492  1  0.76412000  0.55112000  0.21422000  1.0 -0.0601865654
C  C493  1  0.03740000  0.28160000  0.75900000  1.0 -0.0317909968
C  C494  1  0.28160000  0.75900000  0.03740000  1.0 -0.0317909968
C  C495  1  0.46260000  0.74100000  0.21840000  1.0 -0.0317909968
C  C496  1  0.75900000  0.03740000  0.28160000  1.0 -0.0317909968
C  C497  1  0.74100000  0.21840000  0.46260000  1.0 -0.0317909968
C  C498  1  0.21840000  0.46260000  0.74100000  1.0 -0.0317909968
C  C499  1  0.96260000  0.71840000  0.24100000  1.0 -0.0317909968
C  C500  1  0.71840000  0.24100000  0.96260000  1.0 -0.0317909968
C  C501  1  0.53740000  0.25900000  0.78160000  1.0 -0.0317909968
C  C502  1  0.24100000  0.96260000  0.71840000  1.0 -0.0317909968
C  C503  1  0.25900000  0.78160000  0.53740000  1.0 -0.0317909968
C  C504  1  0.78160000  0.53740000  0.25900000  1.0 -0.0317909968
C  C505  1  0.05012000  0.25642000  0.79852000  1.0 0.0837104925
C  C506  1  0.25642000  0.79852000  0.05012000  1.0 0.0837104925
C  C507  1  0.44988000  0.70148000  0.24358000  1.0 0.0837104925
C  C508  1  0.79852000  0.05012000  0.25642000  1.0 0.0837104925
C  C509  1  0.70148000  0.24358000  0.44988000  1.0 0.0837104925
C  C510  1  0.24358000  0.44988000  0.70148000  1.0 0.0837104925
C  C511  1  0.94988000  0.74358000  0.20148000  1.0 0.0837104925
C  C512  1  0.74358000  0.20148000  0.94988000  1.0 0.0837104925
C  C513  1  0.55012000  0.29852000  0.75642000  1.0 0.0837104925
C  C514  1  0.20148000  0.94988000  0.74358000  1.0 0.0837104925
C  C515  1  0.29852000  0.75642000  0.55012000  1.0 0.0837104925
C  C516  1  0.75642000  0.55012000  0.29852000  1.0 0.0837104925
C  C517  1  0.03798000  0.27468000  0.83788000  1.0 -0.0395567288
C  C518  1  0.27468000  0.83788000  0.03798000  1.0 -0.0395567288
C  C519  1  0.46202000  0.66212000  0.22532000  1.0 -0.0395567288
C  C520  1  0.83788000  0.03798000  0.27468000  1.0 -0.0395567288
C  C521  1  0.66212000  0.22532000  0.46202000  1.0 -0.0395567288
C  C522  1  0.22532000  0.46202000  0.66212000  1.0 -0.0395567288
C  C523  1  0.96202000  0.72532000  0.16212000  1.0 -0.0395567288
C  C524  1  0.72532000  0.16212000  0.96202000  1.0 -0.0395567288
C  C525  1  0.53798000  0.33788000  0.77468000  1.0 -0.0395567288
C  C526  1  0.16212000  0.96202000  0.72532000  1.0 -0.0395567288
C  C527  1  0.33788000  0.77468000  0.53798000  1.0 -0.0395567288
C  C528  1  0.77468000  0.53798000  0.33788000  1.0 -0.0395567288
C  C529  1  0.01111000  0.31731000  0.83841000  1.0 0.0837104925
C  C530  1  0.31731000  0.83841000  0.01111000  1.0 0.0837104925
C  C531  1  0.48889000  0.66159000  0.18269000  1.0 0.0837104925
C  C532  1  0.83841000  0.01111000  0.31731000  1.0 0.0837104925
C  C533  1  0.66159000  0.18269000  0.48889000  1.0 0.0837104925
C  C534  1  0.18269000  0.48889000  0.66159000  1.0 0.0837104925
C  C535  1  0.98889000  0.68269000  0.16159000  1.0 0.0837104925
C  C536  1  0.68269000  0.16159000  0.98889000  1.0 0.0837104925
C  C537  1  0.51111000  0.33841000  0.81731000  1.0 0.0837104925
C  C538  1  0.16159000  0.98889000  0.68269000  1.0 0.0837104925
C  C539  1  0.33841000  0.81731000  0.51111000  1.0 0.0837104925
C  C540  1  0.81731000  0.51111000  0.33841000  1.0 0.0837104925
C  C541  1  0.99521000  0.34001000  0.80011000  1.0 -0.0395567288
C  C542  1  0.34001000  0.80011000  0.99521000  1.0 -0.0395567288
C  C543  1  0.50479000  0.69989000  0.15999000  1.0 -0.0395567288
C  C544  1  0.80011000  0.99521000  0.34001000  1.0 -0.0395567288
C  C545  1  0.69989000  0.15999000  0.50479000  1.0 -0.0395567288
C  C546  1  0.15999000  0.50479000  0.69989000  1.0 -0.0395567288
C  C547  1  0.00479000  0.65999000  0.19989000  1.0 -0.0395567288
C  C548  1  0.65999000  0.19989000  0.00479000  1.0 -0.0395567288
C  C549  1  0.49521000  0.30011000  0.84001000  1.0 -0.0395567288
C  C550  1  0.19989000  0.00479000  0.65999000  1.0 -0.0395567288
C  C551  1  0.30011000  0.84001000  0.49521000  1.0 -0.0395567288
C  C552  1  0.84001000  0.49521000  0.30011000  1.0 -0.0395567288
C  C553  1  0.00961000  0.32311000  0.75941000  1.0 0.0989995393
C  C554  1  0.32311000  0.75941000  0.00961000  1.0 0.0989995393
C  C555  1  0.49039000  0.74059000  0.17689000  1.0 0.0989995393
C  C556  1  0.75941000  0.00961000  0.32311000  1.0 0.0989995393
C  C557  1  0.74059000  0.17689000  0.49039000  1.0 0.0989995393
C  C558  1  0.17689000  0.49039000  0.74059000  1.0 0.0989995393
C  C559  1  0.99039000  0.67689000  0.24059000  1.0 0.0989995393
C  C560  1  0.67689000  0.24059000  0.99039000  1.0 0.0989995393
C  C561  1  0.50961000  0.25941000  0.82311000  1.0 0.0989995393
C  C562  1  0.24059000  0.99039000  0.67689000  1.0 0.0989995393
C  C563  1  0.25941000  0.82311000  0.50961000  1.0 0.0989995393
C  C564  1  0.82311000  0.50961000  0.25941000  1.0 0.0989995393
C  C565  1  0.04964000  0.24784000  0.88354000  1.0 -0.0395567288
C  C566  1  0.24784000  0.88354000  0.04964000  1.0 -0.0395567288
C  C567  1  0.45036000  0.61646000  0.25216000  1.0 -0.0395567288
C  C568  1  0.88354000  0.04964000  0.24784000  1.0 -0.0395567288
C  C569  1  0.61646000  0.25216000  0.45036000  1.0 -0.0395567288
C  C570  1  0.25216000  0.45036000  0.61646000  1.0 -0.0395567288
C  C571  1  0.95036000  0.75216000  0.11646000  1.0 -0.0395567288
C  C572  1  0.75216000  0.11646000  0.95036000  1.0 -0.0395567288
C  C573  1  0.54964000  0.38354000  0.74784000  1.0 -0.0395567288
C  C574  1  0.11646000  0.95036000  0.75216000  1.0 -0.0395567288
C  C575  1  0.38354000  0.74784000  0.54964000  1.0 -0.0395567288
C  C576  1  0.74784000  0.54964000  0.38354000  1.0 -0.0395567288
C  C577  1  0.09855000  0.25645000  0.93525000  1.0 0.2583978594
C  C578  1  0.25645000  0.93525000  0.09855000  1.0 0.2583978594
C  C579  1  0.40145000  0.56475000  0.24355000  1.0 0.2583978594
C  C580  1  0.93525000  0.09855000  0.25645000  1.0 0.2583978594
C  C581  1  0.56475000  0.24355000  0.40145000  1.0 0.2583978594
C  C582  1  0.24355000  0.40145000  0.56475000  1.0 0.2583978594
C  C583  1  0.90145000  0.74355000  0.06475000  1.0 0.2583978594
C  C584  1  0.74355000  0.06475000  0.90145000  1.0 0.2583978594
C  C585  1  0.59855000  0.43525000  0.75645000  1.0 0.2583978594
C  C586  1  0.06475000  0.90145000  0.74355000  1.0 0.2583978594
C  C587  1  0.43525000  0.75645000  0.59855000  1.0 0.2583978594
C  C588  1  0.75645000  0.59855000  0.43525000  1.0 0.2583978594
C  C589  1  0.13925000  0.27061000  0.93967000  1.0 -0.2112928823
C  C590  1  0.27061000  0.93967000  0.13925000  1.0 -0.2112928823
C  C591  1  0.36075000  0.56033000  0.22939000  1.0 -0.2112928823
C  C592  1  0.93967000  0.13925000  0.27061000  1.0 -0.2112928823
C  C593  1  0.56033000  0.22939000  0.36075000  1.0 -0.2112928823
C  C594  1  0.22939000  0.36075000  0.56033000  1.0 -0.2112928823
C  C595  1  0.86075000  0.72939000  0.06033000  1.0 -0.2112928823
C  C596  1  0.72939000  0.06033000  0.86075000  1.0 -0.2112928823
C  C597  1  0.63925000  0.43967000  0.77061000  1.0 -0.2112928823
C  C598  1  0.06033000  0.86075000  0.72939000  1.0 -0.2112928823
C  C599  1  0.43967000  0.77061000  0.63925000  1.0 -0.2112928823
C  C600  1  0.77061000  0.63925000  0.43967000  1.0 -0.2112928823
C  C601  1  0.15036000  0.27076000  0.98166000  1.0 -0.008974991
C  C602  1  0.27076000  0.98166000  0.15036000  1.0 -0.008974991
C  C603  1  0.34964000  0.51834000  0.22924000  1.0 -0.008974991
C  C604  1  0.98166000  0.15036000  0.27076000  1.0 -0.008974991
C  C605  1  0.51834000  0.22924000  0.34964000  1.0 -0.008974991
C  C606  1  0.22924000  0.34964000  0.51834000  1.0 -0.008974991
C  C607  1  0.84964000  0.72924000  0.01834000  1.0 -0.008974991
C  C608  1  0.72924000  0.01834000  0.84964000  1.0 -0.008974991
C  C609  1  0.65036000  0.48166000  0.77076000  1.0 -0.008974991
C  C610  1  0.01834000  0.84964000  0.72924000  1.0 -0.008974991
C  C611  1  0.48166000  0.77076000  0.65036000  1.0 -0.008974991
C  C612  1  0.77076000  0.65036000  0.48166000  1.0 -0.008974991
C  C613  1  0.12137000  0.25717000  0.02067000  1.0 -0.141136282
C  C614  1  0.25717000  0.02067000  0.12137000  1.0 -0.141136282
C  C615  1  0.37863000  0.47933000  0.24283000  1.0 -0.141136282
C  C616  1  0.02067000  0.12137000  0.25717000  1.0 -0.141136282
C  C617  1  0.47933000  0.24283000  0.37863000  1.0 -0.141136282
C  C618  1  0.24283000  0.37863000  0.47933000  1.0 -0.141136282
C  C619  1  0.87863000  0.74283000  0.97933000  1.0 -0.141136282
C  C620  1  0.74283000  0.97933000  0.87863000  1.0 -0.141136282
C  C621  1  0.62137000  0.52067000  0.75717000  1.0 -0.141136282
C  C622  1  0.97933000  0.87863000  0.74283000  1.0 -0.141136282
C  C623  1  0.52067000  0.75717000  0.62137000  1.0 -0.141136282
C  C624  1  0.75717000  0.62137000  0.52067000  1.0 -0.141136282
C  C625  1  0.08190000  0.24230000  0.01570000  1.0 -0.0797403707
C  C626  1  0.24230000  0.01570000  0.08190000  1.0 -0.0797403707
C  C627  1  0.41810000  0.48430000  0.25770000  1.0 -0.0797403707
C  C628  1  0.01570000  0.08190000  0.24230000  1.0 -0.0797403707
C  C629  1  0.48430000  0.25770000  0.41810000  1.0 -0.0797403707
C  C630  1  0.25770000  0.41810000  0.48430000  1.0 -0.0797403707
C  C631  1  0.91810000  0.75770000  0.98430000  1.0 -0.0797403707
C  C632  1  0.75770000  0.98430000  0.91810000  1.0 -0.0797403707
C  C633  1  0.58190000  0.51570000  0.74230000  1.0 -0.0797403707
C  C634  1  0.98430000  0.91810000  0.75770000  1.0 -0.0797403707
C  C635  1  0.51570000  0.74230000  0.58190000  1.0 -0.0797403707
C  C636  1  0.74230000  0.58190000  0.51570000  1.0 -0.0797403707
C  C637  1  0.07027000  0.24187000  0.97427000  1.0 -0.2162253057
C  C638  1  0.24187000  0.97427000  0.07027000  1.0 -0.2162253057
C  C639  1  0.42973000  0.52573000  0.25813000  1.0 -0.2162253057
C  C640  1  0.97427000  0.07027000  0.24187000  1.0 -0.2162253057
C  C641  1  0.52573000  0.25813000  0.42973000  1.0 -0.2162253057
C  C642  1  0.25813000  0.42973000  0.52573000  1.0 -0.2162253057
C  C643  1  0.92973000  0.75813000  0.02573000  1.0 -0.2162253057
C  C644  1  0.75813000  0.02573000  0.92973000  1.0 -0.2162253057
C  C645  1  0.57027000  0.47427000  0.74187000  1.0 -0.2162253057
C  C646  1  0.02573000  0.92973000  0.75813000  1.0 -0.2162253057
C  C647  1  0.47427000  0.74187000  0.57027000  1.0 -0.2162253057
C  C648  1  0.74187000  0.57027000  0.47427000  1.0 -0.2162253057
C  C649  1  0.19395000  0.28675000  0.98505000  1.0 0.5784153471
C  C650  1  0.28675000  0.98505000  0.19395000  1.0 0.5784153471
C  C651  1  0.30605000  0.51495000  0.21325000  1.0 0.5784153471
C  C652  1  0.98505000  0.19395000  0.28675000  1.0 0.5784153471
C  C653  1  0.51495000  0.21325000  0.30605000  1.0 0.5784153471
C  C654  1  0.21325000  0.30605000  0.51495000  1.0 0.5784153471
C  C655  1  0.80605000  0.71325000  0.01495000  1.0 0.5784153471
C  C656  1  0.71325000  0.01495000  0.80605000  1.0 0.5784153471
C  C657  1  0.69395000  0.48505000  0.78675000  1.0 0.5784153471
C  C658  1  0.01495000  0.80605000  0.71325000  1.0 0.5784153471
C  C659  1  0.48505000  0.78675000  0.69395000  1.0 0.5784153471
C  C660  1  0.78675000  0.69395000  0.48505000  1.0 0.5784153471
C  C661  1  0.96026000  0.38122000  0.80204000  1.0 -0.0601865654
C  C662  1  0.38122000  0.80204000  0.96026000  1.0 -0.0601865654
C  C663  1  0.53974000  0.69796000  0.11878000  1.0 -0.0601865654
C  C664  1  0.80204000  0.96026000  0.38122000  1.0 -0.0601865654
C  C665  1  0.69796000  0.11878000  0.53974000  1.0 -0.0601865654
C  C666  1  0.11878000  0.53974000  0.69796000  1.0 -0.0601865654
C  C667  1  0.03974000  0.61878000  0.19796000  1.0 -0.0601865654
C  C668  1  0.61878000  0.19796000  0.03974000  1.0 -0.0601865654
C  C669  1  0.46026000  0.30204000  0.88122000  1.0 -0.0601865654
C  C670  1  0.19796000  0.03974000  0.61878000  1.0 -0.0601865654
C  C671  1  0.30204000  0.88122000  0.46026000  1.0 -0.0601865654
C  C672  1  0.88122000  0.46026000  0.30204000  1.0 -0.0601865654
C  C673  1  0.95534000  0.46054000  0.80234000  1.0 0.2374370748
C  C674  1  0.46054000  0.80234000  0.95534000  1.0 0.2374370748
C  C675  1  0.54466000  0.69766000  0.03946000  1.0 0.2374370748
C  C676  1  0.80234000  0.95534000  0.46054000  1.0 0.2374370748
C  C677  1  0.69766000  0.03946000  0.54466000  1.0 0.2374370748
C  C678  1  0.03946000  0.54466000  0.69766000  1.0 0.2374370748
C  C679  1  0.04466000  0.53946000  0.19766000  1.0 0.2374370748
C  C680  1  0.53946000  0.19766000  0.04466000  1.0 0.2374370748
C  C681  1  0.45534000  0.30234000  0.96054000  1.0 0.2374370748
C  C682  1  0.19766000  0.04466000  0.53946000  1.0 0.2374370748
C  C683  1  0.30234000  0.96054000  0.45534000  1.0 0.2374370748
C  C684  1  0.96054000  0.45534000  0.30234000  1.0 0.2374370748
C  C685  1  0.90926000  0.46756000  0.80756000  1.0 -0.2398256487
C  C686  1  0.46756000  0.80756000  0.90926000  1.0 -0.2398256487
C  C687  1  0.59074000  0.69244000  0.03244000  1.0 -0.2398256487
C  C688  1  0.80756000  0.90926000  0.46756000  1.0 -0.2398256487
C  C689  1  0.69244000  0.03244000  0.59074000  1.0 -0.2398256487
C  C690  1  0.03244000  0.59074000  0.69244000  1.0 -0.2398256487
C  C691  1  0.09074000  0.53244000  0.19244000  1.0 -0.2398256487
C  C692  1  0.53244000  0.19244000  0.09074000  1.0 -0.2398256487
C  C693  1  0.40926000  0.30756000  0.96756000  1.0 -0.2398256487
C  C694  1  0.19244000  0.09074000  0.53244000  1.0 -0.2398256487
C  C695  1  0.30756000  0.96756000  0.40926000  1.0 -0.2398256487
C  C696  1  0.96756000  0.40926000  0.30756000  1.0 -0.2398256487
C  C697  1  0.88460000  0.50900000  0.81670000  1.0 -0.008974991
C  C698  1  0.50900000  0.81670000  0.88460000  1.0 -0.008974991
C  C699  1  0.61540000  0.68330000  0.99100000  1.0 -0.008974991
C  C700  1  0.81670000  0.88460000  0.50900000  1.0 -0.008974991
C  C701  1  0.68330000  0.99100000  0.61540000  1.0 -0.008974991
C  C702  1  0.99100000  0.61540000  0.68330000  1.0 -0.008974991
C  C703  1  0.11540000  0.49100000  0.18330000  1.0 -0.008974991
C  C704  1  0.49100000  0.18330000  0.11540000  1.0 -0.008974991
C  C705  1  0.38460000  0.31670000  0.00900000  1.0 -0.008974991
C  C706  1  0.18330000  0.11540000  0.49100000  1.0 -0.008974991
C  C707  1  0.31670000  0.00900000  0.38460000  1.0 -0.008974991
C  C708  1  0.00900000  0.38460000  0.31670000  1.0 -0.008974991
C  C709  1  0.90838000  0.54418000  0.81798000  1.0 -0.1206476646
C  C710  1  0.54418000  0.81798000  0.90838000  1.0 -0.1206476646
C  C711  1  0.59162000  0.68202000  0.95582000  1.0 -0.1206476646
C  C712  1  0.81798000  0.90838000  0.54418000  1.0 -0.1206476646
C  C713  1  0.68202000  0.95582000  0.59162000  1.0 -0.1206476646
C  C714  1  0.95582000  0.59162000  0.68202000  1.0 -0.1206476646
C  C715  1  0.09162000  0.45582000  0.18202000  1.0 -0.1206476646
C  C716  1  0.45582000  0.18202000  0.09162000  1.0 -0.1206476646
C  C717  1  0.40838000  0.31798000  0.04418000  1.0 -0.1206476646
C  C718  1  0.18202000  0.09162000  0.45582000  1.0 -0.1206476646
C  C719  1  0.31798000  0.04418000  0.40838000  1.0 -0.1206476646
C  C720  1  0.04418000  0.40838000  0.31798000  1.0 -0.1206476646
C  C721  1  0.95546000  0.53606000  0.81136000  1.0 -0.072837225
C  C722  1  0.53606000  0.81136000  0.95546000  1.0 -0.072837225
C  C723  1  0.54454000  0.68864000  0.96394000  1.0 -0.072837225
C  C724  1  0.81136000  0.95546000  0.53606000  1.0 -0.072837225
C  C725  1  0.68864000  0.96394000  0.54454000  1.0 -0.072837225
C  C726  1  0.96394000  0.54454000  0.68864000  1.0 -0.072837225
C  C727  1  0.04454000  0.46394000  0.18864000  1.0 -0.072837225
C  C728  1  0.46394000  0.18864000  0.04454000  1.0 -0.072837225
C  C729  1  0.45546000  0.31136000  0.03606000  1.0 -0.072837225
C  C730  1  0.18864000  0.04454000  0.46394000  1.0 -0.072837225
C  C731  1  0.31136000  0.03606000  0.45546000  1.0 -0.072837225
C  C732  1  0.03606000  0.45546000  0.31136000  1.0 -0.072837225
C  C733  1  0.97842000  0.49512000  0.80372000  1.0 -0.2112928823
C  C734  1  0.49512000  0.80372000  0.97842000  1.0 -0.2112928823
C  C735  1  0.52158000  0.69628000  0.00488000  1.0 -0.2112928823
C  C736  1  0.80372000  0.97842000  0.49512000  1.0 -0.2112928823
C  C737  1  0.69628000  0.00488000  0.52158000  1.0 -0.2112928823
C  C738  1  0.00488000  0.52158000  0.69628000  1.0 -0.2112928823
C  C739  1  0.02158000  0.50488000  0.19628000  1.0 -0.2112928823
C  C740  1  0.50488000  0.19628000  0.02158000  1.0 -0.2112928823
C  C741  1  0.47842000  0.30372000  0.99512000  1.0 -0.2112928823
C  C742  1  0.19628000  0.02158000  0.50488000  1.0 -0.2112928823
C  C743  1  0.30372000  0.99512000  0.47842000  1.0 -0.2112928823
C  C744  1  0.99512000  0.47842000  0.30372000  1.0 -0.2112928823
C  C745  1  0.83525000  0.51645000  0.82095000  1.0 0.5510359312
C  C746  1  0.51645000  0.82095000  0.83525000  1.0 0.5510359312
C  C747  1  0.66475000  0.67905000  0.98355000  1.0 0.5510359312
C  C748  1  0.82095000  0.83525000  0.51645000  1.0 0.5510359312
C  C749  1  0.67905000  0.98355000  0.66475000  1.0 0.5510359312
C  C750  1  0.98355000  0.66475000  0.67905000  1.0 0.5510359312
C  C751  1  0.16475000  0.48355000  0.17905000  1.0 0.5510359312
C  C752  1  0.48355000  0.17905000  0.16475000  1.0 0.5510359312
C  C753  1  0.33525000  0.32095000  0.01645000  1.0 0.5510359312
C  C754  1  0.17905000  0.16475000  0.48355000  1.0 0.5510359312
C  C755  1  0.32095000  0.01645000  0.33525000  1.0 0.5510359312
C  C756  1  0.01645000  0.33525000  0.32095000  1.0 0.5631357449
C  C757  1  0.07840000  0.21080000  0.79810000  1.0 -0.425904199
C  C758  1  0.21080000  0.79810000  0.07840000  1.0 -0.425904199
C  C759  1  0.42160000  0.70190000  0.28920000  1.0 -0.425904199
C  C760  1  0.79810000  0.07840000  0.21080000  1.0 -0.425904199
C  C761  1  0.70190000  0.28920000  0.42160000  1.0 -0.425904199
C  C762  1  0.28920000  0.42160000  0.70190000  1.0 -0.425904199
C  C763  1  0.92160000  0.78920000  0.20190000  1.0 -0.425904199
C  C764  1  0.78920000  0.20190000  0.92160000  1.0 -0.425904199
C  C765  1  0.57840000  0.29810000  0.71080000  1.0 -0.425904199
C  C766  1  0.20190000  0.92160000  0.78920000  1.0 -0.425904199
C  C767  1  0.29810000  0.71080000  0.57840000  1.0 -0.425904199
C  C768  1  0.71080000  0.57840000  0.29810000  1.0 -0.425904199
C  C769  1  0.99941000  0.33881000  0.88171000  1.0 -0.4688472719
C  C770  1  0.33881000  0.88171000  0.99941000  1.0 -0.4688472719
C  C771  1  0.50059000  0.61829000  0.16119000  1.0 -0.4688472719
C  C772  1  0.88171000  0.99941000  0.33881000  1.0 -0.4688472719
C  C773  1  0.61829000  0.16119000  0.50059000  1.0 -0.4688472719
C  C774  1  0.16119000  0.50059000  0.61829000  1.0 -0.4688472719
C  C775  1  0.00059000  0.66119000  0.11829000  1.0 -0.4688472719
C  C776  1  0.66119000  0.11829000  0.00059000  1.0 -0.4688472719
C  C777  1  0.49941000  0.38171000  0.83881000  1.0 -0.4688472719
C  C778  1  0.11829000  0.00059000  0.66119000  1.0 -0.4688472719
C  C779  1  0.38171000  0.83881000  0.49941000  1.0 -0.4688472719
C  C780  1  0.83881000  0.49941000  0.38171000  1.0 -0.4688472719
C  C781  1  0.99489000  0.35069000  0.71649000  1.0 -0.4688472719
C  C782  1  0.35069000  0.71649000  0.99489000  1.0 -0.4688472719
C  C783  1  0.50511000  0.78351000  0.14931000  1.0 -0.4688472719
C  C784  1  0.71649000  0.99489000  0.35069000  1.0 -0.4688472719
C  C785  1  0.78351000  0.14931000  0.50511000  1.0 -0.4688472719
C  C786  1  0.14931000  0.50511000  0.78351000  1.0 -0.4688472719
C  C787  1  0.00511000  0.64931000  0.28351000  1.0 -0.4688472719
C  C788  1  0.64931000  0.28351000  0.00511000  1.0 -0.4688472719
C  C789  1  0.49489000  0.21649000  0.85069000  1.0 -0.4688472719
C  C790  1  0.28351000  0.00511000  0.64931000  1.0 -0.4688472719
C  C791  1  0.21649000  0.85069000  0.49489000  1.0 -0.4688472719
C  C792  1  0.85069000  0.49489000  0.21649000  1.0 -0.4688472719
O  O1  1  0.12752000  0.16196000  0.68925000  1.0 -0.5742311523
O  O2  1  0.16196000  0.68925000  0.12752000  1.0 -0.5742311523
O  O3  1  0.37248000  0.81075000  0.33804000  1.0 -0.5742311523
O  O4  1  0.68925000  0.12752000  0.16196000  1.0 -0.5742311523
O  O5  1  0.81075000  0.33804000  0.37248000  1.0 -0.5742311523
O  O6  1  0.33804000  0.37248000  0.81075000  1.0 -0.5742311523
O  O7  1  0.87248000  0.83804000  0.31075000  1.0 -0.5742311523
O  O8  1  0.83804000  0.31075000  0.87248000  1.0 -0.5742311523
O  O9  1  0.62752000  0.18925000  0.66196000  1.0 -0.5742311523
O  O10  1  0.31075000  0.87248000  0.83804000  1.0 -0.5742311523
O  O11  1  0.18925000  0.66196000  0.62752000  1.0 -0.5742311523
O  O12  1  0.66196000  0.62752000  0.18925000  1.0 -0.5742311523
O  O13  1  0.14577000  0.16185000  0.61474000  1.0 -0.5603890613
O  O14  1  0.16185000  0.61474000  0.14577000  1.0 -0.5603890613
O  O15  1  0.35423000  0.88526000  0.33815000  1.0 -0.5603890613
O  O16  1  0.61474000  0.14577000  0.16185000  1.0 -0.5603890613
O  O17  1  0.88526000  0.33815000  0.35423000  1.0 -0.5603890613
O  O18  1  0.33815000  0.35423000  0.88526000  1.0 -0.5603890613
O  O19  1  0.85423000  0.83815000  0.38526000  1.0 -0.5603890613
O  O20  1  0.83815000  0.38526000  0.85423000  1.0 -0.5603890613
O  O21  1  0.64577000  0.11474000  0.66185000  1.0 -0.5603890613
O  O22  1  0.38526000  0.85423000  0.83815000  1.0 -0.5603890613
O  O23  1  0.11474000  0.66185000  0.64577000  1.0 -0.5603890613
O  O24  1  0.66185000  0.64577000  0.11474000  1.0 -0.5603890613
O  O25  1  0.02669000  0.08770000  0.57163000  1.0 -0.1836280371
O  O26  1  0.08770000  0.57163000  0.02669000  1.0 -0.1836280371
O  O27  1  0.47331000  0.92837000  0.41230000  1.0 -0.1836280371
O  O28  1  0.57163000  0.02669000  0.08770000  1.0 -0.1836280371
O  O29  1  0.92837000  0.41230000  0.47331000  1.0 -0.1836280371
O  O30  1  0.41230000  0.47331000  0.92837000  1.0 -0.1836280371
O  O31  1  0.97331000  0.91230000  0.42837000  1.0 -0.1836280371
O  O32  1  0.91230000  0.42837000  0.97331000  1.0 -0.1836280371
O  O33  1  0.52669000  0.07163000  0.58770000  1.0 -0.1836280371
O  O34  1  0.42837000  0.97331000  0.91230000  1.0 -0.1836280371
O  O35  1  0.07163000  0.58770000  0.52669000  1.0 -0.1836280371
O  O36  1  0.58770000  0.52669000  0.07163000  1.0 -0.1836280371
O  O37  1  0.92469000  0.09843000  0.41453000  1.0 -0.187619266
O  O38  1  0.09843000  0.41453000  0.92469000  1.0 -0.187619266
O  O39  1  0.57531000  0.08547000  0.40157000  1.0 -0.187619266
O  O40  1  0.41453000  0.92469000  0.09843000  1.0 -0.187619266
O  O41  1  0.08547000  0.40157000  0.57531000  1.0 -0.187619266
O  O42  1  0.40157000  0.57531000  0.08547000  1.0 -0.187619266
O  O43  1  0.07531000  0.90157000  0.58547000  1.0 -0.187619266
O  O44  1  0.90157000  0.58547000  0.07531000  1.0 -0.187619266
O  O45  1  0.42469000  0.91453000  0.59843000  1.0 -0.187619266
O  O46  1  0.58547000  0.07531000  0.90157000  1.0 -0.187619266
O  O47  1  0.91453000  0.59843000  0.42469000  1.0 -0.187619266
O  O48  1  0.59843000  0.42469000  0.91453000  1.0 -0.187619266
O  O49  1  0.85840000  0.24882000  0.32413000  1.0 -0.5603890613
O  O50  1  0.24882000  0.32413000  0.85840000  1.0 -0.5603890613
O  O51  1  0.64160000  0.17587000  0.25118000  1.0 -0.5603890613
O  O52  1  0.32413000  0.85840000  0.24882000  1.0 -0.5603890613
O  O53  1  0.17587000  0.25118000  0.64160000  1.0 -0.5603890613
O  O54  1  0.25118000  0.64160000  0.17587000  1.0 -0.5603890613
O  O55  1  0.14160000  0.75118000  0.67587000  1.0 -0.5603890613
O  O56  1  0.75118000  0.67587000  0.14160000  1.0 -0.5603890613
O  O57  1  0.35840000  0.82413000  0.74882000  1.0 -0.5603890613
O  O58  1  0.67587000  0.14160000  0.75118000  1.0 -0.5603890613
O  O59  1  0.82413000  0.74882000  0.35840000  1.0 -0.5603890613
O  O60  1  0.74882000  0.35840000  0.82413000  1.0 -0.5603890613
O  O61  1  0.78718000  0.24403000  0.34170000  1.0 -0.5376060529
O  O62  1  0.24403000  0.34170000  0.78718000  1.0 -0.5376060529
O  O63  1  0.71282000  0.15830000  0.25597000  1.0 -0.5376060529
O  O64  1  0.34170000  0.78718000  0.24403000  1.0 -0.5376060529
O  O65  1  0.15830000  0.25597000  0.71282000  1.0 -0.5376060529
O  O66  1  0.25597000  0.71282000  0.15830000  1.0 -0.5376060529
O  O67  1  0.21282000  0.75597000  0.65830000  1.0 -0.5376060529
O  O68  1  0.75597000  0.65830000  0.21282000  1.0 -0.5376060529
O  O69  1  0.28718000  0.84170000  0.74403000  1.0 -0.5376060529
O  O70  1  0.65830000  0.21282000  0.75597000  1.0 -0.5376060529
O  O71  1  0.84170000  0.74403000  0.28718000  1.0 -0.5376060529
O  O72  1  0.74403000  0.28718000  0.84170000  1.0 -0.5376060529
O  O73  1  0.10210000  0.96797000  0.41582000  1.0 -0.173511306
O  O74  1  0.96797000  0.41582000  0.10210000  1.0 -0.173511306
O  O75  1  0.39790000  0.08418000  0.53203000  1.0 -0.173511306
O  O76  1  0.41582000  0.10210000  0.96797000  1.0 -0.173511306
O  O77  1  0.08418000  0.53203000  0.39790000  1.0 -0.173511306
O  O78  1  0.53203000  0.39790000  0.08418000  1.0 -0.173511306
O  O79  1  0.89790000  0.03203000  0.58418000  1.0 -0.173511306
O  O80  1  0.03203000  0.58418000  0.89790000  1.0 -0.173511306
O  O81  1  0.60210000  0.91582000  0.46797000  1.0 -0.173511306
O  O82  1  0.58418000  0.89790000  0.03203000  1.0 -0.173511306
O  O83  1  0.91582000  0.46797000  0.60210000  1.0 -0.173511306
O  O84  1  0.46797000  0.60210000  0.91582000  1.0 -0.173511306
O  O85  1  0.24761000  0.91122000  0.32772000  1.0 -0.5469581331
O  O86  1  0.91122000  0.32772000  0.24761000  1.0 -0.5469581331
O  O87  1  0.25239000  0.17228000  0.58878000  1.0 -0.5469581331
O  O88  1  0.32772000  0.24761000  0.91122000  1.0 -0.5469581331
O  O89  1  0.17228000  0.58878000  0.25239000  1.0 -0.5469581331
O  O90  1  0.58878000  0.25239000  0.17228000  1.0 -0.5469581331
O  O91  1  0.75239000  0.08878000  0.67228000  1.0 -0.5469581331
O  O92  1  0.08878000  0.67228000  0.75239000  1.0 -0.5469581331
O  O93  1  0.74761000  0.82772000  0.41122000  1.0 -0.5469581331
O  O94  1  0.67228000  0.75239000  0.08878000  1.0 -0.5469581331
O  O95  1  0.82772000  0.41122000  0.74761000  1.0 -0.5469581331
O  O96  1  0.41122000  0.74761000  0.82772000  1.0 -0.5469581331
O  O97  1  0.25597000  0.83657000  0.35015000  1.0 -0.5976217087
O  O98  1  0.83657000  0.35015000  0.25597000  1.0 -0.5976217087
O  O99  1  0.24403000  0.14985000  0.66343000  1.0 -0.5976217087
O  O100  1  0.35015000  0.25597000  0.83657000  1.0 -0.5976217087
O  O101  1  0.14985000  0.66343000  0.24403000  1.0 -0.5976217087
O  O102  1  0.66343000  0.24403000  0.14985000  1.0 -0.5976217087
O  O103  1  0.74403000  0.16343000  0.64985000  1.0 -0.5976217087
O  O104  1  0.16343000  0.64985000  0.74403000  1.0 -0.5976217087
O  O105  1  0.75597000  0.85015000  0.33657000  1.0 -0.5976217087
O  O106  1  0.64985000  0.74403000  0.16343000  1.0 -0.5976217087
O  O107  1  0.85015000  0.33657000  0.75597000  1.0 -0.5976217087
O  O108  1  0.33657000  0.75597000  0.85015000  1.0 -0.5976217087
O  O109  1  0.08333000  0.23901000  0.50702000  1.0 -0.4631805962
O  O110  1  0.23901000  0.50702000  0.08333000  1.0 -0.4631805962
O  O111  1  0.41667000  0.99298000  0.26099000  1.0 -0.4631805962
O  O112  1  0.50702000  0.08333000  0.23901000  1.0 -0.4631805962
O  O113  1  0.99298000  0.26099000  0.41667000  1.0 -0.4631805962
O  O114  1  0.26099000  0.41667000  0.99298000  1.0 -0.4631805962
O  O115  1  0.91667000  0.76099000  0.49298000  1.0 -0.4631805962
O  O116  1  0.76099000  0.49298000  0.91667000  1.0 -0.4631805962
O  O117  1  0.58333000  0.00702000  0.73901000  1.0 -0.4631805962
O  O118  1  0.49298000  0.91667000  0.76099000  1.0 -0.4631805962
O  O119  1  0.00702000  0.73901000  0.58333000  1.0 -0.4631805962
O  O120  1  0.73901000  0.58333000  0.00702000  1.0 -0.4631805962
O  O121  1  0.12116000  0.25733000  0.55509000  1.0 -0.5603890613
O  O122  1  0.25733000  0.55509000  0.12116000  1.0 -0.5603890613
O  O123  1  0.37884000  0.94491000  0.24267000  1.0 -0.5603890613
O  O124  1  0.55509000  0.12116000  0.25733000  1.0 -0.5603890613
O  O125  1  0.94491000  0.24267000  0.37884000  1.0 -0.5603890613
O  O126  1  0.24267000  0.37884000  0.94491000  1.0 -0.5603890613
O  O127  1  0.87884000  0.74267000  0.44491000  1.0 -0.5603890613
O  O128  1  0.74267000  0.44491000  0.87884000  1.0 -0.5603890613
O  O129  1  0.62116000  0.05509000  0.75733000  1.0 -0.5603890613
O  O130  1  0.44491000  0.87884000  0.74267000  1.0 -0.5603890613
O  O131  1  0.05509000  0.75733000  0.62116000  1.0 -0.5603890613
O  O132  1  0.75733000  0.62116000  0.05509000  1.0 -0.5603890613
O  O133  1  0.01375000  0.24675000  0.70266000  1.0 -0.1554563737
O  O134  1  0.24675000  0.70266000  0.01375000  1.0 -0.1554563737
O  O135  1  0.48625000  0.79734000  0.25325000  1.0 -0.1554563737
O  O136  1  0.70266000  0.01375000  0.24675000  1.0 -0.1554563737
O  O137  1  0.79734000  0.25325000  0.48625000  1.0 -0.1554563737
O  O138  1  0.25325000  0.48625000  0.79734000  1.0 -0.1554563737
O  O139  1  0.98625000  0.75325000  0.29734000  1.0 -0.1554563737
O  O140  1  0.75325000  0.29734000  0.98625000  1.0 -0.1554563737
O  O141  1  0.51375000  0.20266000  0.74675000  1.0 -0.1554563737
O  O142  1  0.29734000  0.98625000  0.75325000  1.0 -0.1554563737
O  O143  1  0.20266000  0.74675000  0.51375000  1.0 -0.1554563737
O  O144  1  0.74675000  0.51375000  0.20266000  1.0 -0.1554563737
O  O145  1  0.09064000  0.26081000  0.88978000  1.0 -0.2112928823
O  O146  1  0.26081000  0.88978000  0.09064000  1.0 -0.2112928823
O  O147  1  0.40936000  0.61022000  0.23919000  1.0 -0.2112928823
O  O148  1  0.88978000  0.09064000  0.26081000  1.0 -0.2112928823
O  O149  1  0.61022000  0.23919000  0.40936000  1.0 -0.2112928823
O  O150  1  0.23919000  0.40936000  0.61022000  1.0 -0.2112928823
O  O151  1  0.90936000  0.73919000  0.11022000  1.0 -0.2112928823
O  O152  1  0.73919000  0.11022000  0.90936000  1.0 -0.2112928823
O  O153  1  0.59064000  0.38978000  0.76081000  1.0 -0.2112928823
O  O154  1  0.11022000  0.90936000  0.73919000  1.0 -0.2112928823
O  O155  1  0.38978000  0.76081000  0.59064000  1.0 -0.2112928823
O  O156  1  0.76081000  0.59064000  0.38978000  1.0 -0.2112928823
O  O157  1  0.19362000  0.30682000  0.01922000  1.0 -0.4500114155
O  O158  1  0.30682000  0.01922000  0.19362000  1.0 -0.4500114155
O  O159  1  0.30638000  0.48078000  0.19318000  1.0 -0.4500114155
O  O160  1  0.01922000  0.19362000  0.30682000  1.0 -0.4500114155
O  O161  1  0.48078000  0.19318000  0.30638000  1.0 -0.4500114155
O  O162  1  0.19318000  0.30638000  0.48078000  1.0 -0.4500114155
O  O163  1  0.80638000  0.69318000  0.98078000  1.0 -0.4500114155
O  O164  1  0.69318000  0.98078000  0.80638000  1.0 -0.4500114155
O  O165  1  0.69362000  0.51922000  0.80682000  1.0 -0.4500114155
O  O166  1  0.98078000  0.80638000  0.69318000  1.0 -0.4500114155
O  O167  1  0.51922000  0.80682000  0.69362000  1.0 -0.4500114155
O  O168  1  0.80682000  0.69362000  0.51922000  1.0 -0.4500114155
O  O169  1  0.22596000  0.28089000  0.95449000  1.0 -0.5376060529
O  O170  1  0.28089000  0.95449000  0.22596000  1.0 -0.5376060529
O  O171  1  0.27404000  0.54551000  0.21911000  1.0 -0.5376060529
O  O172  1  0.95449000  0.22596000  0.28089000  1.0 -0.5376060529
O  O173  1  0.54551000  0.21911000  0.27404000  1.0 -0.5376060529
O  O174  1  0.21911000  0.27404000  0.54551000  1.0 -0.5376060529
O  O175  1  0.77404000  0.71911000  0.04551000  1.0 -0.5376060529
O  O176  1  0.71911000  0.04551000  0.77404000  1.0 -0.5343404442
O  O177  1  0.72596000  0.45449000  0.78089000  1.0 -0.5376060529
O  O178  1  0.04551000  0.77404000  0.71911000  1.0 -0.5376060529
O  O179  1  0.45449000  0.78089000  0.72596000  1.0 -0.5376060529
O  O180  1  0.78089000  0.72596000  0.45449000  1.0 -0.5376060529
O  O181  1  0.98221000  0.42051000  0.79501000  1.0 -0.187619266
O  O182  1  0.42051000  0.79501000  0.98221000  1.0 -0.187619266
O  O183  1  0.51779000  0.70499000  0.07949000  1.0 -0.187619266
O  O184  1  0.79501000  0.98221000  0.42051000  1.0 -0.187619266
O  O185  1  0.70499000  0.07949000  0.51779000  1.0 -0.187619266
O  O186  1  0.07949000  0.51779000  0.70499000  1.0 -0.187619266
O  O187  1  0.01779000  0.57949000  0.20499000  1.0 -0.187619266
O  O188  1  0.57949000  0.20499000  0.01779000  1.0 -0.187619266
O  O189  1  0.48221000  0.29501000  0.92051000  1.0 -0.187619266
O  O190  1  0.20499000  0.01779000  0.57949000  1.0 -0.187619266
O  O191  1  0.29501000  0.92051000  0.48221000  1.0 -0.187619266
O  O192  1  0.92051000  0.48221000  0.29501000  1.0 -0.187619266
O  O193  1  0.81439000  0.55179000  0.83719000  1.0 -0.4500114155
O  O194  1  0.55179000  0.83719000  0.81439000  1.0 -0.4500114155
O  O195  1  0.68561000  0.66281000  0.94821000  1.0 -0.4500114155
O  O196  1  0.83719000  0.81439000  0.55179000  1.0 -0.4500114155
O  O197  1  0.66281000  0.94821000  0.68561000  1.0 -0.4500114155
O  O198  1  0.94821000  0.68561000  0.66281000  1.0 -0.4500114155
O  O199  1  0.18561000  0.44821000  0.16281000  1.0 -0.4500114155
O  O200  1  0.44821000  0.16281000  0.18561000  1.0 -0.4500114155
O  O201  1  0.31439000  0.33719000  0.05179000  1.0 -0.4500114155
O  O202  1  0.16281000  0.18561000  0.44821000  1.0 -0.4500114155
O  O203  1  0.33719000  0.05179000  0.31439000  1.0 -0.4500114155
O  O204  1  0.05179000  0.31439000  0.33719000  1.0 -0.4500114155
O  O205  1  0.81371000  0.48787000  0.81260000  1.0 -0.5343404442
O  O206  1  0.48787000  0.81260000  0.81371000  1.0 -0.5343404442
O  O207  1  0.68629000  0.68740000  0.01213000  1.0 -0.5343404442
O  O208  1  0.81260000  0.81371000  0.48787000  1.0 -0.5343404442
O  O209  1  0.68740000  0.01213000  0.68629000  1.0 -0.5343404442
O  O210  1  0.01213000  0.68629000  0.68740000  1.0 -0.5343404442
O  O211  1  0.18629000  0.51213000  0.18740000  1.0 -0.5343404442
O  O212  1  0.51213000  0.18740000  0.18629000  1.0 -0.5343404442
O  O213  1  0.31371000  0.31260000  0.98787000  1.0 -0.5343404442
O  O214  1  0.18740000  0.18629000  0.51213000  1.0 -0.5343404442
O  O215  1  0.31260000  0.98787000  0.31371000  1.0 -0.5343404442
O  O216  1  0.98787000  0.31371000  0.31260000  1.0 -0.5343404442
O  O217  1  0.18170000  0.27710000  0.40080000  1.0 -0.6274401338
O  O218  1  0.27710000  0.40080000  0.18170000  1.0 -0.6274401338
O  O219  1  0.31830000  0.09920000  0.22290000  1.0 -0.6274401338
O  O220  1  0.40080000  0.18170000  0.27710000  1.0 -0.6274401338
O  O221  1  0.09920000  0.22290000  0.31830000  1.0 -0.6274401338
O  O222  1  0.22290000  0.31830000  0.09920000  1.0 -0.6274401338
O  O223  1  0.81830000  0.72290000  0.59920000  1.0 -0.6274401338
O  O224  1  0.72290000  0.59920000  0.81830000  1.0 -0.6274401338
O  O225  1  0.68170000  0.90080000  0.77710000  1.0 -0.6274401338
O  O226  1  0.59920000  0.81830000  0.72290000  1.0 -0.6232615556
O  O227  1  0.90080000  0.77710000  0.68170000  1.0 -0.6274401338
O  O228  1  0.77710000  0.68170000  0.90080000  1.0 -0.6274401338
