# DDEC6 charges by PACMAN v1.1 (https://github.com/mtap-research/PACMAN-charge/)
data_NESTEO_ASR_pacman
_symmetry_space_group_name_H-M   'P 1'
_cell_length_a   19.04480000
_cell_length_b   19.04480000
_cell_length_c   19.11700000
_cell_angle_alpha   77.14710000
_cell_angle_beta   102.85300000
_cell_angle_gamma   148.18400000
_symmetry_Int_Tables_number   1
_chemical_formula_structural   MnH9C12NO5
_chemical_formula_sum   'Mn8 H72 C96 N8 O40'
_cell_volume   3556.32818406
_cell_formula_units_Z   8
loop_
 _symmetry_equiv_pos_site_id
 _symmetry_equiv_pos_as_xyz
  1  'x, y, z'
loop_
 _atom_site_type_symbol
 _atom_site_label
 _atom_site_symmetry_multiplicity
 _atom_site_fract_x
 _atom_site_fract_y
 _atom_site_fract_z
 _atom_site_occupancy
 _atom_site_charge
Mn  Mn1  1  0.87118000  0.41456000  0.18121000  1.0 1.0431059739
Mn  Mn2  1  0.59411000  0.28627000  0.18155000  1.0 0.9811550518
Mn  Mn3  1  0.58544000  0.12882000  0.68121000  1.0 1.0431059739
Mn  Mn4  1  0.71373000  0.40589000  0.68155000  1.0 0.9811550518
Mn  Mn5  1  0.41456000  0.87118000  0.31879000  1.0 1.0431059739
Mn  Mn6  1  0.28627000  0.59411000  0.31845000  1.0 0.9811550518
Mn  Mn7  1  0.12882000  0.58544000  0.81879000  1.0 1.0431059739
Mn  Mn8  1  0.40589000  0.71373000  0.81845000  1.0 0.9811550518
H  H1  1  0.67840000  0.03500000  0.97760000  1.0 0.2794427788
H  H2  1  0.12500000  0.80120000  0.17030000  1.0 0.1330006858
H  H3  1  0.65730000  0.13790000  0.09010000  1.0 0.1403257167
H  H4  1  0.63320000  0.29460000  0.92650000  1.0 0.1330006858
H  H5  1  0.01730000  0.99630000  0.16590000  1.0 0.2794427788
H  H6  1  0.70000000  0.15500000  0.88610000  1.0 0.1463688156
H  H7  1  0.81510000  0.67970000  0.14760000  1.0 0.1403257167
H  H8  1  0.19500000  0.07080000  0.16260000  1.0 0.1330006858
H  H9  1  0.90390000  0.99450000  0.15990000  1.0 0.0907964623
H  H10  1  0.94450000  0.04970000  0.03990000  1.0 0.1024902435
H  H11  1  0.78930000  0.91210000  0.01710000  1.0 0.1190162863
H  H12  1  0.74710000  0.96290000  0.18830000  1.0 0.1088369902
H  H13  1  0.59650000  0.83610000  0.15530000  1.0 0.1088369902
H  H14  1  0.62510000  0.75250000  0.12190000  1.0 0.1190162863
H  H15  1  0.69100000  0.79600000  0.20230000  1.0 0.1024902435
H  H16  1  0.65090000  0.90850000  0.04740000  1.0 0.1088369902
H  H17  1  0.82290000  0.06070000  0.99390000  1.0 0.1024902435
H  H18  1  0.91930000  0.13750000  0.06440000  1.0 0.1190162863
H  H19  1  0.96500000  0.32160000  0.47760000  1.0 0.2794427788
H  H20  1  0.19880000  0.87500000  0.67030000  1.0 0.1330006858
H  H21  1  0.86210000  0.34270000  0.59010000  1.0 0.1403257167
H  H22  1  0.70540000  0.36680000  0.42650000  1.0 0.1330006858
H  H23  1  0.00370000  0.98270000  0.66590000  1.0 0.2794427788
H  H24  1  0.84500000  0.30000000  0.38610000  1.0 0.1463688156
H  H25  1  0.32030000  0.18490000  0.64760000  1.0 0.1403257167
H  H26  1  0.92920000  0.80500000  0.66260000  1.0 0.1330006858
H  H27  1  0.00550000  0.09610000  0.65990000  1.0 0.0907964623
H  H28  1  0.95030000  0.05550000  0.53990000  1.0 0.1024902435
H  H29  1  0.08790000  0.21070000  0.51710000  1.0 0.1190162863
H  H30  1  0.03710000  0.25290000  0.68830000  1.0 0.1088369902
H  H31  1  0.16390000  0.40350000  0.65530000  1.0 0.1088369902
H  H32  1  0.24750000  0.37490000  0.62190000  1.0 0.1190162863
H  H33  1  0.20400000  0.30900000  0.70230000  1.0 0.1024902435
H  H34  1  0.09150000  0.34910000  0.54740000  1.0 0.1088369902
H  H35  1  0.93930000  0.17710000  0.49390000  1.0 0.1024902435
H  H36  1  0.86250000  0.08070000  0.56440000  1.0 0.1190162863
H  H37  1  0.03500000  0.67840000  0.52240000  1.0 0.2794427788
H  H38  1  0.80120000  0.12500000  0.32970000  1.0 0.1330006858
H  H39  1  0.13790000  0.65730000  0.40990000  1.0 0.1403257167
H  H40  1  0.29460000  0.63320000  0.57350000  1.0 0.1330006858
H  H41  1  0.99630000  0.01730000  0.33410000  1.0 0.2794427788
H  H42  1  0.15500000  0.70000000  0.61390000  1.0 0.1463688156
H  H43  1  0.67970000  0.81510000  0.35240000  1.0 0.1403257167
H  H44  1  0.07080000  0.19500000  0.33740000  1.0 0.1330006858
H  H45  1  0.99450000  0.90390000  0.34010000  1.0 0.0907964623
H  H46  1  0.04970000  0.94450000  0.46010000  1.0 0.1024902435
H  H47  1  0.91210000  0.78930000  0.48290000  1.0 0.1190162863
H  H48  1  0.96290000  0.74710000  0.31170000  1.0 0.1088369902
H  H49  1  0.83610000  0.59650000  0.34470000  1.0 0.1088369902
H  H50  1  0.75250000  0.62510000  0.37810000  1.0 0.1190162863
H  H51  1  0.79600000  0.69100000  0.29770000  1.0 0.1024902435
H  H52  1  0.90850000  0.65090000  0.45260000  1.0 0.1088369902
H  H53  1  0.06070000  0.82290000  0.50610000  1.0 0.1024902435
H  H54  1  0.13750000  0.91930000  0.43560000  1.0 0.1190162863
H  H55  1  0.32160000  0.96500000  0.02240000  1.0 0.2794427788
H  H56  1  0.87500000  0.19880000  0.82970000  1.0 0.1330006858
H  H57  1  0.34270000  0.86210000  0.90990000  1.0 0.1403257167
H  H58  1  0.36680000  0.70540000  0.07350000  1.0 0.1330006858
H  H59  1  0.98270000  0.00370000  0.83410000  1.0 0.2794427788
H  H60  1  0.30000000  0.84500000  0.11390000  1.0 0.1463688156
H  H61  1  0.18490000  0.32030000  0.85240000  1.0 0.1403257167
H  H62  1  0.80500000  0.92920000  0.83740000  1.0 0.1330006858
H  H63  1  0.09610000  0.00550000  0.84010000  1.0 0.0907964623
H  H64  1  0.05550000  0.95030000  0.96010000  1.0 0.1024902435
H  H65  1  0.21070000  0.08790000  0.98290000  1.0 0.1190162863
H  H66  1  0.25290000  0.03710000  0.81170000  1.0 0.1088369902
H  H67  1  0.40350000  0.16390000  0.84470000  1.0 0.1088369902
H  H68  1  0.37490000  0.24750000  0.87810000  1.0 0.1190162863
H  H69  1  0.30900000  0.20400000  0.79770000  1.0 0.1024902435
H  H70  1  0.34910000  0.09150000  0.95260000  1.0 0.1088369902
H  H71  1  0.17710000  0.93930000  0.00610000  1.0 0.1024902435
H  H72  1  0.08070000  0.86250000  0.93560000  1.0 0.1190162863
C  C1  1  0.61720000  0.24440000  0.06784000  1.0 0.5551254293
C  C2  1  0.64109000  0.21911000  0.01503000  1.0 -0.0191124617
C  C3  1  0.95602000  0.71958000  0.15926000  1.0 -0.0034785065
C  C4  1  0.09281000  0.82159000  0.16667000  1.0 -0.1190977348
C  C5  1  0.65932000  0.16068000  0.04026000  1.0 -0.1971802274
C  C6  1  0.85864000  0.57656000  0.16086000  1.0 0.5785746267
C  C7  1  0.64611000  0.25509000  0.94293000  1.0 -0.1260626586
C  C8  1  0.68072000  0.13588000  0.99135000  1.0 0.2323040506
C  C9  1  0.67009000  0.23311000  0.89463000  1.0 -0.0063940231
C  C10  1  0.18237000  0.95263000  0.16853000  1.0 0.0005930606
C  C11  1  0.68214000  0.27486000  0.81671000  1.0 0.5785746267
C  C12  1  0.68565000  0.17195000  0.91942000  1.0 -0.1971802274
C  C13  1  0.90828000  0.74892000  0.15330000  1.0 -0.1871106634
C  C14  1  0.32968000  0.06392000  0.17650000  1.0 0.5430677077
C  C15  1  0.13411000  0.98089000  0.16230000  1.0 -0.2162123406
C  C16  1  0.99799000  0.87981000  0.15570000  1.0 0.2165840706
C  C17  1  0.72476000  0.05584000  0.07820000  1.0 0.4775350233
C  C18  1  0.83043000  0.92057000  0.12660000  1.0 -0.1190977348
C  C19  1  0.83874000  0.84786000  0.12850000  1.0 0.4679821721
C  C20  1  0.85310000  0.98210000  0.05200000  1.0 -0.181154401
C  C21  1  0.68971000  0.90269000  0.14840000  1.0 -0.181154401
C  C22  1  0.69963000  0.82997000  0.15210000  1.0 -0.181154401
C  C23  1  0.72931000  0.98029000  0.08080000  1.0 -0.1190977348
C  C24  1  0.83523000  0.04777000  0.04560000  1.0 -0.181154401
C  C25  1  0.75560000  0.38280000  0.56784000  1.0 0.5551254293
C  C26  1  0.78089000  0.35891000  0.51503000  1.0 -0.0191124617
C  C27  1  0.28042000  0.04398000  0.65926000  1.0 -0.0034785065
C  C28  1  0.17841000  0.90719000  0.66666667  1.0 -0.1190977348
C  C29  1  0.83932000  0.34068000  0.54026000  1.0 -0.1971802274
C  C30  1  0.42344000  0.14136000  0.66086000  1.0 0.5785746267
C  C31  1  0.74491000  0.35389000  0.44293000  1.0 -0.1260626586
C  C32  1  0.86412000  0.31928000  0.49135000  1.0 0.2323040506
C  C33  1  0.76689000  0.32991000  0.39463000  1.0 -0.0063940231
C  C34  1  0.04737000  0.81763000  0.66853000  1.0 0.0005930606
C  C35  1  0.72514000  0.31786000  0.31671000  1.0 0.5785746267
C  C36  1  0.82805000  0.31435000  0.41942000  1.0 -0.1971802274
C  C37  1  0.25108000  0.09172000  0.65330000  1.0 -0.1871106634
C  C38  1  0.93608000  0.67032000  0.67650000  1.0 0.5430677077
C  C39  1  0.01911000  0.86589000  0.66230000  1.0 -0.2162123406
C  C40  1  0.12019000  0.00201000  0.65570000  1.0 0.2165840706
C  C41  1  0.94416000  0.27524000  0.57820000  1.0 0.4775350233
C  C42  1  0.07943000  0.16957000  0.62660000  1.0 -0.1190977348
C  C43  1  0.15214000  0.16126000  0.62850000  1.0 0.4679821721
C  C44  1  0.01790000  0.14690000  0.55200000  1.0 -0.181154401
C  C45  1  0.09731000  0.31029000  0.64840000  1.0 -0.181154401
C  C46  1  0.17003000  0.30037000  0.65210000  1.0 -0.181154401
C  C47  1  0.01971000  0.27069000  0.58080000  1.0 -0.1190977348
C  C48  1  0.95223000  0.16477000  0.54560000  1.0 -0.181154401
C  C49  1  0.24440000  0.61720000  0.43216000  1.0 0.5548022529
C  C50  1  0.21911000  0.64109000  0.48497000  1.0 -0.0191124617
C  C51  1  0.71958000  0.95602000  0.34074000  1.0 -0.0034785065
C  C52  1  0.82159000  0.09281000  0.33333333  1.0 -0.1190977348
C  C53  1  0.16068000  0.65932000  0.45974000  1.0 -0.1971802274
C  C54  1  0.57656000  0.85864000  0.33914000  1.0 0.5785746267
C  C55  1  0.25509000  0.64611000  0.55707000  1.0 -0.1260626586
C  C56  1  0.13588000  0.68072000  0.50865000  1.0 0.2323040506
C  C57  1  0.23311000  0.67009000  0.60537000  1.0 -0.0063940231
C  C58  1  0.95263000  0.18237000  0.33147000  1.0 0.0005930606
C  C59  1  0.27486000  0.68214000  0.68329000  1.0 0.5785746267
C  C60  1  0.17195000  0.68565000  0.58058000  1.0 -0.1971802274
C  C61  1  0.74892000  0.90828000  0.34670000  1.0 -0.1871106634
C  C62  1  0.06392000  0.32968000  0.32350000  1.0 0.5430677077
C  C63  1  0.98089000  0.13411000  0.33770000  1.0 -0.2162123406
C  C64  1  0.87981000  0.99799000  0.34430000  1.0 0.2165840706
C  C65  1  0.05584000  0.72476000  0.42180000  1.0 0.4775350233
C  C66  1  0.92057000  0.83043000  0.37340000  1.0 -0.1190977348
C  C67  1  0.84786000  0.83874000  0.37150000  1.0 0.4679821721
C  C68  1  0.98210000  0.85310000  0.44800000  1.0 -0.181154401
C  C69  1  0.90269000  0.68971000  0.35160000  1.0 -0.181154401
C  C70  1  0.82997000  0.69963000  0.34790000  1.0 -0.181154401
C  C71  1  0.98029000  0.72931000  0.41920000  1.0 -0.1190977348
C  C72  1  0.04777000  0.83523000  0.45440000  1.0 -0.181154401
C  C73  1  0.38280000  0.75560000  0.93216000  1.0 0.5551254293
C  C74  1  0.35891000  0.78089000  0.98497000  1.0 -0.0191124617
C  C75  1  0.04398000  0.28042000  0.84074000  1.0 -0.0034785065
C  C76  1  0.90719000  0.17841000  0.83333000  1.0 -0.1190977348
C  C77  1  0.34068000  0.83932000  0.95974000  1.0 -0.1971802274
C  C78  1  0.14136000  0.42344000  0.83914000  1.0 0.5785746267
C  C79  1  0.35389000  0.74491000  0.05707000  1.0 -0.1260626586
C  C80  1  0.31928000  0.86412000  0.00865000  1.0 0.2323040506
C  C81  1  0.32991000  0.76689000  0.10537000  1.0 -0.0063940231
C  C82  1  0.81763000  0.04737000  0.83147000  1.0 0.0005930606
C  C83  1  0.31786000  0.72514000  0.18329000  1.0 0.5785746267
C  C84  1  0.31435000  0.82805000  0.08058000  1.0 -0.1971802274
C  C85  1  0.09172000  0.25108000  0.84670000  1.0 -0.1871106634
C  C86  1  0.67032000  0.93608000  0.82350000  1.0 0.5430677077
C  C87  1  0.86589000  0.01911000  0.83770000  1.0 -0.2162123406
C  C88  1  0.00201000  0.12019000  0.84430000  1.0 0.2165840706
C  C89  1  0.27524000  0.94416000  0.92180000  1.0 0.4775350233
C  C90  1  0.16957000  0.07943000  0.87340000  1.0 -0.1190977348
C  C91  1  0.16126000  0.15214000  0.87150000  1.0 0.4679821721
C  C92  1  0.14690000  0.01790000  0.94800000  1.0 -0.181154401
C  C93  1  0.31029000  0.09731000  0.85160000  1.0 -0.181154401
C  C94  1  0.30037000  0.17003000  0.84790000  1.0 -0.181154401
C  C95  1  0.27069000  0.01971000  0.91920000  1.0 -0.1190977348
C  C96  1  0.16477000  0.95223000  0.95440000  1.0 -0.181154401
N  N1  1  0.69321000  0.07079000  0.01224000  1.0 -0.3813752392
N  N2  1  0.95661000  0.91679000  0.15140000  1.0 -0.3869433636
N  N3  1  0.92921000  0.30679000  0.51224000  1.0 -0.3813752392
N  N4  1  0.08321000  0.04339000  0.65140000  1.0 -0.3869433636
N  N5  1  0.07079000  0.69321000  0.48776000  1.0 -0.3813752392
N  N6  1  0.91679000  0.95661000  0.34860000  1.0 -0.3869433636
N  N7  1  0.30679000  0.92921000  0.98776000  1.0 -0.3813752392
N  N8  1  0.04339000  0.08321000  0.84860000  1.0 -0.3869433636
O  O1  1  0.66436000  0.26084000  0.13343000  1.0 -0.5937197069
O  O2  1  0.73615000  0.48705000  0.15994000  1.0 -0.5274647434
O  O3  1  0.55442000  0.24778000  0.05043000  1.0 -0.5124773094
O  O4  1  0.40733000  0.18167000  0.17285000  1.0 -0.5274647434
O  O5  1  0.90672000  0.55608000  0.16278000  1.0 -0.5964224795
O  O6  1  0.69406000  0.35154000  0.79481000  1.0 -0.5274647434
O  O7  1  0.68567000  0.23413000  0.77600000  1.0 -0.5964224795
O  O8  1  0.37387000  0.03793000  0.18662000  1.0 -0.5569294849
O  O9  1  0.74599000  0.09781000  0.13146000  1.0 -0.4557027677
O  O10  1  0.74500000  0.73600000  0.10890000  1.0 -0.4442269066
O  O11  1  0.73916000  0.33564000  0.63343000  1.0 -0.5937197069
O  O12  1  0.51295000  0.26385000  0.65994000  1.0 -0.5274647434
O  O13  1  0.75222000  0.44558000  0.55043000  1.0 -0.5124773094
O  O14  1  0.81833000  0.59267000  0.67285000  1.0 -0.5274647434
O  O15  1  0.44392000  0.09328000  0.66278000  1.0 -0.5964224795
O  O16  1  0.64846000  0.30594000  0.29481000  1.0 -0.5274647434
O  O17  1  0.76587000  0.31433000  0.27600000  1.0 -0.5964224795
O  O18  1  0.96207000  0.62613000  0.68662000  1.0 -0.5569294849
O  O19  1  0.90219000  0.25401000  0.63146000  1.0 -0.4557027677
O  O20  1  0.26400000  0.25500000  0.60890000  1.0 -0.4442269066
O  O21  1  0.26084000  0.66436000  0.36657000  1.0 -0.5937197069
O  O22  1  0.48705000  0.73615000  0.34006000  1.0 -0.5274647434
O  O23  1  0.24778000  0.55442000  0.44957000  1.0 -0.5124773094
O  O24  1  0.18167000  0.40733000  0.32715000  1.0 -0.5274647434
O  O25  1  0.55608000  0.90672000  0.33722000  1.0 -0.5964224795
O  O26  1  0.35154000  0.69406000  0.70519000  1.0 -0.5274647434
O  O27  1  0.23413000  0.68567000  0.72400000  1.0 -0.5964224795
O  O28  1  0.03793000  0.37387000  0.31338000  1.0 -0.5569294849
O  O29  1  0.09781000  0.74599000  0.36854000  1.0 -0.4557027677
O  O30  1  0.73600000  0.74500000  0.39110000  1.0 -0.4442269066
O  O31  1  0.33564000  0.73916000  0.86657000  1.0 -0.5937197069
O  O32  1  0.26385000  0.51295000  0.84006000  1.0 -0.5274647434
O  O33  1  0.44558000  0.75222000  0.94957000  1.0 -0.5124773094
O  O34  1  0.59267000  0.81833000  0.82715000  1.0 -0.5274647434
O  O35  1  0.09328000  0.44392000  0.83722000  1.0 -0.5964224795
O  O36  1  0.30594000  0.64846000  0.20519000  1.0 -0.5274647434
O  O37  1  0.31433000  0.76587000  0.22400000  1.0 -0.5964224795
O  O38  1  0.62613000  0.96207000  0.81338000  1.0 -0.5569294849
O  O39  1  0.25401000  0.90219000  0.86854000  1.0 -0.4557027677
O  O40  1  0.25500000  0.26400000  0.89110000  1.0 -0.4442269066
