# DDEC6 charges by PACMAN v1.1 (https://github.com/mtap-research/PACMAN-charge/)
data_NETRIN_FSR_pacman
_symmetry_space_group_name_H-M   'P 1'
_cell_length_a   14.22600000
_cell_length_b   15.11700000
_cell_length_c   17.55700000
_cell_angle_alpha   90.00000000
_cell_angle_beta   90.00000000
_cell_angle_gamma   90.00000000
_symmetry_Int_Tables_number   1
_chemical_formula_structural   Al3Zn(PO4)4
_chemical_formula_sum   'Al24 Zn8 P32 O128'
_cell_volume   3775.71083819
_cell_formula_units_Z   8
loop_
 _symmetry_equiv_pos_site_id
 _symmetry_equiv_pos_as_xyz
  1  'x, y, z'
loop_
 _atom_site_type_symbol
 _atom_site_label
 _atom_site_symmetry_multiplicity
 _atom_site_fract_x
 _atom_site_fract_y
 _atom_site_fract_z
 _atom_site_occupancy
 _atom_site_charge
Al  Al1  1  0.94470000  0.40220000  0.43770000  1.0 1.7375268489
Al  Al2  1  0.55530000  0.59780000  0.93770000  1.0 1.7375268489
Al  Al3  1  0.44470000  0.09780000  0.56230000  1.0 1.7375268489
Al  Al4  1  0.05530000  0.90220000  0.06230000  1.0 1.7375268489
Al  Al5  1  0.05530000  0.59780000  0.56230000  1.0 1.7375268489
Al  Al6  1  0.44470000  0.40220000  0.06230000  1.0 1.7375268489
Al  Al7  1  0.55530000  0.90220000  0.43770000  1.0 1.7375268489
Al  Al8  1  0.94470000  0.09780000  0.93770000  1.0 1.7375268489
Al  Al9  1  0.07660000  0.10450000  0.43060000  1.0 1.7375268489
Al  Al10  1  0.42340000  0.89550000  0.93060000  1.0 1.7375268489
Al  Al11  1  0.57660000  0.39550000  0.56940000  1.0 1.7375268489
Al  Al12  1  0.92340000  0.60450000  0.06940000  1.0 1.7375268489
Al  Al13  1  0.92340000  0.89550000  0.56940000  1.0 1.7375268489
Al  Al14  1  0.57660000  0.10450000  0.06940000  1.0 1.7375268489
Al  Al15  1  0.42340000  0.60450000  0.43060000  1.0 1.7375268489
Al  Al16  1  0.07660000  0.39550000  0.93060000  1.0 1.7375268489
Al  Al17  1  0.71110000  0.65970000  0.46220000  1.0 1.7263286427
Al  Al18  1  0.78890000  0.34030000  0.96220000  1.0 1.7245925739
Al  Al19  1  0.21110000  0.84030000  0.53780000  1.0 1.7263286427
Al  Al20  1  0.28890000  0.15970000  0.03780000  1.0 1.7263286427
Al  Al21  1  0.28890000  0.34030000  0.53780000  1.0 1.7263286427
Al  Al22  1  0.21110000  0.65970000  0.03780000  1.0 1.7263286427
Al  Al23  1  0.78890000  0.15970000  0.46220000  1.0 1.7245925739
Al  Al24  1  0.71110000  0.84030000  0.96220000  1.0 1.7245925739
Zn  Zn1  1  0.05320000  0.72420000  0.34100000  1.0 1.0305434391
Zn  Zn2  1  0.44680000  0.27580000  0.84100000  1.0 1.0305434391
Zn  Zn3  1  0.55320000  0.77580000  0.65900000  1.0 1.0305434391
Zn  Zn4  1  0.94680000  0.22420000  0.15900000  1.0 1.0305434391
Zn  Zn5  1  0.94680000  0.27580000  0.65900000  1.0 1.0305434391
Zn  Zn6  1  0.55320000  0.72420000  0.15900000  1.0 1.0305434391
Zn  Zn7  1  0.44680000  0.22420000  0.34100000  1.0 1.0305434391
Zn  Zn8  1  0.05320000  0.77580000  0.84100000  1.0 1.0305434391
P  P1  1  0.05010000  0.90480000  0.42620000  1.0 1.5657500103
P  P2  1  0.44990000  0.09520000  0.92620000  1.0 1.5625110144
P  P3  1  0.55010000  0.59520000  0.57380000  1.0 1.5625110144
P  P4  1  0.94990000  0.40480000  0.07380000  1.0 1.5625110144
P  P5  1  0.94990000  0.09520000  0.57380000  1.0 1.5625110144
P  P6  1  0.55010000  0.90480000  0.07380000  1.0 1.5625110144
P  P7  1  0.44990000  0.40480000  0.42620000  1.0 1.5625110144
P  P8  1  0.05010000  0.59520000  0.92620000  1.0 1.5657500103
P  P9  1  0.91500000  0.60020000  0.42500000  1.0 1.5328882213
P  P10  1  0.58500000  0.39980000  0.92500000  1.0 1.5328882213
P  P11  1  0.41500000  0.89980000  0.57500000  1.0 1.5363837793
P  P12  1  0.08500000  0.10020000  0.07500000  1.0 1.5363837793
P  P13  1  0.08500000  0.39980000  0.57500000  1.0 1.5363837793
P  P14  1  0.41500000  0.60020000  0.07500000  1.0 1.5363837793
P  P15  1  0.58500000  0.10020000  0.42500000  1.0 1.5363837793
P  P16  1  0.91500000  0.89980000  0.92500000  1.0 1.5328882213
P  P17  1  0.06080000  0.72930000  0.15880000  1.0 1.5125599834
P  P18  1  0.43920000  0.27070000  0.65880000  1.0 1.5125599834
P  P19  1  0.56080000  0.77070000  0.84120000  1.0 1.5125599834
P  P20  1  0.93920000  0.22930000  0.34120000  1.0 1.5125599834
P  P21  1  0.93920000  0.27070000  0.84120000  1.0 1.5125599834
P  P22  1  0.56080000  0.72930000  0.34120000  1.0 1.5125599834
P  P23  1  0.43920000  0.22930000  0.15880000  1.0 1.5125599834
P  P24  1  0.06080000  0.77070000  0.65880000  1.0 1.5217761803
P  P25  1  0.21480000  0.66080000  0.45060000  1.0 1.5217761803
P  P26  1  0.28520000  0.33920000  0.95060000  1.0 1.5217761803
P  P27  1  0.71480000  0.83920000  0.54940000  1.0 1.5217761803
P  P28  1  0.78520000  0.16080000  0.04940000  1.0 1.5217761803
P  P29  1  0.78520000  0.33920000  0.54940000  1.0 1.5217761803
P  P30  1  0.71480000  0.66080000  0.04940000  1.0 1.5217761803
P  P31  1  0.28520000  0.16080000  0.45060000  1.0 1.5217761803
P  P32  1  0.21480000  0.83920000  0.95060000  1.0 1.5217761803
O  O1  1  0.04320000  0.00010000  0.39750000  1.0 -0.7790812776
O  O2  1  0.45680000  0.99990000  0.89750000  1.0 -0.7790812776
O  O3  1  0.54320000  0.49990000  0.60250000  1.0 -0.7790812776
O  O4  1  0.95680000  0.50010000  0.10250000  1.0 -0.7790812776
O  O5  1  0.95680000  0.99990000  0.60250000  1.0 -0.7790812776
O  O6  1  0.54320000  0.00010000  0.10250000  1.0 -0.7790812776
O  O7  1  0.45680000  0.50010000  0.39750000  1.0 -0.7790812776
O  O8  1  0.04320000  0.49990000  0.89750000  1.0 -0.7790812776
O  O9  1  0.94470000  0.50840000  0.39940000  1.0 -0.7959911823
O  O10  1  0.55530000  0.49160000  0.89940000  1.0 -0.7959911823
O  O11  1  0.44470000  0.99160000  0.60060000  1.0 -0.7959911823
O  O12  1  0.05530000  0.00840000  0.10060000  1.0 -0.7959911823
O  O13  1  0.05530000  0.49160000  0.60060000  1.0 -0.7959911823
O  O14  1  0.44470000  0.50840000  0.10060000  1.0 -0.7959911823
O  O15  1  0.55530000  0.00840000  0.39940000  1.0 -0.7959911823
O  O16  1  0.94470000  0.99160000  0.89940000  1.0 -0.7959911823
O  O17  1  0.05230000  0.83940000  0.35700000  1.0 -0.672578685
O  O18  1  0.44770000  0.16060000  0.85700000  1.0 -0.672578685
O  O19  1  0.55230000  0.66060000  0.64300000  1.0 -0.672578685
O  O20  1  0.94770000  0.33940000  0.14300000  1.0 -0.672578685
O  O21  1  0.94770000  0.16060000  0.64300000  1.0 -0.672578685
O  O22  1  0.55230000  0.83940000  0.14300000  1.0 -0.672578685
O  O23  1  0.44770000  0.33940000  0.35700000  1.0 -0.672578685
O  O24  1  0.05230000  0.66060000  0.85700000  1.0 -0.672578685
O  O25  1  0.05580000  0.82850000  0.13710000  1.0 -0.7904354855
O  O26  1  0.44420000  0.17150000  0.63710000  1.0 -0.7904354855
O  O27  1  0.55580000  0.67150000  0.86290000  1.0 -0.7904354855
O  O28  1  0.94420000  0.32850000  0.36290000  1.0 -0.7904354855
O  O29  1  0.94420000  0.17150000  0.86290000  1.0 -0.7904354855
O  O30  1  0.55580000  0.82850000  0.36290000  1.0 -0.7904354855
O  O31  1  0.44420000  0.32850000  0.13710000  1.0 -0.7904354855
O  O32  1  0.05580000  0.67150000  0.63710000  1.0 -0.7904354855
O  O33  1  0.95060000  0.67030000  0.37030000  1.0 -0.686022453
O  O34  1  0.54940000  0.32970000  0.87030000  1.0 -0.686022453
O  O35  1  0.45060000  0.82970000  0.62970000  1.0 -0.686022453
O  O36  1  0.04940000  0.17030000  0.12970000  1.0 -0.686022453
O  O37  1  0.04940000  0.32970000  0.62970000  1.0 -0.686022453
O  O38  1  0.45060000  0.67030000  0.12970000  1.0 -0.686022453
O  O39  1  0.54940000  0.17030000  0.37030000  1.0 -0.686022453
O  O40  1  0.95060000  0.82970000  0.87030000  1.0 -0.686022453
O  O41  1  0.97210000  0.68310000  0.12910000  1.0 -0.8179825172
O  O42  1  0.52790000  0.31690000  0.62910000  1.0 -0.8179825172
O  O43  1  0.47210000  0.81690000  0.87090000  1.0 -0.8179825172
O  O44  1  0.02790000  0.18310000  0.37090000  1.0 -0.8179825172
O  O45  1  0.02790000  0.31690000  0.87090000  1.0 -0.8179825172
O  O46  1  0.47210000  0.68310000  0.37090000  1.0 -0.8179825172
O  O47  1  0.52790000  0.18310000  0.12910000  1.0 -0.8179825172
O  O48  1  0.97210000  0.81690000  0.62910000  1.0 -0.8179825172
O  O49  1  0.30300000  0.60630000  0.42700000  1.0 -0.7561401576
O  O50  1  0.19700000  0.39370000  0.92700000  1.0 -0.7561401576
O  O51  1  0.80300000  0.89370000  0.57300000  1.0 -0.7561401576
O  O52  1  0.69700000  0.10630000  0.07300000  1.0 -0.7561401576
O  O53  1  0.69700000  0.39370000  0.57300000  1.0 -0.7561401576
O  O54  1  0.80300000  0.60630000  0.07300000  1.0 -0.7561401576
O  O55  1  0.19700000  0.10630000  0.42700000  1.0 -0.7561401576
O  O56  1  0.30300000  0.89370000  0.92700000  1.0 -0.7561401576
O  O57  1  0.80630000  0.60530000  0.43510000  1.0 -0.7212454602
O  O58  1  0.69370000  0.39470000  0.93510000  1.0 -0.7212454602
O  O59  1  0.30630000  0.89470000  0.56490000  1.0 -0.7212454602
O  O60  1  0.19370000  0.10530000  0.06490000  1.0 -0.7212454602
O  O61  1  0.19370000  0.39470000  0.56490000  1.0 -0.7212454602
O  O62  1  0.30630000  0.60530000  0.06490000  1.0 -0.7212454602
O  O63  1  0.69370000  0.10530000  0.43510000  1.0 -0.7212454602
O  O64  1  0.80630000  0.89470000  0.93510000  1.0 -0.7212454602
O  O65  1  0.95730000  0.61680000  0.50490000  1.0 -0.8388507962
O  O66  1  0.54270000  0.38320000  0.00490000  1.0 -0.8388507962
O  O67  1  0.45730000  0.88320000  0.49510000  1.0 -0.8388507962
O  O68  1  0.04270000  0.11680000  0.99510000  1.0 -0.8388507962
O  O69  1  0.04270000  0.38320000  0.49510000  1.0 -0.8388507962
O  O70  1  0.45730000  0.61680000  0.99510000  1.0 -0.8388507962
O  O71  1  0.54270000  0.11680000  0.50490000  1.0 -0.8388507962
O  O72  1  0.95730000  0.88320000  0.00490000  1.0 -0.8388507962
O  O73  1  0.96410000  0.88260000  0.47530000  1.0 -0.8388507962
O  O74  1  0.53590000  0.11740000  0.97530000  1.0 -0.8388507962
O  O75  1  0.46410000  0.61740000  0.52470000  1.0 -0.8388507962
O  O76  1  0.03590000  0.38260000  0.02470000  1.0 -0.8388507962
O  O77  1  0.03590000  0.11740000  0.52470000  1.0 -0.8388507962
O  O78  1  0.46410000  0.88260000  0.02470000  1.0 -0.8388507962
O  O79  1  0.53590000  0.38260000  0.47530000  1.0 -0.8388507962
O  O80  1  0.96410000  0.61740000  0.97530000  1.0 -0.8388507962
O  O81  1  0.16170000  0.60580000  0.51020000  1.0 -0.8303620965
O  O82  1  0.33830000  0.39420000  0.01020000  1.0 -0.8303620965
O  O83  1  0.66170000  0.89420000  0.48980000  1.0 -0.8303620965
O  O84  1  0.83830000  0.10580000  0.98980000  1.0 -0.8303620965
O  O85  1  0.83830000  0.39420000  0.48980000  1.0 -0.8303620965
O  O86  1  0.66170000  0.60580000  0.98980000  1.0 -0.8303620965
O  O87  1  0.33830000  0.10580000  0.51020000  1.0 -0.8303620965
O  O88  1  0.16170000  0.89420000  0.01020000  1.0 -0.8303620965
O  O89  1  0.07220000  0.71580000  0.24260000  1.0 -0.6275886223
O  O90  1  0.42780000  0.28420000  0.74260000  1.0 -0.6275886223
O  O91  1  0.57220000  0.78420000  0.75740000  1.0 -0.6275886223
O  O92  1  0.92780000  0.21580000  0.25740000  1.0 -0.6275886223
O  O93  1  0.92780000  0.28420000  0.75740000  1.0 -0.6275886223
O  O94  1  0.57220000  0.71580000  0.25740000  1.0 -0.6275886223
O  O95  1  0.42780000  0.21580000  0.24260000  1.0 -0.6275886223
O  O96  1  0.07220000  0.78420000  0.74260000  1.0 -0.6275886223
O  O97  1  0.15140000  0.67150000  0.38170000  1.0 -0.7104521319
O  O98  1  0.34860000  0.32850000  0.88170000  1.0 -0.7104521319
O  O99  1  0.65140000  0.82850000  0.61830000  1.0 -0.7104521319
O  O100  1  0.84860000  0.17150000  0.11830000  1.0 -0.7104521319
O  O101  1  0.84860000  0.32850000  0.61830000  1.0 -0.7104521319
O  O102  1  0.65140000  0.67150000  0.11830000  1.0 -0.7104521319
O  O103  1  0.34860000  0.17150000  0.38170000  1.0 -0.7104521319
O  O104  1  0.15140000  0.82850000  0.88170000  1.0 -0.7104521319
O  O105  1  0.24730000  0.74630000  0.48640000  1.0 -0.8303620965
O  O106  1  0.25270000  0.25370000  0.98640000  1.0 -0.8303620965
O  O107  1  0.74730000  0.75370000  0.51360000  1.0 -0.8303620965
O  O108  1  0.75270000  0.24630000  0.01360000  1.0 -0.8303620965
O  O109  1  0.75270000  0.25370000  0.51360000  1.0 -0.8303620965
O  O110  1  0.74730000  0.74630000  0.01360000  1.0 -0.8303620965
O  O111  1  0.25270000  0.24630000  0.48640000  1.0 -0.8303620965
O  O112  1  0.24730000  0.75370000  0.98640000  1.0 -0.8303620965
O  O113  1  0.13970000  0.89980000  0.47700000  1.0 -0.8388507962
O  O114  1  0.36030000  0.10020000  0.97700000  1.0 -0.8388507962
O  O115  1  0.63970000  0.60020000  0.52300000  1.0 -0.8388507962
O  O116  1  0.86030000  0.39980000  0.02300000  1.0 -0.8388507962
O  O117  1  0.86030000  0.10020000  0.52300000  1.0 -0.8388507962
O  O118  1  0.63970000  0.89980000  0.02300000  1.0 -0.8388507962
O  O119  1  0.36030000  0.39980000  0.47700000  1.0 -0.8388507962
O  O120  1  0.13970000  0.60020000  0.97700000  1.0 -0.8388507962
O  O121  1  0.14960000  0.69360000  0.11810000  1.0 -0.8303620965
O  O122  1  0.35040000  0.30640000  0.61810000  1.0 -0.8303620965
O  O123  1  0.64960000  0.80640000  0.88190000  1.0 -0.8303620965
O  O124  1  0.85040000  0.19360000  0.38190000  1.0 -0.8303620965
O  O125  1  0.85040000  0.30640000  0.88190000  1.0 -0.8303620965
O  O126  1  0.64960000  0.69360000  0.38190000  1.0 -0.8303620965
O  O127  1  0.35040000  0.19360000  0.11810000  1.0 -0.8303620965
O  O128  1  0.14960000  0.80640000  0.61810000  1.0 -0.8303620965
