# DDEC6 charges by PACMAN v1.1 (https://github.com/mtap-research/PACMAN-charge/)
data_NETYIV01_ion_pacman
_symmetry_space_group_name_H-M   'P 1'
_cell_length_a   13.20330000
_cell_length_b   13.20330000
_cell_length_c   22.16100000
_cell_angle_alpha   75.32720000
_cell_angle_beta   104.67300000
_cell_angle_gamma   96.88340000
_symmetry_Int_Tables_number   1
_chemical_formula_structural   Cu3Mo8H32C40N8ClO26
_chemical_formula_sum   'Cu6 Mo16 H64 C80 N16 Cl2 O52'
_cell_volume   3608.98562864
_cell_formula_units_Z   2
loop_
 _symmetry_equiv_pos_site_id
 _symmetry_equiv_pos_as_xyz
  1  'x, y, z'
loop_
 _atom_site_type_symbol
 _atom_site_label
 _atom_site_symmetry_multiplicity
 _atom_site_fract_x
 _atom_site_fract_y
 _atom_site_fract_z
 _atom_site_occupancy
 _atom_site_charge
Cu  Cu1  1  0.31208000  0.04656000  0.83408000  1.0 0.2572518368
Cu  Cu2  1  0.04656000  0.31208000  0.66592000  1.0 0.2572518368
Cu  Cu3  1  0.68792000  0.95344000  0.16592000  1.0 0.2572518368
Cu  Cu4  1  0.95344000  0.68792000  0.33408000  1.0 0.2572518368
Cu  Cu5  1  0.96745000  0.96745000  0.25000000  1.0 0.2539874245
Cu  Cu6  1  0.03255000  0.03255000  0.75000000  1.0 0.2539874245
Mo  Mo1  1  0.03922000  0.61440000  0.94643000  1.0 2.0930841614
Mo  Mo2  1  0.96078000  0.38560000  0.05357000  1.0 2.0930841614
Mo  Mo3  1  0.02400000  0.59872000  0.10296000  1.0 2.0580024053
Mo  Mo4  1  0.97600000  0.40128000  0.89704000  1.0 2.0580024053
Mo  Mo5  1  0.81210000  0.60442000  0.97613000  1.0 2.0580024053
Mo  Mo6  1  0.18790000  0.39558000  0.02387000  1.0 2.0580024053
Mo  Mo7  1  0.25537000  0.61127000  0.07309000  1.0 2.095285051
Mo  Mo8  1  0.74463000  0.38873000  0.92691000  1.0 2.0930841614
Mo  Mo9  1  0.61440000  0.03922000  0.55357000  1.0 2.0930841614
Mo  Mo10  1  0.38560000  0.96078000  0.44643000  1.0 2.0930841614
Mo  Mo11  1  0.59872000  0.02400000  0.39704000  1.0 2.0580024053
Mo  Mo12  1  0.40128000  0.97600000  0.60296000  1.0 2.0580024053
Mo  Mo13  1  0.60442000  0.81210000  0.52387000  1.0 2.0580024053
Mo  Mo14  1  0.39558000  0.18790000  0.47613000  1.0 2.0580024053
Mo  Mo15  1  0.61127000  0.25537000  0.42691000  1.0 2.095285051
Mo  Mo16  1  0.38873000  0.74463000  0.57309000  1.0 2.095285051
H  H1  1  0.21370000  0.67290000  0.65460000  1.0 0.1386283976
H  H2  1  0.67290000  0.21370000  0.84540000  1.0 0.1386283976
H  H3  1  0.78630000  0.32710000  0.34540000  1.0 0.1386283976
H  H4  1  0.32710000  0.78630000  0.15460000  1.0 0.1386283976
H  H5  1  0.14890000  0.52570000  0.61810000  1.0 0.1214849059
H  H6  1  0.52570000  0.14890000  0.88190000  1.0 0.1214849059
H  H7  1  0.85110000  0.47430000  0.38190000  1.0 0.1214849059
H  H8  1  0.47430000  0.85110000  0.11810000  1.0 0.1214849059
H  H9  1  0.12030000  0.37210000  0.78750000  1.0 0.1214849059
H  H10  1  0.37210000  0.12030000  0.71250000  1.0 0.1214849059
H  H11  1  0.87970000  0.62790000  0.21250000  1.0 0.1214849059
H  H12  1  0.62790000  0.87970000  0.28750000  1.0 0.1214849059
H  H13  1  0.17670000  0.51750000  0.82830000  1.0 0.149753885
H  H14  1  0.51750000  0.17670000  0.67170000  1.0 0.149753885
H  H15  1  0.82330000  0.48250000  0.17170000  1.0 0.149753885
H  H16  1  0.48250000  0.82330000  0.32830000  1.0 0.149753885
H  H17  1  0.13230000  0.69070000  0.82580000  1.0 0.149753885
H  H18  1  0.69070000  0.13230000  0.67420000  1.0 0.149753885
H  H19  1  0.86770000  0.30930000  0.17420000  1.0 0.149753885
H  H20  1  0.30930000  0.86770000  0.32580000  1.0 0.149753885
H  H21  1  0.17270000  0.84650000  0.85510000  1.0 0.109812196
H  H22  1  0.84650000  0.17270000  0.64490000  1.0 0.109812196
H  H23  1  0.82730000  0.15350000  0.14490000  1.0 0.109812196
H  H24  1  0.15350000  0.82730000  0.35510000  1.0 0.109812196
H  H25  1  0.38990000  0.91850000  0.75970000  1.0 0.109812196
H  H26  1  0.91850000  0.38990000  0.74030000  1.0 0.109812196
H  H27  1  0.61010000  0.08150000  0.24030000  1.0 0.109812196
H  H28  1  0.08150000  0.61010000  0.25970000  1.0 0.109812196
H  H29  1  0.34990000  0.76830000  0.72270000  1.0 0.149753885
H  H30  1  0.76830000  0.34990000  0.77730000  1.0 0.149753885
H  H31  1  0.65010000  0.23170000  0.27730000  1.0 0.149753885
H  H32  1  0.23170000  0.65010000  0.22270000  1.0 0.149753885
H  H33  1  0.10930000  0.84510000  0.09990000  1.0 0.149753885
H  H34  1  0.84510000  0.10930000  0.40010000  1.0 0.149753885
H  H35  1  0.89070000  0.15490000  0.90010000  1.0 0.149753885
H  H36  1  0.15490000  0.89070000  0.59990000  1.0 0.149753885
H  H37  1  0.30200000  0.89160000  0.95680000  1.0 0.1253697274
H  H38  1  0.89160000  0.30200000  0.54320000  1.0 0.1253697274
H  H39  1  0.69800000  0.10840000  0.04320000  1.0 0.1253697274
H  H40  1  0.10840000  0.69800000  0.45680000  1.0 0.1253697274
H  H41  1  0.11250000  0.15590000  0.06650000  1.0 0.149753885
H  H42  1  0.15590000  0.11250000  0.43350000  1.0 0.149753885
H  H43  1  0.88750000  0.84410000  0.93350000  1.0 0.149753885
H  H44  1  0.84410000  0.88750000  0.56650000  1.0 0.149753885
H  H45  1  0.21130000  0.17530000  0.89030000  1.0 0.1253697274
H  H46  1  0.17530000  0.21130000  0.60970000  1.0 0.1253697274
H  H47  1  0.78870000  0.82470000  0.10970000  1.0 0.1253697274
H  H48  1  0.82470000  0.78870000  0.39030000  1.0 0.1253697274
H  H49  1  0.13540000  0.16280000  0.97300000  1.0 0.149753885
H  H50  1  0.16280000  0.13540000  0.52700000  1.0 0.149753885
H  H51  1  0.86460000  0.83720000  0.02700000  1.0 0.149753885
H  H52  1  0.83720000  0.86460000  0.47300000  1.0 0.149753885
H  H53  1  0.02940000  0.83360000  0.18110000  1.0 0.109812196
H  H54  1  0.83360000  0.02940000  0.31890000  1.0 0.109812196
H  H55  1  0.97060000  0.16640000  0.81890000  1.0 0.109812196
H  H56  1  0.16640000  0.97060000  0.68110000  1.0 0.109812196
H  H57  1  0.04200000  0.13660000  0.15290000  1.0 0.1253697274
H  H58  1  0.13660000  0.04200000  0.34710000  1.0 0.1253697274
H  H59  1  0.95800000  0.86340000  0.84710000  1.0 0.1214849059
H  H60  1  0.86340000  0.95800000  0.65290000  1.0 0.1253697274
H  H61  1  0.22600000  0.86960000  0.04130000  1.0 0.149753885
H  H62  1  0.86960000  0.22600000  0.45870000  1.0 0.149753885
H  H63  1  0.77400000  0.13040000  0.95870000  1.0 0.149753885
H  H64  1  0.13040000  0.77400000  0.54130000  1.0 0.149753885
C  C1  1  0.19350000  0.61310000  0.68268000  1.0 -0.1664878498
C  C2  1  0.61310000  0.19350000  0.81732000  1.0 -0.1664878498
C  C3  1  0.80650000  0.38690000  0.31732000  1.0 -0.1664878498
C  C4  1  0.38690000  0.80650000  0.18268000  1.0 -0.1664878498
C  C5  1  0.15470000  0.52390000  0.66100000  1.0 0.0806123644
C  C6  1  0.52390000  0.15470000  0.83900000  1.0 0.0806123644
C  C7  1  0.84530000  0.47610000  0.33900000  1.0 0.0806123644
C  C8  1  0.47610000  0.84530000  0.16100000  1.0 0.0806123644
C  C9  1  0.13680000  0.43420000  0.75998000  1.0 0.0893258103
C  C10  1  0.43420000  0.13680000  0.74002000  1.0 0.0893258103
C  C11  1  0.86320000  0.56580000  0.24002000  1.0 0.0893258103
C  C12  1  0.56580000  0.86320000  0.25998000  1.0 0.0893258103
C  C13  1  0.17260000  0.52120000  0.78530000  1.0 -0.1613518345
C  C14  1  0.52120000  0.17260000  0.71470000  1.0 -0.1613518345
C  C15  1  0.82740000  0.47880000  0.21470000  1.0 -0.1613518345
C  C16  1  0.47880000  0.82740000  0.28530000  1.0 -0.1613518345
C  C17  1  0.20240000  0.61440000  0.74580000  1.0 0.109812196
C  C18  1  0.61440000  0.20240000  0.75420000  1.0 0.109812196
C  C19  1  0.79760000  0.38560000  0.25420000  1.0 0.109812196
C  C20  1  0.38560000  0.79760000  0.24580000  1.0 0.109812196
C  C21  1  0.23450000  0.71170000  0.76914000  1.0 0.1045675655
C  C22  1  0.71170000  0.23450000  0.73086000  1.0 0.1045675655
C  C23  1  0.76550000  0.28830000  0.23086000  1.0 0.1045675655
C  C24  1  0.28830000  0.76550000  0.26914000  1.0 0.1045675655
C  C25  1  0.18380000  0.73700000  0.81040000  1.0 -0.1613518345
C  C26  1  0.73700000  0.18380000  0.68960000  1.0 -0.1613518345
C  C27  1  0.81620000  0.26300000  0.18960000  1.0 -0.1613518345
C  C28  1  0.26300000  0.81620000  0.31040000  1.0 -0.1613518345
C  C29  1  0.20960000  0.83060000  0.82850000  1.0 0.0697252252
C  C30  1  0.83060000  0.20960000  0.67150000  1.0 0.0697252252
C  C31  1  0.79040000  0.16940000  0.17150000  1.0 0.0697252252
C  C32  1  0.16940000  0.79040000  0.32850000  1.0 0.0697252252
C  C33  1  0.33560000  0.87300000  0.77214000  1.0 0.0806123644
C  C34  1  0.87300000  0.33560000  0.72786000  1.0 0.0806123644
C  C35  1  0.66440000  0.12700000  0.22786000  1.0 0.0806123644
C  C36  1  0.12700000  0.66440000  0.27214000  1.0 0.0806123644
C  C37  1  0.31290000  0.78190000  0.75000000  1.0 -0.1613518345
C  C38  1  0.78190000  0.31290000  0.75000000  1.0 -0.1613518345
C  C39  1  0.68710000  0.21810000  0.25000000  1.0 -0.1613518345
C  C40  1  0.21810000  0.68710000  0.25000000  1.0 -0.1613518345
C  C41  1  0.09500000  0.90620000  0.10900000  1.0 -0.1664878498
C  C42  1  0.90620000  0.09500000  0.39100000  1.0 -0.1664878498
C  C43  1  0.90500000  0.09380000  0.89100000  1.0 -0.1664878498
C  C44  1  0.09380000  0.90500000  0.60900000  1.0 -0.1664878498
C  C45  1  0.26710000  0.94670000  0.95970000  1.0 0.0697252252
C  C46  1  0.94670000  0.26710000  0.54030000  1.0 0.0697252252
C  C47  1  0.73290000  0.05330000  0.04030000  1.0 0.0697252252
C  C48  1  0.05330000  0.73290000  0.45970000  1.0 0.0697252252
C  C49  1  0.22200000  0.93320000  0.01100000  1.0 -0.1613518345
C  C50  1  0.93320000  0.22200000  0.48900000  1.0 -0.1613518345
C  C51  1  0.77800000  0.06680000  0.98900000  1.0 -0.1613518345
C  C52  1  0.06680000  0.77800000  0.51100000  1.0 -0.1613518345
C  C53  1  0.17070000  0.01350000  0.01792000  1.0 0.109812196
C  C54  1  0.01350000  0.17070000  0.48208000  1.0 0.109812196
C  C55  1  0.82930000  0.98650000  0.98208000  1.0 0.109812196
C  C56  1  0.98650000  0.82930000  0.51792000  1.0 0.109812196
C  C57  1  0.12080000  0.00220000  0.07257000  1.0 0.1045675655
C  C58  1  0.00220000  0.12080000  0.42743000  1.0 0.1045675655
C  C59  1  0.87920000  0.99780000  0.92743000  1.0 0.1045675655
C  C60  1  0.99780000  0.87920000  0.57257000  1.0 0.1045675655
C  C61  1  0.09810000  0.08890000  0.08990000  1.0 -0.1548735569
C  C62  1  0.08890000  0.09810000  0.41010000  1.0 -0.1548735569
C  C63  1  0.90190000  0.91110000  0.91010000  1.0 -0.1548735569
C  C64  1  0.91110000  0.90190000  0.58990000  1.0 -0.1548735569
C  C65  1  0.21420000  0.11240000  0.92120000  1.0 0.0893258103
C  C66  1  0.11240000  0.21420000  0.57880000  1.0 0.0893258103
C  C67  1  0.78580000  0.88760000  0.07880000  1.0 0.0893258103
C  C68  1  0.88760000  0.78580000  0.42120000  1.0 0.0893258103
C  C69  1  0.16830000  0.10570000  0.97080000  1.0 -0.1613518345
C  C70  1  0.10570000  0.16830000  0.52920000  1.0 -0.1613518345
C  C71  1  0.83170000  0.89430000  0.02920000  1.0 -0.1613518345
C  C72  1  0.89430000  0.83170000  0.47080000  1.0 -0.1613518345
C  C73  1  0.05440000  0.07680000  0.14170000  1.0 0.0806123644
C  C74  1  0.07680000  0.05440000  0.35830000  1.0 0.0806123644
C  C75  1  0.94560000  0.92320000  0.85830000  1.0 0.0806123644
C  C76  1  0.92320000  0.94560000  0.64170000  1.0 0.0806123644
C  C77  1  0.04850000  0.89990000  0.15870000  1.0 0.0893258103
C  C78  1  0.89990000  0.04850000  0.34130000  1.0 0.0893258103
C  C79  1  0.95150000  0.10010000  0.84130000  1.0 0.0893258103
C  C80  1  0.10010000  0.95150000  0.65870000  1.0 0.0893258103
N  N1  1  0.12476000  0.43456000  0.69860000  1.0 -0.1966018747
N  N2  1  0.43456000  0.12476000  0.80140000  1.0 -0.1966018747
N  N3  1  0.87524000  0.56544000  0.30140000  1.0 -0.1966018747
N  N4  1  0.56544000  0.87524000  0.19860000  1.0 -0.1966018747
N  N5  1  0.28469000  0.90015000  0.81012000  1.0 -0.2120377492
N  N6  1  0.90015000  0.28469000  0.68988000  1.0 -0.2120377492
N  N7  1  0.71531000  0.09985000  0.18988000  1.0 -0.2120377492
N  N8  1  0.09985000  0.71531000  0.31012000  1.0 -0.2120377492
N  N9  1  0.02897000  0.98319000  0.17678000  1.0 -0.1897723782
N  N10  1  0.98319000  0.02897000  0.32322000  1.0 -0.1897723782
N  N11  1  0.97103000  0.01681000  0.82322000  1.0 -0.1897723782
N  N12  1  0.01681000  0.97103000  0.67678000  1.0 -0.1897723782
N  N13  1  0.26330000  0.03530000  0.91379000  1.0 -0.1966018747
N  N14  1  0.03530000  0.26330000  0.58621000  1.0 -0.1966018747
N  N15  1  0.73670000  0.96470000  0.08621000  1.0 -0.1966018747
N  N16  1  0.96470000  0.73670000  0.41379000  1.0 -0.1966018747
Cl  Cl1  1  0.16573000  0.16573000  0.75000000  1.0 -0.5354961227
Cl  Cl2  1  0.83427000  0.83427000  0.25000000  1.0 -0.5354961227
O  O1  1  0.98848000  0.68310000  0.87153000  1.0 -0.6091137599
O  O2  1  0.01152000  0.31690000  0.12847000  1.0 -0.6091137599
O  O3  1  0.96024000  0.66518000  0.99469000  1.0 -0.8824133943
O  O4  1  0.03976000  0.33482000  0.00531000  1.0 -0.8824133943
O  O5  1  0.15909000  0.68025000  0.97121000  1.0 -0.7021286558
O  O6  1  0.84091000  0.31975000  0.02879000  1.0 -0.7021286558
O  O7  1  0.91085000  0.49435000  0.95213000  1.0 -1.1450315784
O  O8  1  0.08915000  0.50565000  0.04787000  1.0 -1.1450315784
O  O9  1  0.09504000  0.49856000  0.92804000  1.0 -0.896772183
O  O10  1  0.90496000  0.50144000  0.07196000  1.0 -0.896772183
O  O11  1  0.06872000  0.51854000  0.17558000  1.0 -0.6197766732
O  O12  1  0.93128000  0.48146000  0.82442000  1.0 -0.6197766732
O  O13  1  0.95751000  0.68757000  0.11860000  1.0 -0.6316814716
O  O14  1  0.04249000  0.31243000  0.88140000  1.0 -0.6316814716
O  O15  1  0.14887000  0.68129000  0.08941000  1.0 -0.8256186317
O  O16  1  0.85113000  0.31871000  0.91059000  1.0 -0.8256186317
O  O17  1  0.71952000  0.48316000  0.97337000  1.0 -0.7778179567
O  O18  1  0.28048000  0.51684000  0.02663000  1.0 -0.7778179567
O  O19  1  0.77861000  0.67531000  0.89930000  1.0 -0.5820791791
O  O20  1  0.22139000  0.32469000  0.10070000  1.0 -0.5820791791
O  O21  1  0.75826000  0.66380000  0.01867000  1.0 -0.6013178895
O  O22  1  0.24174000  0.33620000  0.98133000  1.0 -0.6013178895
O  O23  1  0.29763000  0.53945000  0.14983000  1.0 -0.6316814716
O  O24  1  0.70237000  0.46055000  0.85017000  1.0 -0.6316814716
O  O25  1  0.35012000  0.70804000  0.06170000  1.0 -0.6380588483
O  O26  1  0.64988000  0.29196000  0.93830000  1.0 -0.6380588483
O  O27  1  0.68310000  0.98848000  0.62847000  1.0 -0.6091137599
O  O28  1  0.31690000  0.01152000  0.37153000  1.0 -0.6091137599
O  O29  1  0.66518000  0.96024000  0.50531000  1.0 -0.8824133943
O  O30  1  0.33482000  0.03976000  0.49469000  1.0 -0.8824133943
O  O31  1  0.68025000  0.15909000  0.52879000  1.0 -0.7021286558
O  O32  1  0.31975000  0.84091000  0.47121000  1.0 -0.7021286558
O  O33  1  0.49435000  0.91085000  0.54787000  1.0 -1.1450315784
O  O34  1  0.50565000  0.08915000  0.45213000  1.0 -1.1450315784
O  O35  1  0.49856000  0.09504000  0.57196000  1.0 -0.896772183
O  O36  1  0.50144000  0.90496000  0.42804000  1.0 -0.896772183
O  O37  1  0.51854000  0.06872000  0.32442000  1.0 -0.6197766732
O  O38  1  0.48146000  0.93128000  0.67558000  1.0 -0.6197766732
O  O39  1  0.68757000  0.95751000  0.38140000  1.0 -0.6316814716
O  O40  1  0.31243000  0.04249000  0.61860000  1.0 -0.6316814716
O  O41  1  0.68129000  0.14887000  0.41059000  1.0 -0.8243456553
O  O42  1  0.31871000  0.85113000  0.58941000  1.0 -0.8256186317
O  O43  1  0.48316000  0.71952000  0.52663000  1.0 -0.7778179567
O  O44  1  0.51684000  0.28048000  0.47337000  1.0 -0.7778179567
O  O45  1  0.67531000  0.77861000  0.60070000  1.0 -0.5820791791
O  O46  1  0.32469000  0.22139000  0.39930000  1.0 -0.5820791791
O  O47  1  0.66380000  0.75826000  0.48133000  1.0 -0.6013178895
O  O48  1  0.33620000  0.24174000  0.51867000  1.0 -0.6013178895
O  O49  1  0.53945000  0.29763000  0.35017000  1.0 -0.6316814716
O  O50  1  0.46055000  0.70237000  0.64983000  1.0 -0.6316814716
O  O51  1  0.70804000  0.35012000  0.43830000  1.0 -0.6380588483
O  O52  1  0.29196000  0.64988000  0.56170000  1.0 -0.6380588483
