# DDEC6 charges by PACMAN v1.1 (https://github.com/mtap-research/PACMAN-charge/)
data_NEVFAY_ASR_pacman
_symmetry_space_group_name_H-M   'P 1'
_cell_length_a   19.43780000
_cell_length_b   19.43780000
_cell_length_c   32.10400000
_cell_angle_alpha   90.00000000
_cell_angle_beta   90.00000000
_cell_angle_gamma   90.00000000
_symmetry_Int_Tables_number   1
_chemical_formula_structural   Hf3H40(C13O3)4
_chemical_formula_sum   'Hf12 H160 C208 O48'
_cell_volume   12129.79232204
_cell_formula_units_Z   4
loop_
 _symmetry_equiv_pos_site_id
 _symmetry_equiv_pos_as_xyz
  1  'x, y, z'
loop_
 _atom_site_type_symbol
 _atom_site_label
 _atom_site_symmetry_multiplicity
 _atom_site_fract_x
 _atom_site_fract_y
 _atom_site_fract_z
 _atom_site_occupancy
 _atom_site_charge
Hf  Hf1  1  0.95900000  0.12100000  0.00000000  1.0 1.3766749131
Hf  Hf2  1  0.04100000  0.87900000  0.00000000  1.0 1.3766749131
Hf  Hf3  1  0.87900000  0.95900000  0.00000000  1.0 1.37238167
Hf  Hf4  1  0.12100000  0.04100000  0.00000000  1.0 1.3766749131
Hf  Hf5  1  0.54100000  0.62100000  0.50000000  1.0 1.3649469443
Hf  Hf6  1  0.45900000  0.37900000  0.50000000  1.0 1.3649469443
Hf  Hf7  1  0.62100000  0.45900000  0.50000000  1.0 1.3649469443
Hf  Hf8  1  0.37900000  0.54100000  0.50000000  1.0 1.3649469443
Hf  Hf9  1  0.00000000  0.00000000  0.07626000  1.0 1.419071389
Hf  Hf10  1  0.50000000  0.50000000  0.42374000  1.0 1.419071389
Hf  Hf11  1  0.00000000  0.00000000  0.92374000  1.0 1.419071389
Hf  Hf12  1  0.50000000  0.50000000  0.57626000  1.0 1.419071389
H  H1  1  0.89580000  0.36560000  0.14170000  1.0 0.1387381382
H  H2  1  0.90470000  0.27800000  0.09330000  1.0 0.1121360321
H  H3  1  0.97580000  0.15260000  0.18350000  1.0 0.1312522397
H  H4  1  0.96690000  0.24030000  0.23200000  1.0 0.1312522397
H  H5  1  0.79530000  0.32480000  0.21760000  1.0 0.0889815014
H  H6  1  0.77640000  0.34170000  0.26390000  1.0 0.0662329845
H  H7  1  0.82770000  0.28170000  0.25390000  1.0 0.038817903
H  H8  1  0.06780000  0.38150000  0.20850000  1.0 0.1492591958
H  H9  1  0.05450000  0.45890000  0.19730000  1.0 0.1312522397
H  H10  1  0.02190000  0.40040000  0.17000000  1.0 0.1492591958
H  H11  1  0.10420000  0.63440000  0.14170000  1.0 0.1387381382
H  H12  1  0.09530000  0.72200000  0.09330000  1.0 0.1121360321
H  H13  1  0.02420000  0.84740000  0.18350000  1.0 0.1312522397
H  H14  1  0.03310000  0.75970000  0.23200000  1.0 0.1312522397
H  H15  1  0.20470000  0.67520000  0.21760000  1.0 0.0889815014
H  H16  1  0.22360000  0.65830000  0.26390000  1.0 0.0662329845
H  H17  1  0.17230000  0.71830000  0.25390000  1.0 0.038817903
H  H18  1  0.93220000  0.61850000  0.20850000  1.0 0.1492591958
H  H19  1  0.94550000  0.54110000  0.19730000  1.0 0.1312522397
H  H20  1  0.97810000  0.59960000  0.17000000  1.0 0.1492591958
H  H21  1  0.63440000  0.89580000  0.14170000  1.0 0.1387381382
H  H22  1  0.72200000  0.90470000  0.09330000  1.0 0.1121360321
H  H23  1  0.84740000  0.97580000  0.18350000  1.0 0.1312522397
H  H24  1  0.75970000  0.96690000  0.23200000  1.0 0.1312522397
H  H25  1  0.67520000  0.79530000  0.21760000  1.0 0.0889815014
H  H26  1  0.65830000  0.77640000  0.26390000  1.0 0.0662329845
H  H27  1  0.71830000  0.82770000  0.25390000  1.0 0.038817903
H  H28  1  0.61850000  0.06780000  0.20850000  1.0 0.1492591958
H  H29  1  0.54110000  0.05450000  0.19730000  1.0 0.1312522397
H  H30  1  0.59960000  0.02190000  0.17000000  1.0 0.1492591958
H  H31  1  0.36560000  0.10420000  0.14170000  1.0 0.1387381382
H  H32  1  0.27800000  0.09530000  0.09330000  1.0 0.1121360321
H  H33  1  0.15260000  0.02420000  0.18350000  1.0 0.1312522397
H  H34  1  0.24030000  0.03310000  0.23200000  1.0 0.1312522397
H  H35  1  0.32480000  0.20470000  0.21760000  1.0 0.0889815014
H  H36  1  0.34170000  0.22360000  0.26390000  1.0 0.0662329845
H  H37  1  0.28170000  0.17230000  0.25390000  1.0 0.038817903
H  H38  1  0.38150000  0.93220000  0.20850000  1.0 0.1492591958
H  H39  1  0.45890000  0.94550000  0.19730000  1.0 0.1312522397
H  H40  1  0.40040000  0.97810000  0.17000000  1.0 0.1492591958
H  H41  1  0.60420000  0.86560000  0.35830000  1.0 0.1387381382
H  H42  1  0.59530000  0.77800000  0.40670000  1.0 0.1121360321
H  H43  1  0.52420000  0.65260000  0.31650000  1.0 0.1312522397
H  H44  1  0.53310000  0.74030000  0.26800000  1.0 0.1312522397
H  H45  1  0.70470000  0.82480000  0.28240000  1.0 0.0889815014
H  H46  1  0.72360000  0.84170000  0.23610000  1.0 0.0662329845
H  H47  1  0.67230000  0.78170000  0.24610000  1.0 0.038817903
H  H48  1  0.43220000  0.88150000  0.29150000  1.0 0.1492591958
H  H49  1  0.44550000  0.95890000  0.30270000  1.0 0.1312522397
H  H50  1  0.47810000  0.90040000  0.33000000  1.0 0.1492591958
H  H51  1  0.39580000  0.13440000  0.35830000  1.0 0.1387381382
H  H52  1  0.40470000  0.22200000  0.40670000  1.0 0.1121360321
H  H53  1  0.47580000  0.34740000  0.31650000  1.0 0.1312522397
H  H54  1  0.46690000  0.25970000  0.26800000  1.0 0.1312522397
H  H55  1  0.29530000  0.17520000  0.28240000  1.0 0.0889815014
H  H56  1  0.27640000  0.15830000  0.23610000  1.0 0.0662329845
H  H57  1  0.32770000  0.21830000  0.24610000  1.0 0.038817903
H  H58  1  0.56780000  0.11850000  0.29150000  1.0 0.1492591958
H  H59  1  0.55450000  0.04110000  0.30270000  1.0 0.1312522397
H  H60  1  0.52190000  0.09960000  0.33000000  1.0 0.1492591958
H  H61  1  0.86560000  0.39580000  0.35830000  1.0 0.1387381382
H  H62  1  0.77800000  0.40470000  0.40670000  1.0 0.1121360321
H  H63  1  0.65260000  0.47580000  0.31650000  1.0 0.1312522397
H  H64  1  0.74030000  0.46690000  0.26800000  1.0 0.1312522397
H  H65  1  0.82480000  0.29530000  0.28240000  1.0 0.0889815014
H  H66  1  0.84170000  0.27640000  0.23610000  1.0 0.0662329845
H  H67  1  0.78170000  0.32770000  0.24610000  1.0 0.038817903
H  H68  1  0.88150000  0.56780000  0.29150000  1.0 0.1492591958
H  H69  1  0.95890000  0.55450000  0.30270000  1.0 0.1312522397
H  H70  1  0.90040000  0.52190000  0.33000000  1.0 0.1492591958
H  H71  1  0.13440000  0.60420000  0.35830000  1.0 0.1387381382
H  H72  1  0.22200000  0.59530000  0.40670000  1.0 0.1121360321
H  H73  1  0.34740000  0.52420000  0.31650000  1.0 0.1312522397
H  H74  1  0.25970000  0.53310000  0.26800000  1.0 0.1312522397
H  H75  1  0.17520000  0.70470000  0.28240000  1.0 0.0889815014
H  H76  1  0.15830000  0.72360000  0.23610000  1.0 0.0662329845
H  H77  1  0.21830000  0.67230000  0.24610000  1.0 0.038817903
H  H78  1  0.11850000  0.43220000  0.29150000  1.0 0.1492591958
H  H79  1  0.04110000  0.44550000  0.30270000  1.0 0.1312522397
H  H80  1  0.09960000  0.47810000  0.33000000  1.0 0.1492591958
H  H81  1  0.10420000  0.63440000  0.85830000  1.0 0.1387381382
H  H82  1  0.09530000  0.72200000  0.90670000  1.0 0.1121360321
H  H83  1  0.02420000  0.84740000  0.81650000  1.0 0.1312522397
H  H84  1  0.03310000  0.75970000  0.76800000  1.0 0.1312522397
H  H85  1  0.20470000  0.67520000  0.78240000  1.0 0.0889815014
H  H86  1  0.22360000  0.65830000  0.73610000  1.0 0.0662329845
H  H87  1  0.17230000  0.71830000  0.74610000  1.0 0.038817903
H  H88  1  0.93220000  0.61850000  0.79150000  1.0 0.1492591958
H  H89  1  0.94550000  0.54110000  0.80270000  1.0 0.1312522397
H  H90  1  0.97810000  0.59960000  0.83000000  1.0 0.1492591958
H  H91  1  0.89580000  0.36560000  0.85830000  1.0 0.1387381382
H  H92  1  0.90470000  0.27800000  0.90670000  1.0 0.1121360321
H  H93  1  0.97580000  0.15260000  0.81650000  1.0 0.1312522397
H  H94  1  0.96690000  0.24030000  0.76800000  1.0 0.1312522397
H  H95  1  0.79530000  0.32480000  0.78240000  1.0 0.0889815014
H  H96  1  0.77640000  0.34170000  0.73610000  1.0 0.0662329845
H  H97  1  0.82770000  0.28170000  0.74610000  1.0 0.038817903
H  H98  1  0.06780000  0.38150000  0.79150000  1.0 0.1492591958
H  H99  1  0.05450000  0.45890000  0.80270000  1.0 0.1312522397
H  H100  1  0.02190000  0.40040000  0.83000000  1.0 0.1492591958
H  H101  1  0.36560000  0.10420000  0.85830000  1.0 0.1387381382
H  H102  1  0.27800000  0.09530000  0.90670000  1.0 0.1121360321
H  H103  1  0.15260000  0.02420000  0.81650000  1.0 0.1312522397
H  H104  1  0.24030000  0.03310000  0.76800000  1.0 0.1312522397
H  H105  1  0.32480000  0.20470000  0.78240000  1.0 0.0889815014
H  H106  1  0.34170000  0.22360000  0.73610000  1.0 0.0662329845
H  H107  1  0.28170000  0.17230000  0.74610000  1.0 0.038817903
H  H108  1  0.38150000  0.93220000  0.79150000  1.0 0.1492591958
H  H109  1  0.45890000  0.94550000  0.80270000  1.0 0.1312522397
H  H110  1  0.40040000  0.97810000  0.83000000  1.0 0.1492591958
H  H111  1  0.63440000  0.89580000  0.85830000  1.0 0.1387381382
H  H112  1  0.72200000  0.90470000  0.90670000  1.0 0.1121360321
H  H113  1  0.84740000  0.97580000  0.81650000  1.0 0.1312522397
H  H114  1  0.75970000  0.96690000  0.76800000  1.0 0.1312522397
H  H115  1  0.67520000  0.79530000  0.78240000  1.0 0.0889815014
H  H116  1  0.65830000  0.77640000  0.73610000  1.0 0.0662329845
H  H117  1  0.71830000  0.82770000  0.74610000  1.0 0.038817903
H  H118  1  0.61850000  0.06780000  0.79150000  1.0 0.1492591958
H  H119  1  0.54110000  0.05450000  0.80270000  1.0 0.1312522397
H  H120  1  0.59960000  0.02190000  0.83000000  1.0 0.1492591958
H  H121  1  0.39580000  0.13440000  0.64170000  1.0 0.1387381382
H  H122  1  0.40470000  0.22200000  0.59330000  1.0 0.1121360321
H  H123  1  0.47580000  0.34740000  0.68350000  1.0 0.1312522397
H  H124  1  0.46690000  0.25970000  0.73200000  1.0 0.1312522397
H  H125  1  0.29530000  0.17520000  0.71760000  1.0 0.0889815014
H  H126  1  0.27640000  0.15830000  0.76390000  1.0 0.0662329845
H  H127  1  0.32770000  0.21830000  0.75390000  1.0 0.038817903
H  H128  1  0.56780000  0.11850000  0.70850000  1.0 0.1492591958
H  H129  1  0.55450000  0.04110000  0.69730000  1.0 0.1312522397
H  H130  1  0.52190000  0.09960000  0.67000000  1.0 0.1492591958
H  H131  1  0.60420000  0.86560000  0.64170000  1.0 0.1387381382
H  H132  1  0.59530000  0.77800000  0.59330000  1.0 0.1121360321
H  H133  1  0.52420000  0.65260000  0.68350000  1.0 0.1312522397
H  H134  1  0.53310000  0.74030000  0.73200000  1.0 0.1312522397
H  H135  1  0.70470000  0.82480000  0.71760000  1.0 0.0889815014
H  H136  1  0.72360000  0.84170000  0.76390000  1.0 0.0662329845
H  H137  1  0.67230000  0.78170000  0.75390000  1.0 0.038817903
H  H138  1  0.43220000  0.88150000  0.70850000  1.0 0.1492591958
H  H139  1  0.44550000  0.95890000  0.69730000  1.0 0.1312522397
H  H140  1  0.47810000  0.90040000  0.67000000  1.0 0.1492591958
H  H141  1  0.13440000  0.60420000  0.64170000  1.0 0.1387381382
H  H142  1  0.22200000  0.59530000  0.59330000  1.0 0.1121360321
H  H143  1  0.34740000  0.52420000  0.68350000  1.0 0.1312522397
H  H144  1  0.25970000  0.53310000  0.73200000  1.0 0.1312522397
H  H145  1  0.17520000  0.70470000  0.71760000  1.0 0.0889815014
H  H146  1  0.15830000  0.72360000  0.76390000  1.0 0.0662329845
H  H147  1  0.21830000  0.67230000  0.75390000  1.0 0.038817903
H  H148  1  0.11850000  0.43220000  0.70850000  1.0 0.1492591958
H  H149  1  0.04110000  0.44550000  0.69730000  1.0 0.1312522397
H  H150  1  0.09960000  0.47810000  0.67000000  1.0 0.1492591958
H  H151  1  0.86560000  0.39580000  0.64170000  1.0 0.1387381382
H  H152  1  0.77800000  0.40470000  0.59330000  1.0 0.1121360321
H  H153  1  0.65260000  0.47580000  0.68350000  1.0 0.1312522397
H  H154  1  0.74030000  0.46690000  0.73200000  1.0 0.1312522397
H  H155  1  0.82480000  0.29530000  0.71760000  1.0 0.0889815014
H  H156  1  0.84170000  0.27640000  0.76390000  1.0 0.0662329845
H  H157  1  0.78170000  0.32770000  0.75390000  1.0 0.038817903
H  H158  1  0.88150000  0.56780000  0.70850000  1.0 0.1492591958
H  H159  1  0.95890000  0.55450000  0.69730000  1.0 0.1312522397
H  H160  1  0.90040000  0.52190000  0.67000000  1.0 0.1492591958
C  C1  1  0.92980000  0.31330000  0.19130000  1.0 0.038817903
C  C2  1  0.91190000  0.32280000  0.15010000  1.0 -0.1724815763
C  C3  1  0.91710000  0.27000000  0.12090000  1.0 -0.0381727451
C  C4  1  0.94180000  0.20500000  0.13410000  1.0 -0.0941201098
C  C5  1  0.95970000  0.19550000  0.17510000  1.0 -0.0689819338
C  C6  1  0.95450000  0.24800000  0.20440000  1.0 -0.161502832
C  C7  1  0.92390000  0.36770000  0.22020000  1.0 -0.0456120394
C  C8  1  0.97860000  0.41360000  0.22220000  1.0 0.038817903
C  C9  1  0.97900000  0.46600000  0.25180000  1.0 0.0345347906
C  C10  1  0.86900000  0.37400000  0.24770000  1.0 -0.0339597059
C  C11  1  0.81240000  0.32700000  0.24560000  1.0 -0.1203058515
C  C12  1  0.94520000  0.15530000  0.10220000  1.0 0.5613719948
C  C13  1  0.03470000  0.41360000  0.19780000  1.0 -0.3946631684
C  C14  1  0.07020000  0.68670000  0.19130000  1.0 0.038817903
C  C15  1  0.08810000  0.67720000  0.15010000  1.0 -0.1724815763
C  C16  1  0.08290000  0.73000000  0.12090000  1.0 -0.0381727451
C  C17  1  0.05820000  0.79500000  0.13410000  1.0 -0.0941201098
C  C18  1  0.04030000  0.80450000  0.17510000  1.0 -0.0689819338
C  C19  1  0.04550000  0.75200000  0.20440000  1.0 -0.161502832
C  C20  1  0.07610000  0.63230000  0.22020000  1.0 -0.0456120394
C  C21  1  0.02140000  0.58640000  0.22220000  1.0 0.038817903
C  C22  1  0.02100000  0.53400000  0.25180000  1.0 0.0345347906
C  C23  1  0.13100000  0.62600000  0.24770000  1.0 -0.0339597059
C  C24  1  0.18760000  0.67300000  0.24560000  1.0 -0.1203058515
C  C25  1  0.05480000  0.84470000  0.10220000  1.0 0.5613719948
C  C26  1  0.96530000  0.58640000  0.19780000  1.0 -0.3946631684
C  C27  1  0.68670000  0.92980000  0.19130000  1.0 0.038817903
C  C28  1  0.67720000  0.91190000  0.15010000  1.0 -0.1724815763
C  C29  1  0.73000000  0.91710000  0.12090000  1.0 -0.0381727451
C  C30  1  0.79500000  0.94180000  0.13410000  1.0 -0.0941201098
C  C31  1  0.80450000  0.95970000  0.17510000  1.0 -0.0689819338
C  C32  1  0.75200000  0.95450000  0.20440000  1.0 -0.161502832
C  C33  1  0.63230000  0.92390000  0.22020000  1.0 -0.0456120394
C  C34  1  0.58640000  0.97860000  0.22220000  1.0 0.038817903
C  C35  1  0.53400000  0.97900000  0.25180000  1.0 0.0345347906
C  C36  1  0.62600000  0.86900000  0.24770000  1.0 -0.0339597059
C  C37  1  0.67300000  0.81240000  0.24560000  1.0 -0.1203058515
C  C38  1  0.84470000  0.94520000  0.10220000  1.0 0.5613719948
C  C39  1  0.58640000  0.03470000  0.19780000  1.0 -0.3946631684
C  C40  1  0.31330000  0.07020000  0.19130000  1.0 0.038817903
C  C41  1  0.32280000  0.08810000  0.15010000  1.0 -0.1724815763
C  C42  1  0.27000000  0.08290000  0.12090000  1.0 -0.0381727451
C  C43  1  0.20500000  0.05820000  0.13410000  1.0 -0.0941201098
C  C44  1  0.19550000  0.04030000  0.17510000  1.0 -0.0689819338
C  C45  1  0.24800000  0.04550000  0.20440000  1.0 -0.161502832
C  C46  1  0.36770000  0.07610000  0.22020000  1.0 -0.0456120394
C  C47  1  0.41360000  0.02140000  0.22220000  1.0 0.038817903
C  C48  1  0.46600000  0.02100000  0.25180000  1.0 0.0345347906
C  C49  1  0.37400000  0.13100000  0.24770000  1.0 -0.0339597059
C  C50  1  0.32700000  0.18760000  0.24560000  1.0 -0.1203058515
C  C51  1  0.15530000  0.05480000  0.10220000  1.0 0.5613719948
C  C52  1  0.41360000  0.96530000  0.19780000  1.0 -0.3946631684
C  C53  1  0.57020000  0.81330000  0.30870000  1.0 0.038817903
C  C54  1  0.58810000  0.82280000  0.34990000  1.0 -0.1724815763
C  C55  1  0.58290000  0.77000000  0.37910000  1.0 -0.0381727451
C  C56  1  0.55820000  0.70500000  0.36590000  1.0 -0.0941201098
C  C57  1  0.54030000  0.69550000  0.32490000  1.0 -0.0689819338
C  C58  1  0.54550000  0.74800000  0.29560000  1.0 -0.161502832
C  C59  1  0.57610000  0.86770000  0.27980000  1.0 -0.0456120394
C  C60  1  0.52140000  0.91360000  0.27780000  1.0 0.038817903
C  C61  1  0.52100000  0.96600000  0.24820000  1.0 0.0345347906
C  C62  1  0.63100000  0.87400000  0.25230000  1.0 -0.0339597059
C  C63  1  0.68760000  0.82700000  0.25440000  1.0 -0.1203058515
C  C64  1  0.55480000  0.65530000  0.39780000  1.0 0.5613719948
C  C65  1  0.46530000  0.91360000  0.30220000  1.0 -0.3946631684
C  C66  1  0.42980000  0.18670000  0.30870000  1.0 0.038817903
C  C67  1  0.41190000  0.17720000  0.34990000  1.0 -0.1724815763
C  C68  1  0.41710000  0.23000000  0.37910000  1.0 -0.0381727451
C  C69  1  0.44180000  0.29500000  0.36590000  1.0 -0.0941201098
C  C70  1  0.45970000  0.30450000  0.32490000  1.0 -0.0689819338
C  C71  1  0.45450000  0.25200000  0.29560000  1.0 -0.161502832
C  C72  1  0.42390000  0.13230000  0.27980000  1.0 -0.0456120394
C  C73  1  0.47860000  0.08640000  0.27780000  1.0 0.038817903
C  C74  1  0.47900000  0.03400000  0.24820000  1.0 0.0345347906
C  C75  1  0.36900000  0.12600000  0.25230000  1.0 -0.0339597059
C  C76  1  0.31240000  0.17300000  0.25440000  1.0 -0.1203058515
C  C77  1  0.44520000  0.34470000  0.39780000  1.0 0.5613719948
C  C78  1  0.53470000  0.08640000  0.30220000  1.0 -0.3946631684
C  C79  1  0.81330000  0.42980000  0.30870000  1.0 0.038817903
C  C80  1  0.82280000  0.41190000  0.34990000  1.0 -0.1724815763
C  C81  1  0.77000000  0.41710000  0.37910000  1.0 -0.0381727451
C  C82  1  0.70500000  0.44180000  0.36590000  1.0 -0.0941201098
C  C83  1  0.69550000  0.45970000  0.32490000  1.0 -0.0689819338
C  C84  1  0.74800000  0.45450000  0.29560000  1.0 -0.161502832
C  C85  1  0.86770000  0.42390000  0.27980000  1.0 -0.0456120394
C  C86  1  0.91360000  0.47860000  0.27780000  1.0 0.038817903
C  C87  1  0.96600000  0.47900000  0.24820000  1.0 0.0345347906
C  C88  1  0.87400000  0.36900000  0.25230000  1.0 -0.0339597059
C  C89  1  0.82700000  0.31240000  0.25440000  1.0 -0.1203058515
C  C90  1  0.65530000  0.44520000  0.39780000  1.0 0.5613719948
C  C91  1  0.91360000  0.53470000  0.30220000  1.0 -0.3946631684
C  C92  1  0.18670000  0.57020000  0.30870000  1.0 0.038817903
C  C93  1  0.17720000  0.58810000  0.34990000  1.0 -0.1724815763
C  C94  1  0.23000000  0.58290000  0.37910000  1.0 -0.0381727451
C  C95  1  0.29500000  0.55820000  0.36590000  1.0 -0.0941201098
C  C96  1  0.30450000  0.54030000  0.32490000  1.0 -0.0689819338
C  C97  1  0.25200000  0.54550000  0.29560000  1.0 -0.161502832
C  C98  1  0.13230000  0.57610000  0.27980000  1.0 -0.0456120394
C  C99  1  0.08640000  0.52140000  0.27780000  1.0 0.038817903
C  C100  1  0.03400000  0.52100000  0.24820000  1.0 0.0345347906
C  C101  1  0.12600000  0.63100000  0.25230000  1.0 -0.0339597059
C  C102  1  0.17300000  0.68760000  0.25440000  1.0 -0.1203058515
C  C103  1  0.34470000  0.55480000  0.39780000  1.0 0.5613719948
C  C104  1  0.08640000  0.46530000  0.30220000  1.0 -0.3946631684
C  C105  1  0.07020000  0.68670000  0.80870000  1.0 0.038817903
C  C106  1  0.08810000  0.67720000  0.84990000  1.0 -0.1724815763
C  C107  1  0.08290000  0.73000000  0.87910000  1.0 -0.0381727451
C  C108  1  0.05820000  0.79500000  0.86590000  1.0 -0.0941201098
C  C109  1  0.04030000  0.80450000  0.82490000  1.0 -0.0689819338
C  C110  1  0.04550000  0.75200000  0.79560000  1.0 -0.161502832
C  C111  1  0.07610000  0.63230000  0.77980000  1.0 -0.0456120394
C  C112  1  0.02140000  0.58640000  0.77780000  1.0 0.038817903
C  C113  1  0.02100000  0.53400000  0.74820000  1.0 0.0345347906
C  C114  1  0.13100000  0.62600000  0.75230000  1.0 -0.0339597059
C  C115  1  0.18760000  0.67300000  0.75440000  1.0 -0.1203058515
C  C116  1  0.05480000  0.84470000  0.89780000  1.0 0.5613719948
C  C117  1  0.96530000  0.58640000  0.80220000  1.0 -0.3946631684
C  C118  1  0.92980000  0.31330000  0.80870000  1.0 0.038817903
C  C119  1  0.91190000  0.32280000  0.84990000  1.0 -0.1724815763
C  C120  1  0.91710000  0.27000000  0.87910000  1.0 -0.0381727451
C  C121  1  0.94180000  0.20500000  0.86590000  1.0 -0.0941201098
C  C122  1  0.95970000  0.19550000  0.82490000  1.0 -0.0689819338
C  C123  1  0.95450000  0.24800000  0.79560000  1.0 -0.161502832
C  C124  1  0.92390000  0.36770000  0.77980000  1.0 -0.0456120394
C  C125  1  0.97860000  0.41360000  0.77780000  1.0 0.038817903
C  C126  1  0.97900000  0.46600000  0.74820000  1.0 0.0345347906
C  C127  1  0.86900000  0.37400000  0.75230000  1.0 -0.0339597059
C  C128  1  0.81240000  0.32700000  0.75440000  1.0 -0.1203058515
C  C129  1  0.94520000  0.15530000  0.89780000  1.0 0.5613719948
C  C130  1  0.03470000  0.41360000  0.80220000  1.0 -0.3946631684
C  C131  1  0.31330000  0.07020000  0.80870000  1.0 0.038817903
C  C132  1  0.32280000  0.08810000  0.84990000  1.0 -0.1724815763
C  C133  1  0.27000000  0.08290000  0.87910000  1.0 -0.0381727451
C  C134  1  0.20500000  0.05820000  0.86590000  1.0 -0.0941201098
C  C135  1  0.19550000  0.04030000  0.82490000  1.0 -0.0689819338
C  C136  1  0.24800000  0.04550000  0.79560000  1.0 -0.161502832
C  C137  1  0.36770000  0.07610000  0.77980000  1.0 -0.0456120394
C  C138  1  0.41360000  0.02140000  0.77780000  1.0 0.038817903
C  C139  1  0.46600000  0.02100000  0.74820000  1.0 0.0345347906
C  C140  1  0.37400000  0.13100000  0.75230000  1.0 -0.0339597059
C  C141  1  0.32700000  0.18760000  0.75440000  1.0 -0.1203058515
C  C142  1  0.15530000  0.05480000  0.89780000  1.0 0.5613719948
C  C143  1  0.41360000  0.96530000  0.80220000  1.0 -0.3946631684
C  C144  1  0.68670000  0.92980000  0.80870000  1.0 0.038817903
C  C145  1  0.67720000  0.91190000  0.84990000  1.0 -0.1724815763
C  C146  1  0.73000000  0.91710000  0.87910000  1.0 -0.0381727451
C  C147  1  0.79500000  0.94180000  0.86590000  1.0 -0.0941201098
C  C148  1  0.80450000  0.95970000  0.82490000  1.0 -0.0689819338
C  C149  1  0.75200000  0.95450000  0.79560000  1.0 -0.161502832
C  C150  1  0.63230000  0.92390000  0.77980000  1.0 -0.0456120394
C  C151  1  0.58640000  0.97860000  0.77780000  1.0 0.038817903
C  C152  1  0.53400000  0.97900000  0.74820000  1.0 0.0345347906
C  C153  1  0.62600000  0.86900000  0.75230000  1.0 -0.0339597059
C  C154  1  0.67300000  0.81240000  0.75440000  1.0 -0.1203058515
C  C155  1  0.84470000  0.94520000  0.89780000  1.0 0.5613719948
C  C156  1  0.58640000  0.03470000  0.80220000  1.0 -0.3946631684
C  C157  1  0.42980000  0.18670000  0.69130000  1.0 0.038817903
C  C158  1  0.41190000  0.17720000  0.65010000  1.0 -0.1724815763
C  C159  1  0.41710000  0.23000000  0.62090000  1.0 -0.0381727451
C  C160  1  0.44180000  0.29500000  0.63410000  1.0 -0.0941201098
C  C161  1  0.45970000  0.30450000  0.67510000  1.0 -0.0689819338
C  C162  1  0.45450000  0.25200000  0.70440000  1.0 -0.161502832
C  C163  1  0.42390000  0.13230000  0.72020000  1.0 -0.0456120394
C  C164  1  0.47860000  0.08640000  0.72220000  1.0 0.038817903
C  C165  1  0.47900000  0.03400000  0.75180000  1.0 0.0345347906
C  C166  1  0.36900000  0.12600000  0.74770000  1.0 -0.0339597059
C  C167  1  0.31240000  0.17300000  0.74560000  1.0 -0.1203058515
C  C168  1  0.44520000  0.34470000  0.60220000  1.0 0.5613719948
C  C169  1  0.53470000  0.08640000  0.69780000  1.0 -0.3946631684
C  C170  1  0.57020000  0.81330000  0.69130000  1.0 0.038817903
C  C171  1  0.58810000  0.82280000  0.65010000  1.0 -0.1724815763
C  C172  1  0.58290000  0.77000000  0.62090000  1.0 -0.0381727451
C  C173  1  0.55820000  0.70500000  0.63410000  1.0 -0.0941201098
C  C174  1  0.54030000  0.69550000  0.67510000  1.0 -0.0689819338
C  C175  1  0.54550000  0.74800000  0.70440000  1.0 -0.161502832
C  C176  1  0.57610000  0.86770000  0.72020000  1.0 -0.0456120394
C  C177  1  0.52140000  0.91360000  0.72220000  1.0 0.038817903
C  C178  1  0.52100000  0.96600000  0.75180000  1.0 0.0345347906
C  C179  1  0.63100000  0.87400000  0.74770000  1.0 -0.0339597059
C  C180  1  0.68760000  0.82700000  0.74560000  1.0 -0.1203058515
C  C181  1  0.55480000  0.65530000  0.60220000  1.0 0.5613719948
C  C182  1  0.46530000  0.91360000  0.69780000  1.0 -0.3946631684
C  C183  1  0.18670000  0.57020000  0.69130000  1.0 0.038817903
C  C184  1  0.17720000  0.58810000  0.65010000  1.0 -0.1724815763
C  C185  1  0.23000000  0.58290000  0.62090000  1.0 -0.0381727451
C  C186  1  0.29500000  0.55820000  0.63410000  1.0 -0.0941201098
C  C187  1  0.30450000  0.54030000  0.67510000  1.0 -0.0689819338
C  C188  1  0.25200000  0.54550000  0.70440000  1.0 -0.161502832
C  C189  1  0.13230000  0.57610000  0.72020000  1.0 -0.0456120394
C  C190  1  0.08640000  0.52140000  0.72220000  1.0 0.038817903
C  C191  1  0.03400000  0.52100000  0.75180000  1.0 0.0345347906
C  C192  1  0.12600000  0.63100000  0.74770000  1.0 -0.0339597059
C  C193  1  0.17300000  0.68760000  0.74560000  1.0 -0.1203058515
C  C194  1  0.34470000  0.55480000  0.60220000  1.0 0.5613719948
C  C195  1  0.08640000  0.46530000  0.69780000  1.0 -0.3946631684
C  C196  1  0.81330000  0.42980000  0.69130000  1.0 0.038817903
C  C197  1  0.82280000  0.41190000  0.65010000  1.0 -0.1724815763
C  C198  1  0.77000000  0.41710000  0.62090000  1.0 -0.0381727451
C  C199  1  0.70500000  0.44180000  0.63410000  1.0 -0.0941201098
C  C200  1  0.69550000  0.45970000  0.67510000  1.0 -0.0689819338
C  C201  1  0.74800000  0.45450000  0.70440000  1.0 -0.161502832
C  C202  1  0.86770000  0.42390000  0.72020000  1.0 -0.0456120394
C  C203  1  0.91360000  0.47860000  0.72220000  1.0 0.038817903
C  C204  1  0.96600000  0.47900000  0.75180000  1.0 0.0345347906
C  C205  1  0.87400000  0.36900000  0.74770000  1.0 -0.0339597059
C  C206  1  0.82700000  0.31240000  0.74560000  1.0 -0.1203058515
C  C207  1  0.65530000  0.44520000  0.60220000  1.0 0.5613719948
C  C208  1  0.91360000  0.53470000  0.69780000  1.0 -0.3946631684
O  O1  1  0.97710000  0.09150000  0.11000000  1.0 -0.4954709563
O  O2  1  0.92400000  0.03100000  0.03980000  1.0 -0.6546351485
O  O3  1  0.94200000  0.16950000  0.05920000  1.0 -0.5681663997
O  O4  1  0.02290000  0.90850000  0.11000000  1.0 -0.4954709563
O  O5  1  0.07600000  0.96900000  0.03980000  1.0 -0.6573623789
O  O6  1  0.05800000  0.83050000  0.05920000  1.0 -0.5681663997
O  O7  1  0.90850000  0.97710000  0.11000000  1.0 -0.4954709563
O  O8  1  0.96900000  0.92400000  0.03980000  1.0 -0.6573623789
O  O9  1  0.83050000  0.94200000  0.05920000  1.0 -0.5681663997
O  O10  1  0.09150000  0.02290000  0.11000000  1.0 -0.4954709563
O  O11  1  0.03100000  0.07600000  0.03980000  1.0 -0.6573623789
O  O12  1  0.16950000  0.05800000  0.05920000  1.0 -0.5681663997
O  O13  1  0.52290000  0.59150000  0.39000000  1.0 -0.4954709563
O  O14  1  0.57600000  0.53100000  0.46020000  1.0 -0.6573623789
O  O15  1  0.55800000  0.66950000  0.44080000  1.0 -0.5681663997
O  O16  1  0.47710000  0.40850000  0.39000000  1.0 -0.4954709563
O  O17  1  0.42400000  0.46900000  0.46020000  1.0 -0.6573623789
O  O18  1  0.44200000  0.33050000  0.44080000  1.0 -0.5681663997
O  O19  1  0.59150000  0.47710000  0.39000000  1.0 -0.4954709563
O  O20  1  0.53100000  0.42400000  0.46020000  1.0 -0.6573623789
O  O21  1  0.66950000  0.44200000  0.44080000  1.0 -0.5681663997
O  O22  1  0.40850000  0.52290000  0.39000000  1.0 -0.4954709563
O  O23  1  0.46900000  0.57600000  0.46020000  1.0 -0.6573623789
O  O24  1  0.33050000  0.55800000  0.44080000  1.0 -0.5681663997
O  O25  1  0.02290000  0.90850000  0.89000000  1.0 -0.4954709563
O  O26  1  0.07600000  0.96900000  0.96020000  1.0 -0.6573623789
O  O27  1  0.05800000  0.83050000  0.94080000  1.0 -0.5681663997
O  O28  1  0.97710000  0.09150000  0.89000000  1.0 -0.4954709563
O  O29  1  0.92400000  0.03100000  0.96020000  1.0 -0.6573623789
O  O30  1  0.94200000  0.16950000  0.94080000  1.0 -0.5681663997
O  O31  1  0.09150000  0.02290000  0.89000000  1.0 -0.4954709563
O  O32  1  0.03100000  0.07600000  0.96020000  1.0 -0.6573623789
O  O33  1  0.16950000  0.05800000  0.94080000  1.0 -0.5681663997
O  O34  1  0.90850000  0.97710000  0.89000000  1.0 -0.4954709563
O  O35  1  0.96900000  0.92400000  0.96020000  1.0 -0.6573623789
O  O36  1  0.83050000  0.94200000  0.94080000  1.0 -0.5681663997
O  O37  1  0.47710000  0.40850000  0.61000000  1.0 -0.4954709563
O  O38  1  0.42400000  0.46900000  0.53980000  1.0 -0.6573623789
O  O39  1  0.44200000  0.33050000  0.55920000  1.0 -0.5681663997
O  O40  1  0.52290000  0.59150000  0.61000000  1.0 -0.4954709563
O  O41  1  0.57600000  0.53100000  0.53980000  1.0 -0.6573623789
O  O42  1  0.55800000  0.66950000  0.55920000  1.0 -0.5681663997
O  O43  1  0.40850000  0.52290000  0.61000000  1.0 -0.4954709563
O  O44  1  0.46900000  0.57600000  0.53980000  1.0 -0.6573623789
O  O45  1  0.33050000  0.55800000  0.55920000  1.0 -0.5681663997
O  O46  1  0.59150000  0.47710000  0.61000000  1.0 -0.4954709563
O  O47  1  0.53100000  0.42400000  0.53980000  1.0 -0.6573623789
O  O48  1  0.66950000  0.44200000  0.55920000  1.0 -0.5681663997
