# DDEC6 charges by PACMAN v1.1 (https://github.com/mtap-research/PACMAN-charge/)
data_NEVJEF_FSR_pacman
_symmetry_space_group_name_H-M   'P 1'
_cell_length_a   18.08610000
_cell_length_b   14.20830000
_cell_length_c   19.29800000
_cell_angle_alpha   90.00000000
_cell_angle_beta   97.83600000
_cell_angle_gamma   90.00000000
_symmetry_Int_Tables_number   1
_chemical_formula_structural   Cd2H11C17(NO5)2
_chemical_formula_sum   'Cd16 H88 C136 N16 O80'
_cell_volume   4912.75397844
_cell_formula_units_Z   8
loop_
 _symmetry_equiv_pos_site_id
 _symmetry_equiv_pos_as_xyz
  1  'x, y, z'
loop_
 _atom_site_type_symbol
 _atom_site_label
 _atom_site_symmetry_multiplicity
 _atom_site_fract_x
 _atom_site_fract_y
 _atom_site_fract_z
 _atom_site_occupancy
 _atom_site_charge
Cd  Cd1  1  0.83660000  0.20498000  0.56284000  1.0 0.9137490677
Cd  Cd2  1  0.16340000  0.20498000  0.93716000  1.0 0.9137490677
Cd  Cd3  1  0.16340000  0.79502000  0.43716000  1.0 0.9137490677
Cd  Cd4  1  0.83660000  0.79502000  0.06284000  1.0 0.9137490677
Cd  Cd5  1  0.67088000  0.20187000  0.37555000  1.0 0.9716984319
Cd  Cd6  1  0.32912000  0.20187000  0.12445000  1.0 0.9716984319
Cd  Cd7  1  0.32912000  0.79813000  0.62445000  1.0 0.9716984319
Cd  Cd8  1  0.67088000  0.79813000  0.87555000  1.0 0.9716984319
Cd  Cd9  1  0.48807000  0.13352000  0.97796000  1.0 1.0910323548
Cd  Cd10  1  0.51193000  0.13352000  0.52204000  1.0 1.0910323548
Cd  Cd11  1  0.51193000  0.86648000  0.02204000  1.0 1.0910323548
Cd  Cd12  1  0.48807000  0.86648000  0.47796000  1.0 1.0910323548
Cd  Cd13  1  0.59974000  0.27014000  0.16445000  1.0 0.9039113807
Cd  Cd14  1  0.40026000  0.27014000  0.33555000  1.0 0.9039113807
Cd  Cd15  1  0.40026000  0.72986000  0.83555000  1.0 0.9039113807
Cd  Cd16  1  0.59974000  0.72986000  0.66445000  1.0 0.9039113807
H  H1  1  0.92640000  0.03330000  0.39310000  1.0 0.129301586
H  H2  1  0.07360000  0.03330000  0.10690000  1.0 0.129301586
H  H3  1  0.07360000  0.96670000  0.60690000  1.0 0.129301586
H  H4  1  0.92640000  0.96670000  0.89310000  1.0 0.129301586
H  H5  1  0.94350000  0.96390000  0.28720000  1.0 0.129301586
H  H6  1  0.05650000  0.96390000  0.21280000  1.0 0.129301586
H  H7  1  0.05650000  0.03610000  0.71280000  1.0 0.129301586
H  H8  1  0.94350000  0.03610000  0.78720000  1.0 0.129301586
H  H9  1  0.71900000  0.95870000  0.23200000  1.0 0.129301586
H  H10  1  0.28100000  0.95870000  0.26800000  1.0 0.129301586
H  H11  1  0.28100000  0.04130000  0.76800000  1.0 0.129301586
H  H12  1  0.71900000  0.04130000  0.73200000  1.0 0.129301586
H  H13  1  0.63840000  0.91260000  0.39350000  1.0 0.1495375931
H  H14  1  0.36160000  0.91260000  0.10650000  1.0 0.1495375931
H  H15  1  0.36160000  0.08740000  0.60650000  1.0 0.1495375931
H  H16  1  0.63840000  0.08740000  0.89350000  1.0 0.1495375931
H  H17  1  0.70760000  0.96140000  0.44050000  1.0 0.14116108
H  H18  1  0.29240000  0.96140000  0.05950000  1.0 0.14116108
H  H19  1  0.29240000  0.03860000  0.55950000  1.0 0.14116108
H  H20  1  0.70760000  0.03860000  0.94050000  1.0 0.14116108
H  H21  1  0.62130000  0.95890000  0.26520000  1.0 0.14116108
H  H22  1  0.37870000  0.95890000  0.23480000  1.0 0.14116108
H  H23  1  0.37870000  0.04110000  0.73480000  1.0 0.14116108
H  H24  1  0.62130000  0.04110000  0.76520000  1.0 0.14116108
H  H25  1  0.56710000  0.01480000  0.30970000  1.0 0.1557607191
H  H26  1  0.43290000  0.01480000  0.19030000  1.0 0.1557607191
H  H27  1  0.43290000  0.98520000  0.69030000  1.0 0.1557607191
H  H28  1  0.56710000  0.98520000  0.80970000  1.0 0.1557607191
H  H29  1  0.68660000  0.34600000  0.92840000  1.0 0.129301586
H  H30  1  0.31340000  0.34600000  0.57160000  1.0 0.129301586
H  H31  1  0.31340000  0.65400000  0.07160000  1.0 0.129301586
H  H32  1  0.68660000  0.65400000  0.42840000  1.0 0.129301586
H  H33  1  0.76160000  0.47910000  0.94110000  1.0 0.129301586
H  H34  1  0.23840000  0.47910000  0.55890000  1.0 0.129301586
H  H35  1  0.23840000  0.52090000  0.05890000  1.0 0.129301586
H  H36  1  0.76160000  0.52090000  0.44110000  1.0 0.129301586
H  H37  1  0.65940000  0.56290000  0.10340000  1.0 0.129301586
H  H38  1  0.34060000  0.56290000  0.39660000  1.0 0.129301586
H  H39  1  0.34060000  0.43710000  0.89660000  1.0 0.129301586
H  H40  1  0.65940000  0.43710000  0.60340000  1.0 0.129301586
H  H41  1  0.45770000  0.47230000  0.07420000  1.0 0.14116108
H  H42  1  0.54230000  0.47230000  0.42580000  1.0 0.14116108
H  H43  1  0.54230000  0.52770000  0.92580000  1.0 0.14116108
H  H44  1  0.45770000  0.52770000  0.57420000  1.0 0.14116108
H  H45  1  0.48690000  0.39760000  0.02230000  1.0 0.129301586
H  H46  1  0.51310000  0.39760000  0.47770000  1.0 0.129301586
H  H47  1  0.51310000  0.60240000  0.97770000  1.0 0.129301586
H  H48  1  0.48690000  0.60240000  0.52230000  1.0 0.129301586
H  H49  1  0.56750000  0.55610000  0.15030000  1.0 0.14116108
H  H50  1  0.43250000  0.55610000  0.34970000  1.0 0.14116108
H  H51  1  0.43250000  0.44390000  0.84970000  1.0 0.14116108
H  H52  1  0.56750000  0.44390000  0.65030000  1.0 0.14116108
H  H53  1  0.51630000  0.48470000  0.18670000  1.0 0.1495375931
H  H54  1  0.48370000  0.48470000  0.31330000  1.0 0.1495375931
H  H55  1  0.48370000  0.51530000  0.81330000  1.0 0.1495375931
H  H56  1  0.51630000  0.51530000  0.68670000  1.0 0.1495375931
H  H57  1  0.70140000  0.11320000  0.09600000  1.0 0.129301586
H  H58  1  0.29860000  0.11320000  0.40400000  1.0 0.129301586
H  H59  1  0.29860000  0.88680000  0.90400000  1.0 0.129301586
H  H60  1  0.70140000  0.88680000  0.59600000  1.0 0.129301586
H  H61  1  0.81370000  0.09320000  0.05340000  1.0 0.1495375931
H  H62  1  0.18630000  0.09320000  0.44660000  1.0 0.1495375931
H  H63  1  0.18630000  0.90680000  0.94660000  1.0 0.1495375931
H  H64  1  0.81370000  0.90680000  0.55340000  1.0 0.1495375931
H  H65  1  0.86630000  0.36100000  0.11190000  1.0 0.129301586
H  H66  1  0.13370000  0.36100000  0.38810000  1.0 0.129301586
H  H67  1  0.13370000  0.63900000  0.88810000  1.0 0.129301586
H  H68  1  0.86630000  0.63900000  0.61190000  1.0 0.129301586
H  H69  1  0.75570000  0.36950000  0.15850000  1.0 0.1120883051
H  H70  1  0.24430000  0.36950000  0.34150000  1.0 0.1120883051
H  H71  1  0.24430000  0.63050000  0.84150000  1.0 0.1120883051
H  H72  1  0.75570000  0.63050000  0.65850000  1.0 0.1120883051
H  H73  1  0.89390000  0.11670000  0.97580000  1.0 0.14116108
H  H74  1  0.10610000  0.11670000  0.52420000  1.0 0.14116108
H  H75  1  0.10610000  0.88330000  0.02420000  1.0 0.14116108
H  H76  1  0.89390000  0.88330000  0.47580000  1.0 0.14116108
H  H77  1  0.00260000  0.11890000  0.92530000  1.0 0.1120883051
H  H78  1  0.99740000  0.11890000  0.57470000  1.0 0.1120883051
H  H79  1  0.99740000  0.88110000  0.07470000  1.0 0.1120883051
H  H80  1  0.00260000  0.88110000  0.42530000  1.0 0.1120883051
H  H81  1  0.08780000  0.31010000  0.05480000  1.0 0.1228340554
H  H82  1  0.91220000  0.31010000  0.44520000  1.0 0.1228340554
H  H83  1  0.91220000  0.68990000  0.94520000  1.0 0.1228340554
H  H84  1  0.08780000  0.68990000  0.55480000  1.0 0.1228340554
H  H85  1  0.98380000  0.31210000  0.11020000  1.0 0.129301586
H  H86  1  0.01620000  0.31210000  0.38980000  1.0 0.129301586
H  H87  1  0.01620000  0.68790000  0.88980000  1.0 0.129301586
H  H88  1  0.98380000  0.68790000  0.61020000  1.0 0.129301586
C  C1  1  0.80950000  0.08090000  0.44720000  1.0 0.5399778771
C  C2  1  0.19050000  0.08090000  0.05280000  1.0 0.5399778771
C  C3  1  0.19050000  0.91910000  0.55280000  1.0 0.5399778771
C  C4  1  0.80950000  0.91910000  0.94720000  1.0 0.5399778771
C  C5  1  0.81330000  0.03500000  0.37730000  1.0 -0.1088876628
C  C6  1  0.18670000  0.03500000  0.12270000  1.0 -0.1088876628
C  C7  1  0.18670000  0.96500000  0.62270000  1.0 -0.1088876628
C  C8  1  0.81330000  0.96500000  0.87730000  1.0 -0.1088876628
C  C9  1  0.88410000  0.01720000  0.36050000  1.0 -0.1168782276
C  C10  1  0.11590000  0.01720000  0.13950000  1.0 -0.1168782276
C  C11  1  0.11590000  0.98280000  0.63950000  1.0 -0.1168782276
C  C12  1  0.88410000  0.98280000  0.86050000  1.0 -0.1168782276
C  C13  1  0.89470000  0.97690000  0.29760000  1.0 -0.1088876628
C  C14  1  0.10530000  0.97690000  0.20240000  1.0 -0.1088876628
C  C15  1  0.10530000  0.02310000  0.70240000  1.0 -0.1088876628
C  C16  1  0.89470000  0.02310000  0.79760000  1.0 -0.1088876628
C  C17  1  0.83230000  0.95580000  0.24980000  1.0 0.017979766
C  C18  1  0.16770000  0.95580000  0.25020000  1.0 0.017979766
C  C19  1  0.16770000  0.04420000  0.75020000  1.0 0.017979766
C  C20  1  0.83230000  0.04420000  0.74980000  1.0 0.017979766
C  C21  1  0.84180000  0.90550000  0.18150000  1.0 0.529546051
C  C22  1  0.15820000  0.90550000  0.31850000  1.0 0.5242690389
C  C23  1  0.15820000  0.09450000  0.81850000  1.0 0.5242690389
C  C24  1  0.84180000  0.09450000  0.68150000  1.0 0.5242690389
C  C25  1  0.76100000  0.97330000  0.26550000  1.0 -0.1902180863
C  C26  1  0.23900000  0.97330000  0.23450000  1.0 -0.1902180863
C  C27  1  0.23900000  0.02670000  0.73450000  1.0 -0.1902180863
C  C28  1  0.76100000  0.02670000  0.76550000  1.0 -0.1902180863
C  C29  1  0.75010000  0.01150000  0.32900000  1.0 0.129301586
C  C30  1  0.24990000  0.01150000  0.17100000  1.0 0.129301586
C  C31  1  0.24990000  0.98850000  0.67100000  1.0 0.129301586
C  C32  1  0.75010000  0.98850000  0.82900000  1.0 0.129301586
C  C33  1  0.66040000  0.97390000  0.40950000  1.0 -0.2822713194
C  C34  1  0.33960000  0.97390000  0.09050000  1.0 -0.2822713194
C  C35  1  0.33960000  0.02610000  0.59050000  1.0 -0.2822713194
C  C36  1  0.66040000  0.02610000  0.90950000  1.0 -0.2822713194
C  C37  1  0.60690000  0.02530000  0.45070000  1.0 0.5956616687
C  C38  1  0.39310000  0.02530000  0.04930000  1.0 0.5956616687
C  C39  1  0.39310000  0.97470000  0.54930000  1.0 0.5956616687
C  C40  1  0.60690000  0.97470000  0.95070000  1.0 0.5956616687
C  C41  1  0.61480000  0.01860000  0.29020000  1.0 -0.2874434007
C  C42  1  0.38520000  0.01860000  0.20980000  1.0 -0.2874434007
C  C43  1  0.38520000  0.98140000  0.70980000  1.0 -0.2874434007
C  C44  1  0.61480000  0.98140000  0.79020000  1.0 -0.2874434007
C  C45  1  0.61100000  0.09890000  0.23880000  1.0 0.5826361465
C  C46  1  0.38900000  0.09890000  0.26120000  1.0 0.5826361465
C  C47  1  0.38900000  0.90110000  0.76120000  1.0 0.5826361465
C  C48  1  0.61100000  0.90110000  0.73880000  1.0 0.5826361465
C  C49  1  0.58550000  0.28260000  0.99610000  1.0 0.529546051
C  C50  1  0.41450000  0.28260000  0.50390000  1.0 0.529546051
C  C51  1  0.41450000  0.71740000  0.00390000  1.0 0.529546051
C  C52  1  0.58550000  0.71740000  0.49610000  1.0 0.529546051
C  C53  1  0.62760000  0.37360000  0.00870000  1.0 -0.1088876628
C  C54  1  0.37240000  0.37360000  0.49130000  1.0 -0.1088876628
C  C55  1  0.37240000  0.62640000  0.99130000  1.0 -0.1088876628
C  C56  1  0.62760000  0.62640000  0.50870000  1.0 -0.1088876628
C  C57  1  0.68080000  0.39010000  0.96430000  1.0 -0.0963556406
C  C58  1  0.31920000  0.39010000  0.53570000  1.0 -0.0963556406
C  C59  1  0.31920000  0.60990000  0.03570000  1.0 -0.0963556406
C  C60  1  0.68080000  0.60990000  0.46430000  1.0 -0.0963556406
C  C61  1  0.72520000  0.46920000  0.97150000  1.0 -0.1088876628
C  C62  1  0.27480000  0.46920000  0.52850000  1.0 -0.1088876628
C  C63  1  0.27480000  0.53080000  0.02850000  1.0 -0.1088876628
C  C64  1  0.72520000  0.53080000  0.47150000  1.0 -0.1088876628
C  C65  1  0.71660000  0.53360000  0.02250000  1.0 0.017979766
C  C66  1  0.28340000  0.53360000  0.47750000  1.0 0.017979766
C  C67  1  0.28340000  0.46640000  0.97750000  1.0 0.017979766
C  C68  1  0.71660000  0.46640000  0.52250000  1.0 0.017979766
C  C69  1  0.76210000  0.62310000  0.02800000  1.0 0.5242690389
C  C70  1  0.23790000  0.62310000  0.47200000  1.0 0.5242690389
C  C71  1  0.23790000  0.37690000  0.97200000  1.0 0.5242690389
C  C72  1  0.76210000  0.37690000  0.52800000  1.0 0.5242690389
C  C73  1  0.66400000  0.51850000  0.06740000  1.0 -0.1902180863
C  C74  1  0.33600000  0.51850000  0.43260000  1.0 -0.1902180863
C  C75  1  0.33600000  0.48150000  0.93260000  1.0 -0.1902180863
C  C76  1  0.66400000  0.48150000  0.56740000  1.0 -0.1902180863
C  C77  1  0.61760000  0.43980000  0.06090000  1.0 0.1228340554
C  C78  1  0.38240000  0.43980000  0.43910000  1.0 0.1228340554
C  C79  1  0.38240000  0.56020000  0.93910000  1.0 0.1228340554
C  C80  1  0.61760000  0.56020000  0.56090000  1.0 0.1228340554
C  C81  1  0.48550000  0.41260000  0.07220000  1.0 -0.2673183692
C  C82  1  0.51450000  0.41260000  0.42780000  1.0 -0.2673183692
C  C83  1  0.51450000  0.58740000  0.92780000  1.0 -0.2673183692
C  C84  1  0.48550000  0.58740000  0.57220000  1.0 -0.2673183692
C  C85  1  0.44410000  0.33500000  0.10470000  1.0 0.5923406023
C  C86  1  0.55590000  0.33500000  0.39530000  1.0 0.5923406023
C  C87  1  0.55590000  0.66500000  0.89530000  1.0 0.5923406023
C  C88  1  0.44410000  0.66500000  0.60470000  1.0 0.5923406023
C  C89  1  0.56390000  0.49060000  0.16710000  1.0 -0.2822713194
C  C90  1  0.43610000  0.49060000  0.33290000  1.0 -0.2822713194
C  C91  1  0.43610000  0.50940000  0.83290000  1.0 -0.2822713194
C  C92  1  0.56390000  0.50940000  0.66710000  1.0 -0.2822713194
C  C93  1  0.62810000  0.47280000  0.22510000  1.0 0.5826361465
C  C94  1  0.37190000  0.47280000  0.27490000  1.0 0.5826361465
C  C95  1  0.37190000  0.52720000  0.77490000  1.0 0.5826361465
C  C96  1  0.62810000  0.52720000  0.72510000  1.0 0.5826361465
C  C97  1  0.73630000  0.16350000  0.10050000  1.0 0.0865527146
C  C98  1  0.26370000  0.16350000  0.39950000  1.0 0.0865527146
C  C99  1  0.26370000  0.83650000  0.89950000  1.0 0.0865527146
C  C100  1  0.73630000  0.83650000  0.60050000  1.0 0.0865527146
C  C101  1  0.80240000  0.15160000  0.07360000  1.0 -0.1778409642
C  C102  1  0.19760000  0.15160000  0.42640000  1.0 -0.1778409642
C  C103  1  0.19760000  0.84840000  0.92640000  1.0 -0.1778409642
C  C104  1  0.80240000  0.84840000  0.57360000  1.0 -0.1778409642
C  C105  1  0.85260000  0.22670000  0.07640000  1.0 0.1120883051
C  C106  1  0.14740000  0.22670000  0.42360000  1.0 0.1120883051
C  C107  1  0.14740000  0.77330000  0.92360000  1.0 0.1120883051
C  C108  1  0.85260000  0.77330000  0.57640000  1.0 0.1120883051
C  C109  1  0.83370000  0.30830000  0.10860000  1.0 -0.1902180863
C  C110  1  0.16630000  0.30830000  0.39140000  1.0 -0.1902180863
C  C111  1  0.16630000  0.69170000  0.89140000  1.0 -0.1902180863
C  C112  1  0.83370000  0.69170000  0.60860000  1.0 -0.1902180863
C  C113  1  0.76730000  0.31290000  0.13610000  1.0 0.0865527146
C  C114  1  0.23270000  0.31290000  0.36390000  1.0 0.0865527146
C  C115  1  0.23270000  0.68710000  0.86390000  1.0 0.0865527146
C  C116  1  0.76730000  0.68710000  0.63610000  1.0 0.0865527146
C  C117  1  0.93200000  0.16060000  0.99180000  1.0 -0.1902180863
C  C118  1  0.06800000  0.16060000  0.50820000  1.0 -0.1902180863
C  C119  1  0.06800000  0.83940000  0.00820000  1.0 -0.1902180863
C  C120  1  0.93200000  0.83940000  0.49180000  1.0 -0.1902180863
C  C121  1  0.99770000  0.16210000  0.96200000  1.0 0.1046413841
C  C122  1  0.00230000  0.16210000  0.53800000  1.0 0.1046413841
C  C123  1  0.00230000  0.83790000  0.03800000  1.0 0.1046413841
C  C124  1  0.99770000  0.83790000  0.46200000  1.0 0.1046413841
C  C125  1  0.04660000  0.27180000  0.03680000  1.0 0.0707869126
C  C126  1  0.95340000  0.27180000  0.46320000  1.0 0.0707869126
C  C127  1  0.95340000  0.72820000  0.96320000  1.0 0.0707869126
C  C128  1  0.04660000  0.72820000  0.53680000  1.0 0.0707869126
C  C129  1  0.98440000  0.27430000  0.06960000  1.0 -0.1902180863
C  C130  1  0.01560000  0.27430000  0.43040000  1.0 -0.1902180863
C  C131  1  0.01560000  0.72570000  0.93040000  1.0 -0.1902180863
C  C132  1  0.98440000  0.72570000  0.56960000  1.0 -0.1902180863
C  C133  1  0.92230000  0.22200000  0.04390000  1.0 0.1120883051
C  C134  1  0.07770000  0.22200000  0.45610000  1.0 0.1120883051
C  C135  1  0.07770000  0.77800000  0.95610000  1.0 0.1120883051
C  C136  1  0.92230000  0.77800000  0.54390000  1.0 0.1120883051
N  N1  1  0.67660000  0.02910000  0.34800000  1.0 -0.1088876628
N  N2  1  0.32340000  0.02910000  0.15200000  1.0 -0.1088876628
N  N3  1  0.32340000  0.97090000  0.65200000  1.0 -0.1088876628
N  N4  1  0.67660000  0.97090000  0.84800000  1.0 -0.1088876628
N  N5  1  0.56240000  0.42600000  0.10710000  1.0 -0.1088876628
N  N6  1  0.43760000  0.42600000  0.39290000  1.0 -0.1088876628
N  N7  1  0.43760000  0.57400000  0.89290000  1.0 -0.1088876628
N  N8  1  0.56240000  0.57400000  0.60710000  1.0 -0.1088876628
N  N9  1  0.71850000  0.24220000  0.13270000  1.0 -0.2468149152
N  N10  1  0.28150000  0.24220000  0.36730000  1.0 -0.2468149152
N  N11  1  0.28150000  0.75780000  0.86730000  1.0 -0.2468149152
N  N12  1  0.71850000  0.75780000  0.63270000  1.0 -0.2468149152
N  N13  1  0.05310000  0.21910000  0.98120000  1.0 -0.2364444
N  N14  1  0.94690000  0.21910000  0.51880000  1.0 -0.2364444
N  N15  1  0.94690000  0.78090000  0.01880000  1.0 -0.2364444
N  N16  1  0.05310000  0.78090000  0.48120000  1.0 -0.2364444
O  O1  1  0.76670000  0.15160000  0.45149000  1.0 -0.5484535185
O  O2  1  0.23330000  0.15160000  0.04851000  1.0 -0.5484535185
O  O3  1  0.23330000  0.84840000  0.54851000  1.0 -0.5484535185
O  O4  1  0.76670000  0.84840000  0.95149000  1.0 -0.5484535185
O  O5  1  0.85150000  0.05150000  0.49846000  1.0 -0.5192925711
O  O6  1  0.14850000  0.05150000  0.00154000  1.0 -0.5192925711
O  O7  1  0.14850000  0.94850000  0.50154000  1.0 -0.5192925711
O  O8  1  0.85150000  0.94850000  0.99846000  1.0 -0.5192925711
O  O9  1  0.90460000  0.89200000  0.16630000  1.0 -0.5298098636
O  O10  1  0.09540000  0.89200000  0.33370000  1.0 -0.5298098636
O  O11  1  0.09540000  0.10800000  0.83370000  1.0 -0.5298098636
O  O12  1  0.90460000  0.10800000  0.66630000  1.0 -0.5298098636
O  O13  1  0.78440000  0.87820000  0.14410000  1.0 -0.5003860903
O  O14  1  0.21560000  0.87820000  0.35590000  1.0 -0.5003860903
O  O15  1  0.21560000  0.12180000  0.85590000  1.0 -0.5003860903
O  O16  1  0.78440000  0.12180000  0.64410000  1.0 -0.5003860903
O  O17  1  0.59020000  0.10920000  0.43680000  1.0 -0.5484535185
O  O18  1  0.40980000  0.10920000  0.06320000  1.0 -0.5484535185
O  O19  1  0.40980000  0.89080000  0.56320000  1.0 -0.5484535185
O  O20  1  0.59020000  0.89080000  0.93680000  1.0 -0.5484535185
O  O21  1  0.58210000  0.98130000  0.49923000  1.0 -0.5621745077
O  O22  1  0.41790000  0.98130000  0.00077000  1.0 -0.5621745077
O  O23  1  0.41790000  0.01870000  0.50077000  1.0 -0.5621745077
O  O24  1  0.58210000  0.01870000  0.99923000  1.0 -0.5621745077
O  O25  1  0.63480000  0.17860000  0.26088000  1.0 -0.5298098636
O  O26  1  0.36520000  0.17860000  0.23912000  1.0 -0.5298098636
O  O27  1  0.36520000  0.82140000  0.73912000  1.0 -0.5298098636
O  O28  1  0.63480000  0.82140000  0.76088000  1.0 -0.5298098636
O  O29  1  0.58150000  0.08860000  0.17746000  1.0 -0.4452550424
O  O30  1  0.41850000  0.08860000  0.32254000  1.0 -0.4452550424
O  O31  1  0.41850000  0.91140000  0.82254000  1.0 -0.4452550424
O  O32  1  0.58150000  0.91140000  0.67746000  1.0 -0.4452550424
O  O33  1  0.57650000  0.24740000  0.93660000  1.0 -0.4835788769
O  O34  1  0.42350000  0.24740000  0.56340000  1.0 -0.4835788769
O  O35  1  0.42350000  0.75260000  0.06340000  1.0 -0.4835788769
O  O36  1  0.57650000  0.75260000  0.43660000  1.0 -0.4835788769
O  O37  1  0.55980000  0.24150000  0.04669000  1.0 -0.5621745077
O  O38  1  0.44020000  0.24150000  0.45331000  1.0 -0.5621745077
O  O39  1  0.44020000  0.75850000  0.95331000  1.0 -0.5621745077
O  O40  1  0.55980000  0.75850000  0.54669000  1.0 -0.5621745077
O  O41  1  0.80770000  0.63460000  0.98650000  1.0 -0.5298098636
O  O42  1  0.19230000  0.63460000  0.51350000  1.0 -0.5298098636
O  O43  1  0.19230000  0.36540000  0.01350000  1.0 -0.5298098636
O  O44  1  0.80770000  0.36540000  0.48650000  1.0 -0.5298098636
O  O45  1  0.74900000  0.68300000  0.07060000  1.0 -0.4593665016
O  O46  1  0.25100000  0.68300000  0.42940000  1.0 -0.4593665016
O  O47  1  0.25100000  0.31700000  0.92940000  1.0 -0.4593665016
O  O48  1  0.74900000  0.31700000  0.57060000  1.0 -0.4593665016
O  O49  1  0.47230000  0.29230000  0.15760000  1.0 -0.5192925711
O  O50  1  0.52770000  0.29230000  0.34240000  1.0 -0.5192925711
O  O51  1  0.52770000  0.70770000  0.84240000  1.0 -0.5192925711
O  O52  1  0.47230000  0.70770000  0.65760000  1.0 -0.5192925711
O  O53  1  0.37920000  0.31930000  0.07390000  1.0 -0.4680673194
O  O54  1  0.62080000  0.31930000  0.42610000  1.0 -0.4680673194
O  O55  1  0.62080000  0.68070000  0.92610000  1.0 -0.4680673194
O  O56  1  0.37920000  0.68070000  0.57390000  1.0 -0.4680673194
O  O57  1  0.65430000  0.38960000  0.23220000  1.0 -0.5192925711
O  O58  1  0.34570000  0.38960000  0.26780000  1.0 -0.5298098636
O  O59  1  0.34570000  0.61040000  0.76780000  1.0 -0.5298098636
O  O60  1  0.65430000  0.61040000  0.73220000  1.0 -0.5298098636
O  O61  1  0.64910000  0.53760000  0.26430000  1.0 -0.4835788769
O  O62  1  0.35090000  0.53760000  0.23570000  1.0 -0.4835788769
O  O63  1  0.35090000  0.46240000  0.73570000  1.0 -0.4835788769
O  O64  1  0.64910000  0.46240000  0.76430000  1.0 -0.4835788769
O  O65  1  0.75130000  0.31360000  0.33920000  1.0 0.0279131091
O  O66  1  0.24870000  0.31360000  0.16080000  1.0 0.0279131091
O  O67  1  0.24870000  0.68640000  0.66080000  1.0 0.0279131091
O  O68  1  0.75130000  0.68640000  0.83920000  1.0 0.0279131091
O  O69  1  0.89930000  0.32180000  0.65170000  1.0 0.0707869126
O  O70  1  0.10070000  0.32180000  0.84830000  1.0 0.0707869126
O  O71  1  0.10070000  0.67820000  0.34830000  1.0 0.0707869126
O  O72  1  0.89930000  0.67820000  0.15170000  1.0 0.0707869126
O  O73  1  0.40790000  0.24990000  0.93510000  1.0 -0.1456204293
O  O74  1  0.59210000  0.24990000  0.56490000  1.0 -0.1456204293
O  O75  1  0.59210000  0.75010000  0.06490000  1.0 -0.1456204293
O  O76  1  0.40790000  0.75010000  0.43510000  1.0 -0.1456204293
O  O77  1  0.47630000  0.07870000  0.86770000  1.0 -0.302398586
O  O78  1  0.52370000  0.07870000  0.63230000  1.0 -0.302398586
O  O79  1  0.52370000  0.92130000  0.13230000  1.0 -0.302398586
O  O80  1  0.47630000  0.92130000  0.36770000  1.0 -0.302398586
