# DDEC6 charges by PACMAN v1.1 (https://github.com/mtap-research/PACMAN-charge/)
data_NEVSUF07_ASR_pacman
_symmetry_space_group_name_H-M   'P 1'
_cell_length_a   18.93660000
_cell_length_b   18.93660000
_cell_length_c   32.86400000
_cell_angle_alpha   90.00000000
_cell_angle_beta   90.00000000
_cell_angle_gamma   90.00000000
_symmetry_Int_Tables_number   1
_chemical_formula_structural   Zr3H40(C23O6)2
_chemical_formula_sum   'Zr12 H160 C184 O48'
_cell_volume   11784.86015002
_cell_formula_units_Z   4
loop_
 _symmetry_equiv_pos_site_id
 _symmetry_equiv_pos_as_xyz
  1  'x, y, z'
loop_
 _atom_site_type_symbol
 _atom_site_label
 _atom_site_symmetry_multiplicity
 _atom_site_fract_x
 _atom_site_fract_y
 _atom_site_fract_z
 _atom_site_occupancy
 _atom_site_charge
Zr  Zr1  1  0.12307000  0.04505000  0.00000000  1.0 2.4471137352
Zr  Zr2  1  0.87693000  0.95495000  0.00000000  1.0 2.4471137352
Zr  Zr3  1  0.95495000  0.12307000  0.00000000  1.0 2.4471137352
Zr  Zr4  1  0.04505000  0.87693000  0.00000000  1.0 2.4471137352
Zr  Zr5  1  0.37693000  0.54505000  0.50000000  1.0 2.4471137352
Zr  Zr6  1  0.62307000  0.45495000  0.50000000  1.0 2.4471137352
Zr  Zr7  1  0.54505000  0.62307000  0.50000000  1.0 2.4471137352
Zr  Zr8  1  0.45495000  0.37693000  0.50000000  1.0 2.4471137352
Zr  Zr9  1  0.00000000  0.00000000  0.07400000  1.0 2.2957949466
Zr  Zr10  1  0.50000000  0.50000000  0.42600000  1.0 2.2877670355
Zr  Zr11  1  0.00000000  0.00000000  0.92600000  1.0 2.2957949466
Zr  Zr12  1  0.50000000  0.50000000  0.57400000  1.0 2.2877670355
H  H1  1  0.06980000  0.44510000  0.19680000  1.0 0.1267529514
H  H2  1  0.05900000  0.36310000  0.19550000  1.0 0.1267529514
H  H3  1  0.01770000  0.41180000  0.16520000  1.0 0.1138645411
H  H4  1  0.90660000  0.28510000  0.09240000  1.0 0.102080157
H  H5  1  0.89920000  0.37200000  0.14190000  1.0 0.1196870781
H  H6  1  0.96180000  0.23210000  0.22650000  1.0 0.1267529514
H  H7  1  0.96920000  0.14520000  0.17690000  1.0 0.1138645411
H  H8  1  0.82460000  0.28220000  0.22850000  1.0 0.0131958844
H  H9  1  0.81560000  0.29120000  0.27570000  1.0 0.0131958844
H  H10  1  0.77000000  0.33680000  0.24580000  1.0 0.0188880872
H  H11  1  0.93020000  0.55490000  0.19680000  1.0 0.1267529514
H  H12  1  0.94100000  0.63690000  0.19550000  1.0 0.1267529514
H  H13  1  0.98230000  0.58820000  0.16520000  1.0 0.1138645411
H  H14  1  0.09340000  0.71490000  0.09240000  1.0 0.102080157
H  H15  1  0.10080000  0.62800000  0.14190000  1.0 0.1196870781
H  H16  1  0.03820000  0.76790000  0.22650000  1.0 0.1267529514
H  H17  1  0.03080000  0.85480000  0.17690000  1.0 0.1138645411
H  H18  1  0.17540000  0.71780000  0.22850000  1.0 0.0131958844
H  H19  1  0.18440000  0.70880000  0.27570000  1.0 0.0131958844
H  H20  1  0.23000000  0.66320000  0.24580000  1.0 0.0188880872
H  H21  1  0.55490000  0.06980000  0.19680000  1.0 0.1267529514
H  H22  1  0.63690000  0.05900000  0.19550000  1.0 0.1267529514
H  H23  1  0.58820000  0.01770000  0.16520000  1.0 0.1138645411
H  H24  1  0.71490000  0.90660000  0.09240000  1.0 0.102080157
H  H25  1  0.62800000  0.89920000  0.14190000  1.0 0.1196870781
H  H26  1  0.76790000  0.96180000  0.22650000  1.0 0.1267529514
H  H27  1  0.85480000  0.96920000  0.17690000  1.0 0.1138645411
H  H28  1  0.71780000  0.82460000  0.22850000  1.0 0.0131958844
H  H29  1  0.70880000  0.81560000  0.27570000  1.0 0.0131958844
H  H30  1  0.66320000  0.77000000  0.24580000  1.0 0.0188880872
H  H31  1  0.44510000  0.93020000  0.19680000  1.0 0.1267529514
H  H32  1  0.36310000  0.94100000  0.19550000  1.0 0.1267529514
H  H33  1  0.41180000  0.98230000  0.16520000  1.0 0.1138645411
H  H34  1  0.28510000  0.09340000  0.09240000  1.0 0.102080157
H  H35  1  0.37200000  0.10080000  0.14190000  1.0 0.1196870781
H  H36  1  0.23210000  0.03820000  0.22650000  1.0 0.1267529514
H  H37  1  0.14520000  0.03080000  0.17690000  1.0 0.1138645411
H  H38  1  0.28220000  0.17540000  0.22850000  1.0 0.0131958844
H  H39  1  0.29120000  0.18440000  0.27570000  1.0 0.0131958844
H  H40  1  0.33680000  0.23000000  0.24580000  1.0 0.0188880872
H  H41  1  0.43020000  0.94510000  0.30320000  1.0 0.1267529514
H  H42  1  0.44100000  0.86310000  0.30450000  1.0 0.1267529514
H  H43  1  0.48230000  0.91180000  0.33480000  1.0 0.1138645411
H  H44  1  0.59340000  0.78510000  0.40760000  1.0 0.102080157
H  H45  1  0.60080000  0.87200000  0.35810000  1.0 0.1196870781
H  H46  1  0.53820000  0.73210000  0.27350000  1.0 0.1267529514
H  H47  1  0.53080000  0.64520000  0.32310000  1.0 0.1138645411
H  H48  1  0.67540000  0.78220000  0.27150000  1.0 0.0131958844
H  H49  1  0.68440000  0.79120000  0.22430000  1.0 0.0131958844
H  H50  1  0.73000000  0.83680000  0.25420000  1.0 0.0188880872
H  H51  1  0.56980000  0.05490000  0.30320000  1.0 0.1267529514
H  H52  1  0.55900000  0.13690000  0.30450000  1.0 0.1267529514
H  H53  1  0.51770000  0.08820000  0.33480000  1.0 0.1138645411
H  H54  1  0.40660000  0.21490000  0.40760000  1.0 0.102080157
H  H55  1  0.39920000  0.12800000  0.35810000  1.0 0.1196870781
H  H56  1  0.46180000  0.26790000  0.27350000  1.0 0.1267529514
H  H57  1  0.46920000  0.35480000  0.32310000  1.0 0.1138645411
H  H58  1  0.32460000  0.21780000  0.27150000  1.0 0.0131958844
H  H59  1  0.31560000  0.20880000  0.22430000  1.0 0.0131958844
H  H60  1  0.27000000  0.16320000  0.25420000  1.0 0.0188880872
H  H61  1  0.94510000  0.56980000  0.30320000  1.0 0.1267529514
H  H62  1  0.86310000  0.55900000  0.30450000  1.0 0.1267529514
H  H63  1  0.91180000  0.51770000  0.33480000  1.0 0.1138645411
H  H64  1  0.78510000  0.40660000  0.40760000  1.0 0.102080157
H  H65  1  0.87200000  0.39920000  0.35810000  1.0 0.1196870781
H  H66  1  0.73210000  0.46180000  0.27350000  1.0 0.1267529514
H  H67  1  0.64520000  0.46920000  0.32310000  1.0 0.1138645411
H  H68  1  0.78220000  0.32460000  0.27150000  1.0 0.0131958844
H  H69  1  0.79120000  0.31560000  0.22430000  1.0 0.0131958844
H  H70  1  0.83680000  0.27000000  0.25420000  1.0 0.0188880872
H  H71  1  0.05490000  0.43020000  0.30320000  1.0 0.1267529514
H  H72  1  0.13690000  0.44100000  0.30450000  1.0 0.1267529514
H  H73  1  0.08820000  0.48230000  0.33480000  1.0 0.1138645411
H  H74  1  0.21490000  0.59340000  0.40760000  1.0 0.102080157
H  H75  1  0.12800000  0.60080000  0.35810000  1.0 0.1196870781
H  H76  1  0.26790000  0.53820000  0.27350000  1.0 0.1267529514
H  H77  1  0.35480000  0.53080000  0.32310000  1.0 0.1138645411
H  H78  1  0.21780000  0.67540000  0.27150000  1.0 0.0131958844
H  H79  1  0.20880000  0.68440000  0.22430000  1.0 0.0131958844
H  H80  1  0.16320000  0.73000000  0.25420000  1.0 0.0188880872
H  H81  1  0.93020000  0.55490000  0.80320000  1.0 0.1267529514
H  H82  1  0.94100000  0.63690000  0.80450000  1.0 0.1267529514
H  H83  1  0.98230000  0.58820000  0.83480000  1.0 0.1138645411
H  H84  1  0.09340000  0.71490000  0.90760000  1.0 0.102080157
H  H85  1  0.10080000  0.62800000  0.85810000  1.0 0.1196870781
H  H86  1  0.03820000  0.76790000  0.77350000  1.0 0.1267529514
H  H87  1  0.03080000  0.85480000  0.82310000  1.0 0.1138645411
H  H88  1  0.17540000  0.71780000  0.77150000  1.0 0.0131958844
H  H89  1  0.18440000  0.70880000  0.72430000  1.0 0.0131958844
H  H90  1  0.23000000  0.66320000  0.75420000  1.0 0.0188880872
H  H91  1  0.06980000  0.44510000  0.80320000  1.0 0.1267529514
H  H92  1  0.05900000  0.36310000  0.80450000  1.0 0.1267529514
H  H93  1  0.01770000  0.41180000  0.83480000  1.0 0.1138645411
H  H94  1  0.90660000  0.28510000  0.90760000  1.0 0.102080157
H  H95  1  0.89920000  0.37200000  0.85810000  1.0 0.1196870781
H  H96  1  0.96180000  0.23210000  0.77350000  1.0 0.1267529514
H  H97  1  0.96920000  0.14520000  0.82310000  1.0 0.1138645411
H  H98  1  0.82460000  0.28220000  0.77150000  1.0 0.0131958844
H  H99  1  0.81560000  0.29120000  0.72430000  1.0 0.0131958844
H  H100  1  0.77000000  0.33680000  0.75420000  1.0 0.0188880872
H  H101  1  0.44510000  0.93020000  0.80320000  1.0 0.1267529514
H  H102  1  0.36310000  0.94100000  0.80450000  1.0 0.1267529514
H  H103  1  0.41180000  0.98230000  0.83480000  1.0 0.1138645411
H  H104  1  0.28510000  0.09340000  0.90760000  1.0 0.102080157
H  H105  1  0.37200000  0.10080000  0.85810000  1.0 0.1196870781
H  H106  1  0.23210000  0.03820000  0.77350000  1.0 0.1267529514
H  H107  1  0.14520000  0.03080000  0.82310000  1.0 0.1138645411
H  H108  1  0.28220000  0.17540000  0.77150000  1.0 0.0131958844
H  H109  1  0.29120000  0.18440000  0.72430000  1.0 0.0131958844
H  H110  1  0.33680000  0.23000000  0.75420000  1.0 0.0188880872
H  H111  1  0.55490000  0.06980000  0.80320000  1.0 0.1267529514
H  H112  1  0.63690000  0.05900000  0.80450000  1.0 0.1267529514
H  H113  1  0.58820000  0.01770000  0.83480000  1.0 0.1138645411
H  H114  1  0.71490000  0.90660000  0.90760000  1.0 0.102080157
H  H115  1  0.62800000  0.89920000  0.85810000  1.0 0.1196870781
H  H116  1  0.76790000  0.96180000  0.77350000  1.0 0.1267529514
H  H117  1  0.85480000  0.96920000  0.82310000  1.0 0.1138645411
H  H118  1  0.71780000  0.82460000  0.77150000  1.0 0.0131958844
H  H119  1  0.70880000  0.81560000  0.72430000  1.0 0.0131958844
H  H120  1  0.66320000  0.77000000  0.75420000  1.0 0.0188880872
H  H121  1  0.56980000  0.05490000  0.69680000  1.0 0.1267529514
H  H122  1  0.55900000  0.13690000  0.69550000  1.0 0.1267529514
H  H123  1  0.51770000  0.08820000  0.66520000  1.0 0.1138645411
H  H124  1  0.40660000  0.21490000  0.59240000  1.0 0.102080157
H  H125  1  0.39920000  0.12800000  0.64190000  1.0 0.1196870781
H  H126  1  0.46180000  0.26790000  0.72650000  1.0 0.1267529514
H  H127  1  0.46920000  0.35480000  0.67690000  1.0 0.1138645411
H  H128  1  0.32460000  0.21780000  0.72850000  1.0 0.0131958844
H  H129  1  0.31560000  0.20880000  0.77570000  1.0 0.0131958844
H  H130  1  0.27000000  0.16320000  0.74580000  1.0 0.0188880872
H  H131  1  0.43020000  0.94510000  0.69680000  1.0 0.1267529514
H  H132  1  0.44100000  0.86310000  0.69550000  1.0 0.1267529514
H  H133  1  0.48230000  0.91180000  0.66520000  1.0 0.1138645411
H  H134  1  0.59340000  0.78510000  0.59240000  1.0 0.102080157
H  H135  1  0.60080000  0.87200000  0.64190000  1.0 0.1196870781
H  H136  1  0.53820000  0.73210000  0.72650000  1.0 0.1267529514
H  H137  1  0.53080000  0.64520000  0.67690000  1.0 0.1138645411
H  H138  1  0.67540000  0.78220000  0.72850000  1.0 0.0131958844
H  H139  1  0.68440000  0.79120000  0.77570000  1.0 0.0131958844
H  H140  1  0.73000000  0.83680000  0.74580000  1.0 0.0188880872
H  H141  1  0.05490000  0.43020000  0.69680000  1.0 0.1267529514
H  H142  1  0.13690000  0.44100000  0.69550000  1.0 0.1267529514
H  H143  1  0.08820000  0.48230000  0.66520000  1.0 0.1138645411
H  H144  1  0.21490000  0.59340000  0.59240000  1.0 0.102080157
H  H145  1  0.12800000  0.60080000  0.64190000  1.0 0.1196870781
H  H146  1  0.26790000  0.53820000  0.72650000  1.0 0.1267529514
H  H147  1  0.35480000  0.53080000  0.67690000  1.0 0.1138645411
H  H148  1  0.21780000  0.67540000  0.72850000  1.0 0.0131958844
H  H149  1  0.20880000  0.68440000  0.77570000  1.0 0.0131958844
H  H150  1  0.16320000  0.73000000  0.74580000  1.0 0.0188880872
H  H151  1  0.94510000  0.56980000  0.69680000  1.0 0.1267529514
H  H152  1  0.86310000  0.55900000  0.69550000  1.0 0.1267529514
H  H153  1  0.91180000  0.51770000  0.66520000  1.0 0.1138645411
H  H154  1  0.78510000  0.40660000  0.59240000  1.0 0.102080157
H  H155  1  0.87200000  0.39920000  0.64190000  1.0 0.1196870781
H  H156  1  0.73210000  0.46180000  0.72650000  1.0 0.1267529514
H  H157  1  0.64520000  0.46920000  0.67690000  1.0 0.1138645411
H  H158  1  0.78220000  0.32460000  0.72850000  1.0 0.0131958844
H  H159  1  0.79120000  0.31560000  0.77570000  1.0 0.0131958844
H  H160  1  0.83680000  0.27000000  0.74580000  1.0 0.0188880872
C  C1  1  0.97690000  0.41440000  0.22240000  1.0 0.0188880872
C  C2  1  0.94380000  0.14900000  0.09810000  1.0 0.6116493545
C  C3  1  0.92470000  0.36690000  0.22080000  1.0 -0.0433313024
C  C4  1  0.03620000  0.40800000  0.19230000  1.0 -0.4168951758
C  C5  1  0.91760000  0.27450000  0.11920000  1.0 -0.0984621492
C  C6  1  0.91320000  0.32660000  0.14890000  1.0 -0.132448805
C  C7  1  0.92980000  0.31070000  0.18910000  1.0 0.0577580943
C  C8  1  0.95080000  0.24270000  0.19960000  1.0 -0.132448805
C  C9  1  0.95520000  0.19060000  0.16990000  1.0 -0.0984621492
C  C10  1  0.93860000  0.20650000  0.12970000  1.0 -0.0292965258
C  C11  1  0.02310000  0.58560000  0.22240000  1.0 0.0188880872
C  C12  1  0.05620000  0.85100000  0.09810000  1.0 0.6116493545
C  C13  1  0.07530000  0.63310000  0.22080000  1.0 -0.0433313024
C  C14  1  0.96380000  0.59200000  0.19230000  1.0 -0.4168951758
C  C15  1  0.08240000  0.72550000  0.11920000  1.0 -0.0984621492
C  C16  1  0.08680000  0.67340000  0.14890000  1.0 -0.132448805
C  C17  1  0.07020000  0.68930000  0.18910000  1.0 0.0577580943
C  C18  1  0.04920000  0.75730000  0.19960000  1.0 -0.132448805
C  C19  1  0.04480000  0.80940000  0.16990000  1.0 -0.0984621492
C  C20  1  0.06140000  0.79350000  0.12970000  1.0 -0.0292965258
C  C21  1  0.58560000  0.97690000  0.22240000  1.0 0.0188880872
C  C22  1  0.85100000  0.94380000  0.09810000  1.0 0.6116493545
C  C23  1  0.63310000  0.92470000  0.22080000  1.0 -0.0433313024
C  C24  1  0.59200000  0.03620000  0.19230000  1.0 -0.4168951758
C  C25  1  0.72550000  0.91760000  0.11920000  1.0 -0.0984621492
C  C26  1  0.67340000  0.91320000  0.14890000  1.0 -0.132448805
C  C27  1  0.68930000  0.92980000  0.18910000  1.0 0.0577580943
C  C28  1  0.75730000  0.95080000  0.19960000  1.0 -0.132448805
C  C29  1  0.80940000  0.95520000  0.16990000  1.0 -0.0984621492
C  C30  1  0.79350000  0.93860000  0.12970000  1.0 -0.0292965258
C  C31  1  0.41440000  0.02310000  0.22240000  1.0 0.0188880872
C  C32  1  0.14900000  0.05620000  0.09810000  1.0 0.6116493545
C  C33  1  0.36690000  0.07530000  0.22080000  1.0 -0.0433313024
C  C34  1  0.40800000  0.96380000  0.19230000  1.0 -0.4168951758
C  C35  1  0.27450000  0.08240000  0.11920000  1.0 -0.0984621492
C  C36  1  0.32660000  0.08680000  0.14890000  1.0 -0.132448805
C  C37  1  0.31070000  0.07020000  0.18910000  1.0 0.0577580943
C  C38  1  0.24270000  0.04920000  0.19960000  1.0 -0.132448805
C  C39  1  0.19060000  0.04480000  0.16990000  1.0 -0.0984621492
C  C40  1  0.20650000  0.06140000  0.12970000  1.0 -0.0292965258
C  C41  1  0.52310000  0.91440000  0.27760000  1.0 0.0188880872
C  C42  1  0.55620000  0.64900000  0.40190000  1.0 0.6116493545
C  C43  1  0.57530000  0.86690000  0.27920000  1.0 -0.0433313024
C  C44  1  0.46380000  0.90800000  0.30770000  1.0 -0.4168951758
C  C45  1  0.58240000  0.77450000  0.38080000  1.0 -0.0984621492
C  C46  1  0.58680000  0.82660000  0.35110000  1.0 -0.132448805
C  C47  1  0.57020000  0.81070000  0.31090000  1.0 0.0577580943
C  C48  1  0.54920000  0.74270000  0.30040000  1.0 -0.132448805
C  C49  1  0.54480000  0.69060000  0.33010000  1.0 -0.0984621492
C  C50  1  0.56140000  0.70650000  0.37030000  1.0 -0.0292965258
C  C51  1  0.47690000  0.08560000  0.27760000  1.0 0.0188880872
C  C52  1  0.44380000  0.35100000  0.40190000  1.0 0.6116493545
C  C53  1  0.42470000  0.13310000  0.27920000  1.0 -0.0433313024
C  C54  1  0.53620000  0.09200000  0.30770000  1.0 -0.4168951758
C  C55  1  0.41760000  0.22550000  0.38080000  1.0 -0.0984621492
C  C56  1  0.41320000  0.17340000  0.35110000  1.0 -0.132448805
C  C57  1  0.42980000  0.18930000  0.31090000  1.0 0.0577580943
C  C58  1  0.45080000  0.25730000  0.30040000  1.0 -0.132448805
C  C59  1  0.45520000  0.30940000  0.33010000  1.0 -0.0984621492
C  C60  1  0.43860000  0.29350000  0.37030000  1.0 -0.0292965258
C  C61  1  0.91440000  0.47690000  0.27760000  1.0 0.0188880872
C  C62  1  0.64900000  0.44380000  0.40190000  1.0 0.6116493545
C  C63  1  0.86690000  0.42470000  0.27920000  1.0 -0.0433313024
C  C64  1  0.90800000  0.53620000  0.30770000  1.0 -0.4168951758
C  C65  1  0.77450000  0.41760000  0.38080000  1.0 -0.0984621492
C  C66  1  0.82660000  0.41320000  0.35110000  1.0 -0.132448805
C  C67  1  0.81070000  0.42980000  0.31090000  1.0 0.0577580943
C  C68  1  0.74270000  0.45080000  0.30040000  1.0 -0.132448805
C  C69  1  0.69060000  0.45520000  0.33010000  1.0 -0.0984621492
C  C70  1  0.70650000  0.43860000  0.37030000  1.0 -0.0292965258
C  C71  1  0.08560000  0.52310000  0.27760000  1.0 0.0188880872
C  C72  1  0.35100000  0.55620000  0.40190000  1.0 0.6116493545
C  C73  1  0.13310000  0.57530000  0.27920000  1.0 -0.0433313024
C  C74  1  0.09200000  0.46380000  0.30770000  1.0 -0.4168951758
C  C75  1  0.22550000  0.58240000  0.38080000  1.0 -0.0984621492
C  C76  1  0.17340000  0.58680000  0.35110000  1.0 -0.132448805
C  C77  1  0.18930000  0.57020000  0.31090000  1.0 0.0577580943
C  C78  1  0.25730000  0.54920000  0.30040000  1.0 -0.132448805
C  C79  1  0.30940000  0.54480000  0.33010000  1.0 -0.0984621492
C  C80  1  0.29350000  0.56140000  0.37030000  1.0 -0.0292965258
C  C81  1  0.02310000  0.58560000  0.77760000  1.0 0.0188880872
C  C82  1  0.05620000  0.85100000  0.90190000  1.0 0.6116493545
C  C83  1  0.07530000  0.63310000  0.77920000  1.0 -0.0433313024
C  C84  1  0.96380000  0.59200000  0.80770000  1.0 -0.4168951758
C  C85  1  0.08240000  0.72550000  0.88080000  1.0 -0.0984621492
C  C86  1  0.08680000  0.67340000  0.85110000  1.0 -0.132448805
C  C87  1  0.07020000  0.68930000  0.81090000  1.0 0.0577580943
C  C88  1  0.04920000  0.75730000  0.80040000  1.0 -0.132448805
C  C89  1  0.04480000  0.80940000  0.83010000  1.0 -0.0984621492
C  C90  1  0.06140000  0.79350000  0.87030000  1.0 -0.0292965258
C  C91  1  0.97690000  0.41440000  0.77760000  1.0 0.0188880872
C  C92  1  0.94380000  0.14900000  0.90190000  1.0 0.6116493545
C  C93  1  0.92470000  0.36690000  0.77920000  1.0 -0.0433313024
C  C94  1  0.03620000  0.40800000  0.80770000  1.0 -0.4168951758
C  C95  1  0.91760000  0.27450000  0.88080000  1.0 -0.0984621492
C  C96  1  0.91320000  0.32660000  0.85110000  1.0 -0.132448805
C  C97  1  0.92980000  0.31070000  0.81090000  1.0 0.0577580943
C  C98  1  0.95080000  0.24270000  0.80040000  1.0 -0.132448805
C  C99  1  0.95520000  0.19060000  0.83010000  1.0 -0.0984621492
C  C100  1  0.93860000  0.20650000  0.87030000  1.0 -0.0292965258
C  C101  1  0.41440000  0.02310000  0.77760000  1.0 0.0188880872
C  C102  1  0.14900000  0.05620000  0.90190000  1.0 0.6116493545
C  C103  1  0.36690000  0.07530000  0.77920000  1.0 -0.0433313024
C  C104  1  0.40800000  0.96380000  0.80770000  1.0 -0.4168951758
C  C105  1  0.27450000  0.08240000  0.88080000  1.0 -0.0984621492
C  C106  1  0.32660000  0.08680000  0.85110000  1.0 -0.132448805
C  C107  1  0.31070000  0.07020000  0.81090000  1.0 0.0577580943
C  C108  1  0.24270000  0.04920000  0.80040000  1.0 -0.132448805
C  C109  1  0.19060000  0.04480000  0.83010000  1.0 -0.0984621492
C  C110  1  0.20650000  0.06140000  0.87030000  1.0 -0.0292965258
C  C111  1  0.58560000  0.97690000  0.77760000  1.0 0.0188880872
C  C112  1  0.85100000  0.94380000  0.90190000  1.0 0.6116493545
C  C113  1  0.63310000  0.92470000  0.77920000  1.0 -0.0433313024
C  C114  1  0.59200000  0.03620000  0.80770000  1.0 -0.4168951758
C  C115  1  0.72550000  0.91760000  0.88080000  1.0 -0.0984621492
C  C116  1  0.67340000  0.91320000  0.85110000  1.0 -0.132448805
C  C117  1  0.68930000  0.92980000  0.81090000  1.0 0.0577580943
C  C118  1  0.75730000  0.95080000  0.80040000  1.0 -0.132448805
C  C119  1  0.80940000  0.95520000  0.83010000  1.0 -0.0984621492
C  C120  1  0.79350000  0.93860000  0.87030000  1.0 -0.0292965258
C  C121  1  0.47690000  0.08560000  0.72240000  1.0 0.0188880872
C  C122  1  0.44380000  0.35100000  0.59810000  1.0 0.6116493545
C  C123  1  0.42470000  0.13310000  0.72080000  1.0 -0.0433313024
C  C124  1  0.53620000  0.09200000  0.69230000  1.0 -0.4168951758
C  C125  1  0.41760000  0.22550000  0.61920000  1.0 -0.0984621492
C  C126  1  0.41320000  0.17340000  0.64890000  1.0 -0.132448805
C  C127  1  0.42980000  0.18930000  0.68910000  1.0 0.0577580943
C  C128  1  0.45080000  0.25730000  0.69960000  1.0 -0.132448805
C  C129  1  0.45520000  0.30940000  0.66990000  1.0 -0.0984621492
C  C130  1  0.43860000  0.29350000  0.62970000  1.0 -0.0292965258
C  C131  1  0.52310000  0.91440000  0.72240000  1.0 0.0188880872
C  C132  1  0.55620000  0.64900000  0.59810000  1.0 0.6116493545
C  C133  1  0.57530000  0.86690000  0.72080000  1.0 -0.0433313024
C  C134  1  0.46380000  0.90800000  0.69230000  1.0 -0.4168951758
C  C135  1  0.58240000  0.77450000  0.61920000  1.0 -0.0984621492
C  C136  1  0.58680000  0.82660000  0.64890000  1.0 -0.132448805
C  C137  1  0.57020000  0.81070000  0.68910000  1.0 0.0577580943
C  C138  1  0.54920000  0.74270000  0.69960000  1.0 -0.132448805
C  C139  1  0.54480000  0.69060000  0.66990000  1.0 -0.0984621492
C  C140  1  0.56140000  0.70650000  0.62970000  1.0 -0.0292965258
C  C141  1  0.08560000  0.52310000  0.72240000  1.0 0.0188880872
C  C142  1  0.35100000  0.55620000  0.59810000  1.0 0.6116493545
C  C143  1  0.13310000  0.57530000  0.72080000  1.0 -0.0433313024
C  C144  1  0.09200000  0.46380000  0.69230000  1.0 -0.4168951758
C  C145  1  0.22550000  0.58240000  0.61920000  1.0 -0.0984621492
C  C146  1  0.17340000  0.58680000  0.64890000  1.0 -0.132448805
C  C147  1  0.18930000  0.57020000  0.68910000  1.0 0.0577580943
C  C148  1  0.25730000  0.54920000  0.69960000  1.0 -0.132448805
C  C149  1  0.30940000  0.54480000  0.66990000  1.0 -0.0984621492
C  C150  1  0.29350000  0.56140000  0.62970000  1.0 -0.0292965258
C  C151  1  0.91440000  0.47690000  0.72240000  1.0 0.0188880872
C  C152  1  0.64900000  0.44380000  0.59810000  1.0 0.6116493545
C  C153  1  0.86690000  0.42470000  0.72080000  1.0 -0.0433313024
C  C154  1  0.90800000  0.53620000  0.69230000  1.0 -0.4168951758
C  C155  1  0.77450000  0.41760000  0.61920000  1.0 -0.0984621492
C  C156  1  0.82660000  0.41320000  0.64890000  1.0 -0.132448805
C  C157  1  0.81070000  0.42980000  0.68910000  1.0 0.0577580943
C  C158  1  0.74270000  0.45080000  0.69960000  1.0 -0.132448805
C  C159  1  0.69060000  0.45520000  0.66990000  1.0 -0.0984621492
C  C160  1  0.70650000  0.43860000  0.62970000  1.0 -0.0292965258
C  C161  1  0.97180000  0.47180000  0.25000000  1.0 -0.0071606873
C  C162  1  0.87120000  0.37120000  0.25000000  1.0 -0.0433313024
C  C163  1  0.81530000  0.31530000  0.25000000  1.0 -0.1663312687
C  C164  1  0.02820000  0.52820000  0.25000000  1.0 -0.0071606873
C  C165  1  0.12880000  0.62880000  0.25000000  1.0 -0.0433313024
C  C166  1  0.18470000  0.68470000  0.25000000  1.0 -0.1663312687
C  C167  1  0.52820000  0.97180000  0.25000000  1.0 -0.0071606873
C  C168  1  0.62880000  0.87120000  0.25000000  1.0 -0.0433313024
C  C169  1  0.68470000  0.81530000  0.25000000  1.0 -0.1663312687
C  C170  1  0.47180000  0.02820000  0.25000000  1.0 -0.0071606873
C  C171  1  0.37120000  0.12880000  0.25000000  1.0 -0.0433313024
C  C172  1  0.31530000  0.18470000  0.25000000  1.0 -0.1640293919
C  C173  1  0.02820000  0.52820000  0.75000000  1.0 -0.0071606873
C  C174  1  0.12880000  0.62880000  0.75000000  1.0 -0.0433313024
C  C175  1  0.18470000  0.68470000  0.75000000  1.0 -0.1663312687
C  C176  1  0.97180000  0.47180000  0.75000000  1.0 -0.0071606873
C  C177  1  0.87120000  0.37120000  0.75000000  1.0 -0.0433313024
C  C178  1  0.81530000  0.31530000  0.75000000  1.0 -0.1663312687
C  C179  1  0.47180000  0.02820000  0.75000000  1.0 -0.0071606873
C  C180  1  0.37120000  0.12880000  0.75000000  1.0 -0.0433313024
C  C181  1  0.31530000  0.18470000  0.75000000  1.0 -0.1640293919
C  C182  1  0.52820000  0.97180000  0.75000000  1.0 -0.0071606873
C  C183  1  0.62880000  0.87120000  0.75000000  1.0 -0.0433313024
C  C184  1  0.68470000  0.81530000  0.75000000  1.0 -0.1663312687
O  O1  1  0.97070000  0.09360000  0.10780000  1.0 -0.5433612377
O  O2  1  0.93720000  0.17240000  0.06090000  1.0 -0.6232920461
O  O3  1  0.03960000  0.08400000  0.03480000  1.0 -1.1337105878
O  O4  1  0.02930000  0.90640000  0.10780000  1.0 -0.5433612377
O  O5  1  0.06280000  0.82760000  0.06090000  1.0 -0.6232920461
O  O6  1  0.96040000  0.91600000  0.03480000  1.0 -1.1337105878
O  O7  1  0.90640000  0.97070000  0.10780000  1.0 -0.5433612377
O  O8  1  0.82760000  0.93720000  0.06090000  1.0 -0.6232920461
O  O9  1  0.91600000  0.03960000  0.03480000  1.0 -1.1337105878
O  O10  1  0.09360000  0.02930000  0.10780000  1.0 -0.5433612377
O  O11  1  0.17240000  0.06280000  0.06090000  1.0 -0.6232920461
O  O12  1  0.08400000  0.96040000  0.03480000  1.0 -1.1337105878
O  O13  1  0.52930000  0.59360000  0.39220000  1.0 -0.5433612377
O  O14  1  0.56280000  0.67240000  0.43910000  1.0 -0.6232920461
O  O15  1  0.46040000  0.58400000  0.46520000  1.0 -1.1337105878
O  O16  1  0.47070000  0.40640000  0.39220000  1.0 -0.5433612377
O  O17  1  0.43720000  0.32760000  0.43910000  1.0 -0.6232920461
O  O18  1  0.53960000  0.41600000  0.46520000  1.0 -1.1337105878
O  O19  1  0.59360000  0.47070000  0.39220000  1.0 -0.5433612377
O  O20  1  0.67240000  0.43720000  0.43910000  1.0 -0.6232920461
O  O21  1  0.58400000  0.53960000  0.46520000  1.0 -1.1337105878
O  O22  1  0.40640000  0.52930000  0.39220000  1.0 -0.5433612377
O  O23  1  0.32760000  0.56280000  0.43910000  1.0 -0.6232920461
O  O24  1  0.41600000  0.46040000  0.46520000  1.0 -1.1337105878
O  O25  1  0.02930000  0.90640000  0.89220000  1.0 -0.5433612377
O  O26  1  0.06280000  0.82760000  0.93910000  1.0 -0.6232920461
O  O27  1  0.96040000  0.91600000  0.96520000  1.0 -1.1337105878
O  O28  1  0.97070000  0.09360000  0.89220000  1.0 -0.5433612377
O  O29  1  0.93720000  0.17240000  0.93910000  1.0 -0.6232920461
O  O30  1  0.03960000  0.08400000  0.96520000  1.0 -1.1337105878
O  O31  1  0.09360000  0.02930000  0.89220000  1.0 -0.5433612377
O  O32  1  0.17240000  0.06280000  0.93910000  1.0 -0.6232920461
O  O33  1  0.08400000  0.96040000  0.96520000  1.0 -1.1337105878
O  O34  1  0.90640000  0.97070000  0.89220000  1.0 -0.5433612377
O  O35  1  0.82760000  0.93720000  0.93910000  1.0 -0.6232920461
O  O36  1  0.91600000  0.03960000  0.96520000  1.0 -1.1337105878
O  O37  1  0.47070000  0.40640000  0.60780000  1.0 -0.5433612377
O  O38  1  0.43720000  0.32760000  0.56090000  1.0 -0.6232920461
O  O39  1  0.53960000  0.41600000  0.53480000  1.0 -1.1337105878
O  O40  1  0.52930000  0.59360000  0.60780000  1.0 -0.5433612377
O  O41  1  0.56280000  0.67240000  0.56090000  1.0 -0.6232920461
O  O42  1  0.46040000  0.58400000  0.53480000  1.0 -1.1337105878
O  O43  1  0.40640000  0.52930000  0.60780000  1.0 -0.5433612377
O  O44  1  0.32760000  0.56280000  0.56090000  1.0 -0.6232920461
O  O45  1  0.41600000  0.46040000  0.53480000  1.0 -1.1337105878
O  O46  1  0.59360000  0.47070000  0.60780000  1.0 -0.5433612377
O  O47  1  0.67240000  0.43720000  0.56090000  1.0 -0.6232920461
O  O48  1  0.58400000  0.53960000  0.53480000  1.0 -1.1337105878
