# DDEC6 charges by PACMAN v1.1 (https://github.com/mtap-research/PACMAN-charge/)
data_NEVSUF11_ASR_pacman
_symmetry_space_group_name_H-M   'P 1'
_cell_length_a   18.91110000
_cell_length_b   18.91110000
_cell_length_c   33.19660000
_cell_angle_alpha   90.00000000
_cell_angle_beta   90.00000000
_cell_angle_gamma   90.00000000
_symmetry_Int_Tables_number   1
_chemical_formula_structural   Zr3H40(C23O6)2
_chemical_formula_sum   'Zr12 H160 C184 O48'
_cell_volume   11872.09020558
_cell_formula_units_Z   4
loop_
 _symmetry_equiv_pos_site_id
 _symmetry_equiv_pos_as_xyz
  1  'x, y, z'
loop_
 _atom_site_type_symbol
 _atom_site_label
 _atom_site_symmetry_multiplicity
 _atom_site_fract_x
 _atom_site_fract_y
 _atom_site_fract_z
 _atom_site_occupancy
 _atom_site_charge
Zr  Zr1  1  0.50000000  0.50000000  0.42647000  1.0 2.3308451373
Zr  Zr2  1  0.00000000  0.00000000  0.07353000  1.0 2.3308451373
Zr  Zr3  1  0.50000000  0.50000000  0.57353000  1.0 2.3308451373
Zr  Zr4  1  0.00000000  0.00000000  0.92647000  1.0 2.3308451373
Zr  Zr5  1  0.54708000  0.62296000  0.50000000  1.0 2.4540980656
Zr  Zr6  1  0.45292000  0.37704000  0.50000000  1.0 2.4540980656
Zr  Zr7  1  0.37704000  0.54708000  0.50000000  1.0 2.4540980656
Zr  Zr8  1  0.62296000  0.45292000  0.50000000  1.0 2.4540980656
Zr  Zr9  1  0.95292000  0.12296000  0.00000000  1.0 2.4615096052
Zr  Zr10  1  0.04708000  0.87704000  0.00000000  1.0 2.4615096052
Zr  Zr11  1  0.12296000  0.04708000  0.00000000  1.0 2.4615096052
Zr  Zr12  1  0.87704000  0.95292000  0.00000000  1.0 2.4615096052
H  H1  1  0.52030000  0.06040000  0.33320000  1.0 0.1125921357
H  H2  1  0.53850000  0.13600000  0.31670000  1.0 0.1278093674
H  H3  1  0.57520000  0.06910000  0.29810000  1.0 0.1278093674
H  H4  1  0.46060000  0.35240000  0.32390000  1.0 0.1222836908
H  H5  1  0.40930000  0.21080000  0.40880000  1.0 0.1039982738
H  H6  1  0.45590000  0.26750000  0.27590000  1.0 0.1278093674
H  H7  1  0.39580000  0.12420000  0.35780000  1.0 0.1222836908
H  H8  1  0.31910000  0.22190000  0.27170000  1.0 0.0040238548
H  H9  1  0.31170000  0.21450000  0.22490000  1.0 0.0126559176
H  H10  1  0.26500000  0.16780000  0.25340000  1.0 0.0126559176
H  H11  1  0.47970000  0.93960000  0.33320000  1.0 0.1125921357
H  H12  1  0.46150000  0.86400000  0.31670000  1.0 0.1278093674
H  H13  1  0.42480000  0.93090000  0.29810000  1.0 0.1278093674
H  H14  1  0.53940000  0.64760000  0.32390000  1.0 0.1222836908
H  H15  1  0.59070000  0.78920000  0.40880000  1.0 0.1039982738
H  H16  1  0.54410000  0.73250000  0.27590000  1.0 0.1278093674
H  H17  1  0.60420000  0.87580000  0.35780000  1.0 0.1222836908
H  H18  1  0.68090000  0.77810000  0.27170000  1.0 0.0040238548
H  H19  1  0.68830000  0.78550000  0.22490000  1.0 0.0126559176
H  H20  1  0.73500000  0.83220000  0.25340000  1.0 0.0126559176
H  H21  1  0.93960000  0.52030000  0.33320000  1.0 0.1125921357
H  H22  1  0.86400000  0.53850000  0.31670000  1.0 0.1278093674
H  H23  1  0.93090000  0.57520000  0.29810000  1.0 0.1278093674
H  H24  1  0.64760000  0.46060000  0.32390000  1.0 0.1222836908
H  H25  1  0.78920000  0.40930000  0.40880000  1.0 0.1039982738
H  H26  1  0.73250000  0.45590000  0.27590000  1.0 0.1278093674
H  H27  1  0.87580000  0.39580000  0.35780000  1.0 0.1222836908
H  H28  1  0.77810000  0.31910000  0.27170000  1.0 0.0040238548
H  H29  1  0.78550000  0.31170000  0.22490000  1.0 0.0126559176
H  H30  1  0.83220000  0.26500000  0.25340000  1.0 0.0126559176
H  H31  1  0.06040000  0.47970000  0.33320000  1.0 0.1125921357
H  H32  1  0.13600000  0.46150000  0.31670000  1.0 0.1278093674
H  H33  1  0.06910000  0.42480000  0.29810000  1.0 0.1278093674
H  H34  1  0.35240000  0.53940000  0.32390000  1.0 0.1222836908
H  H35  1  0.21080000  0.59070000  0.40880000  1.0 0.1039982738
H  H36  1  0.26750000  0.54410000  0.27590000  1.0 0.1278093674
H  H37  1  0.12420000  0.60420000  0.35780000  1.0 0.1222836908
H  H38  1  0.22190000  0.68090000  0.27170000  1.0 0.0040238548
H  H39  1  0.21450000  0.68830000  0.22490000  1.0 0.0126559176
H  H40  1  0.16780000  0.73500000  0.25340000  1.0 0.0126559176
H  H41  1  0.97970000  0.56040000  0.16680000  1.0 0.1125921357
H  H42  1  0.96150000  0.63600000  0.18330000  1.0 0.1278093674
H  H43  1  0.92480000  0.56910000  0.20190000  1.0 0.1278093674
H  H44  1  0.03940000  0.85240000  0.17610000  1.0 0.1222836908
H  H45  1  0.09070000  0.71080000  0.09120000  1.0 0.1039982738
H  H46  1  0.04410000  0.76750000  0.22410000  1.0 0.1278093674
H  H47  1  0.10420000  0.62420000  0.14220000  1.0 0.1222836908
H  H48  1  0.18090000  0.72190000  0.22830000  1.0 0.0126559176
H  H49  1  0.18830000  0.71450000  0.27510000  1.0 0.0186743307
H  H50  1  0.23500000  0.66780000  0.24660000  1.0 0.0186743307
H  H51  1  0.02030000  0.43960000  0.16680000  1.0 0.1125921357
H  H52  1  0.03850000  0.36400000  0.18330000  1.0 0.1278093674
H  H53  1  0.07520000  0.43090000  0.20190000  1.0 0.1278093674
H  H54  1  0.96060000  0.14760000  0.17610000  1.0 0.1222836908
H  H55  1  0.90930000  0.28920000  0.09120000  1.0 0.1039982738
H  H56  1  0.95590000  0.23250000  0.22410000  1.0 0.1278093674
H  H57  1  0.89580000  0.37580000  0.14220000  1.0 0.1222836908
H  H58  1  0.81910000  0.27810000  0.22830000  1.0 0.0126559176
H  H59  1  0.81170000  0.28550000  0.27510000  1.0 0.0186743307
H  H60  1  0.76500000  0.33220000  0.24660000  1.0 0.0186743307
H  H61  1  0.56040000  0.02030000  0.16680000  1.0 0.1125921357
H  H62  1  0.63600000  0.03850000  0.18330000  1.0 0.1278093674
H  H63  1  0.56910000  0.07520000  0.20190000  1.0 0.1278093674
H  H64  1  0.85240000  0.96060000  0.17610000  1.0 0.1222836908
H  H65  1  0.71080000  0.90930000  0.09120000  1.0 0.1039982738
H  H66  1  0.76750000  0.95590000  0.22410000  1.0 0.1278093674
H  H67  1  0.62420000  0.89580000  0.14220000  1.0 0.1222836908
H  H68  1  0.72190000  0.81910000  0.22830000  1.0 0.0126559176
H  H69  1  0.71450000  0.81170000  0.27510000  1.0 0.0186743307
H  H70  1  0.66780000  0.76500000  0.24660000  1.0 0.0186743307
H  H71  1  0.43960000  0.97970000  0.16680000  1.0 0.1125921357
H  H72  1  0.36400000  0.96150000  0.18330000  1.0 0.1278093674
H  H73  1  0.43090000  0.92480000  0.20190000  1.0 0.1278093674
H  H74  1  0.14760000  0.03940000  0.17610000  1.0 0.1222836908
H  H75  1  0.28920000  0.09070000  0.09120000  1.0 0.1039982738
H  H76  1  0.23250000  0.04410000  0.22410000  1.0 0.1278093674
H  H77  1  0.37580000  0.10420000  0.14220000  1.0 0.1222836908
H  H78  1  0.27810000  0.18090000  0.22830000  1.0 0.0126559176
H  H79  1  0.28550000  0.18830000  0.27510000  1.0 0.0186743307
H  H80  1  0.33220000  0.23500000  0.24660000  1.0 0.0186743307
H  H81  1  0.47970000  0.93960000  0.66680000  1.0 0.1125921357
H  H82  1  0.46150000  0.86400000  0.68330000  1.0 0.1278093674
H  H83  1  0.42480000  0.93090000  0.70190000  1.0 0.1278093674
H  H84  1  0.53940000  0.64760000  0.67610000  1.0 0.1222836908
H  H85  1  0.59070000  0.78920000  0.59120000  1.0 0.1039982738
H  H86  1  0.54410000  0.73250000  0.72410000  1.0 0.1278093674
H  H87  1  0.60420000  0.87580000  0.64220000  1.0 0.1222836908
H  H88  1  0.68090000  0.77810000  0.72830000  1.0 0.0126559176
H  H89  1  0.68830000  0.78550000  0.77510000  1.0 0.0186743307
H  H90  1  0.73500000  0.83220000  0.74660000  1.0 0.0186743307
H  H91  1  0.52030000  0.06040000  0.66680000  1.0 0.1125921357
H  H92  1  0.53850000  0.13600000  0.68330000  1.0 0.1278093674
H  H93  1  0.57520000  0.06910000  0.70190000  1.0 0.1278093674
H  H94  1  0.46060000  0.35240000  0.67610000  1.0 0.1222836908
H  H95  1  0.40930000  0.21080000  0.59120000  1.0 0.1039982738
H  H96  1  0.45590000  0.26750000  0.72410000  1.0 0.1278093674
H  H97  1  0.39580000  0.12420000  0.64220000  1.0 0.1222836908
H  H98  1  0.31910000  0.22190000  0.72830000  1.0 0.0126559176
H  H99  1  0.31170000  0.21450000  0.77510000  1.0 0.0126559176
H  H100  1  0.26500000  0.16780000  0.74660000  1.0 0.0186743307
H  H101  1  0.06040000  0.47970000  0.66680000  1.0 0.1125921357
H  H102  1  0.13600000  0.46150000  0.68330000  1.0 0.1278093674
H  H103  1  0.06910000  0.42480000  0.70190000  1.0 0.1278093674
H  H104  1  0.35240000  0.53940000  0.67610000  1.0 0.1222836908
H  H105  1  0.21080000  0.59070000  0.59120000  1.0 0.1039982738
H  H106  1  0.26750000  0.54410000  0.72410000  1.0 0.1278093674
H  H107  1  0.12420000  0.60420000  0.64220000  1.0 0.1222836908
H  H108  1  0.22190000  0.68090000  0.72830000  1.0 0.0126559176
H  H109  1  0.21450000  0.68830000  0.77510000  1.0 0.0126559176
H  H110  1  0.16780000  0.73500000  0.74660000  1.0 0.0186743307
H  H111  1  0.93960000  0.52030000  0.66680000  1.0 0.1125921357
H  H112  1  0.86400000  0.53850000  0.68330000  1.0 0.1278093674
H  H113  1  0.93090000  0.57520000  0.70190000  1.0 0.1278093674
H  H114  1  0.64760000  0.46060000  0.67610000  1.0 0.1222836908
H  H115  1  0.78920000  0.40930000  0.59120000  1.0 0.1039982738
H  H116  1  0.73250000  0.45590000  0.72410000  1.0 0.1278093674
H  H117  1  0.87580000  0.39580000  0.64220000  1.0 0.1222836908
H  H118  1  0.77810000  0.31910000  0.72830000  1.0 0.0126559176
H  H119  1  0.78550000  0.31170000  0.77510000  1.0 0.0186743307
H  H120  1  0.83220000  0.26500000  0.74660000  1.0 0.0186743307
H  H121  1  0.02030000  0.43960000  0.83320000  1.0 0.1125921357
H  H122  1  0.03850000  0.36400000  0.81670000  1.0 0.1278093674
H  H123  1  0.07520000  0.43090000  0.79810000  1.0 0.1278093674
H  H124  1  0.96060000  0.14760000  0.82390000  1.0 0.1222836908
H  H125  1  0.90930000  0.28920000  0.90880000  1.0 0.1039982738
H  H126  1  0.95590000  0.23250000  0.77590000  1.0 0.1278093674
H  H127  1  0.89580000  0.37580000  0.85780000  1.0 0.1222836908
H  H128  1  0.81910000  0.27810000  0.77170000  1.0 0.0126559176
H  H129  1  0.81170000  0.28550000  0.72490000  1.0 0.0186743307
H  H130  1  0.76500000  0.33220000  0.75340000  1.0 0.0186743307
H  H131  1  0.97970000  0.56040000  0.83320000  1.0 0.1125921357
H  H132  1  0.96150000  0.63600000  0.81670000  1.0 0.1278093674
H  H133  1  0.92480000  0.56910000  0.79810000  1.0 0.1278093674
H  H134  1  0.03940000  0.85240000  0.82390000  1.0 0.1222836908
H  H135  1  0.09070000  0.71080000  0.90880000  1.0 0.1039982738
H  H136  1  0.04410000  0.76750000  0.77590000  1.0 0.1278093674
H  H137  1  0.10420000  0.62420000  0.85780000  1.0 0.1222836908
H  H138  1  0.18090000  0.72190000  0.77170000  1.0 0.0126559176
H  H139  1  0.18830000  0.71450000  0.72490000  1.0 0.0126559176
H  H140  1  0.23500000  0.66780000  0.75340000  1.0 0.0186743307
H  H141  1  0.43960000  0.97970000  0.83320000  1.0 0.1125921357
H  H142  1  0.36400000  0.96150000  0.81670000  1.0 0.1278093674
H  H143  1  0.43090000  0.92480000  0.79810000  1.0 0.1278093674
H  H144  1  0.14760000  0.03940000  0.82390000  1.0 0.1222836908
H  H145  1  0.28920000  0.09070000  0.90880000  1.0 0.1039982738
H  H146  1  0.23250000  0.04410000  0.77590000  1.0 0.1278093674
H  H147  1  0.37580000  0.10420000  0.85780000  1.0 0.1222836908
H  H148  1  0.27810000  0.18090000  0.77170000  1.0 0.0126559176
H  H149  1  0.28550000  0.18830000  0.72490000  1.0 0.0126559176
H  H150  1  0.33220000  0.23500000  0.75340000  1.0 0.0186743307
H  H151  1  0.56040000  0.02030000  0.83320000  1.0 0.1125921357
H  H152  1  0.63600000  0.03850000  0.81670000  1.0 0.1278093674
H  H153  1  0.56910000  0.07520000  0.79810000  1.0 0.1278093674
H  H154  1  0.85240000  0.96060000  0.82390000  1.0 0.1222836908
H  H155  1  0.71080000  0.90930000  0.90880000  1.0 0.1039982738
H  H156  1  0.76750000  0.95590000  0.77590000  1.0 0.1278093674
H  H157  1  0.62420000  0.89580000  0.85780000  1.0 0.1222836908
H  H158  1  0.72190000  0.81910000  0.77170000  1.0 0.0126559176
H  H159  1  0.71450000  0.81170000  0.72490000  1.0 0.0126559176
H  H160  1  0.66780000  0.76500000  0.75340000  1.0 0.0186743307
C  C1  1  0.43660000  0.29350000  0.36960000  1.0 -0.0512089247
C  C2  1  0.44050000  0.34820000  0.40230000  1.0 0.6422860186
C  C3  1  0.47370000  0.08100000  0.27930000  1.0 0.0477741479
C  C4  1  0.42090000  0.13230000  0.27820000  1.0 -0.0512089247
C  C5  1  0.53220000  0.08720000  0.30950000  1.0 -0.4270654272
C  C6  1  0.42490000  0.18700000  0.31090000  1.0 0.0583204442
C  C7  1  0.44880000  0.30660000  0.33150000  1.0 -0.1131288929
C  C8  1  0.41700000  0.22200000  0.38180000  1.0 -0.0512089247
C  C9  1  0.44480000  0.25560000  0.30240000  1.0 -0.1234280307
C  C10  1  0.41010000  0.16970000  0.35110000  1.0 -0.1273633112
C  C11  1  0.56340000  0.70650000  0.36960000  1.0 -0.0512089247
C  C12  1  0.55950000  0.65180000  0.40230000  1.0 0.6422860186
C  C13  1  0.52630000  0.91900000  0.27930000  1.0 0.0477741479
C  C14  1  0.57910000  0.86770000  0.27820000  1.0 -0.0512089247
C  C15  1  0.46780000  0.91280000  0.30950000  1.0 -0.4270654272
C  C16  1  0.57510000  0.81300000  0.31090000  1.0 0.0583204442
C  C17  1  0.55120000  0.69340000  0.33150000  1.0 -0.1131288929
C  C18  1  0.58300000  0.77800000  0.38180000  1.0 -0.0512089247
C  C19  1  0.55520000  0.74440000  0.30240000  1.0 -0.1234280307
C  C20  1  0.58990000  0.83030000  0.35110000  1.0 -0.1273633112
C  C21  1  0.70650000  0.43660000  0.36960000  1.0 -0.0512089247
C  C22  1  0.65180000  0.44050000  0.40230000  1.0 0.6422860186
C  C23  1  0.91900000  0.47370000  0.27930000  1.0 0.0477741479
C  C24  1  0.86770000  0.42090000  0.27820000  1.0 -0.0512089247
C  C25  1  0.91280000  0.53220000  0.30950000  1.0 -0.4270654272
C  C26  1  0.81300000  0.42490000  0.31090000  1.0 0.0583204442
C  C27  1  0.69340000  0.44880000  0.33150000  1.0 -0.1131288929
C  C28  1  0.77800000  0.41700000  0.38180000  1.0 -0.0512089247
C  C29  1  0.74440000  0.44480000  0.30240000  1.0 -0.1234280307
C  C30  1  0.83030000  0.41010000  0.35110000  1.0 -0.1273633112
C  C31  1  0.29350000  0.56340000  0.36960000  1.0 -0.0512089247
C  C32  1  0.34820000  0.55950000  0.40230000  1.0 0.6422860186
C  C33  1  0.08100000  0.52630000  0.27930000  1.0 0.0477741479
C  C34  1  0.13230000  0.57910000  0.27820000  1.0 -0.0512089247
C  C35  1  0.08720000  0.46780000  0.30950000  1.0 -0.4270654272
C  C36  1  0.18700000  0.57510000  0.31090000  1.0 0.0583204442
C  C37  1  0.30660000  0.55120000  0.33150000  1.0 -0.1131288929
C  C38  1  0.22200000  0.58300000  0.38180000  1.0 -0.0512089247
C  C39  1  0.25560000  0.55520000  0.30240000  1.0 -0.1234280307
C  C40  1  0.16970000  0.58990000  0.35110000  1.0 -0.1273633112
C  C41  1  0.06340000  0.79350000  0.13040000  1.0 -0.0512089247
C  C42  1  0.05950000  0.84820000  0.09770000  1.0 0.6422860186
C  C43  1  0.02630000  0.58100000  0.22070000  1.0 0.0477741479
C  C44  1  0.07910000  0.63230000  0.22180000  1.0 -0.0512089247
C  C45  1  0.96780000  0.58720000  0.19050000  1.0 -0.4270654272
C  C46  1  0.07510000  0.68700000  0.18910000  1.0 0.0583204442
C  C47  1  0.05120000  0.80660000  0.16850000  1.0 -0.1131288929
C  C48  1  0.08300000  0.72200000  0.11820000  1.0 -0.0512089247
C  C49  1  0.05520000  0.75560000  0.19760000  1.0 -0.1234280307
C  C50  1  0.08990000  0.66970000  0.14890000  1.0 -0.1273633112
C  C51  1  0.93660000  0.20650000  0.13040000  1.0 -0.0512089247
C  C52  1  0.94050000  0.15180000  0.09770000  1.0 0.6422860186
C  C53  1  0.97370000  0.41900000  0.22070000  1.0 0.0477741479
C  C54  1  0.92090000  0.36770000  0.22180000  1.0 -0.0512089247
C  C55  1  0.03220000  0.41280000  0.19050000  1.0 -0.4270654272
C  C56  1  0.92490000  0.31300000  0.18910000  1.0 0.0583204442
C  C57  1  0.94880000  0.19340000  0.16850000  1.0 -0.1131288929
C  C58  1  0.91700000  0.27800000  0.11820000  1.0 -0.0512089247
C  C59  1  0.94480000  0.24440000  0.19760000  1.0 -0.1234280307
C  C60  1  0.91010000  0.33030000  0.14890000  1.0 -0.1273633112
C  C61  1  0.79350000  0.93660000  0.13040000  1.0 -0.0512089247
C  C62  1  0.84820000  0.94050000  0.09770000  1.0 0.6422860186
C  C63  1  0.58100000  0.97370000  0.22070000  1.0 0.0477741479
C  C64  1  0.63230000  0.92090000  0.22180000  1.0 -0.0512089247
C  C65  1  0.58720000  0.03220000  0.19050000  1.0 -0.4270654272
C  C66  1  0.68700000  0.92490000  0.18910000  1.0 0.0583204442
C  C67  1  0.80660000  0.94880000  0.16850000  1.0 -0.1131288929
C  C68  1  0.72200000  0.91700000  0.11820000  1.0 -0.0512089247
C  C69  1  0.75560000  0.94480000  0.19760000  1.0 -0.1234280307
C  C70  1  0.66970000  0.91010000  0.14890000  1.0 -0.1273633112
C  C71  1  0.20650000  0.06340000  0.13040000  1.0 -0.0512089247
C  C72  1  0.15180000  0.05950000  0.09770000  1.0 0.6422860186
C  C73  1  0.41900000  0.02630000  0.22070000  1.0 0.0477741479
C  C74  1  0.36770000  0.07910000  0.22180000  1.0 -0.0512089247
C  C75  1  0.41280000  0.96780000  0.19050000  1.0 -0.4270654272
C  C76  1  0.31300000  0.07510000  0.18910000  1.0 0.0583204442
C  C77  1  0.19340000  0.05120000  0.16850000  1.0 -0.1131288929
C  C78  1  0.27800000  0.08300000  0.11820000  1.0 -0.0512089247
C  C79  1  0.24440000  0.05520000  0.19760000  1.0 -0.1234280307
C  C80  1  0.33030000  0.08990000  0.14890000  1.0 -0.1273633112
C  C81  1  0.56340000  0.70650000  0.63040000  1.0 -0.0512089247
C  C82  1  0.55950000  0.65180000  0.59770000  1.0 0.6422860186
C  C83  1  0.52630000  0.91900000  0.72070000  1.0 0.0477741479
C  C84  1  0.57910000  0.86770000  0.72180000  1.0 -0.0512089247
C  C85  1  0.46780000  0.91280000  0.69050000  1.0 -0.4270654272
C  C86  1  0.57510000  0.81300000  0.68910000  1.0 0.0583204442
C  C87  1  0.55120000  0.69340000  0.66850000  1.0 -0.1131288929
C  C88  1  0.58300000  0.77800000  0.61820000  1.0 -0.0512089247
C  C89  1  0.55520000  0.74440000  0.69760000  1.0 -0.1273633112
C  C90  1  0.58990000  0.83030000  0.64890000  1.0 -0.1273633112
C  C91  1  0.43660000  0.29350000  0.63040000  1.0 -0.0512089247
C  C92  1  0.44050000  0.34820000  0.59770000  1.0 0.6422860186
C  C93  1  0.47370000  0.08100000  0.72070000  1.0 0.0477741479
C  C94  1  0.42090000  0.13230000  0.72180000  1.0 -0.0512089247
C  C95  1  0.53220000  0.08720000  0.69050000  1.0 -0.4270654272
C  C96  1  0.42490000  0.18700000  0.68910000  1.0 0.0583204442
C  C97  1  0.44880000  0.30660000  0.66850000  1.0 -0.1131288929
C  C98  1  0.41700000  0.22200000  0.61820000  1.0 -0.0512089247
C  C99  1  0.44480000  0.25560000  0.69760000  1.0 -0.1273633112
C  C100  1  0.41010000  0.16970000  0.64890000  1.0 -0.1273633112
C  C101  1  0.29350000  0.56340000  0.63040000  1.0 -0.0512089247
C  C102  1  0.34820000  0.55950000  0.59770000  1.0 0.6422860186
C  C103  1  0.08100000  0.52630000  0.72070000  1.0 0.0477741479
C  C104  1  0.13230000  0.57910000  0.72180000  1.0 -0.0512089247
C  C105  1  0.08720000  0.46780000  0.69050000  1.0 -0.4270654272
C  C106  1  0.18700000  0.57510000  0.68910000  1.0 0.0583204442
C  C107  1  0.30660000  0.55120000  0.66850000  1.0 -0.1131288929
C  C108  1  0.22200000  0.58300000  0.61820000  1.0 -0.0512089247
C  C109  1  0.25560000  0.55520000  0.69760000  1.0 -0.1273633112
C  C110  1  0.16970000  0.58990000  0.64890000  1.0 -0.1273633112
C  C111  1  0.70650000  0.43660000  0.63040000  1.0 -0.0512089247
C  C112  1  0.65180000  0.44050000  0.59770000  1.0 0.6422860186
C  C113  1  0.91900000  0.47370000  0.72070000  1.0 0.0477741479
C  C114  1  0.86770000  0.42090000  0.72180000  1.0 -0.0512089247
C  C115  1  0.91280000  0.53220000  0.69050000  1.0 -0.4270654272
C  C116  1  0.81300000  0.42490000  0.68910000  1.0 0.0583204442
C  C117  1  0.69340000  0.44880000  0.66850000  1.0 -0.1131288929
C  C118  1  0.77800000  0.41700000  0.61820000  1.0 -0.0512089247
C  C119  1  0.74440000  0.44480000  0.69760000  1.0 -0.1273633112
C  C120  1  0.83030000  0.41010000  0.64890000  1.0 -0.1273633112
C  C121  1  0.93660000  0.20650000  0.86960000  1.0 -0.0512089247
C  C122  1  0.94050000  0.15180000  0.90230000  1.0 0.6422860186
C  C123  1  0.97370000  0.41900000  0.77930000  1.0 0.0477741479
C  C124  1  0.92090000  0.36770000  0.77820000  1.0 -0.0512089247
C  C125  1  0.03220000  0.41280000  0.80950000  1.0 -0.4270654272
C  C126  1  0.92490000  0.31300000  0.81090000  1.0 0.0583204442
C  C127  1  0.94880000  0.19340000  0.83150000  1.0 -0.1131288929
C  C128  1  0.91700000  0.27800000  0.88180000  1.0 -0.0512089247
C  C129  1  0.94480000  0.24440000  0.80240000  1.0 -0.1273633112
C  C130  1  0.91010000  0.33030000  0.85110000  1.0 -0.1273633112
C  C131  1  0.06340000  0.79350000  0.86960000  1.0 -0.0512089247
C  C132  1  0.05950000  0.84820000  0.90230000  1.0 0.6422860186
C  C133  1  0.02630000  0.58100000  0.77930000  1.0 0.0477741479
C  C134  1  0.07910000  0.63230000  0.77820000  1.0 -0.0512089247
C  C135  1  0.96780000  0.58720000  0.80950000  1.0 -0.4270654272
C  C136  1  0.07510000  0.68700000  0.81090000  1.0 0.0583204442
C  C137  1  0.05120000  0.80660000  0.83150000  1.0 -0.1131288929
C  C138  1  0.08300000  0.72200000  0.88180000  1.0 -0.0512089247
C  C139  1  0.05520000  0.75560000  0.80240000  1.0 -0.1273633112
C  C140  1  0.08990000  0.66970000  0.85110000  1.0 -0.1273633112
C  C141  1  0.20650000  0.06340000  0.86960000  1.0 -0.0512089247
C  C142  1  0.15180000  0.05950000  0.90230000  1.0 0.6422860186
C  C143  1  0.41900000  0.02630000  0.77930000  1.0 0.0477741479
C  C144  1  0.36770000  0.07910000  0.77820000  1.0 -0.0512089247
C  C145  1  0.41280000  0.96780000  0.80950000  1.0 -0.4270654272
C  C146  1  0.31300000  0.07510000  0.81090000  1.0 0.0583204442
C  C147  1  0.19340000  0.05120000  0.83150000  1.0 -0.1131288929
C  C148  1  0.27800000  0.08300000  0.88180000  1.0 -0.0512089247
C  C149  1  0.24440000  0.05520000  0.80240000  1.0 -0.1273633112
C  C150  1  0.33030000  0.08990000  0.85110000  1.0 -0.1273633112
C  C151  1  0.79350000  0.93660000  0.86960000  1.0 -0.0512089247
C  C152  1  0.84820000  0.94050000  0.90230000  1.0 0.6422860186
C  C153  1  0.58100000  0.97370000  0.77930000  1.0 0.0477741479
C  C154  1  0.63230000  0.92090000  0.77820000  1.0 -0.0512089247
C  C155  1  0.58720000  0.03220000  0.80950000  1.0 -0.4270654272
C  C156  1  0.68700000  0.92490000  0.81090000  1.0 0.0583204442
C  C157  1  0.80660000  0.94880000  0.83150000  1.0 -0.1131288929
C  C158  1  0.72200000  0.91700000  0.88180000  1.0 -0.0512089247
C  C159  1  0.75560000  0.94480000  0.80240000  1.0 -0.1273633112
C  C160  1  0.66970000  0.91010000  0.85110000  1.0 -0.1273633112
C  C161  1  0.47186000  0.02814000  0.25000000  1.0 -0.0163310587
C  C162  1  0.36660000  0.13340000  0.25000000  1.0 -0.0354081909
C  C163  1  0.31060000  0.18940000  0.25000000  1.0 -0.1620041866
C  C164  1  0.52814000  0.97186000  0.25000000  1.0 -0.0163310587
C  C165  1  0.63340000  0.86660000  0.25000000  1.0 -0.0354081909
C  C166  1  0.68940000  0.81060000  0.25000000  1.0 -0.1620041866
C  C167  1  0.97186000  0.47186000  0.25000000  1.0 -0.0163310587
C  C168  1  0.86660000  0.36660000  0.25000000  1.0 -0.0341414463
C  C169  1  0.81060000  0.31060000  0.25000000  1.0 -0.1620041866
C  C170  1  0.02814000  0.52814000  0.25000000  1.0 -0.0163310587
C  C171  1  0.13340000  0.63340000  0.25000000  1.0 -0.0354081909
C  C172  1  0.18940000  0.68940000  0.25000000  1.0 -0.1620041866
C  C173  1  0.52814000  0.97186000  0.75000000  1.0 -0.0163310587
C  C174  1  0.63340000  0.86660000  0.75000000  1.0 -0.0354081909
C  C175  1  0.68940000  0.81060000  0.75000000  1.0 -0.1620041866
C  C176  1  0.47186000  0.02814000  0.75000000  1.0 -0.0163310587
C  C177  1  0.36660000  0.13340000  0.75000000  1.0 -0.0354081909
C  C178  1  0.31060000  0.18940000  0.75000000  1.0 -0.1620041866
C  C179  1  0.02814000  0.52814000  0.75000000  1.0 -0.0163310587
C  C180  1  0.13340000  0.63340000  0.75000000  1.0 -0.0354081909
C  C181  1  0.18940000  0.68940000  0.75000000  1.0 -0.1620041866
C  C182  1  0.97186000  0.47186000  0.75000000  1.0 -0.0163310587
C  C183  1  0.86660000  0.36660000  0.75000000  1.0 -0.0341414463
C  C184  1  0.81060000  0.31060000  0.75000000  1.0 -0.1620041866
O  O1  1  0.46620000  0.40800000  0.39230000  1.0 -0.5831241224
O  O2  1  0.43560000  0.32600000  0.44010000  1.0 -0.6593573343
O  O3  1  0.58550000  0.53910000  0.46530000  1.0 -1.1507969576
O  O4  1  0.53380000  0.59200000  0.39230000  1.0 -0.5831241224
O  O5  1  0.56440000  0.67400000  0.44010000  1.0 -0.6593573343
O  O6  1  0.41450000  0.46090000  0.46530000  1.0 -1.1507969576
O  O7  1  0.59200000  0.46620000  0.39230000  1.0 -0.5831241224
O  O8  1  0.67400000  0.43560000  0.44010000  1.0 -0.6593573343
O  O9  1  0.46090000  0.58550000  0.46530000  1.0 -1.1507969576
O  O10  1  0.40800000  0.53380000  0.39230000  1.0 -0.5831241224
O  O11  1  0.32600000  0.56440000  0.44010000  1.0 -0.6593573343
O  O12  1  0.53910000  0.41450000  0.46530000  1.0 -1.1507969576
O  O13  1  0.03380000  0.90800000  0.10770000  1.0 -0.5831241224
O  O14  1  0.06440000  0.82600000  0.05990000  1.0 -0.6593573343
O  O15  1  0.91450000  0.03910000  0.03470000  1.0 -1.1507969576
O  O16  1  0.96620000  0.09200000  0.10770000  1.0 -0.5831241224
O  O17  1  0.93560000  0.17400000  0.05990000  1.0 -0.6593573343
O  O18  1  0.08550000  0.96090000  0.03470000  1.0 -1.1507969576
O  O19  1  0.90800000  0.96620000  0.10770000  1.0 -0.5831241224
O  O20  1  0.82600000  0.93560000  0.05990000  1.0 -0.6593573343
O  O21  1  0.03910000  0.08550000  0.03470000  1.0 -1.1507969576
O  O22  1  0.09200000  0.03380000  0.10770000  1.0 -0.5831241224
O  O23  1  0.17400000  0.06440000  0.05990000  1.0 -0.6593573343
O  O24  1  0.96090000  0.91450000  0.03470000  1.0 -1.1507969576
O  O25  1  0.53380000  0.59200000  0.60770000  1.0 -0.5831241224
O  O26  1  0.56440000  0.67400000  0.55990000  1.0 -0.6593573343
O  O27  1  0.41450000  0.46090000  0.53470000  1.0 -1.1507969576
O  O28  1  0.46620000  0.40800000  0.60770000  1.0 -0.5831241224
O  O29  1  0.43560000  0.32600000  0.55990000  1.0 -0.6593573343
O  O30  1  0.58550000  0.53910000  0.53470000  1.0 -1.1507969576
O  O31  1  0.40800000  0.53380000  0.60770000  1.0 -0.5831241224
O  O32  1  0.32600000  0.56440000  0.55990000  1.0 -0.6593573343
O  O33  1  0.53910000  0.41450000  0.53470000  1.0 -1.1507969576
O  O34  1  0.59200000  0.46620000  0.60770000  1.0 -0.5831241224
O  O35  1  0.67400000  0.43560000  0.55990000  1.0 -0.6593573343
O  O36  1  0.46090000  0.58550000  0.53470000  1.0 -1.1507969576
O  O37  1  0.96620000  0.09200000  0.89230000  1.0 -0.5831241224
O  O38  1  0.93560000  0.17400000  0.94010000  1.0 -0.6593573343
O  O39  1  0.08550000  0.96090000  0.96530000  1.0 -1.155940652
O  O40  1  0.03380000  0.90800000  0.89230000  1.0 -0.5831241224
O  O41  1  0.06440000  0.82600000  0.94010000  1.0 -0.6593573343
O  O42  1  0.91450000  0.03910000  0.96530000  1.0 -1.1507969576
O  O43  1  0.09200000  0.03380000  0.89230000  1.0 -0.5831241224
O  O44  1  0.17400000  0.06440000  0.94010000  1.0 -0.6593573343
O  O45  1  0.96090000  0.91450000  0.96530000  1.0 -1.155940652
O  O46  1  0.90800000  0.96620000  0.89230000  1.0 -0.5831241224
O  O47  1  0.82600000  0.93560000  0.94010000  1.0 -0.6593573343
O  O48  1  0.03910000  0.08550000  0.96530000  1.0 -1.155940652
