# DDEC6 charges by PACMAN v1.1 (https://github.com/mtap-research/PACMAN-charge/)
data_NEVSUF02_ASR_pacman
_symmetry_space_group_name_H-M   'P 1'
_cell_length_a   19.07650000
_cell_length_b   19.07650000
_cell_length_c   33.06100000
_cell_angle_alpha   90.00000000
_cell_angle_beta   90.00000000
_cell_angle_gamma   90.00000000
_symmetry_Int_Tables_number   1
_chemical_formula_structural   Zr3H40(C23O6)2
_chemical_formula_sum   'Zr12 H160 C184 O48'
_cell_volume   12031.32280824
_cell_formula_units_Z   4
loop_
 _symmetry_equiv_pos_site_id
 _symmetry_equiv_pos_as_xyz
  1  'x, y, z'
loop_
 _atom_site_type_symbol
 _atom_site_label
 _atom_site_symmetry_multiplicity
 _atom_site_fract_x
 _atom_site_fract_y
 _atom_site_fract_z
 _atom_site_occupancy
 _atom_site_charge
Zr  Zr1  1  0.12310000  0.04570000  0.00000000  1.0 2.4785306525
Zr  Zr2  1  0.87690000  0.95430000  0.00000000  1.0 2.4785306525
Zr  Zr3  1  0.95430000  0.12310000  0.00000000  1.0 2.4785306525
Zr  Zr4  1  0.04570000  0.87690000  0.00000000  1.0 2.4785306525
Zr  Zr5  1  0.37690000  0.54570000  0.50000000  1.0 2.4785306525
Zr  Zr6  1  0.62310000  0.45430000  0.50000000  1.0 2.4785306525
Zr  Zr7  1  0.54570000  0.62310000  0.50000000  1.0 2.4785306525
Zr  Zr8  1  0.45430000  0.37690000  0.50000000  1.0 2.4785306525
Zr  Zr9  1  0.00000000  0.00000000  0.07339000  1.0 2.3969630968
Zr  Zr10  1  0.50000000  0.50000000  0.42661000  1.0 2.3969630968
Zr  Zr11  1  0.00000000  0.00000000  0.92661000  1.0 2.3969630968
Zr  Zr12  1  0.50000000  0.50000000  0.57339000  1.0 2.3969630968
H  H1  1  0.98040000  0.15130000  0.17410000  1.0 0.1129750638
H  H2  1  0.97140000  0.22900000  0.22950000  1.0 0.1354167421
H  H3  1  0.06020000  0.45220000  0.19460000  1.0 0.127360053
H  H4  1  0.05170000  0.37070000  0.19100000  1.0 0.1354167421
H  H5  1  0.00560000  0.42050000  0.16420000  1.0 0.1232737429
H  H6  1  0.89600000  0.28640000  0.09140000  1.0 0.1129750638
H  H7  1  0.88490000  0.36250000  0.14740000  1.0 0.1232737429
H  H8  1  0.82000000  0.27910000  0.22830000  1.0 0.0253310548
H  H9  1  0.81230000  0.28680000  0.27530000  1.0 0.0220838094
H  H10  1  0.76630000  0.33280000  0.24640000  1.0 0.0220838094
H  H11  1  0.01960000  0.84870000  0.17410000  1.0 0.1129750638
H  H12  1  0.02860000  0.77100000  0.22950000  1.0 0.1354167421
H  H13  1  0.93980000  0.54780000  0.19460000  1.0 0.127360053
H  H14  1  0.94830000  0.62930000  0.19100000  1.0 0.1354167421
H  H15  1  0.99440000  0.57950000  0.16420000  1.0 0.1232737429
H  H16  1  0.10400000  0.71360000  0.09140000  1.0 0.1129750638
H  H17  1  0.11510000  0.63750000  0.14740000  1.0 0.1232737429
H  H18  1  0.18000000  0.72090000  0.22830000  1.0 0.0220838094
H  H19  1  0.18770000  0.71320000  0.27530000  1.0 0.0220838094
H  H20  1  0.23370000  0.66720000  0.24640000  1.0 0.0220838094
H  H21  1  0.84870000  0.98040000  0.17410000  1.0 0.1129750638
H  H22  1  0.77100000  0.97140000  0.22950000  1.0 0.1354167421
H  H23  1  0.54780000  0.06020000  0.19460000  1.0 0.127360053
H  H24  1  0.62930000  0.05170000  0.19100000  1.0 0.1354167421
H  H25  1  0.57950000  0.00560000  0.16420000  1.0 0.1232737429
H  H26  1  0.71360000  0.89600000  0.09140000  1.0 0.1129750638
H  H27  1  0.63750000  0.88490000  0.14740000  1.0 0.1232737429
H  H28  1  0.72090000  0.82000000  0.22830000  1.0 0.0253310548
H  H29  1  0.71320000  0.81230000  0.27530000  1.0 0.0220838094
H  H30  1  0.66720000  0.76630000  0.24640000  1.0 0.0220838094
H  H31  1  0.15130000  0.01960000  0.17410000  1.0 0.1129750638
H  H32  1  0.22900000  0.02860000  0.22950000  1.0 0.1354167421
H  H33  1  0.45220000  0.93980000  0.19460000  1.0 0.127360053
H  H34  1  0.37070000  0.94830000  0.19100000  1.0 0.1354167421
H  H35  1  0.42050000  0.99440000  0.16420000  1.0 0.1232737429
H  H36  1  0.28640000  0.10400000  0.09140000  1.0 0.1129750638
H  H37  1  0.36250000  0.11510000  0.14740000  1.0 0.1232737429
H  H38  1  0.27910000  0.18000000  0.22830000  1.0 0.0253310548
H  H39  1  0.28680000  0.18770000  0.27530000  1.0 0.0220838094
H  H40  1  0.33280000  0.23370000  0.24640000  1.0 0.0220838094
H  H41  1  0.51960000  0.65130000  0.32590000  1.0 0.1129750638
H  H42  1  0.52860000  0.72900000  0.27050000  1.0 0.1354167421
H  H43  1  0.43980000  0.95220000  0.30540000  1.0 0.127360053
H  H44  1  0.44830000  0.87070000  0.30900000  1.0 0.1354167421
H  H45  1  0.49440000  0.92050000  0.33580000  1.0 0.1232737429
H  H46  1  0.60400000  0.78640000  0.40860000  1.0 0.1129750638
H  H47  1  0.61510000  0.86250000  0.35260000  1.0 0.1232737429
H  H48  1  0.68000000  0.77910000  0.27170000  1.0 0.0253310548
H  H49  1  0.68770000  0.78680000  0.22470000  1.0 0.0220838094
H  H50  1  0.73370000  0.83280000  0.25360000  1.0 0.0220838094
H  H51  1  0.48040000  0.34870000  0.32590000  1.0 0.1129750638
H  H52  1  0.47140000  0.27100000  0.27050000  1.0 0.1354167421
H  H53  1  0.56020000  0.04780000  0.30540000  1.0 0.127360053
H  H54  1  0.55170000  0.12930000  0.30900000  1.0 0.1354167421
H  H55  1  0.50560000  0.07950000  0.33580000  1.0 0.1232737429
H  H56  1  0.39600000  0.21360000  0.40860000  1.0 0.1129750638
H  H57  1  0.38490000  0.13750000  0.35260000  1.0 0.1232737429
H  H58  1  0.32000000  0.22090000  0.27170000  1.0 0.0253310548
H  H59  1  0.31230000  0.21320000  0.22470000  1.0 0.0220838094
H  H60  1  0.26630000  0.16720000  0.25360000  1.0 0.0220838094
H  H61  1  0.65130000  0.48040000  0.32590000  1.0 0.1129750638
H  H62  1  0.72900000  0.47140000  0.27050000  1.0 0.1354167421
H  H63  1  0.95220000  0.56020000  0.30540000  1.0 0.127360053
H  H64  1  0.87070000  0.55170000  0.30900000  1.0 0.1354167421
H  H65  1  0.92050000  0.50560000  0.33580000  1.0 0.1232737429
H  H66  1  0.78640000  0.39600000  0.40860000  1.0 0.1129750638
H  H67  1  0.86250000  0.38490000  0.35260000  1.0 0.1232737429
H  H68  1  0.77910000  0.32000000  0.27170000  1.0 0.0253310548
H  H69  1  0.78680000  0.31230000  0.22470000  1.0 0.0220838094
H  H70  1  0.83280000  0.26630000  0.25360000  1.0 0.0220838094
H  H71  1  0.34870000  0.51960000  0.32590000  1.0 0.1129750638
H  H72  1  0.27100000  0.52860000  0.27050000  1.0 0.1354167421
H  H73  1  0.04780000  0.43980000  0.30540000  1.0 0.127360053
H  H74  1  0.12930000  0.44830000  0.30900000  1.0 0.1354167421
H  H75  1  0.07950000  0.49440000  0.33580000  1.0 0.1232737429
H  H76  1  0.21360000  0.60400000  0.40860000  1.0 0.1129750638
H  H77  1  0.13750000  0.61510000  0.35260000  1.0 0.1232737429
H  H78  1  0.22090000  0.68000000  0.27170000  1.0 0.0220838094
H  H79  1  0.21320000  0.68770000  0.22470000  1.0 0.0220838094
H  H80  1  0.16720000  0.73370000  0.25360000  1.0 0.0220838094
H  H81  1  0.01960000  0.84870000  0.82590000  1.0 0.1129750638
H  H82  1  0.02860000  0.77100000  0.77050000  1.0 0.1354167421
H  H83  1  0.93980000  0.54780000  0.80540000  1.0 0.127360053
H  H84  1  0.94830000  0.62930000  0.80900000  1.0 0.1354167421
H  H85  1  0.99440000  0.57950000  0.83580000  1.0 0.1232737429
H  H86  1  0.10400000  0.71360000  0.90860000  1.0 0.1129750638
H  H87  1  0.11510000  0.63750000  0.85260000  1.0 0.1232737429
H  H88  1  0.18000000  0.72090000  0.77170000  1.0 0.0253310548
H  H89  1  0.18770000  0.71320000  0.72470000  1.0 0.0220838094
H  H90  1  0.23370000  0.66720000  0.75360000  1.0 0.0220838094
H  H91  1  0.98040000  0.15130000  0.82590000  1.0 0.1129750638
H  H92  1  0.97140000  0.22900000  0.77050000  1.0 0.1354167421
H  H93  1  0.06020000  0.45220000  0.80540000  1.0 0.127360053
H  H94  1  0.05170000  0.37070000  0.80900000  1.0 0.1354167421
H  H95  1  0.00560000  0.42050000  0.83580000  1.0 0.1232737429
H  H96  1  0.89600000  0.28640000  0.90860000  1.0 0.1129750638
H  H97  1  0.88490000  0.36250000  0.85260000  1.0 0.1232737429
H  H98  1  0.82000000  0.27910000  0.77170000  1.0 0.0253310548
H  H99  1  0.81230000  0.28680000  0.72470000  1.0 0.0220838094
H  H100  1  0.76630000  0.33280000  0.75360000  1.0 0.0220838094
H  H101  1  0.15130000  0.01960000  0.82590000  1.0 0.1129750638
H  H102  1  0.22900000  0.02860000  0.77050000  1.0 0.1354167421
H  H103  1  0.45220000  0.93980000  0.80540000  1.0 0.127360053
H  H104  1  0.37070000  0.94830000  0.80900000  1.0 0.1354167421
H  H105  1  0.42050000  0.99440000  0.83580000  1.0 0.1232737429
H  H106  1  0.28640000  0.10400000  0.90860000  1.0 0.1129750638
H  H107  1  0.36250000  0.11510000  0.85260000  1.0 0.1232737429
H  H108  1  0.27910000  0.18000000  0.77170000  1.0 0.0253310548
H  H109  1  0.28680000  0.18770000  0.72470000  1.0 0.0220838094
H  H110  1  0.33280000  0.23370000  0.75360000  1.0 0.0220838094
H  H111  1  0.84870000  0.98040000  0.82590000  1.0 0.1129750638
H  H112  1  0.77100000  0.97140000  0.77050000  1.0 0.1354167421
H  H113  1  0.54780000  0.06020000  0.80540000  1.0 0.127360053
H  H114  1  0.62930000  0.05170000  0.80900000  1.0 0.1354167421
H  H115  1  0.57950000  0.00560000  0.83580000  1.0 0.1232737429
H  H116  1  0.71360000  0.89600000  0.90860000  1.0 0.1129750638
H  H117  1  0.63750000  0.88490000  0.85260000  1.0 0.1232737429
H  H118  1  0.72090000  0.82000000  0.77170000  1.0 0.0253310548
H  H119  1  0.71320000  0.81230000  0.72470000  1.0 0.0220838094
H  H120  1  0.66720000  0.76630000  0.75360000  1.0 0.0220838094
H  H121  1  0.48040000  0.34870000  0.67410000  1.0 0.1129750638
H  H122  1  0.47140000  0.27100000  0.72950000  1.0 0.1354167421
H  H123  1  0.56020000  0.04780000  0.69460000  1.0 0.127360053
H  H124  1  0.55170000  0.12930000  0.69100000  1.0 0.1354167421
H  H125  1  0.50560000  0.07950000  0.66420000  1.0 0.1232737429
H  H126  1  0.39600000  0.21360000  0.59140000  1.0 0.1129750638
H  H127  1  0.38490000  0.13750000  0.64740000  1.0 0.1232737429
H  H128  1  0.32000000  0.22090000  0.72830000  1.0 0.0253310548
H  H129  1  0.31230000  0.21320000  0.77530000  1.0 0.0220838094
H  H130  1  0.26630000  0.16720000  0.74640000  1.0 0.0220838094
H  H131  1  0.51960000  0.65130000  0.67410000  1.0 0.1129750638
H  H132  1  0.52860000  0.72900000  0.72950000  1.0 0.1354167421
H  H133  1  0.43980000  0.95220000  0.69460000  1.0 0.127360053
H  H134  1  0.44830000  0.87070000  0.69100000  1.0 0.1354167421
H  H135  1  0.49440000  0.92050000  0.66420000  1.0 0.1232737429
H  H136  1  0.60400000  0.78640000  0.59140000  1.0 0.1129750638
H  H137  1  0.61510000  0.86250000  0.64740000  1.0 0.1232737429
H  H138  1  0.68000000  0.77910000  0.72830000  1.0 0.0253310548
H  H139  1  0.68770000  0.78680000  0.77530000  1.0 0.0220838094
H  H140  1  0.73370000  0.83280000  0.74640000  1.0 0.0220838094
H  H141  1  0.34870000  0.51960000  0.67410000  1.0 0.1129750638
H  H142  1  0.27100000  0.52860000  0.72950000  1.0 0.1354167421
H  H143  1  0.04780000  0.43980000  0.69460000  1.0 0.127360053
H  H144  1  0.12930000  0.44830000  0.69100000  1.0 0.1354167421
H  H145  1  0.07950000  0.49440000  0.66420000  1.0 0.1232737429
H  H146  1  0.21360000  0.60400000  0.59140000  1.0 0.1129750638
H  H147  1  0.13750000  0.61510000  0.64740000  1.0 0.1232737429
H  H148  1  0.22090000  0.68000000  0.72830000  1.0 0.0253310548
H  H149  1  0.21320000  0.68770000  0.77530000  1.0 0.0220838094
H  H150  1  0.16720000  0.73370000  0.74640000  1.0 0.0220838094
H  H151  1  0.65130000  0.48040000  0.67410000  1.0 0.1129750638
H  H152  1  0.72900000  0.47140000  0.72950000  1.0 0.1354167421
H  H153  1  0.95220000  0.56020000  0.69460000  1.0 0.127360053
H  H154  1  0.87070000  0.55170000  0.69100000  1.0 0.1354167421
H  H155  1  0.92050000  0.50560000  0.66420000  1.0 0.1232737429
H  H156  1  0.78640000  0.39600000  0.59140000  1.0 0.1129750638
H  H157  1  0.86250000  0.38490000  0.64740000  1.0 0.1232737429
H  H158  1  0.77910000  0.32000000  0.72830000  1.0 0.0253310548
H  H159  1  0.78680000  0.31230000  0.77530000  1.0 0.0220838094
H  H160  1  0.83280000  0.26630000  0.74640000  1.0 0.0220838094
C  C1  1  0.97200000  0.41620000  0.22280000  1.0 0.0469539944
C  C2  1  0.96080000  0.19530000  0.17000000  1.0 -0.0861232304
C  C3  1  0.94230000  0.15490000  0.09930000  1.0 0.6427779195
C  C4  1  0.95720000  0.24010000  0.20340000  1.0 -0.1471941549
C  C5  1  0.92040000  0.36510000  0.22070000  1.0 -0.0302874824
C  C6  1  0.02740000  0.41470000  0.19020000  1.0 -0.4183950931
C  C7  1  0.93720000  0.21150000  0.13100000  1.0 -0.0521317715
C  C8  1  0.92850000  0.30480000  0.19110000  1.0 0.068888012
C  C9  1  0.90930000  0.27520000  0.11770000  1.0 -0.0974909704
C  C10  1  0.90540000  0.31890000  0.15150000  1.0 -0.1355458911
C  C11  1  0.02800000  0.58380000  0.22280000  1.0 0.0469539944
C  C12  1  0.03920000  0.80470000  0.17000000  1.0 -0.0861232304
C  C13  1  0.05770000  0.84510000  0.09930000  1.0 0.6427779195
C  C14  1  0.04280000  0.75990000  0.20340000  1.0 -0.1471941549
C  C15  1  0.07960000  0.63490000  0.22070000  1.0 -0.0302874824
C  C16  1  0.97260000  0.58530000  0.19020000  1.0 -0.4183950931
C  C17  1  0.06280000  0.78850000  0.13100000  1.0 -0.0521317715
C  C18  1  0.07150000  0.69520000  0.19110000  1.0 0.068888012
C  C19  1  0.09070000  0.72480000  0.11770000  1.0 -0.0974909704
C  C20  1  0.09460000  0.68110000  0.15150000  1.0 -0.1355458911
C  C21  1  0.58380000  0.97200000  0.22280000  1.0 0.0469539944
C  C22  1  0.80470000  0.96080000  0.17000000  1.0 -0.0838029537
C  C23  1  0.84510000  0.94230000  0.09930000  1.0 0.6427779195
C  C24  1  0.75990000  0.95720000  0.20340000  1.0 -0.1471941549
C  C25  1  0.63490000  0.92040000  0.22070000  1.0 -0.0302874824
C  C26  1  0.58530000  0.02740000  0.19020000  1.0 -0.4183950931
C  C27  1  0.78850000  0.93720000  0.13100000  1.0 -0.0521317715
C  C28  1  0.69520000  0.92850000  0.19110000  1.0 0.068888012
C  C29  1  0.72480000  0.90930000  0.11770000  1.0 -0.0974909704
C  C30  1  0.68110000  0.90540000  0.15150000  1.0 -0.1355458911
C  C31  1  0.41620000  0.02800000  0.22280000  1.0 0.0469539944
C  C32  1  0.19530000  0.03920000  0.17000000  1.0 -0.0861232304
C  C33  1  0.15490000  0.05770000  0.09930000  1.0 0.6427779195
C  C34  1  0.24010000  0.04280000  0.20340000  1.0 -0.1471941549
C  C35  1  0.36510000  0.07960000  0.22070000  1.0 -0.0302874824
C  C36  1  0.41470000  0.97260000  0.19020000  1.0 -0.4183950931
C  C37  1  0.21150000  0.06280000  0.13100000  1.0 -0.0521317715
C  C38  1  0.30480000  0.07150000  0.19110000  1.0 0.068888012
C  C39  1  0.27520000  0.09070000  0.11770000  1.0 -0.0974909704
C  C40  1  0.31890000  0.09460000  0.15150000  1.0 -0.1355458911
C  C41  1  0.52800000  0.91620000  0.27720000  1.0 0.0469539944
C  C42  1  0.53920000  0.69530000  0.33000000  1.0 -0.0861232304
C  C43  1  0.55770000  0.65490000  0.40070000  1.0 0.6427779195
C  C44  1  0.54280000  0.74010000  0.29660000  1.0 -0.1471941549
C  C45  1  0.57960000  0.86510000  0.27930000  1.0 -0.0302874824
C  C46  1  0.47260000  0.91470000  0.30980000  1.0 -0.4183950931
C  C47  1  0.56280000  0.71150000  0.36900000  1.0 -0.0521317715
C  C48  1  0.57150000  0.80480000  0.30890000  1.0 0.068888012
C  C49  1  0.59070000  0.77520000  0.38230000  1.0 -0.0974909704
C  C50  1  0.59460000  0.81890000  0.34850000  1.0 -0.1355458911
C  C51  1  0.47200000  0.08380000  0.27720000  1.0 0.0469539944
C  C52  1  0.46080000  0.30470000  0.33000000  1.0 -0.0861232304
C  C53  1  0.44230000  0.34510000  0.40070000  1.0 0.6427779195
C  C54  1  0.45720000  0.25990000  0.29660000  1.0 -0.1471941549
C  C55  1  0.42040000  0.13490000  0.27930000  1.0 -0.0302874824
C  C56  1  0.52740000  0.08530000  0.30980000  1.0 -0.4183950931
C  C57  1  0.43720000  0.28850000  0.36900000  1.0 -0.0521317715
C  C58  1  0.42850000  0.19520000  0.30890000  1.0 0.068888012
C  C59  1  0.40930000  0.22480000  0.38230000  1.0 -0.0974909704
C  C60  1  0.40540000  0.18110000  0.34850000  1.0 -0.1355458911
C  C61  1  0.91620000  0.47200000  0.27720000  1.0 0.0469539944
C  C62  1  0.69530000  0.46080000  0.33000000  1.0 -0.0861232304
C  C63  1  0.65490000  0.44230000  0.40070000  1.0 0.6427779195
C  C64  1  0.74010000  0.45720000  0.29660000  1.0 -0.1471941549
C  C65  1  0.86510000  0.42040000  0.27930000  1.0 -0.0302874824
C  C66  1  0.91470000  0.52740000  0.30980000  1.0 -0.4183950931
C  C67  1  0.71150000  0.43720000  0.36900000  1.0 -0.0521317715
C  C68  1  0.80480000  0.42850000  0.30890000  1.0 0.068888012
C  C69  1  0.77520000  0.40930000  0.38230000  1.0 -0.0974909704
C  C70  1  0.81890000  0.40540000  0.34850000  1.0 -0.1355458911
C  C71  1  0.08380000  0.52800000  0.27720000  1.0 0.0469539944
C  C72  1  0.30470000  0.53920000  0.33000000  1.0 -0.0861232304
C  C73  1  0.34510000  0.55770000  0.40070000  1.0 0.6427779195
C  C74  1  0.25990000  0.54280000  0.29660000  1.0 -0.1471941549
C  C75  1  0.13490000  0.57960000  0.27930000  1.0 -0.0302874824
C  C76  1  0.08530000  0.47260000  0.30980000  1.0 -0.4183950931
C  C77  1  0.28850000  0.56280000  0.36900000  1.0 -0.0521317715
C  C78  1  0.19520000  0.57150000  0.30890000  1.0 0.068888012
C  C79  1  0.22480000  0.59070000  0.38230000  1.0 -0.0974909704
C  C80  1  0.18110000  0.59460000  0.34850000  1.0 -0.1355458911
C  C81  1  0.02800000  0.58380000  0.77720000  1.0 0.0469539944
C  C82  1  0.03920000  0.80470000  0.83000000  1.0 -0.0861232304
C  C83  1  0.05770000  0.84510000  0.90070000  1.0 0.6427779195
C  C84  1  0.04280000  0.75990000  0.79660000  1.0 -0.1471941549
C  C85  1  0.07960000  0.63490000  0.77930000  1.0 -0.0302874824
C  C86  1  0.97260000  0.58530000  0.80980000  1.0 -0.4183950931
C  C87  1  0.06280000  0.78850000  0.86900000  1.0 -0.0521317715
C  C88  1  0.07150000  0.69520000  0.80890000  1.0 0.068888012
C  C89  1  0.09070000  0.72480000  0.88230000  1.0 -0.0974909704
C  C90  1  0.09460000  0.68110000  0.84850000  1.0 -0.1355458911
C  C91  1  0.97200000  0.41620000  0.77720000  1.0 0.0469539944
C  C92  1  0.96080000  0.19530000  0.83000000  1.0 -0.0861232304
C  C93  1  0.94230000  0.15490000  0.90070000  1.0 0.6427779195
C  C94  1  0.95720000  0.24010000  0.79660000  1.0 -0.1471941549
C  C95  1  0.92040000  0.36510000  0.77930000  1.0 -0.0302874824
C  C96  1  0.02740000  0.41470000  0.80980000  1.0 -0.4183950931
C  C97  1  0.93720000  0.21150000  0.86900000  1.0 -0.0521317715
C  C98  1  0.92850000  0.30480000  0.80890000  1.0 0.068888012
C  C99  1  0.90930000  0.27520000  0.88230000  1.0 -0.0974909704
C  C100  1  0.90540000  0.31890000  0.84850000  1.0 -0.1355458911
C  C101  1  0.41620000  0.02800000  0.77720000  1.0 0.0469539944
C  C102  1  0.19530000  0.03920000  0.83000000  1.0 -0.0861232304
C  C103  1  0.15490000  0.05770000  0.90070000  1.0 0.6427779195
C  C104  1  0.24010000  0.04280000  0.79660000  1.0 -0.1471941549
C  C105  1  0.36510000  0.07960000  0.77930000  1.0 -0.0302874824
C  C106  1  0.41470000  0.97260000  0.80980000  1.0 -0.4183950931
C  C107  1  0.21150000  0.06280000  0.86900000  1.0 -0.0521317715
C  C108  1  0.30480000  0.07150000  0.80890000  1.0 0.068888012
C  C109  1  0.27520000  0.09070000  0.88230000  1.0 -0.0974909704
C  C110  1  0.31890000  0.09460000  0.84850000  1.0 -0.1355458911
C  C111  1  0.58380000  0.97200000  0.77720000  1.0 0.0469539944
C  C112  1  0.80470000  0.96080000  0.83000000  1.0 -0.0861232304
C  C113  1  0.84510000  0.94230000  0.90070000  1.0 0.6427779195
C  C114  1  0.75990000  0.95720000  0.79660000  1.0 -0.1471941549
C  C115  1  0.63490000  0.92040000  0.77930000  1.0 -0.0302874824
C  C116  1  0.58530000  0.02740000  0.80980000  1.0 -0.4183950931
C  C117  1  0.78850000  0.93720000  0.86900000  1.0 -0.0521317715
C  C118  1  0.69520000  0.92850000  0.80890000  1.0 0.068888012
C  C119  1  0.72480000  0.90930000  0.88230000  1.0 -0.0974909704
C  C120  1  0.68110000  0.90540000  0.84850000  1.0 -0.1355458911
C  C121  1  0.47200000  0.08380000  0.72280000  1.0 0.0469539944
C  C122  1  0.46080000  0.30470000  0.67000000  1.0 -0.0861232304
C  C123  1  0.44230000  0.34510000  0.59930000  1.0 0.6427779195
C  C124  1  0.45720000  0.25990000  0.70340000  1.0 -0.1471941549
C  C125  1  0.42040000  0.13490000  0.72070000  1.0 -0.0302874824
C  C126  1  0.52740000  0.08530000  0.69020000  1.0 -0.4183950931
C  C127  1  0.43720000  0.28850000  0.63100000  1.0 -0.0521317715
C  C128  1  0.42850000  0.19520000  0.69110000  1.0 0.068888012
C  C129  1  0.40930000  0.22480000  0.61770000  1.0 -0.0974909704
C  C130  1  0.40540000  0.18110000  0.65150000  1.0 -0.1355458911
C  C131  1  0.52800000  0.91620000  0.72280000  1.0 0.0469539944
C  C132  1  0.53920000  0.69530000  0.67000000  1.0 -0.0861232304
C  C133  1  0.55770000  0.65490000  0.59930000  1.0 0.6427779195
C  C134  1  0.54280000  0.74010000  0.70340000  1.0 -0.1471941549
C  C135  1  0.57960000  0.86510000  0.72070000  1.0 -0.0302874824
C  C136  1  0.47260000  0.91470000  0.69020000  1.0 -0.4183950931
C  C137  1  0.56280000  0.71150000  0.63100000  1.0 -0.0521317715
C  C138  1  0.57150000  0.80480000  0.69110000  1.0 0.068888012
C  C139  1  0.59070000  0.77520000  0.61770000  1.0 -0.0974909704
C  C140  1  0.59460000  0.81890000  0.65150000  1.0 -0.1355458911
C  C141  1  0.08380000  0.52800000  0.72280000  1.0 0.0469539944
C  C142  1  0.30470000  0.53920000  0.67000000  1.0 -0.0861232304
C  C143  1  0.34510000  0.55770000  0.59930000  1.0 0.6427779195
C  C144  1  0.25990000  0.54280000  0.70340000  1.0 -0.1471941549
C  C145  1  0.13490000  0.57960000  0.72070000  1.0 -0.0302874824
C  C146  1  0.08530000  0.47260000  0.69020000  1.0 -0.4183950931
C  C147  1  0.28850000  0.56280000  0.63100000  1.0 -0.0521317715
C  C148  1  0.19520000  0.57150000  0.69110000  1.0 0.068888012
C  C149  1  0.22480000  0.59070000  0.61770000  1.0 -0.0974909704
C  C150  1  0.18110000  0.59460000  0.65150000  1.0 -0.1355458911
C  C151  1  0.91620000  0.47200000  0.72280000  1.0 0.0469539944
C  C152  1  0.69530000  0.46080000  0.67000000  1.0 -0.0861232304
C  C153  1  0.65490000  0.44230000  0.59930000  1.0 0.6427779195
C  C154  1  0.74010000  0.45720000  0.70340000  1.0 -0.1471941549
C  C155  1  0.86510000  0.42040000  0.72070000  1.0 -0.0302874824
C  C156  1  0.91470000  0.52740000  0.69020000  1.0 -0.4183950931
C  C157  1  0.71150000  0.43720000  0.63100000  1.0 -0.0521317715
C  C158  1  0.80480000  0.42850000  0.69110000  1.0 0.068888012
C  C159  1  0.77520000  0.40930000  0.61770000  1.0 -0.0974909704
C  C160  1  0.81890000  0.40540000  0.65150000  1.0 -0.1355458911
C  C161  1  0.97223000  0.47223000  0.25000000  1.0 -0.0123658709
C  C162  1  0.86720000  0.36720000  0.25000000  1.0 -0.0231186281
C  C163  1  0.81140000  0.31140000  0.25000000  1.0 -0.1674116108
C  C164  1  0.02777000  0.52777000  0.25000000  1.0 -0.0123658709
C  C165  1  0.13280000  0.63280000  0.25000000  1.0 -0.0231186281
C  C166  1  0.18860000  0.68860000  0.25000000  1.0 -0.1674116108
C  C167  1  0.52777000  0.97223000  0.25000000  1.0 -0.0123658709
C  C168  1  0.63280000  0.86720000  0.25000000  1.0 -0.0231186281
C  C169  1  0.68860000  0.81140000  0.25000000  1.0 -0.1674116108
C  C170  1  0.47223000  0.02777000  0.25000000  1.0 -0.0123658709
C  C171  1  0.36720000  0.13280000  0.25000000  1.0 -0.0231186281
C  C172  1  0.31140000  0.18860000  0.25000000  1.0 -0.1674116108
C  C173  1  0.02777000  0.52777000  0.75000000  1.0 -0.0123658709
C  C174  1  0.13280000  0.63280000  0.75000000  1.0 -0.0231186281
C  C175  1  0.18860000  0.68860000  0.75000000  1.0 -0.1674116108
C  C176  1  0.97223000  0.47223000  0.75000000  1.0 -0.0123658709
C  C177  1  0.86720000  0.36720000  0.75000000  1.0 -0.0231186281
C  C178  1  0.81140000  0.31140000  0.75000000  1.0 -0.1674116108
C  C179  1  0.47223000  0.02777000  0.75000000  1.0 -0.0123658709
C  C180  1  0.36720000  0.13280000  0.75000000  1.0 -0.0231186281
C  C181  1  0.31140000  0.18860000  0.75000000  1.0 -0.1674116108
C  C182  1  0.52777000  0.97223000  0.75000000  1.0 -0.0123658709
C  C183  1  0.63280000  0.86720000  0.75000000  1.0 -0.0231186281
C  C184  1  0.68860000  0.81140000  0.75000000  1.0 -0.1674116108
O  O1  1  0.97170000  0.09300000  0.10820000  1.0 -0.6115193855
O  O2  1  0.93690000  0.17350000  0.06020000  1.0 -0.6786008742
O  O3  1  0.03830000  0.08600000  0.03630000  1.0 -1.1783180538
O  O4  1  0.02830000  0.90700000  0.10820000  1.0 -0.6115193855
O  O5  1  0.06310000  0.82650000  0.06020000  1.0 -0.6786008742
O  O6  1  0.96170000  0.91400000  0.03630000  1.0 -1.1783180538
O  O7  1  0.90700000  0.97170000  0.10820000  1.0 -0.6115193855
O  O8  1  0.82650000  0.93690000  0.06020000  1.0 -0.6786008742
O  O9  1  0.91400000  0.03830000  0.03630000  1.0 -1.1783180538
O  O10  1  0.09300000  0.02830000  0.10820000  1.0 -0.6115193855
O  O11  1  0.17350000  0.06310000  0.06020000  1.0 -0.6786008742
O  O12  1  0.08600000  0.96170000  0.03630000  1.0 -1.1783180538
O  O13  1  0.52830000  0.59300000  0.39180000  1.0 -0.6115193855
O  O14  1  0.56310000  0.67350000  0.43980000  1.0 -0.6786008742
O  O15  1  0.46170000  0.58600000  0.46370000  1.0 -1.1783180538
O  O16  1  0.47170000  0.40700000  0.39180000  1.0 -0.6115193855
O  O17  1  0.43690000  0.32650000  0.43980000  1.0 -0.6786008742
O  O18  1  0.53830000  0.41400000  0.46370000  1.0 -1.1783180538
O  O19  1  0.59300000  0.47170000  0.39180000  1.0 -0.6115193855
O  O20  1  0.67350000  0.43690000  0.43980000  1.0 -0.6786008742
O  O21  1  0.58600000  0.53830000  0.46370000  1.0 -1.1783180538
O  O22  1  0.40700000  0.52830000  0.39180000  1.0 -0.6115193855
O  O23  1  0.32650000  0.56310000  0.43980000  1.0 -0.6786008742
O  O24  1  0.41400000  0.46170000  0.46370000  1.0 -1.1783180538
O  O25  1  0.02830000  0.90700000  0.89180000  1.0 -0.6115193855
O  O26  1  0.06310000  0.82650000  0.93980000  1.0 -0.6786008742
O  O27  1  0.96170000  0.91400000  0.96370000  1.0 -1.1783180538
O  O28  1  0.97170000  0.09300000  0.89180000  1.0 -0.6115193855
O  O29  1  0.93690000  0.17350000  0.93980000  1.0 -0.6786008742
O  O30  1  0.03830000  0.08600000  0.96370000  1.0 -1.1783180538
O  O31  1  0.09300000  0.02830000  0.89180000  1.0 -0.6115193855
O  O32  1  0.17350000  0.06310000  0.93980000  1.0 -0.6786008742
O  O33  1  0.08600000  0.96170000  0.96370000  1.0 -1.1783180538
O  O34  1  0.90700000  0.97170000  0.89180000  1.0 -0.6115193855
O  O35  1  0.82650000  0.93690000  0.93980000  1.0 -0.6786008742
O  O36  1  0.91400000  0.03830000  0.96370000  1.0 -1.1783180538
O  O37  1  0.47170000  0.40700000  0.60820000  1.0 -0.6115193855
O  O38  1  0.43690000  0.32650000  0.56020000  1.0 -0.6786008742
O  O39  1  0.53830000  0.41400000  0.53630000  1.0 -1.1783180538
O  O40  1  0.52830000  0.59300000  0.60820000  1.0 -0.6115193855
O  O41  1  0.56310000  0.67350000  0.56020000  1.0 -0.6786008742
O  O42  1  0.46170000  0.58600000  0.53630000  1.0 -1.1783180538
O  O43  1  0.40700000  0.52830000  0.60820000  1.0 -0.6115193855
O  O44  1  0.32650000  0.56310000  0.56020000  1.0 -0.6786008742
O  O45  1  0.41400000  0.46170000  0.53630000  1.0 -1.1783180538
O  O46  1  0.59300000  0.47170000  0.60820000  1.0 -0.6115193855
O  O47  1  0.67350000  0.43690000  0.56020000  1.0 -0.6786008742
O  O48  1  0.58600000  0.53830000  0.53630000  1.0 -1.1783180538
