# DDEC6 charges by PACMAN v1.1 (https://github.com/mtap-research/PACMAN-charge/)
data_NEVSUF_ASR_pacman
_symmetry_space_group_name_H-M   'P 1'
_cell_length_a   19.28000000
_cell_length_b   19.28000000
_cell_length_c   32.89000000
_cell_angle_alpha   90.00000000
_cell_angle_beta   90.00000000
_cell_angle_gamma   90.00000000
_symmetry_Int_Tables_number   1
_chemical_formula_structural   Zr3H40(C23O6)2
_chemical_formula_sum   'Zr12 H160 C184 O48'
_cell_volume   12225.81817600
_cell_formula_units_Z   4
loop_
 _symmetry_equiv_pos_site_id
 _symmetry_equiv_pos_as_xyz
  1  'x, y, z'
loop_
 _atom_site_type_symbol
 _atom_site_label
 _atom_site_symmetry_multiplicity
 _atom_site_fract_x
 _atom_site_fract_y
 _atom_site_fract_z
 _atom_site_occupancy
 _atom_site_charge
Zr  Zr1  1  0.12287000  0.04235000  0.00000000  1.0 2.5007631898
Zr  Zr2  1  0.87713000  0.95765000  0.00000000  1.0 2.5007631898
Zr  Zr3  1  0.95765000  0.12287000  0.00000000  1.0 2.5007631898
Zr  Zr4  1  0.04235000  0.87713000  0.00000000  1.0 2.5007631898
Zr  Zr5  1  0.37713000  0.54235000  0.50000000  1.0 2.4944210172
Zr  Zr6  1  0.62287000  0.45765000  0.50000000  1.0 2.4944210172
Zr  Zr7  1  0.54235000  0.62287000  0.50000000  1.0 2.4944210172
Zr  Zr8  1  0.45765000  0.37713000  0.50000000  1.0 2.4944210172
Zr  Zr9  1  0.00000000  0.00000000  0.07450000  1.0 2.3900390387
Zr  Zr10  1  0.50000000  0.50000000  0.42550000  1.0 2.3900390387
Zr  Zr11  1  0.00000000  0.00000000  0.92550000  1.0 2.3900390387
Zr  Zr12  1  0.50000000  0.50000000  0.57450000  1.0 2.3900390387
H  H1  1  0.98060000  0.15360000  0.17590000  1.0 0.1121979759
H  H2  1  0.97070000  0.23320000  0.22980000  1.0 0.1310061723
H  H3  1  0.05770000  0.45650000  0.19020000  1.0 0.1227874884
H  H4  1  0.02090000  0.39550000  0.16720000  1.0 0.1227874884
H  H5  1  0.07040000  0.37960000  0.20380000  1.0 0.1310061723
H  H6  1  0.89500000  0.28270000  0.09020000  1.0 0.1121979759
H  H7  1  0.88560000  0.35770000  0.14590000  1.0 0.1310061723
H  H8  1  0.82210000  0.28010000  0.22870000  1.0 0.018672961
H  H9  1  0.81290000  0.28930000  0.27570000  1.0 0.018672961
H  H10  1  0.76830000  0.33390000  0.24560000  1.0 0.018672961
H  H11  1  0.01940000  0.84640000  0.17590000  1.0 0.1121979759
H  H12  1  0.02930000  0.76680000  0.22980000  1.0 0.1310061723
H  H13  1  0.94230000  0.54350000  0.19020000  1.0 0.1227874884
H  H14  1  0.97910000  0.60450000  0.16720000  1.0 0.1227874884
H  H15  1  0.92960000  0.62040000  0.20380000  1.0 0.1310061723
H  H16  1  0.10500000  0.71730000  0.09020000  1.0 0.1121979759
H  H17  1  0.11440000  0.64230000  0.14590000  1.0 0.1310061723
H  H18  1  0.17790000  0.71990000  0.22870000  1.0 0.013086303
H  H19  1  0.18710000  0.71070000  0.27570000  1.0 0.013086303
H  H20  1  0.23170000  0.66610000  0.24560000  1.0 0.018672961
H  H21  1  0.84640000  0.98060000  0.17590000  1.0 0.1121979759
H  H22  1  0.76680000  0.97070000  0.22980000  1.0 0.1310061723
H  H23  1  0.54350000  0.05770000  0.19020000  1.0 0.1227874884
H  H24  1  0.60450000  0.02090000  0.16720000  1.0 0.1227874884
H  H25  1  0.62040000  0.07040000  0.20380000  1.0 0.1310061723
H  H26  1  0.71730000  0.89500000  0.09020000  1.0 0.1121979759
H  H27  1  0.64230000  0.88560000  0.14590000  1.0 0.1310061723
H  H28  1  0.71990000  0.82210000  0.22870000  1.0 0.018672961
H  H29  1  0.71070000  0.81290000  0.27570000  1.0 0.018672961
H  H30  1  0.66610000  0.76830000  0.24560000  1.0 0.018672961
H  H31  1  0.15360000  0.01940000  0.17590000  1.0 0.1121979759
H  H32  1  0.23320000  0.02930000  0.22980000  1.0 0.1310061723
H  H33  1  0.45650000  0.94230000  0.19020000  1.0 0.1227874884
H  H34  1  0.39550000  0.97910000  0.16720000  1.0 0.1227874884
H  H35  1  0.37960000  0.92960000  0.20380000  1.0 0.1310061723
H  H36  1  0.28270000  0.10500000  0.09020000  1.0 0.1121979759
H  H37  1  0.35770000  0.11440000  0.14590000  1.0 0.1310061723
H  H38  1  0.28010000  0.17790000  0.22870000  1.0 0.018672961
H  H39  1  0.28930000  0.18710000  0.27570000  1.0 0.013086303
H  H40  1  0.33390000  0.23170000  0.24560000  1.0 0.018672961
H  H41  1  0.51940000  0.65360000  0.32410000  1.0 0.1121979759
H  H42  1  0.52930000  0.73320000  0.27020000  1.0 0.1310061723
H  H43  1  0.44230000  0.95650000  0.30980000  1.0 0.1227874884
H  H44  1  0.47910000  0.89550000  0.33280000  1.0 0.1227874884
H  H45  1  0.42960000  0.87960000  0.29620000  1.0 0.1310061723
H  H46  1  0.60500000  0.78270000  0.40980000  1.0 0.1121979759
H  H47  1  0.61440000  0.85770000  0.35410000  1.0 0.1310061723
H  H48  1  0.67790000  0.78010000  0.27130000  1.0 0.013086303
H  H49  1  0.68710000  0.78930000  0.22430000  1.0 0.013086303
H  H50  1  0.73170000  0.83390000  0.25440000  1.0 0.018672961
H  H51  1  0.48060000  0.34640000  0.32410000  1.0 0.1121979759
H  H52  1  0.47070000  0.26680000  0.27020000  1.0 0.1310061723
H  H53  1  0.55770000  0.04350000  0.30980000  1.0 0.1227874884
H  H54  1  0.52090000  0.10450000  0.33280000  1.0 0.1227874884
H  H55  1  0.57040000  0.12040000  0.29620000  1.0 0.1310061723
H  H56  1  0.39500000  0.21730000  0.40980000  1.0 0.1121979759
H  H57  1  0.38560000  0.14230000  0.35410000  1.0 0.1310061723
H  H58  1  0.32210000  0.21990000  0.27130000  1.0 0.013086303
H  H59  1  0.31290000  0.21070000  0.22430000  1.0 0.013086303
H  H60  1  0.26830000  0.16610000  0.25440000  1.0 0.018672961
H  H61  1  0.65360000  0.48060000  0.32410000  1.0 0.1121979759
H  H62  1  0.73320000  0.47070000  0.27020000  1.0 0.1310061723
H  H63  1  0.95650000  0.55770000  0.30980000  1.0 0.1227874884
H  H64  1  0.89550000  0.52090000  0.33280000  1.0 0.1227874884
H  H65  1  0.87960000  0.57040000  0.29620000  1.0 0.1310061723
H  H66  1  0.78270000  0.39500000  0.40980000  1.0 0.1121979759
H  H67  1  0.85770000  0.38560000  0.35410000  1.0 0.1310061723
H  H68  1  0.78010000  0.32210000  0.27130000  1.0 0.013086303
H  H69  1  0.78930000  0.31290000  0.22430000  1.0 0.013086303
H  H70  1  0.83390000  0.26830000  0.25440000  1.0 0.018672961
H  H71  1  0.34640000  0.51940000  0.32410000  1.0 0.1121979759
H  H72  1  0.26680000  0.52930000  0.27020000  1.0 0.1310061723
H  H73  1  0.04350000  0.44230000  0.30980000  1.0 0.1227874884
H  H74  1  0.10450000  0.47910000  0.33280000  1.0 0.1227874884
H  H75  1  0.12040000  0.42960000  0.29620000  1.0 0.1310061723
H  H76  1  0.21730000  0.60500000  0.40980000  1.0 0.1121979759
H  H77  1  0.14230000  0.61440000  0.35410000  1.0 0.1310061723
H  H78  1  0.21990000  0.67790000  0.27130000  1.0 0.013086303
H  H79  1  0.21070000  0.68710000  0.22430000  1.0 0.013086303
H  H80  1  0.16610000  0.73170000  0.25440000  1.0 0.018672961
H  H81  1  0.01940000  0.84640000  0.82410000  1.0 0.1121979759
H  H82  1  0.02930000  0.76680000  0.77020000  1.0 0.1310061723
H  H83  1  0.94230000  0.54350000  0.80980000  1.0 0.1227874884
H  H84  1  0.97910000  0.60450000  0.83280000  1.0 0.1227874884
H  H85  1  0.92960000  0.62040000  0.79620000  1.0 0.1310061723
H  H86  1  0.10500000  0.71730000  0.90980000  1.0 0.1121979759
H  H87  1  0.11440000  0.64230000  0.85410000  1.0 0.1310061723
H  H88  1  0.17790000  0.71990000  0.77130000  1.0 0.013086303
H  H89  1  0.18710000  0.71070000  0.72430000  1.0 0.018672961
H  H90  1  0.23170000  0.66610000  0.75440000  1.0 0.018672961
H  H91  1  0.98060000  0.15360000  0.82410000  1.0 0.1121979759
H  H92  1  0.97070000  0.23320000  0.77020000  1.0 0.1310061723
H  H93  1  0.05770000  0.45650000  0.80980000  1.0 0.1227874884
H  H94  1  0.02090000  0.39550000  0.83280000  1.0 0.1227874884
H  H95  1  0.07040000  0.37960000  0.79620000  1.0 0.1310061723
H  H96  1  0.89500000  0.28270000  0.90980000  1.0 0.1121979759
H  H97  1  0.88560000  0.35770000  0.85410000  1.0 0.1310061723
H  H98  1  0.82210000  0.28010000  0.77130000  1.0 0.013086303
H  H99  1  0.81290000  0.28930000  0.72430000  1.0 0.018672961
H  H100  1  0.76830000  0.33390000  0.75440000  1.0 0.018672961
H  H101  1  0.15360000  0.01940000  0.82410000  1.0 0.1121979759
H  H102  1  0.23320000  0.02930000  0.77020000  1.0 0.1310061723
H  H103  1  0.45650000  0.94230000  0.80980000  1.0 0.1227874884
H  H104  1  0.39550000  0.97910000  0.83280000  1.0 0.1227874884
H  H105  1  0.37960000  0.92960000  0.79620000  1.0 0.1310061723
H  H106  1  0.28270000  0.10500000  0.90980000  1.0 0.1121979759
H  H107  1  0.35770000  0.11440000  0.85410000  1.0 0.1310061723
H  H108  1  0.28010000  0.17790000  0.77130000  1.0 0.013086303
H  H109  1  0.28930000  0.18710000  0.72430000  1.0 0.018672961
H  H110  1  0.33390000  0.23170000  0.75440000  1.0 0.018672961
H  H111  1  0.84640000  0.98060000  0.82410000  1.0 0.1121979759
H  H112  1  0.76680000  0.97070000  0.77020000  1.0 0.1310061723
H  H113  1  0.54350000  0.05770000  0.80980000  1.0 0.1227874884
H  H114  1  0.60450000  0.02090000  0.83280000  1.0 0.1227874884
H  H115  1  0.62040000  0.07040000  0.79620000  1.0 0.1310061723
H  H116  1  0.71730000  0.89500000  0.90980000  1.0 0.1121979759
H  H117  1  0.64230000  0.88560000  0.85410000  1.0 0.1310061723
H  H118  1  0.71990000  0.82210000  0.77130000  1.0 0.013086303
H  H119  1  0.71070000  0.81290000  0.72430000  1.0 0.018672961
H  H120  1  0.66610000  0.76830000  0.75440000  1.0 0.018672961
H  H121  1  0.48060000  0.34640000  0.67590000  1.0 0.1121979759
H  H122  1  0.47070000  0.26680000  0.72980000  1.0 0.1310061723
H  H123  1  0.55770000  0.04350000  0.69020000  1.0 0.1227874884
H  H124  1  0.52090000  0.10450000  0.66720000  1.0 0.1227874884
H  H125  1  0.57040000  0.12040000  0.70380000  1.0 0.1310061723
H  H126  1  0.39500000  0.21730000  0.59020000  1.0 0.1121979759
H  H127  1  0.38560000  0.14230000  0.64590000  1.0 0.1310061723
H  H128  1  0.32210000  0.21990000  0.72870000  1.0 0.018672961
H  H129  1  0.31290000  0.21070000  0.77570000  1.0 0.018672961
H  H130  1  0.26830000  0.16610000  0.74560000  1.0 0.018672961
H  H131  1  0.51940000  0.65360000  0.67590000  1.0 0.1121979759
H  H132  1  0.52930000  0.73320000  0.72980000  1.0 0.1310061723
H  H133  1  0.44230000  0.95650000  0.69020000  1.0 0.1227874884
H  H134  1  0.47910000  0.89550000  0.66720000  1.0 0.1227874884
H  H135  1  0.42960000  0.87960000  0.70380000  1.0 0.1310061723
H  H136  1  0.60500000  0.78270000  0.59020000  1.0 0.1121979759
H  H137  1  0.61440000  0.85770000  0.64590000  1.0 0.1310061723
H  H138  1  0.67790000  0.78010000  0.72870000  1.0 0.018672961
H  H139  1  0.68710000  0.78930000  0.77570000  1.0 0.018672961
H  H140  1  0.73170000  0.83390000  0.74560000  1.0 0.018672961
H  H141  1  0.34640000  0.51940000  0.67590000  1.0 0.1121979759
H  H142  1  0.26680000  0.52930000  0.72980000  1.0 0.1310061723
H  H143  1  0.04350000  0.44230000  0.69020000  1.0 0.1227874884
H  H144  1  0.10450000  0.47910000  0.66720000  1.0 0.1227874884
H  H145  1  0.12040000  0.42960000  0.70380000  1.0 0.1310061723
H  H146  1  0.21730000  0.60500000  0.59020000  1.0 0.1121979759
H  H147  1  0.14230000  0.61440000  0.64590000  1.0 0.1310061723
H  H148  1  0.21990000  0.67790000  0.72870000  1.0 0.018672961
H  H149  1  0.21070000  0.68710000  0.77570000  1.0 0.018672961
H  H150  1  0.16610000  0.73170000  0.74560000  1.0 0.018672961
H  H151  1  0.65360000  0.48060000  0.67590000  1.0 0.1121979759
H  H152  1  0.73320000  0.47070000  0.72980000  1.0 0.1310061723
H  H153  1  0.95650000  0.55770000  0.69020000  1.0 0.1227874884
H  H154  1  0.89550000  0.52090000  0.66720000  1.0 0.1227874884
H  H155  1  0.87960000  0.57040000  0.70380000  1.0 0.1310061723
H  H156  1  0.78270000  0.39500000  0.59020000  1.0 0.1121979759
H  H157  1  0.85770000  0.38560000  0.64590000  1.0 0.1310061723
H  H158  1  0.78010000  0.32210000  0.72870000  1.0 0.018672961
H  H159  1  0.78930000  0.31290000  0.77570000  1.0 0.018672961
H  H160  1  0.83390000  0.26830000  0.74560000  1.0 0.018672961
C  C1  1  0.97600000  0.41640000  0.22220000  1.0 0.0641388677
C  C2  1  0.96080000  0.19680000  0.17090000  1.0 -0.0885613018
C  C3  1  0.94340000  0.15120000  0.10160000  1.0 0.6421992749
C  C4  1  0.95670000  0.24330000  0.20340000  1.0 -0.1286926737
C  C5  1  0.92250000  0.36640000  0.22140000  1.0 -0.0505346504
C  C6  1  0.03680000  0.41150000  0.19320000  1.0 -0.4252519091
C  C7  1  0.93720000  0.21040000  0.13150000  1.0 -0.0505346504
C  C8  1  0.92880000  0.30740000  0.19120000  1.0 0.0666860573
C  C9  1  0.90880000  0.27240000  0.11660000  1.0 -0.0964954171
C  C10  1  0.90650000  0.31500000  0.15090000  1.0 -0.1425027281
C  C11  1  0.02400000  0.58360000  0.22220000  1.0 0.0641388677
C  C12  1  0.03920000  0.80320000  0.17090000  1.0 -0.0885613018
C  C13  1  0.05660000  0.84880000  0.10160000  1.0 0.6421992749
C  C14  1  0.04330000  0.75670000  0.20340000  1.0 -0.1286926737
C  C15  1  0.07750000  0.63360000  0.22140000  1.0 -0.0505346504
C  C16  1  0.96320000  0.58850000  0.19320000  1.0 -0.4245856881
C  C17  1  0.06280000  0.78960000  0.13150000  1.0 -0.0505346504
C  C18  1  0.07120000  0.69260000  0.19120000  1.0 0.0666860573
C  C19  1  0.09120000  0.72760000  0.11660000  1.0 -0.0964954171
C  C20  1  0.09350000  0.68500000  0.15090000  1.0 -0.1425027281
C  C21  1  0.58360000  0.97600000  0.22220000  1.0 0.0641388677
C  C22  1  0.80320000  0.96080000  0.17090000  1.0 -0.0885613018
C  C23  1  0.84880000  0.94340000  0.10160000  1.0 0.6421992749
C  C24  1  0.75670000  0.95670000  0.20340000  1.0 -0.1286926737
C  C25  1  0.63360000  0.92250000  0.22140000  1.0 -0.0505346504
C  C26  1  0.58850000  0.03680000  0.19320000  1.0 -0.4252519091
C  C27  1  0.78960000  0.93720000  0.13150000  1.0 -0.0505346504
C  C28  1  0.69260000  0.92880000  0.19120000  1.0 0.0666860573
C  C29  1  0.72760000  0.90880000  0.11660000  1.0 -0.0964954171
C  C30  1  0.68500000  0.90650000  0.15090000  1.0 -0.1425027281
C  C31  1  0.41640000  0.02400000  0.22220000  1.0 0.0641388677
C  C32  1  0.19680000  0.03920000  0.17090000  1.0 -0.0885613018
C  C33  1  0.15120000  0.05660000  0.10160000  1.0 0.6421992749
C  C34  1  0.24330000  0.04330000  0.20340000  1.0 -0.1286926737
C  C35  1  0.36640000  0.07750000  0.22140000  1.0 -0.0505346504
C  C36  1  0.41150000  0.96320000  0.19320000  1.0 -0.4245856881
C  C37  1  0.21040000  0.06280000  0.13150000  1.0 -0.0505346504
C  C38  1  0.30740000  0.07120000  0.19120000  1.0 0.0666860573
C  C39  1  0.27240000  0.09120000  0.11660000  1.0 -0.0964954171
C  C40  1  0.31500000  0.09350000  0.15090000  1.0 -0.1425027281
C  C41  1  0.52400000  0.91640000  0.27780000  1.0 0.0641388677
C  C42  1  0.53920000  0.69680000  0.32910000  1.0 -0.0885613018
C  C43  1  0.55660000  0.65120000  0.39840000  1.0 0.6421992749
C  C44  1  0.54330000  0.74330000  0.29660000  1.0 -0.1286926737
C  C45  1  0.57750000  0.86640000  0.27860000  1.0 -0.0505346504
C  C46  1  0.46320000  0.91150000  0.30680000  1.0 -0.4252519091
C  C47  1  0.56280000  0.71040000  0.36850000  1.0 -0.0505346504
C  C48  1  0.57120000  0.80740000  0.30880000  1.0 0.0666860573
C  C49  1  0.59120000  0.77240000  0.38340000  1.0 -0.0964954171
C  C50  1  0.59350000  0.81500000  0.34910000  1.0 -0.1425027281
C  C51  1  0.47600000  0.08360000  0.27780000  1.0 0.0641388677
C  C52  1  0.46080000  0.30320000  0.32910000  1.0 -0.0885613018
C  C53  1  0.44340000  0.34880000  0.39840000  1.0 0.6421992749
C  C54  1  0.45670000  0.25670000  0.29660000  1.0 -0.1286926737
C  C55  1  0.42250000  0.13360000  0.27860000  1.0 -0.0505346504
C  C56  1  0.53680000  0.08850000  0.30680000  1.0 -0.4252519091
C  C57  1  0.43720000  0.28960000  0.36850000  1.0 -0.0505346504
C  C58  1  0.42880000  0.19260000  0.30880000  1.0 0.0666860573
C  C59  1  0.40880000  0.22760000  0.38340000  1.0 -0.0964954171
C  C60  1  0.40650000  0.18500000  0.34910000  1.0 -0.1425027281
C  C61  1  0.91640000  0.47600000  0.27780000  1.0 0.0641388677
C  C62  1  0.69680000  0.46080000  0.32910000  1.0 -0.0885613018
C  C63  1  0.65120000  0.44340000  0.39840000  1.0 0.6421992749
C  C64  1  0.74330000  0.45670000  0.29660000  1.0 -0.1286926737
C  C65  1  0.86640000  0.42250000  0.27860000  1.0 -0.0505346504
C  C66  1  0.91150000  0.53680000  0.30680000  1.0 -0.4252519091
C  C67  1  0.71040000  0.43720000  0.36850000  1.0 -0.0505346504
C  C68  1  0.80740000  0.42880000  0.30880000  1.0 0.0666860573
C  C69  1  0.77240000  0.40880000  0.38340000  1.0 -0.0964954171
C  C70  1  0.81500000  0.40650000  0.34910000  1.0 -0.1425027281
C  C71  1  0.08360000  0.52400000  0.27780000  1.0 0.0641388677
C  C72  1  0.30320000  0.53920000  0.32910000  1.0 -0.0885613018
C  C73  1  0.34880000  0.55660000  0.39840000  1.0 0.6421992749
C  C74  1  0.25670000  0.54330000  0.29660000  1.0 -0.1286926737
C  C75  1  0.13360000  0.57750000  0.27860000  1.0 -0.0505346504
C  C76  1  0.08850000  0.46320000  0.30680000  1.0 -0.4252519091
C  C77  1  0.28960000  0.56280000  0.36850000  1.0 -0.0505346504
C  C78  1  0.19260000  0.57120000  0.30880000  1.0 0.0666860573
C  C79  1  0.22760000  0.59120000  0.38340000  1.0 -0.0964954171
C  C80  1  0.18500000  0.59350000  0.34910000  1.0 -0.1425027281
C  C81  1  0.02400000  0.58360000  0.77780000  1.0 0.0641388677
C  C82  1  0.03920000  0.80320000  0.82910000  1.0 -0.0885613018
C  C83  1  0.05660000  0.84880000  0.89840000  1.0 0.6421992749
C  C84  1  0.04330000  0.75670000  0.79660000  1.0 -0.1286926737
C  C85  1  0.07750000  0.63360000  0.77860000  1.0 -0.0427869066
C  C86  1  0.96320000  0.58850000  0.80680000  1.0 -0.4252519091
C  C87  1  0.06280000  0.78960000  0.86850000  1.0 -0.0505346504
C  C88  1  0.07120000  0.69260000  0.80880000  1.0 0.0666860573
C  C89  1  0.09120000  0.72760000  0.88340000  1.0 -0.0964954171
C  C90  1  0.09350000  0.68500000  0.84910000  1.0 -0.1425027281
C  C91  1  0.97600000  0.41640000  0.77780000  1.0 0.0641388677
C  C92  1  0.96080000  0.19680000  0.82910000  1.0 -0.0885613018
C  C93  1  0.94340000  0.15120000  0.89840000  1.0 0.6421992749
C  C94  1  0.95670000  0.24330000  0.79660000  1.0 -0.1286926737
C  C95  1  0.92250000  0.36640000  0.77860000  1.0 -0.0427869066
C  C96  1  0.03680000  0.41150000  0.80680000  1.0 -0.4252519091
C  C97  1  0.93720000  0.21040000  0.86850000  1.0 -0.0505346504
C  C98  1  0.92880000  0.30740000  0.80880000  1.0 0.0666860573
C  C99  1  0.90880000  0.27240000  0.88340000  1.0 -0.0964954171
C  C100  1  0.90650000  0.31500000  0.84910000  1.0 -0.1425027281
C  C101  1  0.41640000  0.02400000  0.77780000  1.0 0.0641388677
C  C102  1  0.19680000  0.03920000  0.82910000  1.0 -0.0885613018
C  C103  1  0.15120000  0.05660000  0.89840000  1.0 0.6421992749
C  C104  1  0.24330000  0.04330000  0.79660000  1.0 -0.1286926737
C  C105  1  0.36640000  0.07750000  0.77860000  1.0 -0.0427869066
C  C106  1  0.41150000  0.96320000  0.80680000  1.0 -0.4252519091
C  C107  1  0.21040000  0.06280000  0.86850000  1.0 -0.0505346504
C  C108  1  0.30740000  0.07120000  0.80880000  1.0 0.0666860573
C  C109  1  0.27240000  0.09120000  0.88340000  1.0 -0.0964954171
C  C110  1  0.31500000  0.09350000  0.84910000  1.0 -0.1425027281
C  C111  1  0.58360000  0.97600000  0.77780000  1.0 0.0641388677
C  C112  1  0.80320000  0.96080000  0.82910000  1.0 -0.0885613018
C  C113  1  0.84880000  0.94340000  0.89840000  1.0 0.6421992749
C  C114  1  0.75670000  0.95670000  0.79660000  1.0 -0.1286926737
C  C115  1  0.63360000  0.92250000  0.77860000  1.0 -0.0427869066
C  C116  1  0.58850000  0.03680000  0.80680000  1.0 -0.4252519091
C  C117  1  0.78960000  0.93720000  0.86850000  1.0 -0.0505346504
C  C118  1  0.69260000  0.92880000  0.80880000  1.0 0.0666860573
C  C119  1  0.72760000  0.90880000  0.88340000  1.0 -0.0964954171
C  C120  1  0.68500000  0.90650000  0.84910000  1.0 -0.1425027281
C  C121  1  0.47600000  0.08360000  0.72220000  1.0 0.0641388677
C  C122  1  0.46080000  0.30320000  0.67090000  1.0 -0.0885613018
C  C123  1  0.44340000  0.34880000  0.60160000  1.0 0.6421992749
C  C124  1  0.45670000  0.25670000  0.70340000  1.0 -0.1286926737
C  C125  1  0.42250000  0.13360000  0.72140000  1.0 -0.0505346504
C  C126  1  0.53680000  0.08850000  0.69320000  1.0 -0.4252519091
C  C127  1  0.43720000  0.28960000  0.63150000  1.0 -0.0505346504
C  C128  1  0.42880000  0.19260000  0.69120000  1.0 0.0666860573
C  C129  1  0.40880000  0.22760000  0.61660000  1.0 -0.0964954171
C  C130  1  0.40650000  0.18500000  0.65090000  1.0 -0.1459006772
C  C131  1  0.52400000  0.91640000  0.72220000  1.0 0.0641388677
C  C132  1  0.53920000  0.69680000  0.67090000  1.0 -0.0885613018
C  C133  1  0.55660000  0.65120000  0.60160000  1.0 0.6421992749
C  C134  1  0.54330000  0.74330000  0.70340000  1.0 -0.1286926737
C  C135  1  0.57750000  0.86640000  0.72140000  1.0 -0.0505346504
C  C136  1  0.46320000  0.91150000  0.69320000  1.0 -0.4245856881
C  C137  1  0.56280000  0.71040000  0.63150000  1.0 -0.0505346504
C  C138  1  0.57120000  0.80740000  0.69120000  1.0 0.0666860573
C  C139  1  0.59120000  0.77240000  0.61660000  1.0 -0.0964954171
C  C140  1  0.59350000  0.81500000  0.65090000  1.0 -0.1459006772
C  C141  1  0.08360000  0.52400000  0.72220000  1.0 0.0641388677
C  C142  1  0.30320000  0.53920000  0.67090000  1.0 -0.0885613018
C  C143  1  0.34880000  0.55660000  0.60160000  1.0 0.6421992749
C  C144  1  0.25670000  0.54330000  0.70340000  1.0 -0.1286926737
C  C145  1  0.13360000  0.57750000  0.72140000  1.0 -0.0505346504
C  C146  1  0.08850000  0.46320000  0.69320000  1.0 -0.4245856881
C  C147  1  0.28960000  0.56280000  0.63150000  1.0 -0.0505346504
C  C148  1  0.19260000  0.57120000  0.69120000  1.0 0.0666860573
C  C149  1  0.22760000  0.59120000  0.61660000  1.0 -0.0964954171
C  C150  1  0.18500000  0.59350000  0.65090000  1.0 -0.1459006772
C  C151  1  0.91640000  0.47600000  0.72220000  1.0 0.0641388677
C  C152  1  0.69680000  0.46080000  0.67090000  1.0 -0.0885613018
C  C153  1  0.65120000  0.44340000  0.60160000  1.0 0.6421992749
C  C154  1  0.74330000  0.45670000  0.70340000  1.0 -0.1286926737
C  C155  1  0.86640000  0.42250000  0.72140000  1.0 -0.0505346504
C  C156  1  0.91150000  0.53680000  0.69320000  1.0 -0.4252519091
C  C157  1  0.71040000  0.43720000  0.63150000  1.0 -0.0505346504
C  C158  1  0.80740000  0.42880000  0.69120000  1.0 0.0666860573
C  C159  1  0.77240000  0.40880000  0.61660000  1.0 -0.0964954171
C  C160  1  0.81500000  0.40650000  0.65090000  1.0 -0.1459006772
C  C161  1  0.97230000  0.47230000  0.25000000  1.0 -0.0193886922
C  C162  1  0.86810000  0.36810000  0.25000000  1.0 0.0005360607
C  C163  1  0.81280000  0.31280000  0.25000000  1.0 -0.171993345
C  C164  1  0.02770000  0.52770000  0.25000000  1.0 -0.0193886922
C  C165  1  0.13190000  0.63190000  0.25000000  1.0 -0.0014152782
C  C166  1  0.18720000  0.68720000  0.25000000  1.0 -0.171993345
C  C167  1  0.52770000  0.97230000  0.25000000  1.0 -0.0193886922
C  C168  1  0.63190000  0.86810000  0.25000000  1.0 -0.0014152782
C  C169  1  0.68720000  0.81280000  0.25000000  1.0 -0.171993345
C  C170  1  0.47230000  0.02770000  0.25000000  1.0 -0.0193886922
C  C171  1  0.36810000  0.13190000  0.25000000  1.0 0.0005360607
C  C172  1  0.31280000  0.18720000  0.25000000  1.0 -0.171993345
C  C173  1  0.02770000  0.52770000  0.75000000  1.0 -0.0193886922
C  C174  1  0.13190000  0.63190000  0.75000000  1.0 -0.0014152782
C  C175  1  0.18720000  0.68720000  0.75000000  1.0 -0.1770693242
C  C176  1  0.97230000  0.47230000  0.75000000  1.0 -0.0193886922
C  C177  1  0.86810000  0.36810000  0.75000000  1.0 -0.0014152782
C  C178  1  0.81280000  0.31280000  0.75000000  1.0 -0.1770693242
C  C179  1  0.47230000  0.02770000  0.75000000  1.0 -0.0193886922
C  C180  1  0.36810000  0.13190000  0.75000000  1.0 -0.0014152782
C  C181  1  0.31280000  0.18720000  0.75000000  1.0 -0.171993345
C  C182  1  0.52770000  0.97230000  0.75000000  1.0 -0.0193886922
C  C183  1  0.63190000  0.86810000  0.75000000  1.0 -0.0014152782
C  C184  1  0.68720000  0.81280000  0.75000000  1.0 -0.1770693242
O  O1  1  0.97210000  0.09200000  0.10960000  1.0 -0.5833043933
O  O2  1  0.93940000  0.17240000  0.06140000  1.0 -0.7085369632
O  O3  1  0.03910000  0.08180000  0.03620000  1.0 -1.1650488257
O  O4  1  0.02790000  0.90800000  0.10960000  1.0 -0.5833043933
O  O5  1  0.06060000  0.82760000  0.06140000  1.0 -0.7085369632
O  O6  1  0.96090000  0.91820000  0.03620000  1.0 -1.1616078326
O  O7  1  0.90800000  0.97210000  0.10960000  1.0 -0.5833043933
O  O8  1  0.82760000  0.93940000  0.06140000  1.0 -0.7085369632
O  O9  1  0.91820000  0.03910000  0.03620000  1.0 -1.1616078326
O  O10  1  0.09200000  0.02790000  0.10960000  1.0 -0.5833043933
O  O11  1  0.17240000  0.06060000  0.06140000  1.0 -0.7085369632
O  O12  1  0.08180000  0.96090000  0.03620000  1.0 -1.1650488257
O  O13  1  0.52790000  0.59200000  0.39040000  1.0 -0.5854263186
O  O14  1  0.56060000  0.67240000  0.43860000  1.0 -0.7085369632
O  O15  1  0.46090000  0.58180000  0.46380000  1.0 -1.1616078326
O  O16  1  0.47210000  0.40800000  0.39040000  1.0 -0.5854263186
O  O17  1  0.43940000  0.32760000  0.43860000  1.0 -0.7085369632
O  O18  1  0.53910000  0.41820000  0.46380000  1.0 -1.1616078326
O  O19  1  0.59200000  0.47210000  0.39040000  1.0 -0.5854263186
O  O20  1  0.67240000  0.43940000  0.43860000  1.0 -0.7085369632
O  O21  1  0.58180000  0.53910000  0.46380000  1.0 -1.1616078326
O  O22  1  0.40800000  0.52790000  0.39040000  1.0 -0.5854263186
O  O23  1  0.32760000  0.56060000  0.43860000  1.0 -0.7085369632
O  O24  1  0.41820000  0.46090000  0.46380000  1.0 -1.1616078326
O  O25  1  0.02790000  0.90800000  0.89040000  1.0 -0.5854263186
O  O26  1  0.06060000  0.82760000  0.93860000  1.0 -0.7085369632
O  O27  1  0.96090000  0.91820000  0.96380000  1.0 -1.1616078326
O  O28  1  0.97210000  0.09200000  0.89040000  1.0 -0.5833043933
O  O29  1  0.93940000  0.17240000  0.93860000  1.0 -0.7085369632
O  O30  1  0.03910000  0.08180000  0.96380000  1.0 -1.1616078326
O  O31  1  0.09200000  0.02790000  0.89040000  1.0 -0.5833043933
O  O32  1  0.17240000  0.06060000  0.93860000  1.0 -0.7085369632
O  O33  1  0.08180000  0.96090000  0.96380000  1.0 -1.1616078326
O  O34  1  0.90800000  0.97210000  0.89040000  1.0 -0.5854263186
O  O35  1  0.82760000  0.93940000  0.93860000  1.0 -0.7085369632
O  O36  1  0.91820000  0.03910000  0.96380000  1.0 -1.1616078326
O  O37  1  0.47210000  0.40800000  0.60960000  1.0 -0.5833043933
O  O38  1  0.43940000  0.32760000  0.56140000  1.0 -0.7085369632
O  O39  1  0.53910000  0.41820000  0.53620000  1.0 -1.1616078326
O  O40  1  0.52790000  0.59200000  0.60960000  1.0 -0.5833043933
O  O41  1  0.56060000  0.67240000  0.56140000  1.0 -0.7085369632
O  O42  1  0.46090000  0.58180000  0.53620000  1.0 -1.1616078326
O  O43  1  0.40800000  0.52790000  0.60960000  1.0 -0.5833043933
O  O44  1  0.32760000  0.56060000  0.56140000  1.0 -0.7085369632
O  O45  1  0.41820000  0.46090000  0.53620000  1.0 -1.1616078326
O  O46  1  0.59200000  0.47210000  0.60960000  1.0 -0.5833043933
O  O47  1  0.67240000  0.43940000  0.56140000  1.0 -0.7085369632
O  O48  1  0.58180000  0.53910000  0.53620000  1.0 -1.1616078326
