# DDEC6 charges by PACMAN v1.1 (https://github.com/mtap-research/PACMAN-charge/)
data_NEVSUF08_ASR_pacman
_symmetry_space_group_name_H-M   'P 1'
_cell_length_a   19.11460000
_cell_length_b   19.11460000
_cell_length_c   33.04700000
_cell_angle_alpha   90.00000000
_cell_angle_beta   90.00000000
_cell_angle_gamma   90.00000000
_symmetry_Int_Tables_number   1
_chemical_formula_structural   Zr3H40(C23O6)2
_chemical_formula_sum   'Zr12 H160 C184 O48'
_cell_volume   12074.31408714
_cell_formula_units_Z   4
loop_
 _symmetry_equiv_pos_site_id
 _symmetry_equiv_pos_as_xyz
  1  'x, y, z'
loop_
 _atom_site_type_symbol
 _atom_site_label
 _atom_site_symmetry_multiplicity
 _atom_site_fract_x
 _atom_site_fract_y
 _atom_site_fract_z
 _atom_site_occupancy
 _atom_site_charge
Zr  Zr1  1  0.12295000  0.04580000  0.00000000  1.0 2.4912409123
Zr  Zr2  1  0.87705000  0.95420000  0.00000000  1.0 2.4912409123
Zr  Zr3  1  0.95420000  0.12295000  0.00000000  1.0 2.4912409123
Zr  Zr4  1  0.04580000  0.87705000  0.00000000  1.0 2.4912409123
Zr  Zr5  1  0.37705000  0.54580000  0.50000000  1.0 2.4912409123
Zr  Zr6  1  0.62295000  0.45420000  0.50000000  1.0 2.4912409123
Zr  Zr7  1  0.54580000  0.62295000  0.50000000  1.0 2.4912409123
Zr  Zr8  1  0.45420000  0.37705000  0.50000000  1.0 2.4912409123
Zr  Zr9  1  0.00000000  0.00000000  0.07365000  1.0 2.3947271642
Zr  Zr10  1  0.50000000  0.50000000  0.42635000  1.0 2.3947271642
Zr  Zr11  1  0.00000000  0.00000000  0.92635000  1.0 2.3947271642
Zr  Zr12  1  0.50000000  0.50000000  0.57365000  1.0 2.3947271642
H  H1  1  0.97460000  0.15080000  0.17490000  1.0 0.1108931319
H  H2  1  0.96530000  0.22990000  0.22910000  1.0 0.1295836126
H  H3  1  0.06370000  0.44950000  0.19350000  1.0 0.1295836126
H  H4  1  0.05420000  0.36810000  0.19130000  1.0 0.1295836126
H  H5  1  0.00880000  0.41690000  0.16370000  1.0 0.1192754816
H  H6  1  0.89990000  0.28780000  0.09040000  1.0 0.1108931319
H  H7  1  0.89070000  0.36530000  0.14560000  1.0 0.1192754816
H  H8  1  0.82250000  0.28020000  0.22880000  1.0 0.021017085
H  H9  1  0.81330000  0.28950000  0.27560000  1.0 0.021017085
H  H10  1  0.76830000  0.33440000  0.24560000  1.0 0.021017085
H  H11  1  0.02540000  0.84920000  0.17490000  1.0 0.1108931319
H  H12  1  0.03470000  0.77010000  0.22910000  1.0 0.1295836126
H  H13  1  0.93630000  0.55050000  0.19350000  1.0 0.1295836126
H  H14  1  0.94580000  0.63190000  0.19130000  1.0 0.1295836126
H  H15  1  0.99120000  0.58310000  0.16370000  1.0 0.1192754816
H  H16  1  0.10010000  0.71220000  0.09040000  1.0 0.1108931319
H  H17  1  0.10930000  0.63470000  0.14560000  1.0 0.1192754816
H  H18  1  0.17750000  0.71980000  0.22880000  1.0 0.021017085
H  H19  1  0.18670000  0.71050000  0.27560000  1.0 0.021017085
H  H20  1  0.23170000  0.66560000  0.24560000  1.0 0.021017085
H  H21  1  0.84920000  0.97460000  0.17490000  1.0 0.1108931319
H  H22  1  0.77010000  0.96530000  0.22910000  1.0 0.1295836126
H  H23  1  0.55050000  0.06370000  0.19350000  1.0 0.1295836126
H  H24  1  0.63190000  0.05420000  0.19130000  1.0 0.1295836126
H  H25  1  0.58310000  0.00880000  0.16370000  1.0 0.1192754816
H  H26  1  0.71220000  0.89990000  0.09040000  1.0 0.1108931319
H  H27  1  0.63470000  0.89070000  0.14560000  1.0 0.1192754816
H  H28  1  0.71980000  0.82250000  0.22880000  1.0 0.021017085
H  H29  1  0.71050000  0.81330000  0.27560000  1.0 0.021017085
H  H30  1  0.66560000  0.76830000  0.24560000  1.0 0.021017085
H  H31  1  0.15080000  0.02540000  0.17490000  1.0 0.1108931319
H  H32  1  0.22990000  0.03470000  0.22910000  1.0 0.1295836126
H  H33  1  0.44950000  0.93630000  0.19350000  1.0 0.1295836126
H  H34  1  0.36810000  0.94580000  0.19130000  1.0 0.1295836126
H  H35  1  0.41690000  0.99120000  0.16370000  1.0 0.1192754816
H  H36  1  0.28780000  0.10010000  0.09040000  1.0 0.1108931319
H  H37  1  0.36530000  0.10930000  0.14560000  1.0 0.1192754816
H  H38  1  0.28020000  0.17750000  0.22880000  1.0 0.021017085
H  H39  1  0.28950000  0.18670000  0.27560000  1.0 0.021017085
H  H40  1  0.33440000  0.23170000  0.24560000  1.0 0.021017085
H  H41  1  0.52540000  0.65080000  0.32510000  1.0 0.1108931319
H  H42  1  0.53470000  0.72990000  0.27090000  1.0 0.1295836126
H  H43  1  0.43630000  0.94950000  0.30650000  1.0 0.1295836126
H  H44  1  0.44580000  0.86810000  0.30870000  1.0 0.1295836126
H  H45  1  0.49120000  0.91690000  0.33630000  1.0 0.1192754816
H  H46  1  0.60010000  0.78780000  0.40960000  1.0 0.1108931319
H  H47  1  0.60930000  0.86530000  0.35440000  1.0 0.1192754816
H  H48  1  0.67750000  0.78020000  0.27120000  1.0 0.021017085
H  H49  1  0.68670000  0.78950000  0.22440000  1.0 0.021017085
H  H50  1  0.73170000  0.83440000  0.25440000  1.0 0.021017085
H  H51  1  0.47460000  0.34920000  0.32510000  1.0 0.1108931319
H  H52  1  0.46530000  0.27010000  0.27090000  1.0 0.1295836126
H  H53  1  0.56370000  0.05050000  0.30650000  1.0 0.1295836126
H  H54  1  0.55420000  0.13190000  0.30870000  1.0 0.1295836126
H  H55  1  0.50880000  0.08310000  0.33630000  1.0 0.1192754816
H  H56  1  0.39990000  0.21220000  0.40960000  1.0 0.1108931319
H  H57  1  0.39070000  0.13470000  0.35440000  1.0 0.1192754816
H  H58  1  0.32250000  0.21980000  0.27120000  1.0 0.021017085
H  H59  1  0.31330000  0.21050000  0.22440000  1.0 0.021017085
H  H60  1  0.26830000  0.16560000  0.25440000  1.0 0.021017085
H  H61  1  0.65080000  0.47460000  0.32510000  1.0 0.1108931319
H  H62  1  0.72990000  0.46530000  0.27090000  1.0 0.1295836126
H  H63  1  0.94950000  0.56370000  0.30650000  1.0 0.1295836126
H  H64  1  0.86810000  0.55420000  0.30870000  1.0 0.1295836126
H  H65  1  0.91690000  0.50880000  0.33630000  1.0 0.1192754816
H  H66  1  0.78780000  0.39990000  0.40960000  1.0 0.1108931319
H  H67  1  0.86530000  0.39070000  0.35440000  1.0 0.1192754816
H  H68  1  0.78020000  0.32250000  0.27120000  1.0 0.021017085
H  H69  1  0.78950000  0.31330000  0.22440000  1.0 0.021017085
H  H70  1  0.83440000  0.26830000  0.25440000  1.0 0.021017085
H  H71  1  0.34920000  0.52540000  0.32510000  1.0 0.1108931319
H  H72  1  0.27010000  0.53470000  0.27090000  1.0 0.1295836126
H  H73  1  0.05050000  0.43630000  0.30650000  1.0 0.1295836126
H  H74  1  0.13190000  0.44580000  0.30870000  1.0 0.1295836126
H  H75  1  0.08310000  0.49120000  0.33630000  1.0 0.1192754816
H  H76  1  0.21220000  0.60010000  0.40960000  1.0 0.1108931319
H  H77  1  0.13470000  0.60930000  0.35440000  1.0 0.1192754816
H  H78  1  0.21980000  0.67750000  0.27120000  1.0 0.021017085
H  H79  1  0.21050000  0.68670000  0.22440000  1.0 0.021017085
H  H80  1  0.16560000  0.73170000  0.25440000  1.0 0.021017085
H  H81  1  0.02540000  0.84920000  0.82510000  1.0 0.1108931319
H  H82  1  0.03470000  0.77010000  0.77090000  1.0 0.1295836126
H  H83  1  0.93630000  0.55050000  0.80650000  1.0 0.1295836126
H  H84  1  0.94580000  0.63190000  0.80870000  1.0 0.1295836126
H  H85  1  0.99120000  0.58310000  0.83630000  1.0 0.1192754816
H  H86  1  0.10010000  0.71220000  0.90960000  1.0 0.1108931319
H  H87  1  0.10930000  0.63470000  0.85440000  1.0 0.1192754816
H  H88  1  0.17750000  0.71980000  0.77120000  1.0 0.021017085
H  H89  1  0.18670000  0.71050000  0.72440000  1.0 0.021017085
H  H90  1  0.23170000  0.66560000  0.75440000  1.0 0.021017085
H  H91  1  0.97460000  0.15080000  0.82510000  1.0 0.1108931319
H  H92  1  0.96530000  0.22990000  0.77090000  1.0 0.1295836126
H  H93  1  0.06370000  0.44950000  0.80650000  1.0 0.1295836126
H  H94  1  0.05420000  0.36810000  0.80870000  1.0 0.1295836126
H  H95  1  0.00880000  0.41690000  0.83630000  1.0 0.1192754816
H  H96  1  0.89990000  0.28780000  0.90960000  1.0 0.1108931319
H  H97  1  0.89070000  0.36530000  0.85440000  1.0 0.1192754816
H  H98  1  0.82250000  0.28020000  0.77120000  1.0 0.021017085
H  H99  1  0.81330000  0.28950000  0.72440000  1.0 0.021017085
H  H100  1  0.76830000  0.33440000  0.75440000  1.0 0.021017085
H  H101  1  0.15080000  0.02540000  0.82510000  1.0 0.1108931319
H  H102  1  0.22990000  0.03470000  0.77090000  1.0 0.1295836126
H  H103  1  0.44950000  0.93630000  0.80650000  1.0 0.1295836126
H  H104  1  0.36810000  0.94580000  0.80870000  1.0 0.1295836126
H  H105  1  0.41690000  0.99120000  0.83630000  1.0 0.1192754816
H  H106  1  0.28780000  0.10010000  0.90960000  1.0 0.1108931319
H  H107  1  0.36530000  0.10930000  0.85440000  1.0 0.1192754816
H  H108  1  0.28020000  0.17750000  0.77120000  1.0 0.021017085
H  H109  1  0.28950000  0.18670000  0.72440000  1.0 0.021017085
H  H110  1  0.33440000  0.23170000  0.75440000  1.0 0.021017085
H  H111  1  0.84920000  0.97460000  0.82510000  1.0 0.1108931319
H  H112  1  0.77010000  0.96530000  0.77090000  1.0 0.1295836126
H  H113  1  0.55050000  0.06370000  0.80650000  1.0 0.1295836126
H  H114  1  0.63190000  0.05420000  0.80870000  1.0 0.1295836126
H  H115  1  0.58310000  0.00880000  0.83630000  1.0 0.1192754816
H  H116  1  0.71220000  0.89990000  0.90960000  1.0 0.1108931319
H  H117  1  0.63470000  0.89070000  0.85440000  1.0 0.1192754816
H  H118  1  0.71980000  0.82250000  0.77120000  1.0 0.021017085
H  H119  1  0.71050000  0.81330000  0.72440000  1.0 0.021017085
H  H120  1  0.66560000  0.76830000  0.75440000  1.0 0.021017085
H  H121  1  0.47460000  0.34920000  0.67490000  1.0 0.1108931319
H  H122  1  0.46530000  0.27010000  0.72910000  1.0 0.1295836126
H  H123  1  0.56370000  0.05050000  0.69350000  1.0 0.1295836126
H  H124  1  0.55420000  0.13190000  0.69130000  1.0 0.1295836126
H  H125  1  0.50880000  0.08310000  0.66370000  1.0 0.1192754816
H  H126  1  0.39990000  0.21220000  0.59040000  1.0 0.1108931319
H  H127  1  0.39070000  0.13470000  0.64560000  1.0 0.1192754816
H  H128  1  0.32250000  0.21980000  0.72880000  1.0 0.021017085
H  H129  1  0.31330000  0.21050000  0.77560000  1.0 0.021017085
H  H130  1  0.26830000  0.16560000  0.74560000  1.0 0.021017085
H  H131  1  0.52540000  0.65080000  0.67490000  1.0 0.1108931319
H  H132  1  0.53470000  0.72990000  0.72910000  1.0 0.1295836126
H  H133  1  0.43630000  0.94950000  0.69350000  1.0 0.1295836126
H  H134  1  0.44580000  0.86810000  0.69130000  1.0 0.1295836126
H  H135  1  0.49120000  0.91690000  0.66370000  1.0 0.1192754816
H  H136  1  0.60010000  0.78780000  0.59040000  1.0 0.1108931319
H  H137  1  0.60930000  0.86530000  0.64560000  1.0 0.1192754816
H  H138  1  0.67750000  0.78020000  0.72880000  1.0 0.021017085
H  H139  1  0.68670000  0.78950000  0.77560000  1.0 0.021017085
H  H140  1  0.73170000  0.83440000  0.74560000  1.0 0.021017085
H  H141  1  0.34920000  0.52540000  0.67490000  1.0 0.1108931319
H  H142  1  0.27010000  0.53470000  0.72910000  1.0 0.1295836126
H  H143  1  0.05050000  0.43630000  0.69350000  1.0 0.1295836126
H  H144  1  0.13190000  0.44580000  0.69130000  1.0 0.1295836126
H  H145  1  0.08310000  0.49120000  0.66370000  1.0 0.1192754816
H  H146  1  0.21220000  0.60010000  0.59040000  1.0 0.1108931319
H  H147  1  0.13470000  0.60930000  0.64560000  1.0 0.1192754816
H  H148  1  0.21980000  0.67750000  0.72880000  1.0 0.021017085
H  H149  1  0.21050000  0.68670000  0.77560000  1.0 0.021017085
H  H150  1  0.16560000  0.73170000  0.74560000  1.0 0.021017085
H  H151  1  0.65080000  0.47460000  0.67490000  1.0 0.1108931319
H  H152  1  0.72990000  0.46530000  0.72910000  1.0 0.1295836126
H  H153  1  0.94950000  0.56370000  0.69350000  1.0 0.1295836126
H  H154  1  0.86810000  0.55420000  0.69130000  1.0 0.1295836126
H  H155  1  0.91690000  0.50880000  0.66370000  1.0 0.1192754816
H  H156  1  0.78780000  0.39990000  0.59040000  1.0 0.1108931319
H  H157  1  0.86530000  0.39070000  0.64560000  1.0 0.1192754816
H  H158  1  0.78020000  0.32250000  0.72880000  1.0 0.021017085
H  H159  1  0.78950000  0.31330000  0.77560000  1.0 0.021017085
H  H160  1  0.83440000  0.26830000  0.74560000  1.0 0.021017085
C  C1  1  0.97500000  0.41620000  0.22250000  1.0 0.0534002462
C  C2  1  0.95730000  0.19540000  0.17000000  1.0 -0.0898118219
C  C3  1  0.94350000  0.15320000  0.09970000  1.0 0.6387396093
C  C4  1  0.95300000  0.24130000  0.20270000  1.0 -0.1301573224
C  C5  1  0.92270000  0.36550000  0.22130000  1.0 -0.0300510528
C  C6  1  0.03060000  0.41230000  0.18970000  1.0 -0.4201347668
C  C7  1  0.93740000  0.21160000  0.13030000  1.0 -0.0400529888
C  C8  1  0.92770000  0.30690000  0.19060000  1.0 0.0640407532
C  C9  1  0.91210000  0.27640000  0.11680000  1.0 -0.0898118219
C  C10  1  0.90840000  0.32080000  0.15050000  1.0 -0.1301573224
C  C11  1  0.02500000  0.58380000  0.22250000  1.0 0.0534002462
C  C12  1  0.04270000  0.80460000  0.17000000  1.0 -0.0898118219
C  C13  1  0.05650000  0.84680000  0.09970000  1.0 0.6387396093
C  C14  1  0.04700000  0.75870000  0.20270000  1.0 -0.1301573224
C  C15  1  0.07730000  0.63450000  0.22130000  1.0 -0.0300510528
C  C16  1  0.96940000  0.58770000  0.18970000  1.0 -0.4201347668
C  C17  1  0.06260000  0.78840000  0.13030000  1.0 -0.0400529888
C  C18  1  0.07230000  0.69310000  0.19060000  1.0 0.0640407532
C  C19  1  0.08790000  0.72360000  0.11680000  1.0 -0.0898118219
C  C20  1  0.09160000  0.67920000  0.15050000  1.0 -0.1301573224
C  C21  1  0.58380000  0.97500000  0.22250000  1.0 0.0534002462
C  C22  1  0.80460000  0.95730000  0.17000000  1.0 -0.0898118219
C  C23  1  0.84680000  0.94350000  0.09970000  1.0 0.6387396093
C  C24  1  0.75870000  0.95300000  0.20270000  1.0 -0.1301573224
C  C25  1  0.63450000  0.92270000  0.22130000  1.0 -0.0300510528
C  C26  1  0.58770000  0.03060000  0.18970000  1.0 -0.4201347668
C  C27  1  0.78840000  0.93740000  0.13030000  1.0 -0.0400529888
C  C28  1  0.69310000  0.92770000  0.19060000  1.0 0.0640407532
C  C29  1  0.72360000  0.91210000  0.11680000  1.0 -0.0898118219
C  C30  1  0.67920000  0.90840000  0.15050000  1.0 -0.1301573224
C  C31  1  0.41620000  0.02500000  0.22250000  1.0 0.0534002462
C  C32  1  0.19540000  0.04270000  0.17000000  1.0 -0.0898118219
C  C33  1  0.15320000  0.05650000  0.09970000  1.0 0.6387396093
C  C34  1  0.24130000  0.04700000  0.20270000  1.0 -0.1301573224
C  C35  1  0.36550000  0.07730000  0.22130000  1.0 -0.0300510528
C  C36  1  0.41230000  0.96940000  0.18970000  1.0 -0.4201347668
C  C37  1  0.21160000  0.06260000  0.13030000  1.0 -0.0400529888
C  C38  1  0.30690000  0.07230000  0.19060000  1.0 0.0640407532
C  C39  1  0.27640000  0.08790000  0.11680000  1.0 -0.0898118219
C  C40  1  0.32080000  0.09160000  0.15050000  1.0 -0.1301573224
C  C41  1  0.52500000  0.91620000  0.27750000  1.0 0.0534002462
C  C42  1  0.54270000  0.69540000  0.33000000  1.0 -0.0898118219
C  C43  1  0.55650000  0.65320000  0.40030000  1.0 0.6387396093
C  C44  1  0.54700000  0.74130000  0.29730000  1.0 -0.1301573224
C  C45  1  0.57730000  0.86550000  0.27870000  1.0 -0.0300510528
C  C46  1  0.46940000  0.91230000  0.31030000  1.0 -0.4201347668
C  C47  1  0.56260000  0.71160000  0.36970000  1.0 -0.0400529888
C  C48  1  0.57230000  0.80690000  0.30940000  1.0 0.0640407532
C  C49  1  0.58790000  0.77640000  0.38320000  1.0 -0.0898118219
C  C50  1  0.59160000  0.82080000  0.34950000  1.0 -0.1301573224
C  C51  1  0.47500000  0.08380000  0.27750000  1.0 0.0534002462
C  C52  1  0.45730000  0.30460000  0.33000000  1.0 -0.0898118219
C  C53  1  0.44350000  0.34680000  0.40030000  1.0 0.6387396093
C  C54  1  0.45300000  0.25870000  0.29730000  1.0 -0.1301573224
C  C55  1  0.42270000  0.13450000  0.27870000  1.0 -0.0300510528
C  C56  1  0.53060000  0.08770000  0.31030000  1.0 -0.4201347668
C  C57  1  0.43740000  0.28840000  0.36970000  1.0 -0.0400529888
C  C58  1  0.42770000  0.19310000  0.30940000  1.0 0.0640407532
C  C59  1  0.41210000  0.22360000  0.38320000  1.0 -0.0898118219
C  C60  1  0.40840000  0.17920000  0.34950000  1.0 -0.1301573224
C  C61  1  0.91620000  0.47500000  0.27750000  1.0 0.0534002462
C  C62  1  0.69540000  0.45730000  0.33000000  1.0 -0.0898118219
C  C63  1  0.65320000  0.44350000  0.40030000  1.0 0.6387396093
C  C64  1  0.74130000  0.45300000  0.29730000  1.0 -0.1301573224
C  C65  1  0.86550000  0.42270000  0.27870000  1.0 -0.0300510528
C  C66  1  0.91230000  0.53060000  0.31030000  1.0 -0.4201347668
C  C67  1  0.71160000  0.43740000  0.36970000  1.0 -0.0400529888
C  C68  1  0.80690000  0.42770000  0.30940000  1.0 0.0640407532
C  C69  1  0.77640000  0.41210000  0.38320000  1.0 -0.0898118219
C  C70  1  0.82080000  0.40840000  0.34950000  1.0 -0.1301573224
C  C71  1  0.08380000  0.52500000  0.27750000  1.0 0.0534002462
C  C72  1  0.30460000  0.54270000  0.33000000  1.0 -0.0898118219
C  C73  1  0.34680000  0.55650000  0.40030000  1.0 0.6387396093
C  C74  1  0.25870000  0.54700000  0.29730000  1.0 -0.1301573224
C  C75  1  0.13450000  0.57730000  0.27870000  1.0 -0.0300510528
C  C76  1  0.08770000  0.46940000  0.31030000  1.0 -0.4201347668
C  C77  1  0.28840000  0.56260000  0.36970000  1.0 -0.0400529888
C  C78  1  0.19310000  0.57230000  0.30940000  1.0 0.0640407532
C  C79  1  0.22360000  0.58790000  0.38320000  1.0 -0.0898118219
C  C80  1  0.17920000  0.59160000  0.34950000  1.0 -0.1301573224
C  C81  1  0.02500000  0.58380000  0.77750000  1.0 0.0534002462
C  C82  1  0.04270000  0.80460000  0.83000000  1.0 -0.0898118219
C  C83  1  0.05650000  0.84680000  0.90030000  1.0 0.6387396093
C  C84  1  0.04700000  0.75870000  0.79730000  1.0 -0.1301573224
C  C85  1  0.07730000  0.63450000  0.77870000  1.0 -0.0300510528
C  C86  1  0.96940000  0.58770000  0.81030000  1.0 -0.4201347668
C  C87  1  0.06260000  0.78840000  0.86970000  1.0 -0.0400529888
C  C88  1  0.07230000  0.69310000  0.80940000  1.0 0.0640407532
C  C89  1  0.08790000  0.72360000  0.88320000  1.0 -0.0898118219
C  C90  1  0.09160000  0.67920000  0.84950000  1.0 -0.1301573224
C  C91  1  0.97500000  0.41620000  0.77750000  1.0 0.0534002462
C  C92  1  0.95730000  0.19540000  0.83000000  1.0 -0.0898118219
C  C93  1  0.94350000  0.15320000  0.90030000  1.0 0.6387396093
C  C94  1  0.95300000  0.24130000  0.79730000  1.0 -0.1301573224
C  C95  1  0.92270000  0.36550000  0.77870000  1.0 -0.0300510528
C  C96  1  0.03060000  0.41230000  0.81030000  1.0 -0.4201347668
C  C97  1  0.93740000  0.21160000  0.86970000  1.0 -0.0400529888
C  C98  1  0.92770000  0.30690000  0.80940000  1.0 0.0640407532
C  C99  1  0.91210000  0.27640000  0.88320000  1.0 -0.0898118219
C  C100  1  0.90840000  0.32080000  0.84950000  1.0 -0.1301573224
C  C101  1  0.41620000  0.02500000  0.77750000  1.0 0.0534002462
C  C102  1  0.19540000  0.04270000  0.83000000  1.0 -0.0898118219
C  C103  1  0.15320000  0.05650000  0.90030000  1.0 0.6387396093
C  C104  1  0.24130000  0.04700000  0.79730000  1.0 -0.1301573224
C  C105  1  0.36550000  0.07730000  0.77870000  1.0 -0.0300510528
C  C106  1  0.41230000  0.96940000  0.81030000  1.0 -0.4201347668
C  C107  1  0.21160000  0.06260000  0.86970000  1.0 -0.0400529888
C  C108  1  0.30690000  0.07230000  0.80940000  1.0 0.0640407532
C  C109  1  0.27640000  0.08790000  0.88320000  1.0 -0.0898118219
C  C110  1  0.32080000  0.09160000  0.84950000  1.0 -0.1301573224
C  C111  1  0.58380000  0.97500000  0.77750000  1.0 0.0534002462
C  C112  1  0.80460000  0.95730000  0.83000000  1.0 -0.0898118219
C  C113  1  0.84680000  0.94350000  0.90030000  1.0 0.6387396093
C  C114  1  0.75870000  0.95300000  0.79730000  1.0 -0.1301573224
C  C115  1  0.63450000  0.92270000  0.77870000  1.0 -0.0300510528
C  C116  1  0.58770000  0.03060000  0.81030000  1.0 -0.4201347668
C  C117  1  0.78840000  0.93740000  0.86970000  1.0 -0.0400529888
C  C118  1  0.69310000  0.92770000  0.80940000  1.0 0.0640407532
C  C119  1  0.72360000  0.91210000  0.88320000  1.0 -0.0898118219
C  C120  1  0.67920000  0.90840000  0.84950000  1.0 -0.1301573224
C  C121  1  0.47500000  0.08380000  0.72250000  1.0 0.0534002462
C  C122  1  0.45730000  0.30460000  0.67000000  1.0 -0.0898118219
C  C123  1  0.44350000  0.34680000  0.59970000  1.0 0.6387396093
C  C124  1  0.45300000  0.25870000  0.70270000  1.0 -0.1301573224
C  C125  1  0.42270000  0.13450000  0.72130000  1.0 -0.0300510528
C  C126  1  0.53060000  0.08770000  0.68970000  1.0 -0.4201347668
C  C127  1  0.43740000  0.28840000  0.63030000  1.0 -0.0400529888
C  C128  1  0.42770000  0.19310000  0.69060000  1.0 0.0640407532
C  C129  1  0.41210000  0.22360000  0.61680000  1.0 -0.0898118219
C  C130  1  0.40840000  0.17920000  0.65050000  1.0 -0.1301573224
C  C131  1  0.52500000  0.91620000  0.72250000  1.0 0.0534002462
C  C132  1  0.54270000  0.69540000  0.67000000  1.0 -0.0898118219
C  C133  1  0.55650000  0.65320000  0.59970000  1.0 0.6387396093
C  C134  1  0.54700000  0.74130000  0.70270000  1.0 -0.1301573224
C  C135  1  0.57730000  0.86550000  0.72130000  1.0 -0.0300510528
C  C136  1  0.46940000  0.91230000  0.68970000  1.0 -0.4201347668
C  C137  1  0.56260000  0.71160000  0.63030000  1.0 -0.0400529888
C  C138  1  0.57230000  0.80690000  0.69060000  1.0 0.0640407532
C  C139  1  0.58790000  0.77640000  0.61680000  1.0 -0.0898118219
C  C140  1  0.59160000  0.82080000  0.65050000  1.0 -0.1301573224
C  C141  1  0.08380000  0.52500000  0.72250000  1.0 0.0534002462
C  C142  1  0.30460000  0.54270000  0.67000000  1.0 -0.0898118219
C  C143  1  0.34680000  0.55650000  0.59970000  1.0 0.6387396093
C  C144  1  0.25870000  0.54700000  0.70270000  1.0 -0.1301573224
C  C145  1  0.13450000  0.57730000  0.72130000  1.0 -0.0300510528
C  C146  1  0.08770000  0.46940000  0.68970000  1.0 -0.4201347668
C  C147  1  0.28840000  0.56260000  0.63030000  1.0 -0.0400529888
C  C148  1  0.19310000  0.57230000  0.69060000  1.0 0.0640407532
C  C149  1  0.22360000  0.58790000  0.61680000  1.0 -0.0898118219
C  C150  1  0.17920000  0.59160000  0.65050000  1.0 -0.1301573224
C  C151  1  0.91620000  0.47500000  0.72250000  1.0 0.0534002462
C  C152  1  0.69540000  0.45730000  0.67000000  1.0 -0.0898118219
C  C153  1  0.65320000  0.44350000  0.59970000  1.0 0.6387396093
C  C154  1  0.74130000  0.45300000  0.70270000  1.0 -0.1301573224
C  C155  1  0.86550000  0.42270000  0.72130000  1.0 -0.0300510528
C  C156  1  0.91230000  0.53060000  0.68970000  1.0 -0.4201347668
C  C157  1  0.71160000  0.43740000  0.63030000  1.0 -0.0400529888
C  C158  1  0.80690000  0.42770000  0.69060000  1.0 0.0640407532
C  C159  1  0.77640000  0.41210000  0.61680000  1.0 -0.0898118219
C  C160  1  0.82080000  0.40840000  0.65050000  1.0 -0.1301573224
C  C161  1  0.97212000  0.47212000  0.25000000  1.0 -0.0125144785
C  C162  1  0.86890000  0.36890000  0.25000000  1.0 -0.0170172158
C  C163  1  0.81320000  0.31320000  0.25000000  1.0 -0.1690783527
C  C164  1  0.02788000  0.52788000  0.25000000  1.0 -0.0125144785
C  C165  1  0.13110000  0.63110000  0.25000000  1.0 -0.0170172158
C  C166  1  0.18680000  0.68680000  0.25000000  1.0 -0.1690783527
C  C167  1  0.52788000  0.97212000  0.25000000  1.0 -0.0125144785
C  C168  1  0.63110000  0.86890000  0.25000000  1.0 -0.0170172158
C  C169  1  0.68680000  0.81320000  0.25000000  1.0 -0.1690783527
C  C170  1  0.47212000  0.02788000  0.25000000  1.0 -0.0125144785
C  C171  1  0.36890000  0.13110000  0.25000000  1.0 -0.0170172158
C  C172  1  0.31320000  0.18680000  0.25000000  1.0 -0.1690783527
C  C173  1  0.02788000  0.52788000  0.75000000  1.0 -0.0125144785
C  C174  1  0.13110000  0.63110000  0.75000000  1.0 -0.0170172158
C  C175  1  0.18680000  0.68680000  0.75000000  1.0 -0.1690783527
C  C176  1  0.97212000  0.47212000  0.75000000  1.0 -0.0125144785
C  C177  1  0.86890000  0.36890000  0.75000000  1.0 -0.0170172158
C  C178  1  0.81320000  0.31320000  0.75000000  1.0 -0.1690783527
C  C179  1  0.47212000  0.02788000  0.75000000  1.0 -0.0125144785
C  C180  1  0.36890000  0.13110000  0.75000000  1.0 -0.0170172158
C  C181  1  0.31320000  0.18680000  0.75000000  1.0 -0.1690783527
C  C182  1  0.52788000  0.97212000  0.75000000  1.0 -0.0125144785
C  C183  1  0.63110000  0.86890000  0.75000000  1.0 -0.0170172158
C  C184  1  0.68680000  0.81320000  0.75000000  1.0 -0.1690783527
O  O1  1  0.97110000  0.09280000  0.10980000  1.0 -0.6018751475
O  O2  1  0.93770000  0.17460000  0.06060000  1.0 -0.6962449912
O  O3  1  0.03900000  0.08580000  0.03590000  1.0 -1.1845342797
O  O4  1  0.02890000  0.90720000  0.10980000  1.0 -0.6018751475
O  O5  1  0.06230000  0.82540000  0.06060000  1.0 -0.6962449912
O  O6  1  0.96100000  0.91420000  0.03590000  1.0 -1.1845342797
O  O7  1  0.90720000  0.97110000  0.10980000  1.0 -0.6018751475
O  O8  1  0.82540000  0.93770000  0.06060000  1.0 -0.6962449912
O  O9  1  0.91420000  0.03900000  0.03590000  1.0 -1.1845342797
O  O10  1  0.09280000  0.02890000  0.10980000  1.0 -0.6018751475
O  O11  1  0.17460000  0.06230000  0.06060000  1.0 -0.6962449912
O  O12  1  0.08580000  0.96100000  0.03590000  1.0 -1.186088318
O  O13  1  0.52890000  0.59280000  0.39020000  1.0 -0.6018751475
O  O14  1  0.56230000  0.67460000  0.43940000  1.0 -0.6962449912
O  O15  1  0.46100000  0.58580000  0.46410000  1.0 -1.1845342797
O  O16  1  0.47110000  0.40720000  0.39020000  1.0 -0.6018751475
O  O17  1  0.43770000  0.32540000  0.43940000  1.0 -0.6962449912
O  O18  1  0.53900000  0.41420000  0.46410000  1.0 -1.1845342797
O  O19  1  0.59280000  0.47110000  0.39020000  1.0 -0.6018751475
O  O20  1  0.67460000  0.43770000  0.43940000  1.0 -0.6962449912
O  O21  1  0.58580000  0.53900000  0.46410000  1.0 -1.1845342797
O  O22  1  0.40720000  0.52890000  0.39020000  1.0 -0.6018751475
O  O23  1  0.32540000  0.56230000  0.43940000  1.0 -0.6962449912
O  O24  1  0.41420000  0.46100000  0.46410000  1.0 -1.1845342797
O  O25  1  0.02890000  0.90720000  0.89020000  1.0 -0.6018751475
O  O26  1  0.06230000  0.82540000  0.93940000  1.0 -0.6962449912
O  O27  1  0.96100000  0.91420000  0.96410000  1.0 -1.186088318
O  O28  1  0.97110000  0.09280000  0.89020000  1.0 -0.6018751475
O  O29  1  0.93770000  0.17460000  0.93940000  1.0 -0.6962449912
O  O30  1  0.03900000  0.08580000  0.96410000  1.0 -1.186088318
O  O31  1  0.09280000  0.02890000  0.89020000  1.0 -0.6018751475
O  O32  1  0.17460000  0.06230000  0.93940000  1.0 -0.6962449912
O  O33  1  0.08580000  0.96100000  0.96410000  1.0 -1.186088318
O  O34  1  0.90720000  0.97110000  0.89020000  1.0 -0.6018751475
O  O35  1  0.82540000  0.93770000  0.93940000  1.0 -0.6962449912
O  O36  1  0.91420000  0.03900000  0.96410000  1.0 -1.186088318
O  O37  1  0.47110000  0.40720000  0.60980000  1.0 -0.6018751475
O  O38  1  0.43770000  0.32540000  0.56060000  1.0 -0.6962449912
O  O39  1  0.53900000  0.41420000  0.53590000  1.0 -1.1845342797
O  O40  1  0.52890000  0.59280000  0.60980000  1.0 -0.6018751475
O  O41  1  0.56230000  0.67460000  0.56060000  1.0 -0.6962449912
O  O42  1  0.46100000  0.58580000  0.53590000  1.0 -1.1845342797
O  O43  1  0.40720000  0.52890000  0.60980000  1.0 -0.6018751475
O  O44  1  0.32540000  0.56230000  0.56060000  1.0 -0.6962449912
O  O45  1  0.41420000  0.46100000  0.53590000  1.0 -1.1845342797
O  O46  1  0.59280000  0.47110000  0.60980000  1.0 -0.6018751475
O  O47  1  0.67460000  0.43770000  0.56060000  1.0 -0.6962449912
O  O48  1  0.58580000  0.53900000  0.53590000  1.0 -1.1845342797
