# DDEC6 charges by PACMAN v1.1 (https://github.com/mtap-research/PACMAN-charge/)
data_NEVSUF05_ASR_pacman
_symmetry_space_group_name_H-M   'P 1'
_cell_length_a   19.33480000
_cell_length_b   19.33480000
_cell_length_c   32.76800000
_cell_angle_alpha   90.00000000
_cell_angle_beta   90.00000000
_cell_angle_gamma   90.00000000
_symmetry_Int_Tables_number   1
_chemical_formula_structural   Zr3H40(C23O6)2
_chemical_formula_sum   'Zr12 H160 C184 O48'
_cell_volume   12249.80860240
_cell_formula_units_Z   4
loop_
 _symmetry_equiv_pos_site_id
 _symmetry_equiv_pos_as_xyz
  1  'x, y, z'
loop_
 _atom_site_type_symbol
 _atom_site_label
 _atom_site_symmetry_multiplicity
 _atom_site_fract_x
 _atom_site_fract_y
 _atom_site_fract_z
 _atom_site_occupancy
 _atom_site_charge
Zr  Zr1  1  0.12160000  0.04590000  0.00000000  1.0 2.5087811785
Zr  Zr2  1  0.87840000  0.95410000  0.00000000  1.0 2.5087811785
Zr  Zr3  1  0.95410000  0.12160000  0.00000000  1.0 2.5087811785
Zr  Zr4  1  0.04590000  0.87840000  0.00000000  1.0 2.5087811785
Zr  Zr5  1  0.37840000  0.54590000  0.50000000  1.0 2.5037320691
Zr  Zr6  1  0.62160000  0.45410000  0.50000000  1.0 2.5037320691
Zr  Zr7  1  0.54590000  0.62160000  0.50000000  1.0 2.5037320691
Zr  Zr8  1  0.45410000  0.37840000  0.50000000  1.0 2.5037320691
Zr  Zr9  1  0.00000000  0.00000000  0.07467000  1.0 2.3467830258
Zr  Zr10  1  0.50000000  0.50000000  0.42533000  1.0 2.3398253756
Zr  Zr11  1  0.00000000  0.00000000  0.92533000  1.0 2.3467830258
Zr  Zr12  1  0.50000000  0.50000000  0.57467000  1.0 2.3398253756
H  H1  1  0.97050000  0.14670000  0.17980000  1.0 0.1217205719
H  H2  1  0.96630000  0.23670000  0.22630000  1.0 0.1290650653
H  H3  1  0.02200000  0.40100000  0.16680000  1.0 0.1217205719
H  H4  1  0.06850000  0.37630000  0.20320000  1.0 0.1290650653
H  H5  1  0.06150000  0.45540000  0.19350000  1.0 0.1217205719
H  H6  1  0.90150000  0.27940000  0.09480000  1.0 0.1110398282
H  H7  1  0.89350000  0.36830000  0.14200000  1.0 0.1217205719
H  H8  1  0.82280000  0.28160000  0.22840000  1.0 0.0196148016
H  H9  1  0.81430000  0.29010000  0.27570000  1.0 0.0196148016
H  H10  1  0.76950000  0.33490000  0.24590000  1.0 0.0196148016
H  H11  1  0.02950000  0.85330000  0.17980000  1.0 0.1217205719
H  H12  1  0.03370000  0.76330000  0.22630000  1.0 0.1290650653
H  H13  1  0.97800000  0.59900000  0.16680000  1.0 0.1217205719
H  H14  1  0.93150000  0.62370000  0.20320000  1.0 0.1290650653
H  H15  1  0.93850000  0.54460000  0.19350000  1.0 0.1217205719
H  H16  1  0.09850000  0.72060000  0.09480000  1.0 0.1110398282
H  H17  1  0.10650000  0.63170000  0.14200000  1.0 0.1217205719
H  H18  1  0.17720000  0.71840000  0.22840000  1.0 0.0196148016
H  H19  1  0.18570000  0.70990000  0.27570000  1.0 0.0196148016
H  H20  1  0.23050000  0.66510000  0.24590000  1.0 0.0196148016
H  H21  1  0.85330000  0.97050000  0.17980000  1.0 0.1217205719
H  H22  1  0.76330000  0.96630000  0.22630000  1.0 0.1290650653
H  H23  1  0.59900000  0.02200000  0.16680000  1.0 0.1217205719
H  H24  1  0.62370000  0.06850000  0.20320000  1.0 0.1290650653
H  H25  1  0.54460000  0.06150000  0.19350000  1.0 0.1217205719
H  H26  1  0.72060000  0.90150000  0.09480000  1.0 0.1110398282
H  H27  1  0.63170000  0.89350000  0.14200000  1.0 0.1217205719
H  H28  1  0.71840000  0.82280000  0.22840000  1.0 0.0196148016
H  H29  1  0.70990000  0.81430000  0.27570000  1.0 0.0196148016
H  H30  1  0.66510000  0.76950000  0.24590000  1.0 0.0196148016
H  H31  1  0.14670000  0.02950000  0.17980000  1.0 0.1217205719
H  H32  1  0.23670000  0.03370000  0.22630000  1.0 0.1290650653
H  H33  1  0.40100000  0.97800000  0.16680000  1.0 0.1217205719
H  H34  1  0.37630000  0.93150000  0.20320000  1.0 0.1290650653
H  H35  1  0.45540000  0.93850000  0.19350000  1.0 0.1217205719
H  H36  1  0.27940000  0.09850000  0.09480000  1.0 0.1110398282
H  H37  1  0.36830000  0.10650000  0.14200000  1.0 0.1217205719
H  H38  1  0.28160000  0.17720000  0.22840000  1.0 0.0196148016
H  H39  1  0.29010000  0.18570000  0.27570000  1.0 0.0196148016
H  H40  1  0.33490000  0.23050000  0.24590000  1.0 0.0196148016
H  H41  1  0.52950000  0.64670000  0.32020000  1.0 0.1217205719
H  H42  1  0.53370000  0.73670000  0.27370000  1.0 0.1290650653
H  H43  1  0.47800000  0.90100000  0.33320000  1.0 0.1217205719
H  H44  1  0.43150000  0.87630000  0.29680000  1.0 0.1290650653
H  H45  1  0.43850000  0.95540000  0.30650000  1.0 0.1217205719
H  H46  1  0.59850000  0.77940000  0.40520000  1.0 0.1110398282
H  H47  1  0.60650000  0.86830000  0.35800000  1.0 0.1217205719
H  H48  1  0.67720000  0.78160000  0.27160000  1.0 0.0196148016
H  H49  1  0.68570000  0.79010000  0.22430000  1.0 0.0196148016
H  H50  1  0.73050000  0.83490000  0.25410000  1.0 0.0196148016
H  H51  1  0.47050000  0.35330000  0.32020000  1.0 0.1217205719
H  H52  1  0.46630000  0.26330000  0.27370000  1.0 0.1290650653
H  H53  1  0.52200000  0.09900000  0.33320000  1.0 0.1217205719
H  H54  1  0.56850000  0.12370000  0.29680000  1.0 0.1290650653
H  H55  1  0.56150000  0.04460000  0.30650000  1.0 0.1217205719
H  H56  1  0.40150000  0.22060000  0.40520000  1.0 0.1110398282
H  H57  1  0.39350000  0.13170000  0.35800000  1.0 0.1217205719
H  H58  1  0.32280000  0.21840000  0.27160000  1.0 0.0196148016
H  H59  1  0.31430000  0.20990000  0.22430000  1.0 0.0196148016
H  H60  1  0.26950000  0.16510000  0.25410000  1.0 0.0112816977
H  H61  1  0.64670000  0.47050000  0.32020000  1.0 0.1217205719
H  H62  1  0.73670000  0.46630000  0.27370000  1.0 0.1290650653
H  H63  1  0.90100000  0.52200000  0.33320000  1.0 0.1217205719
H  H64  1  0.87630000  0.56850000  0.29680000  1.0 0.1290650653
H  H65  1  0.95540000  0.56150000  0.30650000  1.0 0.1217205719
H  H66  1  0.77940000  0.40150000  0.40520000  1.0 0.1110398282
H  H67  1  0.86830000  0.39350000  0.35800000  1.0 0.1217205719
H  H68  1  0.78160000  0.32280000  0.27160000  1.0 0.0196148016
H  H69  1  0.79010000  0.31430000  0.22430000  1.0 0.0196148016
H  H70  1  0.83490000  0.26950000  0.25410000  1.0 0.0112816977
H  H71  1  0.35330000  0.52950000  0.32020000  1.0 0.1217205719
H  H72  1  0.26330000  0.53370000  0.27370000  1.0 0.1290650653
H  H73  1  0.09900000  0.47800000  0.33320000  1.0 0.1217205719
H  H74  1  0.12370000  0.43150000  0.29680000  1.0 0.1290650653
H  H75  1  0.04460000  0.43850000  0.30650000  1.0 0.1217205719
H  H76  1  0.22060000  0.59850000  0.40520000  1.0 0.1110398282
H  H77  1  0.13170000  0.60650000  0.35800000  1.0 0.1217205719
H  H78  1  0.21840000  0.67720000  0.27160000  1.0 0.0196148016
H  H79  1  0.20990000  0.68570000  0.22430000  1.0 0.0196148016
H  H80  1  0.16510000  0.73050000  0.25410000  1.0 0.0196148016
H  H81  1  0.02950000  0.85330000  0.82020000  1.0 0.1217205719
H  H82  1  0.03370000  0.76330000  0.77370000  1.0 0.1290650653
H  H83  1  0.97800000  0.59900000  0.83320000  1.0 0.1217205719
H  H84  1  0.93150000  0.62370000  0.79680000  1.0 0.1290650653
H  H85  1  0.93850000  0.54460000  0.80650000  1.0 0.1217205719
H  H86  1  0.09850000  0.72060000  0.90520000  1.0 0.1110398282
H  H87  1  0.10650000  0.63170000  0.85800000  1.0 0.1217205719
H  H88  1  0.17720000  0.71840000  0.77160000  1.0 0.0196148016
H  H89  1  0.18570000  0.70990000  0.72430000  1.0 0.0196148016
H  H90  1  0.23050000  0.66510000  0.75410000  1.0 0.0196148016
H  H91  1  0.97050000  0.14670000  0.82020000  1.0 0.1217205719
H  H92  1  0.96630000  0.23670000  0.77370000  1.0 0.1290650653
H  H93  1  0.02200000  0.40100000  0.83320000  1.0 0.1217205719
H  H94  1  0.06850000  0.37630000  0.79680000  1.0 0.1290650653
H  H95  1  0.06150000  0.45540000  0.80650000  1.0 0.1217205719
H  H96  1  0.90150000  0.27940000  0.90520000  1.0 0.1110398282
H  H97  1  0.89350000  0.36830000  0.85800000  1.0 0.1217205719
H  H98  1  0.82280000  0.28160000  0.77160000  1.0 0.0196148016
H  H99  1  0.81430000  0.29010000  0.72430000  1.0 0.0196148016
H  H100  1  0.76950000  0.33490000  0.75410000  1.0 0.0196148016
H  H101  1  0.14670000  0.02950000  0.82020000  1.0 0.1217205719
H  H102  1  0.23670000  0.03370000  0.77370000  1.0 0.1290650653
H  H103  1  0.40100000  0.97800000  0.83320000  1.0 0.1217205719
H  H104  1  0.37630000  0.93150000  0.79680000  1.0 0.1290650653
H  H105  1  0.45540000  0.93850000  0.80650000  1.0 0.1217205719
H  H106  1  0.27940000  0.09850000  0.90520000  1.0 0.1110398282
H  H107  1  0.36830000  0.10650000  0.85800000  1.0 0.1217205719
H  H108  1  0.28160000  0.17720000  0.77160000  1.0 0.0196148016
H  H109  1  0.29010000  0.18570000  0.72430000  1.0 0.0196148016
H  H110  1  0.33490000  0.23050000  0.75410000  1.0 0.0196148016
H  H111  1  0.85330000  0.97050000  0.82020000  1.0 0.1217205719
H  H112  1  0.76330000  0.96630000  0.77370000  1.0 0.1290650653
H  H113  1  0.59900000  0.02200000  0.83320000  1.0 0.1217205719
H  H114  1  0.62370000  0.06850000  0.79680000  1.0 0.1290650653
H  H115  1  0.54460000  0.06150000  0.80650000  1.0 0.1217205719
H  H116  1  0.72060000  0.90150000  0.90520000  1.0 0.1110398282
H  H117  1  0.63170000  0.89350000  0.85800000  1.0 0.1217205719
H  H118  1  0.71840000  0.82280000  0.77160000  1.0 0.0196148016
H  H119  1  0.70990000  0.81430000  0.72430000  1.0 0.0196148016
H  H120  1  0.66510000  0.76950000  0.75410000  1.0 0.0196148016
H  H121  1  0.47050000  0.35330000  0.67980000  1.0 0.1217205719
H  H122  1  0.46630000  0.26330000  0.72630000  1.0 0.1290650653
H  H123  1  0.52200000  0.09900000  0.66680000  1.0 0.1217205719
H  H124  1  0.56850000  0.12370000  0.70320000  1.0 0.1290650653
H  H125  1  0.56150000  0.04460000  0.69350000  1.0 0.1217205719
H  H126  1  0.40150000  0.22060000  0.59480000  1.0 0.1110398282
H  H127  1  0.39350000  0.13170000  0.64200000  1.0 0.1217205719
H  H128  1  0.32280000  0.21840000  0.72840000  1.0 0.0196148016
H  H129  1  0.31430000  0.20990000  0.77570000  1.0 0.0196148016
H  H130  1  0.26950000  0.16510000  0.74590000  1.0 0.0112816977
H  H131  1  0.52950000  0.64670000  0.67980000  1.0 0.1217205719
H  H132  1  0.53370000  0.73670000  0.72630000  1.0 0.1290650653
H  H133  1  0.47800000  0.90100000  0.66680000  1.0 0.1217205719
H  H134  1  0.43150000  0.87630000  0.70320000  1.0 0.1290650653
H  H135  1  0.43850000  0.95540000  0.69350000  1.0 0.1217205719
H  H136  1  0.59850000  0.77940000  0.59480000  1.0 0.1110398282
H  H137  1  0.60650000  0.86830000  0.64200000  1.0 0.1217205719
H  H138  1  0.67720000  0.78160000  0.72840000  1.0 0.0196148016
H  H139  1  0.68570000  0.79010000  0.77570000  1.0 0.0196148016
H  H140  1  0.73050000  0.83490000  0.74590000  1.0 0.0196148016
H  H141  1  0.35330000  0.52950000  0.67980000  1.0 0.1217205719
H  H142  1  0.26330000  0.53370000  0.72630000  1.0 0.1290650653
H  H143  1  0.09900000  0.47800000  0.66680000  1.0 0.1217205719
H  H144  1  0.12370000  0.43150000  0.70320000  1.0 0.1290650653
H  H145  1  0.04460000  0.43850000  0.69350000  1.0 0.1217205719
H  H146  1  0.22060000  0.59850000  0.59480000  1.0 0.1110398282
H  H147  1  0.13170000  0.60650000  0.64200000  1.0 0.1217205719
H  H148  1  0.21840000  0.67720000  0.72840000  1.0 0.0196148016
H  H149  1  0.20990000  0.68570000  0.77570000  1.0 0.0196148016
H  H150  1  0.16510000  0.73050000  0.74590000  1.0 0.0196148016
H  H151  1  0.64670000  0.47050000  0.67980000  1.0 0.1217205719
H  H152  1  0.73670000  0.46630000  0.72630000  1.0 0.1290650653
H  H153  1  0.90100000  0.52200000  0.66680000  1.0 0.1217205719
H  H154  1  0.87630000  0.56850000  0.70320000  1.0 0.1290650653
H  H155  1  0.95540000  0.56150000  0.69350000  1.0 0.1217205719
H  H156  1  0.77940000  0.40150000  0.59480000  1.0 0.1110398282
H  H157  1  0.86830000  0.39350000  0.64200000  1.0 0.1217205719
H  H158  1  0.78160000  0.32280000  0.72840000  1.0 0.0196148016
H  H159  1  0.79010000  0.31430000  0.77570000  1.0 0.0196148016
H  H160  1  0.83490000  0.26950000  0.74590000  1.0 0.0112816977
C  C1  1  0.97550000  0.41640000  0.22260000  1.0 0.0596992435
C  C2  1  0.95540000  0.19040000  0.17190000  1.0 -0.1027736248
C  C3  1  0.94250000  0.14520000  0.10200000  1.0 0.6245075065
C  C4  1  0.95060000  0.24430000  0.19980000  1.0 -0.1149632645
C  C5  1  0.92190000  0.36740000  0.22150000  1.0 -0.0489432503
C  C6  1  0.03770000  0.41190000  0.19380000  1.0 -0.4252996234
C  C7  1  0.93660000  0.20460000  0.13170000  1.0 -0.027964052
C  C8  1  0.92340000  0.30930000  0.19030000  1.0 0.0596992435
C  C9  1  0.91360000  0.27060000  0.12180000  1.0 -0.0930800609
C  C10  1  0.90750000  0.32430000  0.14990000  1.0 -0.130694365
C  C11  1  0.02450000  0.58360000  0.22260000  1.0 0.0596992435
C  C12  1  0.04460000  0.80960000  0.17190000  1.0 -0.1027736248
C  C13  1  0.05750000  0.85480000  0.10200000  1.0 0.6258151966
C  C14  1  0.04940000  0.75570000  0.19980000  1.0 -0.1160376556
C  C15  1  0.07810000  0.63260000  0.22150000  1.0 -0.0489432503
C  C16  1  0.96230000  0.58810000  0.19380000  1.0 -0.4252996234
C  C17  1  0.06340000  0.79540000  0.13170000  1.0 -0.027964052
C  C18  1  0.07660000  0.69070000  0.19030000  1.0 0.0596992435
C  C19  1  0.08640000  0.72940000  0.12180000  1.0 -0.0930800609
C  C20  1  0.09250000  0.67570000  0.14990000  1.0 -0.130694365
C  C21  1  0.58360000  0.97550000  0.22260000  1.0 0.0596992435
C  C22  1  0.80960000  0.95540000  0.17190000  1.0 -0.1027736248
C  C23  1  0.85480000  0.94250000  0.10200000  1.0 0.6245075065
C  C24  1  0.75570000  0.95060000  0.19980000  1.0 -0.1160376556
C  C25  1  0.63260000  0.92190000  0.22150000  1.0 -0.0489432503
C  C26  1  0.58810000  0.03770000  0.19380000  1.0 -0.4252996234
C  C27  1  0.79540000  0.93660000  0.13170000  1.0 -0.027964052
C  C28  1  0.69070000  0.92340000  0.19030000  1.0 0.0596992435
C  C29  1  0.72940000  0.91360000  0.12180000  1.0 -0.0930800609
C  C30  1  0.67570000  0.90750000  0.14990000  1.0 -0.130694365
C  C31  1  0.41640000  0.02450000  0.22260000  1.0 0.0596992435
C  C32  1  0.19040000  0.04460000  0.17190000  1.0 -0.1027736248
C  C33  1  0.14520000  0.05750000  0.10200000  1.0 0.6245075065
C  C34  1  0.24430000  0.04940000  0.19980000  1.0 -0.1149632645
C  C35  1  0.36740000  0.07810000  0.22150000  1.0 -0.0489432503
C  C36  1  0.41190000  0.96230000  0.19380000  1.0 -0.4252996234
C  C37  1  0.20460000  0.06340000  0.13170000  1.0 -0.0187413451
C  C38  1  0.30930000  0.07660000  0.19030000  1.0 0.0596992435
C  C39  1  0.27060000  0.08640000  0.12180000  1.0 -0.0930800609
C  C40  1  0.32430000  0.09250000  0.14990000  1.0 -0.130694365
C  C41  1  0.52450000  0.91640000  0.27740000  1.0 0.0596992435
C  C42  1  0.54460000  0.69040000  0.32810000  1.0 -0.1027736248
C  C43  1  0.55750000  0.64520000  0.39800000  1.0 0.6245075065
C  C44  1  0.54940000  0.74430000  0.30020000  1.0 -0.1160376556
C  C45  1  0.57810000  0.86740000  0.27850000  1.0 -0.0489432503
C  C46  1  0.46230000  0.91190000  0.30620000  1.0 -0.4252996234
C  C47  1  0.56340000  0.70460000  0.36830000  1.0 -0.027964052
C  C48  1  0.57660000  0.80930000  0.30970000  1.0 0.0596992435
C  C49  1  0.58640000  0.77060000  0.37820000  1.0 -0.0930800609
C  C50  1  0.59250000  0.82430000  0.35010000  1.0 -0.130694365
C  C51  1  0.47550000  0.08360000  0.27740000  1.0 0.0596992435
C  C52  1  0.45540000  0.30960000  0.32810000  1.0 -0.1027736248
C  C53  1  0.44250000  0.35480000  0.39800000  1.0 0.6245075065
C  C54  1  0.45060000  0.25570000  0.30020000  1.0 -0.1149632645
C  C55  1  0.42190000  0.13260000  0.27850000  1.0 -0.0489432503
C  C56  1  0.53770000  0.08810000  0.30620000  1.0 -0.4252996234
C  C57  1  0.43660000  0.29540000  0.36830000  1.0 -0.027964052
C  C58  1  0.42340000  0.19070000  0.30970000  1.0 0.0596992435
C  C59  1  0.41360000  0.22940000  0.37820000  1.0 -0.0930800609
C  C60  1  0.40750000  0.17570000  0.35010000  1.0 -0.130694365
C  C61  1  0.91640000  0.47550000  0.27740000  1.0 0.0596992435
C  C62  1  0.69040000  0.45540000  0.32810000  1.0 -0.1027736248
C  C63  1  0.64520000  0.44250000  0.39800000  1.0 0.6245075065
C  C64  1  0.74430000  0.45060000  0.30020000  1.0 -0.1160376556
C  C65  1  0.86740000  0.42190000  0.27850000  1.0 -0.0489432503
C  C66  1  0.91190000  0.53770000  0.30620000  1.0 -0.4252996234
C  C67  1  0.70460000  0.43660000  0.36830000  1.0 -0.027964052
C  C68  1  0.80930000  0.42340000  0.30970000  1.0 0.0596992435
C  C69  1  0.77060000  0.41360000  0.37820000  1.0 -0.0930800609
C  C70  1  0.82430000  0.40750000  0.35010000  1.0 -0.130694365
C  C71  1  0.08360000  0.52450000  0.27740000  1.0 0.0596992435
C  C72  1  0.30960000  0.54460000  0.32810000  1.0 -0.1027736248
C  C73  1  0.35480000  0.55750000  0.39800000  1.0 0.6245075065
C  C74  1  0.25570000  0.54940000  0.30020000  1.0 -0.1160376556
C  C75  1  0.13260000  0.57810000  0.27850000  1.0 -0.0489432503
C  C76  1  0.08810000  0.46230000  0.30620000  1.0 -0.4252996234
C  C77  1  0.29540000  0.56340000  0.36830000  1.0 -0.027964052
C  C78  1  0.19070000  0.57660000  0.30970000  1.0 0.0596992435
C  C79  1  0.22940000  0.58640000  0.37820000  1.0 -0.0930800609
C  C80  1  0.17570000  0.59250000  0.35010000  1.0 -0.130694365
C  C81  1  0.02450000  0.58360000  0.77740000  1.0 0.0596992435
C  C82  1  0.04460000  0.80960000  0.82810000  1.0 -0.1027736248
C  C83  1  0.05750000  0.85480000  0.89800000  1.0 0.6245075065
C  C84  1  0.04940000  0.75570000  0.80020000  1.0 -0.1160376556
C  C85  1  0.07810000  0.63260000  0.77850000  1.0 -0.0489432503
C  C86  1  0.96230000  0.58810000  0.80620000  1.0 -0.4252996234
C  C87  1  0.06340000  0.79540000  0.86830000  1.0 -0.027964052
C  C88  1  0.07660000  0.69070000  0.80970000  1.0 0.0596992435
C  C89  1  0.08640000  0.72940000  0.87820000  1.0 -0.0930800609
C  C90  1  0.09250000  0.67570000  0.85010000  1.0 -0.130694365
C  C91  1  0.97550000  0.41640000  0.77740000  1.0 0.0596992435
C  C92  1  0.95540000  0.19040000  0.82810000  1.0 -0.1027736248
C  C93  1  0.94250000  0.14520000  0.89800000  1.0 0.6245075065
C  C94  1  0.95060000  0.24430000  0.80020000  1.0 -0.1160376556
C  C95  1  0.92190000  0.36740000  0.77850000  1.0 -0.0489432503
C  C96  1  0.03770000  0.41190000  0.80620000  1.0 -0.4252996234
C  C97  1  0.93660000  0.20460000  0.86830000  1.0 -0.027964052
C  C98  1  0.92340000  0.30930000  0.80970000  1.0 0.0596992435
C  C99  1  0.91360000  0.27060000  0.87820000  1.0 -0.0930800609
C  C100  1  0.90750000  0.32430000  0.85010000  1.0 -0.130694365
C  C101  1  0.41640000  0.02450000  0.77740000  1.0 0.0596992435
C  C102  1  0.19040000  0.04460000  0.82810000  1.0 -0.1027736248
C  C103  1  0.14520000  0.05750000  0.89800000  1.0 0.6245075065
C  C104  1  0.24430000  0.04940000  0.80020000  1.0 -0.1149632645
C  C105  1  0.36740000  0.07810000  0.77850000  1.0 -0.0489432503
C  C106  1  0.41190000  0.96230000  0.80620000  1.0 -0.4252996234
C  C107  1  0.20460000  0.06340000  0.86830000  1.0 -0.027964052
C  C108  1  0.30930000  0.07660000  0.80970000  1.0 0.0596992435
C  C109  1  0.27060000  0.08640000  0.87820000  1.0 -0.0930800609
C  C110  1  0.32430000  0.09250000  0.85010000  1.0 -0.130694365
C  C111  1  0.58360000  0.97550000  0.77740000  1.0 0.0596992435
C  C112  1  0.80960000  0.95540000  0.82810000  1.0 -0.1027736248
C  C113  1  0.85480000  0.94250000  0.89800000  1.0 0.6245075065
C  C114  1  0.75570000  0.95060000  0.80020000  1.0 -0.1160376556
C  C115  1  0.63260000  0.92190000  0.77850000  1.0 -0.0489432503
C  C116  1  0.58810000  0.03770000  0.80620000  1.0 -0.4252996234
C  C117  1  0.79540000  0.93660000  0.86830000  1.0 -0.027964052
C  C118  1  0.69070000  0.92340000  0.80970000  1.0 0.0596992435
C  C119  1  0.72940000  0.91360000  0.87820000  1.0 -0.0930800609
C  C120  1  0.67570000  0.90750000  0.85010000  1.0 -0.130694365
C  C121  1  0.47550000  0.08360000  0.72260000  1.0 0.0596992435
C  C122  1  0.45540000  0.30960000  0.67190000  1.0 -0.1027736248
C  C123  1  0.44250000  0.35480000  0.60200000  1.0 0.6245075065
C  C124  1  0.45060000  0.25570000  0.69980000  1.0 -0.1160376556
C  C125  1  0.42190000  0.13260000  0.72150000  1.0 -0.0489432503
C  C126  1  0.53770000  0.08810000  0.69380000  1.0 -0.4252996234
C  C127  1  0.43660000  0.29540000  0.63170000  1.0 -0.027964052
C  C128  1  0.42340000  0.19070000  0.69030000  1.0 0.0596992435
C  C129  1  0.41360000  0.22940000  0.62180000  1.0 -0.0930800609
C  C130  1  0.40750000  0.17570000  0.64990000  1.0 -0.130694365
C  C131  1  0.52450000  0.91640000  0.72260000  1.0 0.0596992435
C  C132  1  0.54460000  0.69040000  0.67190000  1.0 -0.1027736248
C  C133  1  0.55750000  0.64520000  0.60200000  1.0 0.6245075065
C  C134  1  0.54940000  0.74430000  0.69980000  1.0 -0.1160376556
C  C135  1  0.57810000  0.86740000  0.72150000  1.0 -0.0489432503
C  C136  1  0.46230000  0.91190000  0.69380000  1.0 -0.4252996234
C  C137  1  0.56340000  0.70460000  0.63170000  1.0 -0.027964052
C  C138  1  0.57660000  0.80930000  0.69030000  1.0 0.0596992435
C  C139  1  0.58640000  0.77060000  0.62180000  1.0 -0.0930800609
C  C140  1  0.59250000  0.82430000  0.64990000  1.0 -0.130694365
C  C141  1  0.08360000  0.52450000  0.72260000  1.0 0.0596992435
C  C142  1  0.30960000  0.54460000  0.67190000  1.0 -0.1027736248
C  C143  1  0.35480000  0.55750000  0.60200000  1.0 0.6245075065
C  C144  1  0.25570000  0.54940000  0.69980000  1.0 -0.1160376556
C  C145  1  0.13260000  0.57810000  0.72150000  1.0 -0.0489432503
C  C146  1  0.08810000  0.46230000  0.69380000  1.0 -0.4252996234
C  C147  1  0.29540000  0.56340000  0.63170000  1.0 -0.027964052
C  C148  1  0.19070000  0.57660000  0.69030000  1.0 0.0596992435
C  C149  1  0.22940000  0.58640000  0.62180000  1.0 -0.0930800609
C  C150  1  0.17570000  0.59250000  0.64990000  1.0 -0.130694365
C  C151  1  0.91640000  0.47550000  0.72260000  1.0 0.0596992435
C  C152  1  0.69040000  0.45540000  0.67190000  1.0 -0.1027736248
C  C153  1  0.64520000  0.44250000  0.60200000  1.0 0.6245075065
C  C154  1  0.74430000  0.45060000  0.69980000  1.0 -0.1160376556
C  C155  1  0.86740000  0.42190000  0.72150000  1.0 -0.0489432503
C  C156  1  0.91190000  0.53770000  0.69380000  1.0 -0.4252996234
C  C157  1  0.70460000  0.43660000  0.63170000  1.0 -0.027964052
C  C158  1  0.80930000  0.42340000  0.69030000  1.0 0.0596992435
C  C159  1  0.77060000  0.41360000  0.62180000  1.0 -0.0930800609
C  C160  1  0.82430000  0.40750000  0.64990000  1.0 -0.130694365
C  C161  1  0.97245000  0.47245000  0.25000000  1.0 -0.0187413451
C  C162  1  0.86820000  0.36820000  0.25000000  1.0 -0.027964052
C  C163  1  0.81390000  0.31390000  0.25000000  1.0 -0.1628153386
C  C164  1  0.02755000  0.52755000  0.25000000  1.0 -0.0187413451
C  C165  1  0.13180000  0.63180000  0.25000000  1.0 -0.027964052
C  C166  1  0.18610000  0.68610000  0.25000000  1.0 -0.1628153386
C  C167  1  0.52755000  0.97245000  0.25000000  1.0 -0.0187413451
C  C168  1  0.63180000  0.86820000  0.25000000  1.0 -0.027964052
C  C169  1  0.68610000  0.81390000  0.25000000  1.0 -0.1650894446
C  C170  1  0.47245000  0.02755000  0.25000000  1.0 -0.0187413451
C  C171  1  0.36820000  0.13180000  0.25000000  1.0 -0.027964052
C  C172  1  0.31390000  0.18610000  0.25000000  1.0 -0.1628153386
C  C173  1  0.02755000  0.52755000  0.75000000  1.0 -0.0187413451
C  C174  1  0.13180000  0.63180000  0.75000000  1.0 -0.027964052
C  C175  1  0.18610000  0.68610000  0.75000000  1.0 -0.1628153386
C  C176  1  0.97245000  0.47245000  0.75000000  1.0 -0.0187413451
C  C177  1  0.86820000  0.36820000  0.75000000  1.0 -0.027964052
C  C178  1  0.81390000  0.31390000  0.75000000  1.0 -0.1628153386
C  C179  1  0.47245000  0.02755000  0.75000000  1.0 -0.0187413451
C  C180  1  0.36820000  0.13180000  0.75000000  1.0 -0.0355701682
C  C181  1  0.31390000  0.18610000  0.75000000  1.0 -0.1628153386
C  C182  1  0.52755000  0.97245000  0.75000000  1.0 -0.0187413451
C  C183  1  0.63180000  0.86820000  0.75000000  1.0 -0.027964052
C  C184  1  0.68610000  0.81390000  0.75000000  1.0 -0.1650894446
O  O1  1  0.97370000  0.09270000  0.11090000  1.0 -0.5441288599
O  O2  1  0.93530000  0.17030000  0.06240000  1.0 -0.7201580977
O  O3  1  0.03870000  0.08450000  0.03600000  1.0 -1.1815053307
O  O4  1  0.02630000  0.90730000  0.11090000  1.0 -0.5456857843
O  O5  1  0.06470000  0.82970000  0.06240000  1.0 -0.7201580977
O  O6  1  0.96130000  0.91550000  0.03600000  1.0 -1.1815053307
O  O7  1  0.90730000  0.97370000  0.11090000  1.0 -0.5441288599
O  O8  1  0.82970000  0.93530000  0.06240000  1.0 -0.7201580977
O  O9  1  0.91550000  0.03870000  0.03600000  1.0 -1.1815053307
O  O10  1  0.09270000  0.02630000  0.11090000  1.0 -0.5441288599
O  O11  1  0.17030000  0.06470000  0.06240000  1.0 -0.7201580977
O  O12  1  0.08450000  0.96130000  0.03600000  1.0 -1.1815053307
O  O13  1  0.52630000  0.59270000  0.38910000  1.0 -0.5441288599
O  O14  1  0.56470000  0.67030000  0.43760000  1.0 -0.7201580977
O  O15  1  0.46130000  0.58450000  0.46400000  1.0 -1.1815053307
O  O16  1  0.47370000  0.40730000  0.38910000  1.0 -0.5441288599
O  O17  1  0.43530000  0.32970000  0.43760000  1.0 -0.7201580977
O  O18  1  0.53870000  0.41550000  0.46400000  1.0 -1.1815053307
O  O19  1  0.59270000  0.47370000  0.38910000  1.0 -0.5441288599
O  O20  1  0.67030000  0.43530000  0.43760000  1.0 -0.7201580977
O  O21  1  0.58450000  0.53870000  0.46400000  1.0 -1.1815053307
O  O22  1  0.40730000  0.52630000  0.38910000  1.0 -0.5441288599
O  O23  1  0.32970000  0.56470000  0.43760000  1.0 -0.7201580977
O  O24  1  0.41550000  0.46130000  0.46400000  1.0 -1.1815053307
O  O25  1  0.02630000  0.90730000  0.88910000  1.0 -0.5456857843
O  O26  1  0.06470000  0.82970000  0.93760000  1.0 -0.7201580977
O  O27  1  0.96130000  0.91550000  0.96400000  1.0 -1.1815053307
O  O28  1  0.97370000  0.09270000  0.88910000  1.0 -0.5441288599
O  O29  1  0.93530000  0.17030000  0.93760000  1.0 -0.7201580977
O  O30  1  0.03870000  0.08450000  0.96400000  1.0 -1.1815053307
O  O31  1  0.09270000  0.02630000  0.88910000  1.0 -0.5441288599
O  O32  1  0.17030000  0.06470000  0.93760000  1.0 -0.7201580977
O  O33  1  0.08450000  0.96130000  0.96400000  1.0 -1.1815053307
O  O34  1  0.90730000  0.97370000  0.88910000  1.0 -0.5441288599
O  O35  1  0.82970000  0.93530000  0.93760000  1.0 -0.7201580977
O  O36  1  0.91550000  0.03870000  0.96400000  1.0 -1.1815053307
O  O37  1  0.47370000  0.40730000  0.61090000  1.0 -0.5441288599
O  O38  1  0.43530000  0.32970000  0.56240000  1.0 -0.7201580977
O  O39  1  0.53870000  0.41550000  0.53600000  1.0 -1.1863202018
O  O40  1  0.52630000  0.59270000  0.61090000  1.0 -0.5441288599
O  O41  1  0.56470000  0.67030000  0.56240000  1.0 -0.7201580977
O  O42  1  0.46130000  0.58450000  0.53600000  1.0 -1.1815053307
O  O43  1  0.40730000  0.52630000  0.61090000  1.0 -0.5441288599
O  O44  1  0.32970000  0.56470000  0.56240000  1.0 -0.7201580977
O  O45  1  0.41550000  0.46130000  0.53600000  1.0 -1.1815053307
O  O46  1  0.59270000  0.47370000  0.61090000  1.0 -0.5441288599
O  O47  1  0.67030000  0.43530000  0.56240000  1.0 -0.7201580977
O  O48  1  0.58450000  0.53870000  0.53600000  1.0 -1.1815053307
