# DDEC6 charges by PACMAN v1.1 (https://github.com/mtap-research/PACMAN-charge/)
data_NEVTIU06_ASR_pacman
_symmetry_space_group_name_H-M   'P 1'
_cell_length_a   19.18670000
_cell_length_b   19.18670000
_cell_length_c   32.54300000
_cell_angle_alpha   90.00000000
_cell_angle_beta   90.00000000
_cell_angle_gamma   90.00000000
_symmetry_Int_Tables_number   1
_chemical_formula_structural   Hf3H40(C14O3)4
_chemical_formula_sum   'Hf12 H160 C224 O48'
_cell_volume   11980.03691557
_cell_formula_units_Z   4
loop_
 _symmetry_equiv_pos_site_id
 _symmetry_equiv_pos_as_xyz
  1  'x, y, z'
loop_
 _atom_site_type_symbol
 _atom_site_label
 _atom_site_symmetry_multiplicity
 _atom_site_fract_x
 _atom_site_fract_y
 _atom_site_fract_z
 _atom_site_occupancy
 _atom_site_charge
Hf  Hf1  1  0.95851000  0.12248000  0.00000000  1.0 1.4595606349
Hf  Hf2  1  0.04149000  0.87752000  0.00000000  1.0 1.4595606349
Hf  Hf3  1  0.87752000  0.95851000  0.00000000  1.0 1.4595606349
Hf  Hf4  1  0.12248000  0.04149000  0.00000000  1.0 1.4655364376
Hf  Hf5  1  0.54149000  0.62248000  0.50000000  1.0 1.4507798177
Hf  Hf6  1  0.45851000  0.37752000  0.50000000  1.0 1.4507798177
Hf  Hf7  1  0.62248000  0.45851000  0.50000000  1.0 1.4507798177
Hf  Hf8  1  0.37752000  0.54149000  0.50000000  1.0 1.4507798177
Hf  Hf9  1  0.00000000  0.00000000  0.07484000  1.0 1.5225588602
Hf  Hf10  1  0.50000000  0.50000000  0.42516000  1.0 1.5225588602
Hf  Hf11  1  0.00000000  0.00000000  0.92516000  1.0 1.5225588602
Hf  Hf12  1  0.50000000  0.50000000  0.57484000  1.0 1.5225588602
H  H1  1  0.89690000  0.37190000  0.14010000  1.0 0.1126441472
H  H2  1  0.91210000  0.27960000  0.09490000  1.0 0.1282088232
H  H3  1  0.97630000  0.15060000  0.18290000  1.0 0.1282088232
H  H4  1  0.96110000  0.24280000  0.22790000  1.0 0.1361231335
H  H5  1  0.05290000  0.38240000  0.19550000  1.0 0.1202709308
H  H6  1  0.05380000  0.46190000  0.20650000  1.0 0.0942556632
H  H7  1  0.00970000  0.43530000  0.16910000  1.0 0.1126441472
H  H8  1  0.80040000  0.31290000  0.27730000  1.0 0.039608851
H  H9  1  0.83790000  0.27520000  0.24070000  1.0 0.0302930031
H  H10  1  0.78160000  0.33240000  0.23190000  1.0 0.039608851
H  H11  1  0.10310000  0.62810000  0.14010000  1.0 0.1126441472
H  H12  1  0.08790000  0.72040000  0.09490000  1.0 0.1282088232
H  H13  1  0.02370000  0.84940000  0.18290000  1.0 0.1282088232
H  H14  1  0.03890000  0.75720000  0.22790000  1.0 0.1361231335
H  H15  1  0.94710000  0.61760000  0.19550000  1.0 0.1202709308
H  H16  1  0.94620000  0.53810000  0.20650000  1.0 0.0942556632
H  H17  1  0.99030000  0.56470000  0.16910000  1.0 0.1126441472
H  H18  1  0.19960000  0.68710000  0.27730000  1.0 0.039608851
H  H19  1  0.16210000  0.72480000  0.24070000  1.0 0.0302930031
H  H20  1  0.21840000  0.66760000  0.23190000  1.0 0.039608851
H  H21  1  0.62810000  0.89690000  0.14010000  1.0 0.1126441472
H  H22  1  0.72040000  0.91210000  0.09490000  1.0 0.1282088232
H  H23  1  0.84940000  0.97630000  0.18290000  1.0 0.1282088232
H  H24  1  0.75720000  0.96110000  0.22790000  1.0 0.1361231335
H  H25  1  0.61760000  0.05290000  0.19550000  1.0 0.1202709308
H  H26  1  0.53810000  0.05380000  0.20650000  1.0 0.0942556632
H  H27  1  0.56470000  0.00970000  0.16910000  1.0 0.1126441472
H  H28  1  0.68710000  0.80040000  0.27730000  1.0 0.039608851
H  H29  1  0.72480000  0.83790000  0.24070000  1.0 0.0302930031
H  H30  1  0.66760000  0.78160000  0.23190000  1.0 0.039608851
H  H31  1  0.37190000  0.10310000  0.14010000  1.0 0.1126441472
H  H32  1  0.27960000  0.08790000  0.09490000  1.0 0.1282088232
H  H33  1  0.15060000  0.02370000  0.18290000  1.0 0.1282088232
H  H34  1  0.24280000  0.03890000  0.22790000  1.0 0.1361231335
H  H35  1  0.38240000  0.94710000  0.19550000  1.0 0.1202709308
H  H36  1  0.46190000  0.94620000  0.20650000  1.0 0.0942556632
H  H37  1  0.43530000  0.99030000  0.16910000  1.0 0.1126441472
H  H38  1  0.31290000  0.19960000  0.27730000  1.0 0.039608851
H  H39  1  0.27520000  0.16210000  0.24070000  1.0 0.0302930031
H  H40  1  0.33240000  0.21840000  0.23190000  1.0 0.039608851
H  H41  1  0.60310000  0.87190000  0.35990000  1.0 0.1126441472
H  H42  1  0.58790000  0.77960000  0.40510000  1.0 0.1282088232
H  H43  1  0.52370000  0.65060000  0.31710000  1.0 0.1282088232
H  H44  1  0.53890000  0.74280000  0.27210000  1.0 0.1361231335
H  H45  1  0.44710000  0.88240000  0.30450000  1.0 0.1202709308
H  H46  1  0.44620000  0.96190000  0.29350000  1.0 0.0942556632
H  H47  1  0.49030000  0.93530000  0.33090000  1.0 0.1126441472
H  H48  1  0.69960000  0.81290000  0.22270000  1.0 0.039608851
H  H49  1  0.66210000  0.77520000  0.25930000  1.0 0.0302930031
H  H50  1  0.71840000  0.83240000  0.26810000  1.0 0.039608851
H  H51  1  0.39690000  0.12810000  0.35990000  1.0 0.1126441472
H  H52  1  0.41210000  0.22040000  0.40510000  1.0 0.1282088232
H  H53  1  0.47630000  0.34940000  0.31710000  1.0 0.1282088232
H  H54  1  0.46110000  0.25720000  0.27210000  1.0 0.1361231335
H  H55  1  0.55290000  0.11760000  0.30450000  1.0 0.1202709308
H  H56  1  0.55380000  0.03810000  0.29350000  1.0 0.0942556632
H  H57  1  0.50970000  0.06470000  0.33090000  1.0 0.1126441472
H  H58  1  0.30040000  0.18710000  0.22270000  1.0 0.039608851
H  H59  1  0.33790000  0.22480000  0.25930000  1.0 0.0302930031
H  H60  1  0.28160000  0.16760000  0.26810000  1.0 0.0302930031
H  H61  1  0.87190000  0.39690000  0.35990000  1.0 0.1126441472
H  H62  1  0.77960000  0.41210000  0.40510000  1.0 0.1282088232
H  H63  1  0.65060000  0.47630000  0.31710000  1.0 0.1282088232
H  H64  1  0.74280000  0.46110000  0.27210000  1.0 0.1361231335
H  H65  1  0.88240000  0.55290000  0.30450000  1.0 0.1202709308
H  H66  1  0.96190000  0.55380000  0.29350000  1.0 0.0942556632
H  H67  1  0.93530000  0.50970000  0.33090000  1.0 0.1126441472
H  H68  1  0.81290000  0.30040000  0.22270000  1.0 0.039608851
H  H69  1  0.77520000  0.33790000  0.25930000  1.0 0.0302930031
H  H70  1  0.83240000  0.28160000  0.26810000  1.0 0.039608851
H  H71  1  0.12810000  0.60310000  0.35990000  1.0 0.1126441472
H  H72  1  0.22040000  0.58790000  0.40510000  1.0 0.1282088232
H  H73  1  0.34940000  0.52370000  0.31710000  1.0 0.1282088232
H  H74  1  0.25720000  0.53890000  0.27210000  1.0 0.1361231335
H  H75  1  0.11760000  0.44710000  0.30450000  1.0 0.1202709308
H  H76  1  0.03810000  0.44620000  0.29350000  1.0 0.0942556632
H  H77  1  0.06470000  0.49030000  0.33090000  1.0 0.1126441472
H  H78  1  0.18710000  0.69960000  0.22270000  1.0 0.039608851
H  H79  1  0.22480000  0.66210000  0.25930000  1.0 0.0302930031
H  H80  1  0.16760000  0.71840000  0.26810000  1.0 0.0302930031
H  H81  1  0.10310000  0.62810000  0.85990000  1.0 0.1126441472
H  H82  1  0.08790000  0.72040000  0.90510000  1.0 0.1282088232
H  H83  1  0.02370000  0.84940000  0.81710000  1.0 0.1282088232
H  H84  1  0.03890000  0.75720000  0.77210000  1.0 0.1361231335
H  H85  1  0.94710000  0.61760000  0.80450000  1.0 0.1202709308
H  H86  1  0.94620000  0.53810000  0.79350000  1.0 0.0942556632
H  H87  1  0.99030000  0.56470000  0.83090000  1.0 0.1126441472
H  H88  1  0.19960000  0.68710000  0.72270000  1.0 0.039608851
H  H89  1  0.16210000  0.72480000  0.75930000  1.0 0.0302930031
H  H90  1  0.21840000  0.66760000  0.76810000  1.0 0.039608851
H  H91  1  0.89690000  0.37190000  0.85990000  1.0 0.1126441472
H  H92  1  0.91210000  0.27960000  0.90510000  1.0 0.1282088232
H  H93  1  0.97630000  0.15060000  0.81710000  1.0 0.1282088232
H  H94  1  0.96110000  0.24280000  0.77210000  1.0 0.1361231335
H  H95  1  0.05290000  0.38240000  0.80450000  1.0 0.1202709308
H  H96  1  0.05380000  0.46190000  0.79350000  1.0 0.0942556632
H  H97  1  0.00970000  0.43530000  0.83090000  1.0 0.1126441472
H  H98  1  0.80040000  0.31290000  0.72270000  1.0 0.039608851
H  H99  1  0.83790000  0.27520000  0.75930000  1.0 0.0302930031
H  H100  1  0.78160000  0.33240000  0.76810000  1.0 0.039608851
H  H101  1  0.37190000  0.10310000  0.85990000  1.0 0.1126441472
H  H102  1  0.27960000  0.08790000  0.90510000  1.0 0.1282088232
H  H103  1  0.15060000  0.02370000  0.81710000  1.0 0.1282088232
H  H104  1  0.24280000  0.03890000  0.77210000  1.0 0.1361231335
H  H105  1  0.38240000  0.94710000  0.80450000  1.0 0.1202709308
H  H106  1  0.46190000  0.94620000  0.79350000  1.0 0.0942556632
H  H107  1  0.43530000  0.99030000  0.83090000  1.0 0.1126441472
H  H108  1  0.31290000  0.19960000  0.72270000  1.0 0.039608851
H  H109  1  0.27520000  0.16210000  0.75930000  1.0 0.0302930031
H  H110  1  0.33240000  0.21840000  0.76810000  1.0 0.039608851
H  H111  1  0.62810000  0.89690000  0.85990000  1.0 0.1126441472
H  H112  1  0.72040000  0.91210000  0.90510000  1.0 0.1282088232
H  H113  1  0.84940000  0.97630000  0.81710000  1.0 0.1282088232
H  H114  1  0.75720000  0.96110000  0.77210000  1.0 0.1361231335
H  H115  1  0.61760000  0.05290000  0.80450000  1.0 0.1202709308
H  H116  1  0.53810000  0.05380000  0.79350000  1.0 0.0942556632
H  H117  1  0.56470000  0.00970000  0.83090000  1.0 0.1126441472
H  H118  1  0.68710000  0.80040000  0.72270000  1.0 0.039608851
H  H119  1  0.72480000  0.83790000  0.75930000  1.0 0.0302930031
H  H120  1  0.66760000  0.78160000  0.76810000  1.0 0.039608851
H  H121  1  0.39690000  0.12810000  0.64010000  1.0 0.1126441472
H  H122  1  0.41210000  0.22040000  0.59490000  1.0 0.1282088232
H  H123  1  0.47630000  0.34940000  0.68290000  1.0 0.1282088232
H  H124  1  0.46110000  0.25720000  0.72790000  1.0 0.1361231335
H  H125  1  0.55290000  0.11760000  0.69550000  1.0 0.1202709308
H  H126  1  0.55380000  0.03810000  0.70650000  1.0 0.0942556632
H  H127  1  0.50970000  0.06470000  0.66910000  1.0 0.1126441472
H  H128  1  0.30040000  0.18710000  0.77730000  1.0 0.039608851
H  H129  1  0.33790000  0.22480000  0.74070000  1.0 0.0302930031
H  H130  1  0.28160000  0.16760000  0.73190000  1.0 0.039608851
H  H131  1  0.60310000  0.87190000  0.64010000  1.0 0.1126441472
H  H132  1  0.58790000  0.77960000  0.59490000  1.0 0.1282088232
H  H133  1  0.52370000  0.65060000  0.68290000  1.0 0.1282088232
H  H134  1  0.53890000  0.74280000  0.72790000  1.0 0.1361231335
H  H135  1  0.44710000  0.88240000  0.69550000  1.0 0.1202709308
H  H136  1  0.44620000  0.96190000  0.70650000  1.0 0.0942556632
H  H137  1  0.49030000  0.93530000  0.66910000  1.0 0.1126441472
H  H138  1  0.69960000  0.81290000  0.77730000  1.0 0.039608851
H  H139  1  0.66210000  0.77520000  0.74070000  1.0 0.0302930031
H  H140  1  0.71840000  0.83240000  0.73190000  1.0 0.039608851
H  H141  1  0.12810000  0.60310000  0.64010000  1.0 0.1202709308
H  H142  1  0.22040000  0.58790000  0.59490000  1.0 0.1282088232
H  H143  1  0.34940000  0.52370000  0.68290000  1.0 0.1282088232
H  H144  1  0.25720000  0.53890000  0.72790000  1.0 0.1361231335
H  H145  1  0.11760000  0.44710000  0.69550000  1.0 0.1202709308
H  H146  1  0.03810000  0.44620000  0.70650000  1.0 0.0942556632
H  H147  1  0.06470000  0.49030000  0.66910000  1.0 0.1126441472
H  H148  1  0.18710000  0.69960000  0.77730000  1.0 0.039608851
H  H149  1  0.22480000  0.66210000  0.74070000  1.0 0.0302930031
H  H150  1  0.16760000  0.71840000  0.73190000  1.0 0.039608851
H  H151  1  0.87190000  0.39690000  0.64010000  1.0 0.1126441472
H  H152  1  0.77960000  0.41210000  0.59490000  1.0 0.1282088232
H  H153  1  0.65060000  0.47630000  0.68290000  1.0 0.1282088232
H  H154  1  0.74280000  0.46110000  0.72790000  1.0 0.1361231335
H  H155  1  0.88240000  0.55290000  0.69550000  1.0 0.1202709308
H  H156  1  0.96190000  0.55380000  0.70650000  1.0 0.0942556632
H  H157  1  0.93530000  0.50970000  0.66910000  1.0 0.1126441472
H  H158  1  0.81290000  0.30040000  0.77730000  1.0 0.039608851
H  H159  1  0.77520000  0.33790000  0.74070000  1.0 0.0302930031
H  H160  1  0.83240000  0.28160000  0.73190000  1.0 0.039608851
C  C1  1  0.93020000  0.31050000  0.19150000  1.0 0.0556748171
C  C2  1  0.91250000  0.32840000  0.14860000  1.0 -0.1309774717
C  C3  1  0.92230000  0.27170000  0.12240000  1.0 -0.1050669405
C  C4  1  0.94280000  0.21230000  0.13100000  1.0 -0.0683125647
C  C5  1  0.96070000  0.19410000  0.17440000  1.0 -0.0566962569
C  C6  1  0.95090000  0.25050000  0.20030000  1.0 -0.1533205475
C  C7  1  0.92160000  0.36550000  0.21990000  1.0 -0.0289704762
C  C8  1  0.97390000  0.41570000  0.21960000  1.0 0.0302930031
C  C9  1  0.97500000  0.47200000  0.25060000  1.0 -0.0056921114
C  C10  1  0.95010000  0.15980000  0.10080000  1.0 0.5706304682
C  C11  1  0.02560000  0.42430000  0.19630000  1.0 -0.2789016481
C  C12  1  0.92300000  0.47000000  0.27900000  1.0 0.0182126037
C  C13  1  0.87100000  0.42000000  0.27960000  1.0 -0.045595561
C  C14  1  0.06980000  0.68950000  0.19150000  1.0 0.0556748171
C  C15  1  0.08750000  0.67160000  0.14860000  1.0 -0.1309774717
C  C16  1  0.07770000  0.72830000  0.12240000  1.0 -0.1050669405
C  C17  1  0.05720000  0.78770000  0.13100000  1.0 -0.0683125647
C  C18  1  0.03930000  0.80590000  0.17440000  1.0 -0.0566962569
C  C19  1  0.04910000  0.74950000  0.20030000  1.0 -0.1533205475
C  C20  1  0.07840000  0.63450000  0.21990000  1.0 -0.0289704762
C  C21  1  0.02610000  0.58430000  0.21960000  1.0 0.0302930031
C  C22  1  0.02500000  0.52800000  0.25060000  1.0 -0.0056921114
C  C23  1  0.04990000  0.84020000  0.10080000  1.0 0.5706304682
C  C24  1  0.97440000  0.57570000  0.19630000  1.0 -0.2789016481
C  C25  1  0.07700000  0.53000000  0.27900000  1.0 0.0182126037
C  C26  1  0.12900000  0.58000000  0.27960000  1.0 -0.045595561
C  C27  1  0.68950000  0.93020000  0.19150000  1.0 0.0556748171
C  C28  1  0.67160000  0.91250000  0.14860000  1.0 -0.1309774717
C  C29  1  0.72830000  0.92230000  0.12240000  1.0 -0.1050669405
C  C30  1  0.78770000  0.94280000  0.13100000  1.0 -0.0683125647
C  C31  1  0.80590000  0.96070000  0.17440000  1.0 -0.0566962569
C  C32  1  0.74950000  0.95090000  0.20030000  1.0 -0.1533205475
C  C33  1  0.63450000  0.92160000  0.21990000  1.0 -0.0289704762
C  C34  1  0.58430000  0.97390000  0.21960000  1.0 0.0302930031
C  C35  1  0.52800000  0.97500000  0.25060000  1.0 -0.0056921114
C  C36  1  0.84020000  0.95010000  0.10080000  1.0 0.5706304682
C  C37  1  0.57570000  0.02560000  0.19630000  1.0 -0.2789016481
C  C38  1  0.53000000  0.92300000  0.27900000  1.0 0.0182126037
C  C39  1  0.58000000  0.87100000  0.27960000  1.0 -0.045595561
C  C40  1  0.31050000  0.06980000  0.19150000  1.0 0.0556748171
C  C41  1  0.32840000  0.08750000  0.14860000  1.0 -0.1309774717
C  C42  1  0.27170000  0.07770000  0.12240000  1.0 -0.1050669405
C  C43  1  0.21230000  0.05720000  0.13100000  1.0 -0.0683125647
C  C44  1  0.19410000  0.03930000  0.17440000  1.0 -0.0566962569
C  C45  1  0.25050000  0.04910000  0.20030000  1.0 -0.1533205475
C  C46  1  0.36550000  0.07840000  0.21990000  1.0 -0.0289704762
C  C47  1  0.41570000  0.02610000  0.21960000  1.0 0.0302930031
C  C48  1  0.47200000  0.02500000  0.25060000  1.0 -0.0056921114
C  C49  1  0.15980000  0.04990000  0.10080000  1.0 0.5706304682
C  C50  1  0.42430000  0.97440000  0.19630000  1.0 -0.2789016481
C  C51  1  0.47000000  0.07700000  0.27900000  1.0 0.0182126037
C  C52  1  0.42000000  0.12900000  0.27960000  1.0 -0.045595561
C  C53  1  0.56980000  0.81050000  0.30850000  1.0 0.0556748171
C  C54  1  0.58750000  0.82840000  0.35140000  1.0 -0.1309774717
C  C55  1  0.57770000  0.77170000  0.37760000  1.0 -0.1041094105
C  C56  1  0.55720000  0.71230000  0.36900000  1.0 -0.0683125647
C  C57  1  0.53930000  0.69410000  0.32560000  1.0 -0.0566962569
C  C58  1  0.54910000  0.75050000  0.29970000  1.0 -0.1533205475
C  C59  1  0.57840000  0.86550000  0.28010000  1.0 -0.0289704762
C  C60  1  0.52610000  0.91570000  0.28040000  1.0 0.0302930031
C  C61  1  0.52500000  0.97200000  0.24940000  1.0 -0.0056921114
C  C62  1  0.54990000  0.65980000  0.39920000  1.0 0.5706304682
C  C63  1  0.47440000  0.92430000  0.30370000  1.0 -0.2789016481
C  C64  1  0.57700000  0.97000000  0.22100000  1.0 0.0182126037
C  C65  1  0.62900000  0.92000000  0.22040000  1.0 -0.0447956588
C  C66  1  0.43020000  0.18950000  0.30850000  1.0 0.0556748171
C  C67  1  0.41250000  0.17160000  0.35140000  1.0 -0.1309774717
C  C68  1  0.42230000  0.22830000  0.37760000  1.0 -0.1041094105
C  C69  1  0.44280000  0.28770000  0.36900000  1.0 -0.0683125647
C  C70  1  0.46070000  0.30590000  0.32560000  1.0 -0.0566962569
C  C71  1  0.45090000  0.24950000  0.29970000  1.0 -0.1533205475
C  C72  1  0.42160000  0.13450000  0.28010000  1.0 -0.0289704762
C  C73  1  0.47390000  0.08430000  0.28040000  1.0 0.0302930031
C  C74  1  0.47500000  0.02800000  0.24940000  1.0 -0.0056921114
C  C75  1  0.45010000  0.34020000  0.39920000  1.0 0.5706304682
C  C76  1  0.52560000  0.07570000  0.30370000  1.0 -0.2789016481
C  C77  1  0.42300000  0.03000000  0.22100000  1.0 0.0182126037
C  C78  1  0.37100000  0.08000000  0.22040000  1.0 -0.045595561
C  C79  1  0.81050000  0.43020000  0.30850000  1.0 0.0556748171
C  C80  1  0.82840000  0.41250000  0.35140000  1.0 -0.1309774717
C  C81  1  0.77170000  0.42230000  0.37760000  1.0 -0.1041094105
C  C82  1  0.71230000  0.44280000  0.36900000  1.0 -0.0683125647
C  C83  1  0.69410000  0.46070000  0.32560000  1.0 -0.0566962569
C  C84  1  0.75050000  0.45090000  0.29970000  1.0 -0.1533205475
C  C85  1  0.86550000  0.42160000  0.28010000  1.0 -0.0289704762
C  C86  1  0.91570000  0.47390000  0.28040000  1.0 0.0302930031
C  C87  1  0.97200000  0.47500000  0.24940000  1.0 -0.0056921114
C  C88  1  0.65980000  0.45010000  0.39920000  1.0 0.5706304682
C  C89  1  0.92430000  0.52560000  0.30370000  1.0 -0.2789016481
C  C90  1  0.97000000  0.42300000  0.22100000  1.0 0.0182126037
C  C91  1  0.92000000  0.37100000  0.22040000  1.0 -0.045595561
C  C92  1  0.18950000  0.56980000  0.30850000  1.0 0.0556748171
C  C93  1  0.17160000  0.58750000  0.35140000  1.0 -0.1309774717
C  C94  1  0.22830000  0.57770000  0.37760000  1.0 -0.1041094105
C  C95  1  0.28770000  0.55720000  0.36900000  1.0 -0.0683125647
C  C96  1  0.30590000  0.53930000  0.32560000  1.0 -0.0566962569
C  C97  1  0.24950000  0.54910000  0.29970000  1.0 -0.1533205475
C  C98  1  0.13450000  0.57840000  0.28010000  1.0 -0.0289704762
C  C99  1  0.08430000  0.52610000  0.28040000  1.0 0.0302930031
C  C100  1  0.02800000  0.52500000  0.24940000  1.0 -0.0056921114
C  C101  1  0.34020000  0.54990000  0.39920000  1.0 0.5706304682
C  C102  1  0.07570000  0.47440000  0.30370000  1.0 -0.2789016481
C  C103  1  0.03000000  0.57700000  0.22100000  1.0 0.0182126037
C  C104  1  0.08000000  0.62900000  0.22040000  1.0 -0.045595561
C  C105  1  0.06980000  0.68950000  0.80850000  1.0 0.0556748171
C  C106  1  0.08750000  0.67160000  0.85140000  1.0 -0.1309774717
C  C107  1  0.07770000  0.72830000  0.87760000  1.0 -0.1050669405
C  C108  1  0.05720000  0.78770000  0.86900000  1.0 -0.0683125647
C  C109  1  0.03930000  0.80590000  0.82560000  1.0 -0.0566962569
C  C110  1  0.04910000  0.74950000  0.79970000  1.0 -0.1533205475
C  C111  1  0.07840000  0.63450000  0.78010000  1.0 -0.0289704762
C  C112  1  0.02610000  0.58430000  0.78040000  1.0 0.0302930031
C  C113  1  0.02500000  0.52800000  0.74940000  1.0 -0.0056921114
C  C114  1  0.04990000  0.84020000  0.89920000  1.0 0.5706304682
C  C115  1  0.97440000  0.57570000  0.80370000  1.0 -0.2789016481
C  C116  1  0.07700000  0.53000000  0.72100000  1.0 0.0182126037
C  C117  1  0.12900000  0.58000000  0.72040000  1.0 -0.045595561
C  C118  1  0.93020000  0.31050000  0.80850000  1.0 0.0556748171
C  C119  1  0.91250000  0.32840000  0.85140000  1.0 -0.1309774717
C  C120  1  0.92230000  0.27170000  0.87760000  1.0 -0.1050669405
C  C121  1  0.94280000  0.21230000  0.86900000  1.0 -0.0683125647
C  C122  1  0.96070000  0.19410000  0.82560000  1.0 -0.0566962569
C  C123  1  0.95090000  0.25050000  0.79970000  1.0 -0.1533205475
C  C124  1  0.92160000  0.36550000  0.78010000  1.0 -0.0289704762
C  C125  1  0.97390000  0.41570000  0.78040000  1.0 0.0302930031
C  C126  1  0.97500000  0.47200000  0.74940000  1.0 -0.0056921114
C  C127  1  0.95010000  0.15980000  0.89920000  1.0 0.5706304682
C  C128  1  0.02560000  0.42430000  0.80370000  1.0 -0.2789016481
C  C129  1  0.92300000  0.47000000  0.72100000  1.0 0.0182126037
C  C130  1  0.87100000  0.42000000  0.72040000  1.0 -0.045595561
C  C131  1  0.31050000  0.06980000  0.80850000  1.0 0.0556748171
C  C132  1  0.32840000  0.08750000  0.85140000  1.0 -0.1309774717
C  C133  1  0.27170000  0.07770000  0.87760000  1.0 -0.1050669405
C  C134  1  0.21230000  0.05720000  0.86900000  1.0 -0.0683125647
C  C135  1  0.19410000  0.03930000  0.82560000  1.0 -0.0566962569
C  C136  1  0.25050000  0.04910000  0.79970000  1.0 -0.1533205475
C  C137  1  0.36550000  0.07840000  0.78010000  1.0 -0.0289704762
C  C138  1  0.41570000  0.02610000  0.78040000  1.0 0.0302930031
C  C139  1  0.47200000  0.02500000  0.74940000  1.0 -0.0056921114
C  C140  1  0.15980000  0.04990000  0.89920000  1.0 0.5706304682
C  C141  1  0.42430000  0.97440000  0.80370000  1.0 -0.2789016481
C  C142  1  0.47000000  0.07700000  0.72100000  1.0 0.0182126037
C  C143  1  0.42000000  0.12900000  0.72040000  1.0 -0.045595561
C  C144  1  0.68950000  0.93020000  0.80850000  1.0 0.0556748171
C  C145  1  0.67160000  0.91250000  0.85140000  1.0 -0.1309774717
C  C146  1  0.72830000  0.92230000  0.87760000  1.0 -0.1050669405
C  C147  1  0.78770000  0.94280000  0.86900000  1.0 -0.0683125647
C  C148  1  0.80590000  0.96070000  0.82560000  1.0 -0.0566962569
C  C149  1  0.74950000  0.95090000  0.79970000  1.0 -0.1533205475
C  C150  1  0.63450000  0.92160000  0.78010000  1.0 -0.0289704762
C  C151  1  0.58430000  0.97390000  0.78040000  1.0 0.0302930031
C  C152  1  0.52800000  0.97500000  0.74940000  1.0 -0.0056921114
C  C153  1  0.84020000  0.95010000  0.89920000  1.0 0.5706304682
C  C154  1  0.57570000  0.02560000  0.80370000  1.0 -0.2789016481
C  C155  1  0.53000000  0.92300000  0.72100000  1.0 0.0182126037
C  C156  1  0.58000000  0.87100000  0.72040000  1.0 -0.045595561
C  C157  1  0.43020000  0.18950000  0.69150000  1.0 0.0556748171
C  C158  1  0.41250000  0.17160000  0.64860000  1.0 -0.1309774717
C  C159  1  0.42230000  0.22830000  0.62240000  1.0 -0.1041094105
C  C160  1  0.44280000  0.28770000  0.63100000  1.0 -0.0683125647
C  C161  1  0.46070000  0.30590000  0.67440000  1.0 -0.0566962569
C  C162  1  0.45090000  0.24950000  0.70030000  1.0 -0.1533205475
C  C163  1  0.42160000  0.13450000  0.71990000  1.0 -0.0289704762
C  C164  1  0.47390000  0.08430000  0.71960000  1.0 0.0302930031
C  C165  1  0.47500000  0.02800000  0.75060000  1.0 -0.0056921114
C  C166  1  0.45010000  0.34020000  0.60080000  1.0 0.5706304682
C  C167  1  0.52560000  0.07570000  0.69630000  1.0 -0.2789016481
C  C168  1  0.42300000  0.03000000  0.77900000  1.0 0.0182126037
C  C169  1  0.37100000  0.08000000  0.77960000  1.0 -0.045595561
C  C170  1  0.56980000  0.81050000  0.69150000  1.0 0.0556748171
C  C171  1  0.58750000  0.82840000  0.64860000  1.0 -0.1309774717
C  C172  1  0.57770000  0.77170000  0.62240000  1.0 -0.1041094105
C  C173  1  0.55720000  0.71230000  0.63100000  1.0 -0.0683125647
C  C174  1  0.53930000  0.69410000  0.67440000  1.0 -0.0566962569
C  C175  1  0.54910000  0.75050000  0.70030000  1.0 -0.1533205475
C  C176  1  0.57840000  0.86550000  0.71990000  1.0 -0.0289704762
C  C177  1  0.52610000  0.91570000  0.71960000  1.0 0.0302930031
C  C178  1  0.52500000  0.97200000  0.75060000  1.0 -0.0056921114
C  C179  1  0.54990000  0.65980000  0.60080000  1.0 0.5706304682
C  C180  1  0.47440000  0.92430000  0.69630000  1.0 -0.2789016481
C  C181  1  0.57700000  0.97000000  0.77900000  1.0 0.0182126037
C  C182  1  0.62900000  0.92000000  0.77960000  1.0 -0.045595561
C  C183  1  0.18950000  0.56980000  0.69150000  1.0 0.0556748171
C  C184  1  0.17160000  0.58750000  0.64860000  1.0 -0.1309774717
C  C185  1  0.22830000  0.57770000  0.62240000  1.0 -0.1041094105
C  C186  1  0.28770000  0.55720000  0.63100000  1.0 -0.0683125647
C  C187  1  0.30590000  0.53930000  0.67440000  1.0 -0.0566962569
C  C188  1  0.24950000  0.54910000  0.70030000  1.0 -0.1533205475
C  C189  1  0.13450000  0.57840000  0.71990000  1.0 -0.0289704762
C  C190  1  0.08430000  0.52610000  0.71960000  1.0 0.0302930031
C  C191  1  0.02800000  0.52500000  0.75060000  1.0 -0.0056921114
C  C192  1  0.34020000  0.54990000  0.60080000  1.0 0.5706304682
C  C193  1  0.07570000  0.47440000  0.69630000  1.0 -0.2789016481
C  C194  1  0.03000000  0.57700000  0.77900000  1.0 0.0182126037
C  C195  1  0.08000000  0.62900000  0.77960000  1.0 -0.045595561
C  C196  1  0.81050000  0.43020000  0.69150000  1.0 0.0556748171
C  C197  1  0.82840000  0.41250000  0.64860000  1.0 -0.1309774717
C  C198  1  0.77170000  0.42230000  0.62240000  1.0 -0.1041094105
C  C199  1  0.71230000  0.44280000  0.63100000  1.0 -0.0683125647
C  C200  1  0.69410000  0.46070000  0.67440000  1.0 -0.0566962569
C  C201  1  0.75050000  0.45090000  0.70030000  1.0 -0.1533205475
C  C202  1  0.86550000  0.42160000  0.71990000  1.0 -0.0289704762
C  C203  1  0.91570000  0.47390000  0.71960000  1.0 0.0302930031
C  C204  1  0.97200000  0.47500000  0.75060000  1.0 -0.0056921114
C  C205  1  0.65980000  0.45010000  0.60080000  1.0 0.5706304682
C  C206  1  0.92430000  0.52560000  0.69630000  1.0 -0.2789016481
C  C207  1  0.97000000  0.42300000  0.77900000  1.0 0.0182126037
C  C208  1  0.92000000  0.37100000  0.77960000  1.0 -0.045595561
C  C209  1  0.86970000  0.36970000  0.25000000  1.0 0.0182126037
C  C210  1  0.81850000  0.31850000  0.25000000  1.0 -0.1571355819
C  C211  1  0.13030000  0.63030000  0.25000000  1.0 0.0182126037
C  C212  1  0.18150000  0.68150000  0.25000000  1.0 -0.1571355819
C  C213  1  0.63030000  0.86970000  0.25000000  1.0 0.0182126037
C  C214  1  0.68150000  0.81850000  0.25000000  1.0 -0.1571355819
C  C215  1  0.36970000  0.13030000  0.25000000  1.0 0.0182126037
C  C216  1  0.31850000  0.18150000  0.25000000  1.0 -0.1571355819
C  C217  1  0.13030000  0.63030000  0.75000000  1.0 0.0182126037
C  C218  1  0.18150000  0.68150000  0.75000000  1.0 -0.1571355819
C  C219  1  0.86970000  0.36970000  0.75000000  1.0 0.0182126037
C  C220  1  0.81850000  0.31850000  0.75000000  1.0 -0.1571355819
C  C221  1  0.36970000  0.13030000  0.75000000  1.0 0.0182126037
C  C222  1  0.31850000  0.18150000  0.75000000  1.0 -0.1571355819
C  C223  1  0.63030000  0.86970000  0.75000000  1.0 0.0182126037
C  C224  1  0.68150000  0.81850000  0.75000000  1.0 -0.1571355819
O  O1  1  0.97470000  0.09210000  0.10980000  1.0 -0.5304055664
O  O2  1  0.91850000  0.03410000  0.03440000  1.0 -0.6690917689
O  O3  1  0.93990000  0.17200000  0.05870000  1.0 -0.5814323603
O  O4  1  0.02530000  0.90790000  0.10980000  1.0 -0.5304055664
O  O5  1  0.08150000  0.96590000  0.03440000  1.0 -0.6690917689
O  O6  1  0.06010000  0.82800000  0.05870000  1.0 -0.5814323603
O  O7  1  0.90790000  0.97470000  0.10980000  1.0 -0.5304055664
O  O8  1  0.96590000  0.91850000  0.03440000  1.0 -0.6690917689
O  O9  1  0.82800000  0.93990000  0.05870000  1.0 -0.5814323603
O  O10  1  0.09210000  0.02530000  0.10980000  1.0 -0.5304055664
O  O11  1  0.03410000  0.08150000  0.03440000  1.0 -0.6690917689
O  O12  1  0.17200000  0.06010000  0.05870000  1.0 -0.5814323603
O  O13  1  0.52530000  0.59210000  0.39020000  1.0 -0.5304055664
O  O14  1  0.58150000  0.53410000  0.46560000  1.0 -0.6690917689
O  O15  1  0.56010000  0.67200000  0.44130000  1.0 -0.5814323603
O  O16  1  0.47470000  0.40790000  0.39020000  1.0 -0.5304055664
O  O17  1  0.41850000  0.46590000  0.46560000  1.0 -0.6690917689
O  O18  1  0.43990000  0.32800000  0.44130000  1.0 -0.5814323603
O  O19  1  0.59210000  0.47470000  0.39020000  1.0 -0.5304055664
O  O20  1  0.53410000  0.41850000  0.46560000  1.0 -0.6690917689
O  O21  1  0.67200000  0.43990000  0.44130000  1.0 -0.5814323603
O  O22  1  0.40790000  0.52530000  0.39020000  1.0 -0.5304055664
O  O23  1  0.46590000  0.58150000  0.46560000  1.0 -0.6690917689
O  O24  1  0.32800000  0.56010000  0.44130000  1.0 -0.5814323603
O  O25  1  0.02530000  0.90790000  0.89020000  1.0 -0.5304055664
O  O26  1  0.08150000  0.96590000  0.96560000  1.0 -0.6690917689
O  O27  1  0.06010000  0.82800000  0.94130000  1.0 -0.5861994404
O  O28  1  0.97470000  0.09210000  0.89020000  1.0 -0.5304055664
O  O29  1  0.91850000  0.03410000  0.96560000  1.0 -0.6690917689
O  O30  1  0.93990000  0.17200000  0.94130000  1.0 -0.5861994404
O  O31  1  0.09210000  0.02530000  0.89020000  1.0 -0.5304055664
O  O32  1  0.03410000  0.08150000  0.96560000  1.0 -0.6690917689
O  O33  1  0.17200000  0.06010000  0.94130000  1.0 -0.5861994404
O  O34  1  0.90790000  0.97470000  0.89020000  1.0 -0.5304055664
O  O35  1  0.96590000  0.91850000  0.96560000  1.0 -0.6690917689
O  O36  1  0.82800000  0.93990000  0.94130000  1.0 -0.5861994404
O  O37  1  0.47470000  0.40790000  0.60980000  1.0 -0.5304055664
O  O38  1  0.41850000  0.46590000  0.53440000  1.0 -0.6690917689
O  O39  1  0.43990000  0.32800000  0.55870000  1.0 -0.5814323603
O  O40  1  0.52530000  0.59210000  0.60980000  1.0 -0.5304055664
O  O41  1  0.58150000  0.53410000  0.53440000  1.0 -0.6690917689
O  O42  1  0.56010000  0.67200000  0.55870000  1.0 -0.5814323603
O  O43  1  0.40790000  0.52530000  0.60980000  1.0 -0.5304055664
O  O44  1  0.46590000  0.58150000  0.53440000  1.0 -0.6690917689
O  O45  1  0.32800000  0.56010000  0.55870000  1.0 -0.5814323603
O  O46  1  0.59210000  0.47470000  0.60980000  1.0 -0.5304055664
O  O47  1  0.53410000  0.41850000  0.53440000  1.0 -0.6690917689
O  O48  1  0.67200000  0.43990000  0.55870000  1.0 -0.5814323603
