# DDEC6 charges by PACMAN v1.1 (https://github.com/mtap-research/PACMAN-charge/)
data_NEVTIU10_ASR_pacman
_symmetry_space_group_name_H-M   'P 1'
_cell_length_a   18.24300000
_cell_length_b   18.24300000
_cell_length_c   33.84500000
_cell_angle_alpha   90.00000000
_cell_angle_beta   90.00000000
_cell_angle_gamma   90.00000000
_symmetry_Int_Tables_number   1
_chemical_formula_structural   Hf3H40(C5O)12
_chemical_formula_sum   'Hf12 H160 C240 O48'
_cell_volume   11263.85457340
_cell_formula_units_Z   4
loop_
 _symmetry_equiv_pos_site_id
 _symmetry_equiv_pos_as_xyz
  1  'x, y, z'
loop_
 _atom_site_type_symbol
 _atom_site_label
 _atom_site_symmetry_multiplicity
 _atom_site_fract_x
 _atom_site_fract_y
 _atom_site_fract_z
 _atom_site_occupancy
 _atom_site_charge
Hf  Hf1  1  0.94560000  0.12530000  0.00000000  1.0 1.4986436797
Hf  Hf2  1  0.05440000  0.87470000  0.00000000  1.0 1.4896592332
Hf  Hf3  1  0.87470000  0.94560000  0.00000000  1.0 1.4831353856
Hf  Hf4  1  0.12530000  0.05440000  0.00000000  1.0 1.4896592332
Hf  Hf5  1  0.55440000  0.62530000  0.50000000  1.0 1.4896592332
Hf  Hf6  1  0.44560000  0.37470000  0.50000000  1.0 1.4896592332
Hf  Hf7  1  0.62530000  0.44560000  0.50000000  1.0 1.4896592332
Hf  Hf8  1  0.37470000  0.55440000  0.50000000  1.0 1.4896592332
Hf  Hf9  1  0.00000000  0.00000000  0.07161000  1.0 1.5088227523
Hf  Hf10  1  0.50000000  0.50000000  0.42839000  1.0 1.5088227523
Hf  Hf11  1  0.00000000  0.00000000  0.92839000  1.0 1.5088227523
Hf  Hf12  1  0.50000000  0.50000000  0.57161000  1.0 1.5088227523
H  H1  1  0.87370000  0.37980000  0.14610000  1.0 0.1208193833
H  H2  1  0.87870000  0.29300000  0.09640000  1.0 0.1286153199
H  H3  1  0.95870000  0.14120000  0.17210000  1.0 0.1208193833
H  H4  1  0.95380000  0.22820000  0.22170000  1.0 0.1208193833
H  H5  1  0.01900000  0.38380000  0.17510000  1.0 0.1208193833
H  H6  1  0.06040000  0.44260000  0.20050000  1.0 0.0977880472
H  H7  1  0.78190000  0.30830000  0.27950000  1.0 0.0797541484
H  H8  1  0.83520000  0.24990000  0.26140000  1.0 0.0897174348
H  H9  1  0.78740000  0.29920000  0.23350000  1.0 0.0303843665
H  H10  1  0.99210000  0.46540000  0.17520000  1.0 0.0797541484
H  H11  1  0.12630000  0.62020000  0.14610000  1.0 0.1208193833
H  H12  1  0.12130000  0.70700000  0.09640000  1.0 0.1286153199
H  H13  1  0.04130000  0.85880000  0.17210000  1.0 0.1208193833
H  H14  1  0.04620000  0.77180000  0.22170000  1.0 0.1208193833
H  H15  1  0.98100000  0.61620000  0.17510000  1.0 0.1208193833
H  H16  1  0.93960000  0.55740000  0.20050000  1.0 0.0977880472
H  H17  1  0.21810000  0.69170000  0.27950000  1.0 0.0797541484
H  H18  1  0.16480000  0.75010000  0.26140000  1.0 0.0897174348
H  H19  1  0.21260000  0.70080000  0.23350000  1.0 0.0303843665
H  H20  1  0.00790000  0.53460000  0.17520000  1.0 0.0797541484
H  H21  1  0.62020000  0.87370000  0.14610000  1.0 0.1208193833
H  H22  1  0.70700000  0.87870000  0.09640000  1.0 0.1286153199
H  H23  1  0.85880000  0.95870000  0.17210000  1.0 0.1208193833
H  H24  1  0.77180000  0.95380000  0.22170000  1.0 0.1208193833
H  H25  1  0.61620000  0.01900000  0.17510000  1.0 0.1208193833
H  H26  1  0.55740000  0.06040000  0.20050000  1.0 0.0977880472
H  H27  1  0.69170000  0.78190000  0.27950000  1.0 0.0797541484
H  H28  1  0.75010000  0.83520000  0.26140000  1.0 0.0897174348
H  H29  1  0.70080000  0.78740000  0.23350000  1.0 0.0303843665
H  H30  1  0.53460000  0.99210000  0.17520000  1.0 0.0797541484
H  H31  1  0.37980000  0.12630000  0.14610000  1.0 0.1208193833
H  H32  1  0.29300000  0.12130000  0.09640000  1.0 0.1286153199
H  H33  1  0.14120000  0.04130000  0.17210000  1.0 0.1208193833
H  H34  1  0.22820000  0.04620000  0.22170000  1.0 0.1208193833
H  H35  1  0.38380000  0.98100000  0.17510000  1.0 0.1208193833
H  H36  1  0.44260000  0.93960000  0.20050000  1.0 0.0977880472
H  H37  1  0.30830000  0.21810000  0.27950000  1.0 0.0797541484
H  H38  1  0.24990000  0.16480000  0.26140000  1.0 0.0897174348
H  H39  1  0.29920000  0.21260000  0.23350000  1.0 0.0303843665
H  H40  1  0.46540000  0.00790000  0.17520000  1.0 0.0797541484
H  H41  1  0.62630000  0.87980000  0.35390000  1.0 0.1208193833
H  H42  1  0.62130000  0.79300000  0.40360000  1.0 0.1286153199
H  H43  1  0.54130000  0.64120000  0.32790000  1.0 0.1208193833
H  H44  1  0.54620000  0.72820000  0.27830000  1.0 0.1208193833
H  H45  1  0.48100000  0.88380000  0.32490000  1.0 0.1208193833
H  H46  1  0.43960000  0.94260000  0.29950000  1.0 0.0977880472
H  H47  1  0.71810000  0.80830000  0.22050000  1.0 0.0797541484
H  H48  1  0.66480000  0.74990000  0.23860000  1.0 0.0897174348
H  H49  1  0.71260000  0.79920000  0.26650000  1.0 0.0303843665
H  H50  1  0.50790000  0.96540000  0.32480000  1.0 0.0797541484
H  H51  1  0.37370000  0.12020000  0.35390000  1.0 0.1208193833
H  H52  1  0.37870000  0.20700000  0.40360000  1.0 0.1286153199
H  H53  1  0.45870000  0.35880000  0.32790000  1.0 0.1208193833
H  H54  1  0.45380000  0.27180000  0.27830000  1.0 0.1208193833
H  H55  1  0.51900000  0.11620000  0.32490000  1.0 0.1208193833
H  H56  1  0.56040000  0.05740000  0.29950000  1.0 0.0977880472
H  H57  1  0.28190000  0.19170000  0.22050000  1.0 0.0797541484
H  H58  1  0.33520000  0.25010000  0.23860000  1.0 0.0897174348
H  H59  1  0.28740000  0.20080000  0.26650000  1.0 0.0303843665
H  H60  1  0.49210000  0.03460000  0.32480000  1.0 0.0797541484
H  H61  1  0.87980000  0.37370000  0.35390000  1.0 0.1208193833
H  H62  1  0.79300000  0.37870000  0.40360000  1.0 0.1286153199
H  H63  1  0.64120000  0.45870000  0.32790000  1.0 0.1208193833
H  H64  1  0.72820000  0.45380000  0.27830000  1.0 0.1208193833
H  H65  1  0.88380000  0.51900000  0.32490000  1.0 0.1208193833
H  H66  1  0.94260000  0.56040000  0.29950000  1.0 0.0977880472
H  H67  1  0.80830000  0.28190000  0.22050000  1.0 0.0797541484
H  H68  1  0.74990000  0.33520000  0.23860000  1.0 0.0897174348
H  H69  1  0.79920000  0.28740000  0.26650000  1.0 0.0303843665
H  H70  1  0.96540000  0.49210000  0.32480000  1.0 0.0797541484
H  H71  1  0.12020000  0.62630000  0.35390000  1.0 0.1208193833
H  H72  1  0.20700000  0.62130000  0.40360000  1.0 0.1286153199
H  H73  1  0.35880000  0.54130000  0.32790000  1.0 0.1208193833
H  H74  1  0.27180000  0.54620000  0.27830000  1.0 0.1208193833
H  H75  1  0.11620000  0.48100000  0.32490000  1.0 0.1208193833
H  H76  1  0.05740000  0.43960000  0.29950000  1.0 0.0977880472
H  H77  1  0.19170000  0.71810000  0.22050000  1.0 0.0797541484
H  H78  1  0.25010000  0.66480000  0.23860000  1.0 0.0897174348
H  H79  1  0.20080000  0.71260000  0.26650000  1.0 0.0303843665
H  H80  1  0.03460000  0.50790000  0.32480000  1.0 0.0797541484
H  H81  1  0.12630000  0.62020000  0.85390000  1.0 0.1208193833
H  H82  1  0.12130000  0.70700000  0.90360000  1.0 0.1286153199
H  H83  1  0.04130000  0.85880000  0.82790000  1.0 0.1208193833
H  H84  1  0.04620000  0.77180000  0.77830000  1.0 0.1208193833
H  H85  1  0.98100000  0.61620000  0.82490000  1.0 0.1208193833
H  H86  1  0.93960000  0.55740000  0.79950000  1.0 0.0977880472
H  H87  1  0.21810000  0.69170000  0.72050000  1.0 0.0797541484
H  H88  1  0.16480000  0.75010000  0.73860000  1.0 0.0897174348
H  H89  1  0.21260000  0.70080000  0.76650000  1.0 0.0303843665
H  H90  1  0.00790000  0.53460000  0.82480000  1.0 0.0797541484
H  H91  1  0.87370000  0.37980000  0.85390000  1.0 0.1208193833
H  H92  1  0.87870000  0.29300000  0.90360000  1.0 0.1286153199
H  H93  1  0.95870000  0.14120000  0.82790000  1.0 0.1208193833
H  H94  1  0.95380000  0.22820000  0.77830000  1.0 0.1208193833
H  H95  1  0.01900000  0.38380000  0.82490000  1.0 0.1208193833
H  H96  1  0.06040000  0.44260000  0.79950000  1.0 0.0977880472
H  H97  1  0.78190000  0.30830000  0.72050000  1.0 0.0797541484
H  H98  1  0.83520000  0.24990000  0.73860000  1.0 0.0897174348
H  H99  1  0.78740000  0.29920000  0.76650000  1.0 0.0303843665
H  H100  1  0.99210000  0.46540000  0.82480000  1.0 0.0797541484
H  H101  1  0.37980000  0.12630000  0.85390000  1.0 0.1208193833
H  H102  1  0.29300000  0.12130000  0.90360000  1.0 0.1286153199
H  H103  1  0.14120000  0.04130000  0.82790000  1.0 0.1208193833
H  H104  1  0.22820000  0.04620000  0.77830000  1.0 0.1208193833
H  H105  1  0.38380000  0.98100000  0.82490000  1.0 0.1208193833
H  H106  1  0.44260000  0.93960000  0.79950000  1.0 0.0977880472
H  H107  1  0.30830000  0.21810000  0.72050000  1.0 0.0797541484
H  H108  1  0.24990000  0.16480000  0.73860000  1.0 0.0897174348
H  H109  1  0.29920000  0.21260000  0.76650000  1.0 0.0303843665
H  H110  1  0.46540000  0.00790000  0.82480000  1.0 0.0797541484
H  H111  1  0.62020000  0.87370000  0.85390000  1.0 0.1208193833
H  H112  1  0.70700000  0.87870000  0.90360000  1.0 0.1286153199
H  H113  1  0.85880000  0.95870000  0.82790000  1.0 0.1208193833
H  H114  1  0.77180000  0.95380000  0.77830000  1.0 0.1208193833
H  H115  1  0.61620000  0.01900000  0.82490000  1.0 0.1208193833
H  H116  1  0.55740000  0.06040000  0.79950000  1.0 0.0977880472
H  H117  1  0.69170000  0.78190000  0.72050000  1.0 0.0797541484
H  H118  1  0.75010000  0.83520000  0.73860000  1.0 0.0897174348
H  H119  1  0.70080000  0.78740000  0.76650000  1.0 0.0303843665
H  H120  1  0.53460000  0.99210000  0.82480000  1.0 0.0797541484
H  H121  1  0.37370000  0.12020000  0.64610000  1.0 0.1208193833
H  H122  1  0.37870000  0.20700000  0.59640000  1.0 0.1286153199
H  H123  1  0.45870000  0.35880000  0.67210000  1.0 0.1208193833
H  H124  1  0.45380000  0.27180000  0.72170000  1.0 0.1208193833
H  H125  1  0.51900000  0.11620000  0.67510000  1.0 0.1208193833
H  H126  1  0.56040000  0.05740000  0.70050000  1.0 0.0977880472
H  H127  1  0.28190000  0.19170000  0.77950000  1.0 0.0797541484
H  H128  1  0.33520000  0.25010000  0.76140000  1.0 0.0897174348
H  H129  1  0.28740000  0.20080000  0.73350000  1.0 0.0303843665
H  H130  1  0.49210000  0.03460000  0.67520000  1.0 0.0797541484
H  H131  1  0.62630000  0.87980000  0.64610000  1.0 0.1208193833
H  H132  1  0.62130000  0.79300000  0.59640000  1.0 0.1286153199
H  H133  1  0.54130000  0.64120000  0.67210000  1.0 0.1208193833
H  H134  1  0.54620000  0.72820000  0.72170000  1.0 0.1208193833
H  H135  1  0.48100000  0.88380000  0.67510000  1.0 0.1208193833
H  H136  1  0.43960000  0.94260000  0.70050000  1.0 0.0977880472
H  H137  1  0.71810000  0.80830000  0.77950000  1.0 0.0797541484
H  H138  1  0.66480000  0.74990000  0.76140000  1.0 0.0897174348
H  H139  1  0.71260000  0.79920000  0.73350000  1.0 0.0303843665
H  H140  1  0.50790000  0.96540000  0.67520000  1.0 0.0797541484
H  H141  1  0.12020000  0.62630000  0.64610000  1.0 0.1208193833
H  H142  1  0.20700000  0.62130000  0.59640000  1.0 0.1286153199
H  H143  1  0.35880000  0.54130000  0.67210000  1.0 0.1208193833
H  H144  1  0.27180000  0.54620000  0.72170000  1.0 0.1208193833
H  H145  1  0.11620000  0.48100000  0.67510000  1.0 0.1208193833
H  H146  1  0.05740000  0.43960000  0.70050000  1.0 0.0977880472
H  H147  1  0.19170000  0.71810000  0.77950000  1.0 0.0797541484
H  H148  1  0.25010000  0.66480000  0.76140000  1.0 0.0897174348
H  H149  1  0.20080000  0.71260000  0.73350000  1.0 0.0303843665
H  H150  1  0.03460000  0.50790000  0.67520000  1.0 0.0797541484
H  H151  1  0.87980000  0.37370000  0.64610000  1.0 0.1208193833
H  H152  1  0.79300000  0.37870000  0.59640000  1.0 0.1286153199
H  H153  1  0.64120000  0.45870000  0.67210000  1.0 0.1208193833
H  H154  1  0.72820000  0.45380000  0.72170000  1.0 0.1208193833
H  H155  1  0.88380000  0.51900000  0.67510000  1.0 0.1208193833
H  H156  1  0.94260000  0.56040000  0.70050000  1.0 0.0977880472
H  H157  1  0.80830000  0.28190000  0.77950000  1.0 0.0797541484
H  H158  1  0.74990000  0.33520000  0.76140000  1.0 0.0897174348
H  H159  1  0.79920000  0.28740000  0.73350000  1.0 0.0303843665
H  H160  1  0.96540000  0.49210000  0.67520000  1.0 0.0797541484
C  C1  1  0.91450000  0.31100000  0.19060000  1.0 0.0797541484
C  C2  1  0.89050000  0.33260000  0.15120000  1.0 -0.2541670965
C  C3  1  0.89380000  0.28000000  0.12170000  1.0 -0.0680353705
C  C4  1  0.91800000  0.21000000  0.12750000  1.0 -0.0914941084
C  C5  1  0.94190000  0.18840000  0.16690000  1.0 -0.0631340172
C  C6  1  0.93860000  0.24100000  0.19640000  1.0 -0.2019468228
C  C7  1  0.91340000  0.36060000  0.22270000  1.0 -0.0071352304
C  C8  1  0.96910000  0.41250000  0.22170000  1.0 0.0370160529
C  C9  1  0.98300000  0.45500000  0.25480000  1.0 0.013636347
C  C10  1  0.94200000  0.44600000  0.28890000  1.0 0.0370160529
C  C11  1  0.88600000  0.39400000  0.28990000  1.0 0.0025636771
C  C12  1  0.92150000  0.15600000  0.09770000  1.0 0.5577248765
C  C13  1  0.01330000  0.42700000  0.19090000  1.0 -0.3063485211
C  C14  1  0.87200000  0.35100000  0.25680000  1.0 0.047649976
C  C15  1  0.81400000  0.29800000  0.25790000  1.0 -0.130858818
C  C16  1  0.08550000  0.68900000  0.19060000  1.0 0.0797541484
C  C17  1  0.10950000  0.66740000  0.15120000  1.0 -0.2555983769
C  C18  1  0.10620000  0.72000000  0.12170000  1.0 -0.0680353705
C  C19  1  0.08200000  0.79000000  0.12750000  1.0 -0.0914941084
C  C20  1  0.05810000  0.81160000  0.16690000  1.0 -0.0631340172
C  C21  1  0.06140000  0.75900000  0.19640000  1.0 -0.2019468228
C  C22  1  0.08660000  0.63940000  0.22270000  1.0 -0.0071352304
C  C23  1  0.03090000  0.58750000  0.22170000  1.0 0.0370160529
C  C24  1  0.01700000  0.54500000  0.25480000  1.0 0.013636347
C  C25  1  0.05800000  0.55400000  0.28890000  1.0 0.0370160529
C  C26  1  0.11400000  0.60600000  0.28990000  1.0 0.0025636771
C  C27  1  0.07850000  0.84400000  0.09770000  1.0 0.5577248765
C  C28  1  0.98670000  0.57300000  0.19090000  1.0 -0.3063485211
C  C29  1  0.12800000  0.64900000  0.25680000  1.0 0.047649976
C  C30  1  0.18600000  0.70200000  0.25790000  1.0 -0.130858818
C  C31  1  0.68900000  0.91450000  0.19060000  1.0 0.0797541484
C  C32  1  0.66740000  0.89050000  0.15120000  1.0 -0.2555983769
C  C33  1  0.72000000  0.89380000  0.12170000  1.0 -0.0680353705
C  C34  1  0.79000000  0.91800000  0.12750000  1.0 -0.0914941084
C  C35  1  0.81160000  0.94190000  0.16690000  1.0 -0.0631340172
C  C36  1  0.75900000  0.93860000  0.19640000  1.0 -0.2019468228
C  C37  1  0.63940000  0.91340000  0.22270000  1.0 -0.0071352304
C  C38  1  0.58750000  0.96910000  0.22170000  1.0 0.0370160529
C  C39  1  0.54500000  0.98300000  0.25480000  1.0 0.013636347
C  C40  1  0.55400000  0.94200000  0.28890000  1.0 0.0370160529
C  C41  1  0.60600000  0.88600000  0.28990000  1.0 0.0025636771
C  C42  1  0.84400000  0.92150000  0.09770000  1.0 0.5577248765
C  C43  1  0.57300000  0.01330000  0.19090000  1.0 -0.3063485211
C  C44  1  0.64900000  0.87200000  0.25680000  1.0 0.047649976
C  C45  1  0.70200000  0.81400000  0.25790000  1.0 -0.130858818
C  C46  1  0.31100000  0.08550000  0.19060000  1.0 0.0797541484
C  C47  1  0.33260000  0.10950000  0.15120000  1.0 -0.2541670965
C  C48  1  0.28000000  0.10620000  0.12170000  1.0 -0.0680353705
C  C49  1  0.21000000  0.08200000  0.12750000  1.0 -0.0914941084
C  C50  1  0.18840000  0.05810000  0.16690000  1.0 -0.0631340172
C  C51  1  0.24100000  0.06140000  0.19640000  1.0 -0.2019468228
C  C52  1  0.36060000  0.08660000  0.22270000  1.0 -0.0071352304
C  C53  1  0.41250000  0.03090000  0.22170000  1.0 0.0370160529
C  C54  1  0.45500000  0.01700000  0.25480000  1.0 0.013636347
C  C55  1  0.44600000  0.05800000  0.28890000  1.0 0.0370160529
C  C56  1  0.39400000  0.11400000  0.28990000  1.0 0.0025636771
C  C57  1  0.15600000  0.07850000  0.09770000  1.0 0.5577248765
C  C58  1  0.42700000  0.98670000  0.19090000  1.0 -0.3063485211
C  C59  1  0.35100000  0.12800000  0.25680000  1.0 0.047649976
C  C60  1  0.29800000  0.18600000  0.25790000  1.0 -0.130858818
C  C61  1  0.58550000  0.81100000  0.30940000  1.0 0.0797541484
C  C62  1  0.60950000  0.83260000  0.34880000  1.0 -0.2555983769
C  C63  1  0.60620000  0.78000000  0.37830000  1.0 -0.0680353705
C  C64  1  0.58200000  0.71000000  0.37250000  1.0 -0.0914941084
C  C65  1  0.55810000  0.68840000  0.33310000  1.0 -0.0631340172
C  C66  1  0.56140000  0.74100000  0.30360000  1.0 -0.2019468228
C  C67  1  0.58660000  0.86060000  0.27730000  1.0 -0.0071352304
C  C68  1  0.53090000  0.91250000  0.27830000  1.0 0.0370160529
C  C69  1  0.51700000  0.95500000  0.24520000  1.0 0.013636347
C  C70  1  0.55800000  0.94600000  0.21110000  1.0 0.0370160529
C  C71  1  0.61400000  0.89400000  0.21010000  1.0 0.0025636771
C  C72  1  0.57850000  0.65600000  0.40230000  1.0 0.5577248765
C  C73  1  0.48670000  0.92700000  0.30910000  1.0 -0.3063485211
C  C74  1  0.62800000  0.85100000  0.24320000  1.0 0.047649976
C  C75  1  0.68600000  0.79800000  0.24210000  1.0 -0.130858818
C  C76  1  0.41450000  0.18900000  0.30940000  1.0 0.0797541484
C  C77  1  0.39050000  0.16740000  0.34880000  1.0 -0.2541670965
C  C78  1  0.39380000  0.22000000  0.37830000  1.0 -0.0680353705
C  C79  1  0.41800000  0.29000000  0.37250000  1.0 -0.0914941084
C  C80  1  0.44190000  0.31160000  0.33310000  1.0 -0.0631340172
C  C81  1  0.43860000  0.25900000  0.30360000  1.0 -0.2019468228
C  C82  1  0.41340000  0.13940000  0.27730000  1.0 -0.0071352304
C  C83  1  0.46910000  0.08750000  0.27830000  1.0 0.0370160529
C  C84  1  0.48300000  0.04500000  0.24520000  1.0 0.013636347
C  C85  1  0.44200000  0.05400000  0.21110000  1.0 0.0370160529
C  C86  1  0.38600000  0.10600000  0.21010000  1.0 0.0025636771
C  C87  1  0.42150000  0.34400000  0.40230000  1.0 0.5577248765
C  C88  1  0.51330000  0.07300000  0.30910000  1.0 -0.3063485211
C  C89  1  0.37200000  0.14900000  0.24320000  1.0 0.047649976
C  C90  1  0.31400000  0.20200000  0.24210000  1.0 -0.130858818
C  C91  1  0.81100000  0.41450000  0.30940000  1.0 0.0797541484
C  C92  1  0.83260000  0.39050000  0.34880000  1.0 -0.2555983769
C  C93  1  0.78000000  0.39380000  0.37830000  1.0 -0.0680353705
C  C94  1  0.71000000  0.41800000  0.37250000  1.0 -0.0914941084
C  C95  1  0.68840000  0.44190000  0.33310000  1.0 -0.0631340172
C  C96  1  0.74100000  0.43860000  0.30360000  1.0 -0.2019468228
C  C97  1  0.86060000  0.41340000  0.27730000  1.0 -0.0071352304
C  C98  1  0.91250000  0.46910000  0.27830000  1.0 0.0370160529
C  C99  1  0.95500000  0.48300000  0.24520000  1.0 0.013636347
C  C100  1  0.94600000  0.44200000  0.21110000  1.0 0.0370160529
C  C101  1  0.89400000  0.38600000  0.21010000  1.0 0.0025636771
C  C102  1  0.65600000  0.42150000  0.40230000  1.0 0.5577248765
C  C103  1  0.92700000  0.51330000  0.30910000  1.0 -0.3063485211
C  C104  1  0.85100000  0.37200000  0.24320000  1.0 0.047649976
C  C105  1  0.79800000  0.31400000  0.24210000  1.0 -0.130858818
C  C106  1  0.18900000  0.58550000  0.30940000  1.0 0.0797541484
C  C107  1  0.16740000  0.60950000  0.34880000  1.0 -0.2555983769
C  C108  1  0.22000000  0.60620000  0.37830000  1.0 -0.0680353705
C  C109  1  0.29000000  0.58200000  0.37250000  1.0 -0.0914941084
C  C110  1  0.31160000  0.55810000  0.33310000  1.0 -0.0631340172
C  C111  1  0.25900000  0.56140000  0.30360000  1.0 -0.2019468228
C  C112  1  0.13940000  0.58660000  0.27730000  1.0 -0.0071352304
C  C113  1  0.08750000  0.53090000  0.27830000  1.0 0.0370160529
C  C114  1  0.04500000  0.51700000  0.24520000  1.0 0.013636347
C  C115  1  0.05400000  0.55800000  0.21110000  1.0 0.0370160529
C  C116  1  0.10600000  0.61400000  0.21010000  1.0 0.0025636771
C  C117  1  0.34400000  0.57850000  0.40230000  1.0 0.5577248765
C  C118  1  0.07300000  0.48670000  0.30910000  1.0 -0.3063485211
C  C119  1  0.14900000  0.62800000  0.24320000  1.0 0.047649976
C  C120  1  0.20200000  0.68600000  0.24210000  1.0 -0.130858818
C  C121  1  0.08550000  0.68900000  0.80940000  1.0 0.0797541484
C  C122  1  0.10950000  0.66740000  0.84880000  1.0 -0.2555983769
C  C123  1  0.10620000  0.72000000  0.87830000  1.0 -0.0680353705
C  C124  1  0.08200000  0.79000000  0.87250000  1.0 -0.0914941084
C  C125  1  0.05810000  0.81160000  0.83310000  1.0 -0.0631340172
C  C126  1  0.06140000  0.75900000  0.80360000  1.0 -0.2019468228
C  C127  1  0.08660000  0.63940000  0.77730000  1.0 -0.0071352304
C  C128  1  0.03090000  0.58750000  0.77830000  1.0 0.0370160529
C  C129  1  0.01700000  0.54500000  0.74520000  1.0 0.013636347
C  C130  1  0.05800000  0.55400000  0.71110000  1.0 0.0370160529
C  C131  1  0.11400000  0.60600000  0.71010000  1.0 0.0025636771
C  C132  1  0.07850000  0.84400000  0.90230000  1.0 0.5577248765
C  C133  1  0.98670000  0.57300000  0.80910000  1.0 -0.3063485211
C  C134  1  0.12800000  0.64900000  0.74320000  1.0 0.047649976
C  C135  1  0.18600000  0.70200000  0.74210000  1.0 -0.130858818
C  C136  1  0.91450000  0.31100000  0.80940000  1.0 0.0797541484
C  C137  1  0.89050000  0.33260000  0.84880000  1.0 -0.2541670965
C  C138  1  0.89380000  0.28000000  0.87830000  1.0 -0.0680353705
C  C139  1  0.91800000  0.21000000  0.87250000  1.0 -0.0914941084
C  C140  1  0.94190000  0.18840000  0.83310000  1.0 -0.0631340172
C  C141  1  0.93860000  0.24100000  0.80360000  1.0 -0.2019468228
C  C142  1  0.91340000  0.36060000  0.77730000  1.0 -0.0071352304
C  C143  1  0.96910000  0.41250000  0.77830000  1.0 0.0370160529
C  C144  1  0.98300000  0.45500000  0.74520000  1.0 0.013636347
C  C145  1  0.94200000  0.44600000  0.71110000  1.0 0.0370160529
C  C146  1  0.88600000  0.39400000  0.71010000  1.0 0.0025636771
C  C147  1  0.92150000  0.15600000  0.90230000  1.0 0.5577248765
C  C148  1  0.01330000  0.42700000  0.80910000  1.0 -0.3063485211
C  C149  1  0.87200000  0.35100000  0.74320000  1.0 0.047649976
C  C150  1  0.81400000  0.29800000  0.74210000  1.0 -0.130858818
C  C151  1  0.31100000  0.08550000  0.80940000  1.0 0.0797541484
C  C152  1  0.33260000  0.10950000  0.84880000  1.0 -0.2541670965
C  C153  1  0.28000000  0.10620000  0.87830000  1.0 -0.0680353705
C  C154  1  0.21000000  0.08200000  0.87250000  1.0 -0.0914941084
C  C155  1  0.18840000  0.05810000  0.83310000  1.0 -0.0631340172
C  C156  1  0.24100000  0.06140000  0.80360000  1.0 -0.2019468228
C  C157  1  0.36060000  0.08660000  0.77730000  1.0 -0.0071352304
C  C158  1  0.41250000  0.03090000  0.77830000  1.0 0.0370160529
C  C159  1  0.45500000  0.01700000  0.74520000  1.0 0.013636347
C  C160  1  0.44600000  0.05800000  0.71110000  1.0 0.0370160529
C  C161  1  0.39400000  0.11400000  0.71010000  1.0 0.0025636771
C  C162  1  0.15600000  0.07850000  0.90230000  1.0 0.5577248765
C  C163  1  0.42700000  0.98670000  0.80910000  1.0 -0.3063485211
C  C164  1  0.35100000  0.12800000  0.74320000  1.0 0.047649976
C  C165  1  0.29800000  0.18600000  0.74210000  1.0 -0.130858818
C  C166  1  0.68900000  0.91450000  0.80940000  1.0 0.0797541484
C  C167  1  0.66740000  0.89050000  0.84880000  1.0 -0.2555983769
C  C168  1  0.72000000  0.89380000  0.87830000  1.0 -0.0680353705
C  C169  1  0.79000000  0.91800000  0.87250000  1.0 -0.0914941084
C  C170  1  0.81160000  0.94190000  0.83310000  1.0 -0.0631340172
C  C171  1  0.75900000  0.93860000  0.80360000  1.0 -0.2019468228
C  C172  1  0.63940000  0.91340000  0.77730000  1.0 -0.0071352304
C  C173  1  0.58750000  0.96910000  0.77830000  1.0 0.0370160529
C  C174  1  0.54500000  0.98300000  0.74520000  1.0 0.013636347
C  C175  1  0.55400000  0.94200000  0.71110000  1.0 0.0370160529
C  C176  1  0.60600000  0.88600000  0.71010000  1.0 0.0025636771
C  C177  1  0.84400000  0.92150000  0.90230000  1.0 0.5577248765
C  C178  1  0.57300000  0.01330000  0.80910000  1.0 -0.3063485211
C  C179  1  0.64900000  0.87200000  0.74320000  1.0 0.047649976
C  C180  1  0.70200000  0.81400000  0.74210000  1.0 -0.130858818
C  C181  1  0.41450000  0.18900000  0.69060000  1.0 0.0797541484
C  C182  1  0.39050000  0.16740000  0.65120000  1.0 -0.2541670965
C  C183  1  0.39380000  0.22000000  0.62170000  1.0 -0.0680353705
C  C184  1  0.41800000  0.29000000  0.62750000  1.0 -0.0914941084
C  C185  1  0.44190000  0.31160000  0.66690000  1.0 -0.0631340172
C  C186  1  0.43860000  0.25900000  0.69640000  1.0 -0.2019468228
C  C187  1  0.41340000  0.13940000  0.72270000  1.0 -0.0071352304
C  C188  1  0.46910000  0.08750000  0.72170000  1.0 0.0370160529
C  C189  1  0.48300000  0.04500000  0.75480000  1.0 0.013636347
C  C190  1  0.44200000  0.05400000  0.78890000  1.0 0.0370160529
C  C191  1  0.38600000  0.10600000  0.78990000  1.0 0.0025636771
C  C192  1  0.42150000  0.34400000  0.59770000  1.0 0.5577248765
C  C193  1  0.51330000  0.07300000  0.69090000  1.0 -0.3063485211
C  C194  1  0.37200000  0.14900000  0.75680000  1.0 0.047649976
C  C195  1  0.31400000  0.20200000  0.75790000  1.0 -0.130858818
C  C196  1  0.58550000  0.81100000  0.69060000  1.0 0.0797541484
C  C197  1  0.60950000  0.83260000  0.65120000  1.0 -0.2555983769
C  C198  1  0.60620000  0.78000000  0.62170000  1.0 -0.0680353705
C  C199  1  0.58200000  0.71000000  0.62750000  1.0 -0.0914941084
C  C200  1  0.55810000  0.68840000  0.66690000  1.0 -0.0631340172
C  C201  1  0.56140000  0.74100000  0.69640000  1.0 -0.2019468228
C  C202  1  0.58660000  0.86060000  0.72270000  1.0 -0.0071352304
C  C203  1  0.53090000  0.91250000  0.72170000  1.0 0.0370160529
C  C204  1  0.51700000  0.95500000  0.75480000  1.0 0.013636347
C  C205  1  0.55800000  0.94600000  0.78890000  1.0 0.0370160529
C  C206  1  0.61400000  0.89400000  0.78990000  1.0 0.0025636771
C  C207  1  0.57850000  0.65600000  0.59770000  1.0 0.5577248765
C  C208  1  0.48670000  0.92700000  0.69090000  1.0 -0.3063485211
C  C209  1  0.62800000  0.85100000  0.75680000  1.0 0.047649976
C  C210  1  0.68600000  0.79800000  0.75790000  1.0 -0.130858818
C  C211  1  0.18900000  0.58550000  0.69060000  1.0 0.0797541484
C  C212  1  0.16740000  0.60950000  0.65120000  1.0 -0.2555983769
C  C213  1  0.22000000  0.60620000  0.62170000  1.0 -0.0680353705
C  C214  1  0.29000000  0.58200000  0.62750000  1.0 -0.0914941084
C  C215  1  0.31160000  0.55810000  0.66690000  1.0 -0.0631340172
C  C216  1  0.25900000  0.56140000  0.69640000  1.0 -0.2019468228
C  C217  1  0.13940000  0.58660000  0.72270000  1.0 -0.0071352304
C  C218  1  0.08750000  0.53090000  0.72170000  1.0 0.0370160529
C  C219  1  0.04500000  0.51700000  0.75480000  1.0 0.013636347
C  C220  1  0.05400000  0.55800000  0.78890000  1.0 0.0370160529
C  C221  1  0.10600000  0.61400000  0.78990000  1.0 0.0025636771
C  C222  1  0.34400000  0.57850000  0.59770000  1.0 0.5577248765
C  C223  1  0.07300000  0.48670000  0.69090000  1.0 -0.3063485211
C  C224  1  0.14900000  0.62800000  0.75680000  1.0 0.047649976
C  C225  1  0.20200000  0.68600000  0.75790000  1.0 -0.130858818
C  C226  1  0.81100000  0.41450000  0.69060000  1.0 0.0797541484
C  C227  1  0.83260000  0.39050000  0.65120000  1.0 -0.2555983769
C  C228  1  0.78000000  0.39380000  0.62170000  1.0 -0.0680353705
C  C229  1  0.71000000  0.41800000  0.62750000  1.0 -0.0914941084
C  C230  1  0.68840000  0.44190000  0.66690000  1.0 -0.0631340172
C  C231  1  0.74100000  0.43860000  0.69640000  1.0 -0.2019468228
C  C232  1  0.86060000  0.41340000  0.72270000  1.0 -0.0071352304
C  C233  1  0.91250000  0.46910000  0.72170000  1.0 0.0370160529
C  C234  1  0.95500000  0.48300000  0.75480000  1.0 0.013636347
C  C235  1  0.94600000  0.44200000  0.78890000  1.0 0.0370160529
C  C236  1  0.89400000  0.38600000  0.78990000  1.0 0.0025636771
C  C237  1  0.65600000  0.42150000  0.59770000  1.0 0.5577248765
C  C238  1  0.92700000  0.51330000  0.69090000  1.0 -0.3063485211
C  C239  1  0.85100000  0.37200000  0.75680000  1.0 0.047649976
C  C240  1  0.79800000  0.31400000  0.75790000  1.0 -0.130858818
O  O1  1  0.96130000  0.09110000  0.10450000  1.0 -0.5114324408
O  O2  1  0.91200000  0.02970000  0.03490000  1.0 -0.713307168
O  O3  1  0.93300000  0.17500000  0.05770000  1.0 -0.537672555
O  O4  1  0.03870000  0.90890000  0.10450000  1.0 -0.5114324408
O  O5  1  0.08800000  0.97030000  0.03490000  1.0 -0.7155179548
O  O6  1  0.06700000  0.82500000  0.05770000  1.0 -0.537672555
O  O7  1  0.90890000  0.96130000  0.10450000  1.0 -0.5114324408
O  O8  1  0.97030000  0.91200000  0.03490000  1.0 -0.713307168
O  O9  1  0.82500000  0.93300000  0.05770000  1.0 -0.537672555
O  O10  1  0.09110000  0.03870000  0.10450000  1.0 -0.5114324408
O  O11  1  0.02970000  0.08800000  0.03490000  1.0 -0.713307168
O  O12  1  0.17500000  0.06700000  0.05770000  1.0 -0.537672555
O  O13  1  0.53870000  0.59110000  0.39550000  1.0 -0.5114324408
O  O14  1  0.58800000  0.52970000  0.46510000  1.0 -0.713307168
O  O15  1  0.56700000  0.67500000  0.44230000  1.0 -0.537672555
O  O16  1  0.46130000  0.40890000  0.39550000  1.0 -0.5114324408
O  O17  1  0.41200000  0.47030000  0.46510000  1.0 -0.713307168
O  O18  1  0.43300000  0.32500000  0.44230000  1.0 -0.537672555
O  O19  1  0.59110000  0.46130000  0.39550000  1.0 -0.5114324408
O  O20  1  0.52970000  0.41200000  0.46510000  1.0 -0.713307168
O  O21  1  0.67500000  0.43300000  0.44230000  1.0 -0.537672555
O  O22  1  0.40890000  0.53870000  0.39550000  1.0 -0.5114324408
O  O23  1  0.47030000  0.58800000  0.46510000  1.0 -0.713307168
O  O24  1  0.32500000  0.56700000  0.44230000  1.0 -0.537672555
O  O25  1  0.03870000  0.90890000  0.89550000  1.0 -0.5114324408
O  O26  1  0.08800000  0.97030000  0.96510000  1.0 -0.7155179548
O  O27  1  0.06700000  0.82500000  0.94230000  1.0 -0.537672555
O  O28  1  0.96130000  0.09110000  0.89550000  1.0 -0.5114324408
O  O29  1  0.91200000  0.02970000  0.96510000  1.0 -0.713307168
O  O30  1  0.93300000  0.17500000  0.94230000  1.0 -0.537672555
O  O31  1  0.09110000  0.03870000  0.89550000  1.0 -0.5114324408
O  O32  1  0.02970000  0.08800000  0.96510000  1.0 -0.7155179548
O  O33  1  0.17500000  0.06700000  0.94230000  1.0 -0.537672555
O  O34  1  0.90890000  0.96130000  0.89550000  1.0 -0.5114324408
O  O35  1  0.97030000  0.91200000  0.96510000  1.0 -0.713307168
O  O36  1  0.82500000  0.93300000  0.94230000  1.0 -0.537672555
O  O37  1  0.46130000  0.40890000  0.60450000  1.0 -0.5114324408
O  O38  1  0.41200000  0.47030000  0.53490000  1.0 -0.713307168
O  O39  1  0.43300000  0.32500000  0.55770000  1.0 -0.537672555
O  O40  1  0.53870000  0.59110000  0.60450000  1.0 -0.5114324408
O  O41  1  0.58800000  0.52970000  0.53490000  1.0 -0.713307168
O  O42  1  0.56700000  0.67500000  0.55770000  1.0 -0.537672555
O  O43  1  0.40890000  0.53870000  0.60450000  1.0 -0.5114324408
O  O44  1  0.47030000  0.58800000  0.53490000  1.0 -0.713307168
O  O45  1  0.32500000  0.56700000  0.55770000  1.0 -0.537672555
O  O46  1  0.59110000  0.46130000  0.60450000  1.0 -0.5114324408
O  O47  1  0.52970000  0.41200000  0.53490000  1.0 -0.713307168
O  O48  1  0.67500000  0.43300000  0.55770000  1.0 -0.537672555
