# DDEC6 charges by PACMAN v1.1 (https://github.com/mtap-research/PACMAN-charge/)
data_NEVTIU01_ASR_pacman
_symmetry_space_group_name_H-M   'P 1'
_cell_length_a   18.84450000
_cell_length_b   18.84450000
_cell_length_c   32.89600000
_cell_angle_alpha   90.00000000
_cell_angle_beta   90.00000000
_cell_angle_gamma   90.00000000
_symmetry_Int_Tables_number   1
_chemical_formula_structural   Hf3H40(C14O3)4
_chemical_formula_sum   'Hf12 H160 C224 O48'
_cell_volume   11681.86896950
_cell_formula_units_Z   4
loop_
 _symmetry_equiv_pos_site_id
 _symmetry_equiv_pos_as_xyz
  1  'x, y, z'
loop_
 _atom_site_type_symbol
 _atom_site_label
 _atom_site_symmetry_multiplicity
 _atom_site_fract_x
 _atom_site_fract_y
 _atom_site_fract_z
 _atom_site_occupancy
 _atom_site_charge
Hf  Hf1  1  0.95370000  0.12310000  0.00000000  1.0 1.5587990729
Hf  Hf2  1  0.04630000  0.87690000  0.00000000  1.0 1.5587990729
Hf  Hf3  1  0.87690000  0.95370000  0.00000000  1.0 1.5587990729
Hf  Hf4  1  0.12310000  0.04630000  0.00000000  1.0 1.5655382522
Hf  Hf5  1  0.54630000  0.62310000  0.50000000  1.0 1.5431256541
Hf  Hf6  1  0.45370000  0.37690000  0.50000000  1.0 1.5431256541
Hf  Hf7  1  0.62310000  0.45370000  0.50000000  1.0 1.5431256541
Hf  Hf8  1  0.37690000  0.54630000  0.50000000  1.0 1.5431256541
Hf  Hf9  1  0.00000000  0.00000000  0.07320000  1.0 1.5326534756
Hf  Hf10  1  0.50000000  0.50000000  0.42680000  1.0 1.5326534756
Hf  Hf11  1  0.00000000  0.00000000  0.92680000  1.0 1.5326534756
Hf  Hf12  1  0.50000000  0.50000000  0.57320000  1.0 1.5326534756
H  H1  1  0.89130000  0.38050000  0.14100000  1.0 0.1086127388
H  H2  1  0.89990000  0.29060000  0.09440000  1.0 0.1412094669
H  H3  1  0.97140000  0.14770000  0.18010000  1.0 0.1329968148
H  H4  1  0.96280000  0.23770000  0.22670000  1.0 0.1213795456
H  H5  1  0.05600000  0.39440000  0.19680000  1.0 0.1213795456
H  H6  1  0.04970000  0.47720000  0.19960000  1.0 0.0833048089
H  H7  1  0.00380000  0.43520000  0.16790000  1.0 0.1086127388
H  H8  1  0.83250000  0.28170000  0.26830000  1.0 0.0487236881
H  H9  1  0.81430000  0.30040000  0.22300000  1.0 0.0487236881
H  H10  1  0.77480000  0.33920000  0.25860000  1.0 0.0375203582
H  H11  1  0.10870000  0.61950000  0.14100000  1.0 0.1086127388
H  H12  1  0.10010000  0.70940000  0.09440000  1.0 0.1412094669
H  H13  1  0.02860000  0.85230000  0.18010000  1.0 0.1329968148
H  H14  1  0.03720000  0.76230000  0.22670000  1.0 0.1329968148
H  H15  1  0.94400000  0.60560000  0.19680000  1.0 0.1213795456
H  H16  1  0.95030000  0.52280000  0.19960000  1.0 0.0833048089
H  H17  1  0.99620000  0.56480000  0.16790000  1.0 0.1086127388
H  H18  1  0.16750000  0.71830000  0.26830000  1.0 0.0487236881
H  H19  1  0.18570000  0.69960000  0.22300000  1.0 0.0487236881
H  H20  1  0.22520000  0.66080000  0.25860000  1.0 0.0314188038
H  H21  1  0.61950000  0.89130000  0.14100000  1.0 0.1086127388
H  H22  1  0.70940000  0.89990000  0.09440000  1.0 0.1412094669
H  H23  1  0.85230000  0.97140000  0.18010000  1.0 0.1329968148
H  H24  1  0.76230000  0.96280000  0.22670000  1.0 0.1213795456
H  H25  1  0.60560000  0.05600000  0.19680000  1.0 0.1213795456
H  H26  1  0.52280000  0.04970000  0.19960000  1.0 0.0833048089
H  H27  1  0.56480000  0.00380000  0.16790000  1.0 0.1086127388
H  H28  1  0.71830000  0.83250000  0.26830000  1.0 0.0487236881
H  H29  1  0.69960000  0.81430000  0.22300000  1.0 0.0487236881
H  H30  1  0.66080000  0.77480000  0.25860000  1.0 0.0314188038
H  H31  1  0.38050000  0.10870000  0.14100000  1.0 0.1086127388
H  H32  1  0.29060000  0.10010000  0.09440000  1.0 0.1412094669
H  H33  1  0.14770000  0.02860000  0.18010000  1.0 0.1329968148
H  H34  1  0.23770000  0.03720000  0.22670000  1.0 0.1213795456
H  H35  1  0.39440000  0.94400000  0.19680000  1.0 0.1213795456
H  H36  1  0.47720000  0.95030000  0.19960000  1.0 0.0833048089
H  H37  1  0.43520000  0.99620000  0.16790000  1.0 0.1086127388
H  H38  1  0.28170000  0.16750000  0.26830000  1.0 0.0487236881
H  H39  1  0.30040000  0.18570000  0.22300000  1.0 0.0487236881
H  H40  1  0.33920000  0.22520000  0.25860000  1.0 0.0314188038
H  H41  1  0.60870000  0.88050000  0.35900000  1.0 0.1086127388
H  H42  1  0.60010000  0.79060000  0.40560000  1.0 0.1412094669
H  H43  1  0.52860000  0.64770000  0.31990000  1.0 0.1329968148
H  H44  1  0.53720000  0.73770000  0.27330000  1.0 0.1213795456
H  H45  1  0.44400000  0.89440000  0.30320000  1.0 0.1213795456
H  H46  1  0.45030000  0.97720000  0.30040000  1.0 0.0833048089
H  H47  1  0.49620000  0.93520000  0.33210000  1.0 0.1086127388
H  H48  1  0.66750000  0.78170000  0.23170000  1.0 0.0487236881
H  H49  1  0.68570000  0.80040000  0.27700000  1.0 0.0487236881
H  H50  1  0.72520000  0.83920000  0.24140000  1.0 0.0314188038
H  H51  1  0.39130000  0.11950000  0.35900000  1.0 0.1086127388
H  H52  1  0.39990000  0.20940000  0.40560000  1.0 0.1412094669
H  H53  1  0.47140000  0.35230000  0.31990000  1.0 0.1329968148
H  H54  1  0.46280000  0.26230000  0.27330000  1.0 0.1213795456
H  H55  1  0.55600000  0.10560000  0.30320000  1.0 0.1213795456
H  H56  1  0.54970000  0.02280000  0.30040000  1.0 0.0833048089
H  H57  1  0.50380000  0.06480000  0.33210000  1.0 0.1086127388
H  H58  1  0.33250000  0.21830000  0.23170000  1.0 0.0487236881
H  H59  1  0.31430000  0.19960000  0.27700000  1.0 0.0487236881
H  H60  1  0.27480000  0.16080000  0.24140000  1.0 0.0375203582
H  H61  1  0.88050000  0.39130000  0.35900000  1.0 0.1086127388
H  H62  1  0.79060000  0.39990000  0.40560000  1.0 0.1412094669
H  H63  1  0.64770000  0.47140000  0.31990000  1.0 0.1329968148
H  H64  1  0.73770000  0.46280000  0.27330000  1.0 0.1213795456
H  H65  1  0.89440000  0.55600000  0.30320000  1.0 0.1213795456
H  H66  1  0.97720000  0.54970000  0.30040000  1.0 0.0833048089
H  H67  1  0.93520000  0.50380000  0.33210000  1.0 0.1086127388
H  H68  1  0.78170000  0.33250000  0.23170000  1.0 0.0487236881
H  H69  1  0.80040000  0.31430000  0.27700000  1.0 0.0487236881
H  H70  1  0.83920000  0.27480000  0.24140000  1.0 0.0375203582
H  H71  1  0.11950000  0.60870000  0.35900000  1.0 0.1086127388
H  H72  1  0.20940000  0.60010000  0.40560000  1.0 0.1412094669
H  H73  1  0.35230000  0.52860000  0.31990000  1.0 0.1329968148
H  H74  1  0.26230000  0.53720000  0.27330000  1.0 0.1213795456
H  H75  1  0.10560000  0.44400000  0.30320000  1.0 0.1213795456
H  H76  1  0.02280000  0.45030000  0.30040000  1.0 0.0833048089
H  H77  1  0.06480000  0.49620000  0.33210000  1.0 0.1086127388
H  H78  1  0.21830000  0.66750000  0.23170000  1.0 0.0487236881
H  H79  1  0.19960000  0.68570000  0.27700000  1.0 0.0487236881
H  H80  1  0.16080000  0.72520000  0.24140000  1.0 0.0314188038
H  H81  1  0.10870000  0.61950000  0.85900000  1.0 0.1086127388
H  H82  1  0.10010000  0.70940000  0.90560000  1.0 0.1412094669
H  H83  1  0.02860000  0.85230000  0.81990000  1.0 0.1329968148
H  H84  1  0.03720000  0.76230000  0.77330000  1.0 0.1329968148
H  H85  1  0.94400000  0.60560000  0.80320000  1.0 0.1213795456
H  H86  1  0.95030000  0.52280000  0.80040000  1.0 0.0833048089
H  H87  1  0.99620000  0.56480000  0.83210000  1.0 0.1086127388
H  H88  1  0.16750000  0.71830000  0.73170000  1.0 0.0487236881
H  H89  1  0.18570000  0.69960000  0.77700000  1.0 0.0487236881
H  H90  1  0.22520000  0.66080000  0.74140000  1.0 0.0314188038
H  H91  1  0.89130000  0.38050000  0.85900000  1.0 0.1086127388
H  H92  1  0.89990000  0.29060000  0.90560000  1.0 0.1412094669
H  H93  1  0.97140000  0.14770000  0.81990000  1.0 0.1329968148
H  H94  1  0.96280000  0.23770000  0.77330000  1.0 0.1213795456
H  H95  1  0.05600000  0.39440000  0.80320000  1.0 0.1213795456
H  H96  1  0.04970000  0.47720000  0.80040000  1.0 0.0833048089
H  H97  1  0.00380000  0.43520000  0.83210000  1.0 0.1086127388
H  H98  1  0.83250000  0.28170000  0.73170000  1.0 0.0487236881
H  H99  1  0.81430000  0.30040000  0.77700000  1.0 0.0487236881
H  H100  1  0.77480000  0.33920000  0.74140000  1.0 0.0375203582
H  H101  1  0.38050000  0.10870000  0.85900000  1.0 0.1086127388
H  H102  1  0.29060000  0.10010000  0.90560000  1.0 0.1412094669
H  H103  1  0.14770000  0.02860000  0.81990000  1.0 0.1329968148
H  H104  1  0.23770000  0.03720000  0.77330000  1.0 0.1213795456
H  H105  1  0.39440000  0.94400000  0.80320000  1.0 0.1213795456
H  H106  1  0.47720000  0.95030000  0.80040000  1.0 0.0833048089
H  H107  1  0.43520000  0.99620000  0.83210000  1.0 0.1086127388
H  H108  1  0.28170000  0.16750000  0.73170000  1.0 0.0487236881
H  H109  1  0.30040000  0.18570000  0.77700000  1.0 0.0487236881
H  H110  1  0.33920000  0.22520000  0.74140000  1.0 0.0314188038
H  H111  1  0.61950000  0.89130000  0.85900000  1.0 0.1086127388
H  H112  1  0.70940000  0.89990000  0.90560000  1.0 0.1412094669
H  H113  1  0.85230000  0.97140000  0.81990000  1.0 0.1329968148
H  H114  1  0.76230000  0.96280000  0.77330000  1.0 0.1213795456
H  H115  1  0.60560000  0.05600000  0.80320000  1.0 0.1213795456
H  H116  1  0.52280000  0.04970000  0.80040000  1.0 0.0833048089
H  H117  1  0.56480000  0.00380000  0.83210000  1.0 0.1086127388
H  H118  1  0.71830000  0.83250000  0.73170000  1.0 0.0487236881
H  H119  1  0.69960000  0.81430000  0.77700000  1.0 0.0487236881
H  H120  1  0.66080000  0.77480000  0.74140000  1.0 0.0314188038
H  H121  1  0.39130000  0.11950000  0.64100000  1.0 0.1086127388
H  H122  1  0.39990000  0.20940000  0.59440000  1.0 0.1412094669
H  H123  1  0.47140000  0.35230000  0.68010000  1.0 0.1329968148
H  H124  1  0.46280000  0.26230000  0.72670000  1.0 0.1213795456
H  H125  1  0.55600000  0.10560000  0.69680000  1.0 0.1213795456
H  H126  1  0.54970000  0.02280000  0.69960000  1.0 0.0833048089
H  H127  1  0.50380000  0.06480000  0.66790000  1.0 0.1086127388
H  H128  1  0.33250000  0.21830000  0.76830000  1.0 0.0487236881
H  H129  1  0.31430000  0.19960000  0.72300000  1.0 0.0487236881
H  H130  1  0.27480000  0.16080000  0.75860000  1.0 0.0375203582
H  H131  1  0.60870000  0.88050000  0.64100000  1.0 0.1086127388
H  H132  1  0.60010000  0.79060000  0.59440000  1.0 0.1412094669
H  H133  1  0.52860000  0.64770000  0.68010000  1.0 0.1329968148
H  H134  1  0.53720000  0.73770000  0.72670000  1.0 0.1213795456
H  H135  1  0.44400000  0.89440000  0.69680000  1.0 0.1213795456
H  H136  1  0.45030000  0.97720000  0.69960000  1.0 0.0833048089
H  H137  1  0.49620000  0.93520000  0.66790000  1.0 0.1086127388
H  H138  1  0.66750000  0.78170000  0.76830000  1.0 0.0487236881
H  H139  1  0.68570000  0.80040000  0.72300000  1.0 0.0487236881
H  H140  1  0.72520000  0.83920000  0.75860000  1.0 0.0375203582
H  H141  1  0.11950000  0.60870000  0.64100000  1.0 0.1086127388
H  H142  1  0.20940000  0.60010000  0.59440000  1.0 0.1412094669
H  H143  1  0.35230000  0.52860000  0.68010000  1.0 0.1329968148
H  H144  1  0.26230000  0.53720000  0.72670000  1.0 0.1213795456
H  H145  1  0.10560000  0.44400000  0.69680000  1.0 0.1213795456
H  H146  1  0.02280000  0.45030000  0.69960000  1.0 0.0833048089
H  H147  1  0.06480000  0.49620000  0.66790000  1.0 0.1086127388
H  H148  1  0.21830000  0.66750000  0.76830000  1.0 0.0487236881
H  H149  1  0.19960000  0.68570000  0.72300000  1.0 0.0487236881
H  H150  1  0.16080000  0.72520000  0.75860000  1.0 0.0314188038
H  H151  1  0.88050000  0.39130000  0.64100000  1.0 0.1086127388
H  H152  1  0.79060000  0.39990000  0.59440000  1.0 0.1412094669
H  H153  1  0.64770000  0.47140000  0.68010000  1.0 0.1329968148
H  H154  1  0.73770000  0.46280000  0.72670000  1.0 0.1213795456
H  H155  1  0.89440000  0.55600000  0.69680000  1.0 0.1213795456
H  H156  1  0.97720000  0.54970000  0.69960000  1.0 0.0833048089
H  H157  1  0.93520000  0.50380000  0.66790000  1.0 0.1086127388
H  H158  1  0.78170000  0.33250000  0.76830000  1.0 0.0487236881
H  H159  1  0.80040000  0.31430000  0.72300000  1.0 0.0487236881
H  H160  1  0.83920000  0.27480000  0.75860000  1.0 0.0375203582
C  C1  1  0.92830000  0.31700000  0.19340000  1.0 0.0375203582
C  C2  1  0.90700000  0.33600000  0.14860000  1.0 -0.1055087828
C  C3  1  0.91300000  0.28000000  0.12110000  1.0 -0.10092304
C  C4  1  0.93440000  0.21100000  0.12770000  1.0 -0.068202083
C  C5  1  0.95600000  0.19300000  0.17250000  1.0 -0.0756190381
C  C6  1  0.95010000  0.24800000  0.20010000  1.0 -0.1339196382
C  C7  1  0.92210000  0.37420000  0.22090000  1.0 -0.0585799082
C  C8  1  0.97330000  0.42700000  0.22180000  1.0 0.0314188038
C  C9  1  0.97200000  0.47300000  0.25100000  1.0 -0.0081343022
C  C10  1  0.93950000  0.15600000  0.09880000  1.0 0.5601434284
C  C11  1  0.02410000  0.43400000  0.19470000  1.0 -0.2663630969
C  C12  1  0.92000000  0.47500000  0.28200000  1.0 0.0375203582
C  C13  1  0.86900000  0.42200000  0.28100000  1.0 -0.0312027302
C  C14  1  0.07170000  0.68300000  0.19340000  1.0 0.0375203582
C  C15  1  0.09300000  0.66400000  0.14860000  1.0 -0.1055087828
C  C16  1  0.08700000  0.72000000  0.12110000  1.0 -0.10092304
C  C17  1  0.06560000  0.78900000  0.12770000  1.0 -0.068202083
C  C18  1  0.04400000  0.80700000  0.17250000  1.0 -0.0756190381
C  C19  1  0.04990000  0.75200000  0.20010000  1.0 -0.1339196382
C  C20  1  0.07790000  0.62580000  0.22090000  1.0 -0.0585799082
C  C21  1  0.02670000  0.57300000  0.22180000  1.0 0.0314188038
C  C22  1  0.02800000  0.52700000  0.25100000  1.0 -0.0081343022
C  C23  1  0.06050000  0.84400000  0.09880000  1.0 0.5601434284
C  C24  1  0.97590000  0.56600000  0.19470000  1.0 -0.2663630969
C  C25  1  0.08000000  0.52500000  0.28200000  1.0 0.0375203582
C  C26  1  0.13100000  0.57800000  0.28100000  1.0 -0.0312027302
C  C27  1  0.68300000  0.92830000  0.19340000  1.0 0.0375203582
C  C28  1  0.66400000  0.90700000  0.14860000  1.0 -0.1055087828
C  C29  1  0.72000000  0.91300000  0.12110000  1.0 -0.10092304
C  C30  1  0.78900000  0.93440000  0.12770000  1.0 -0.068202083
C  C31  1  0.80700000  0.95600000  0.17250000  1.0 -0.0756190381
C  C32  1  0.75200000  0.95010000  0.20010000  1.0 -0.1339196382
C  C33  1  0.62580000  0.92210000  0.22090000  1.0 -0.0585799082
C  C34  1  0.57300000  0.97330000  0.22180000  1.0 0.0314188038
C  C35  1  0.52700000  0.97200000  0.25100000  1.0 -0.0081343022
C  C36  1  0.84400000  0.93950000  0.09880000  1.0 0.5601434284
C  C37  1  0.56600000  0.02410000  0.19470000  1.0 -0.2663630969
C  C38  1  0.52500000  0.92000000  0.28200000  1.0 0.0375203582
C  C39  1  0.57800000  0.86900000  0.28100000  1.0 -0.0312027302
C  C40  1  0.31700000  0.07170000  0.19340000  1.0 0.0375203582
C  C41  1  0.33600000  0.09300000  0.14860000  1.0 -0.10092304
C  C42  1  0.28000000  0.08700000  0.12110000  1.0 -0.10092304
C  C43  1  0.21100000  0.06560000  0.12770000  1.0 -0.068202083
C  C44  1  0.19300000  0.04400000  0.17250000  1.0 -0.0756190381
C  C45  1  0.24800000  0.04990000  0.20010000  1.0 -0.1339196382
C  C46  1  0.37420000  0.07790000  0.22090000  1.0 -0.0585799082
C  C47  1  0.42700000  0.02670000  0.22180000  1.0 0.0314188038
C  C48  1  0.47300000  0.02800000  0.25100000  1.0 -0.0081343022
C  C49  1  0.15600000  0.06050000  0.09880000  1.0 0.5601434284
C  C50  1  0.43400000  0.97590000  0.19470000  1.0 -0.2663630969
C  C51  1  0.47500000  0.08000000  0.28200000  1.0 0.0375203582
C  C52  1  0.42200000  0.13100000  0.28100000  1.0 -0.0312027302
C  C53  1  0.57170000  0.81700000  0.30660000  1.0 0.0375203582
C  C54  1  0.59300000  0.83600000  0.35140000  1.0 -0.1055087828
C  C55  1  0.58700000  0.78000000  0.37890000  1.0 -0.10092304
C  C56  1  0.56560000  0.71100000  0.37230000  1.0 -0.068202083
C  C57  1  0.54400000  0.69300000  0.32750000  1.0 -0.0756190381
C  C58  1  0.54990000  0.74800000  0.29990000  1.0 -0.1339196382
C  C59  1  0.57790000  0.87420000  0.27910000  1.0 -0.0585799082
C  C60  1  0.52670000  0.92700000  0.27820000  1.0 0.0314188038
C  C61  1  0.52800000  0.97300000  0.24900000  1.0 -0.0081343022
C  C62  1  0.56050000  0.65600000  0.40120000  1.0 0.5601434284
C  C63  1  0.47590000  0.93400000  0.30530000  1.0 -0.2663630969
C  C64  1  0.58000000  0.97500000  0.21800000  1.0 0.0375203582
C  C65  1  0.63100000  0.92200000  0.21900000  1.0 -0.0312027302
C  C66  1  0.42830000  0.18300000  0.30660000  1.0 0.0375203582
C  C67  1  0.40700000  0.16400000  0.35140000  1.0 -0.1055087828
C  C68  1  0.41300000  0.22000000  0.37890000  1.0 -0.10092304
C  C69  1  0.43440000  0.28900000  0.37230000  1.0 -0.068202083
C  C70  1  0.45600000  0.30700000  0.32750000  1.0 -0.0756190381
C  C71  1  0.45010000  0.25200000  0.29990000  1.0 -0.1339196382
C  C72  1  0.42210000  0.12580000  0.27910000  1.0 -0.0585799082
C  C73  1  0.47330000  0.07300000  0.27820000  1.0 0.0314188038
C  C74  1  0.47200000  0.02700000  0.24900000  1.0 -0.0081343022
C  C75  1  0.43950000  0.34400000  0.40120000  1.0 0.5601434284
C  C76  1  0.52410000  0.06600000  0.30530000  1.0 -0.2663630969
C  C77  1  0.42000000  0.02500000  0.21800000  1.0 0.0375203582
C  C78  1  0.36900000  0.07800000  0.21900000  1.0 -0.0312027302
C  C79  1  0.81700000  0.42830000  0.30660000  1.0 0.0375203582
C  C80  1  0.83600000  0.40700000  0.35140000  1.0 -0.1055087828
C  C81  1  0.78000000  0.41300000  0.37890000  1.0 -0.10092304
C  C82  1  0.71100000  0.43440000  0.37230000  1.0 -0.068202083
C  C83  1  0.69300000  0.45600000  0.32750000  1.0 -0.0756190381
C  C84  1  0.74800000  0.45010000  0.29990000  1.0 -0.1339196382
C  C85  1  0.87420000  0.42210000  0.27910000  1.0 -0.0585799082
C  C86  1  0.92700000  0.47330000  0.27820000  1.0 0.0314188038
C  C87  1  0.97300000  0.47200000  0.24900000  1.0 -0.0081343022
C  C88  1  0.65600000  0.43950000  0.40120000  1.0 0.5601434284
C  C89  1  0.93400000  0.52410000  0.30530000  1.0 -0.2663630969
C  C90  1  0.97500000  0.42000000  0.21800000  1.0 0.0375203582
C  C91  1  0.92200000  0.36900000  0.21900000  1.0 -0.0312027302
C  C92  1  0.18300000  0.57170000  0.30660000  1.0 0.0375203582
C  C93  1  0.16400000  0.59300000  0.35140000  1.0 -0.1055087828
C  C94  1  0.22000000  0.58700000  0.37890000  1.0 -0.10092304
C  C95  1  0.28900000  0.56560000  0.37230000  1.0 -0.068202083
C  C96  1  0.30700000  0.54400000  0.32750000  1.0 -0.0756190381
C  C97  1  0.25200000  0.54990000  0.29990000  1.0 -0.1339196382
C  C98  1  0.12580000  0.57790000  0.27910000  1.0 -0.0585799082
C  C99  1  0.07300000  0.52670000  0.27820000  1.0 0.0314188038
C  C100  1  0.02700000  0.52800000  0.24900000  1.0 -0.0081343022
C  C101  1  0.34400000  0.56050000  0.40120000  1.0 0.5601434284
C  C102  1  0.06600000  0.47590000  0.30530000  1.0 -0.2663630969
C  C103  1  0.02500000  0.58000000  0.21800000  1.0 0.0375203582
C  C104  1  0.07800000  0.63100000  0.21900000  1.0 -0.0312027302
C  C105  1  0.07170000  0.68300000  0.80660000  1.0 0.0375203582
C  C106  1  0.09300000  0.66400000  0.85140000  1.0 -0.1055087828
C  C107  1  0.08700000  0.72000000  0.87890000  1.0 -0.10092304
C  C108  1  0.06560000  0.78900000  0.87230000  1.0 -0.068202083
C  C109  1  0.04400000  0.80700000  0.82750000  1.0 -0.0756190381
C  C110  1  0.04990000  0.75200000  0.79990000  1.0 -0.1339196382
C  C111  1  0.07790000  0.62580000  0.77910000  1.0 -0.0585799082
C  C112  1  0.02670000  0.57300000  0.77820000  1.0 0.0314188038
C  C113  1  0.02800000  0.52700000  0.74900000  1.0 -0.0081343022
C  C114  1  0.06050000  0.84400000  0.90120000  1.0 0.5601434284
C  C115  1  0.97590000  0.56600000  0.80530000  1.0 -0.2663630969
C  C116  1  0.08000000  0.52500000  0.71800000  1.0 0.0375203582
C  C117  1  0.13100000  0.57800000  0.71900000  1.0 -0.0312027302
C  C118  1  0.92830000  0.31700000  0.80660000  1.0 0.0375203582
C  C119  1  0.90700000  0.33600000  0.85140000  1.0 -0.1055087828
C  C120  1  0.91300000  0.28000000  0.87890000  1.0 -0.10092304
C  C121  1  0.93440000  0.21100000  0.87230000  1.0 -0.068202083
C  C122  1  0.95600000  0.19300000  0.82750000  1.0 -0.0756190381
C  C123  1  0.95010000  0.24800000  0.79990000  1.0 -0.1339196382
C  C124  1  0.92210000  0.37420000  0.77910000  1.0 -0.0585799082
C  C125  1  0.97330000  0.42700000  0.77820000  1.0 0.0314188038
C  C126  1  0.97200000  0.47300000  0.74900000  1.0 -0.0081343022
C  C127  1  0.93950000  0.15600000  0.90120000  1.0 0.5601434284
C  C128  1  0.02410000  0.43400000  0.80530000  1.0 -0.2663630969
C  C129  1  0.92000000  0.47500000  0.71800000  1.0 0.0375203582
C  C130  1  0.86900000  0.42200000  0.71900000  1.0 -0.0312027302
C  C131  1  0.31700000  0.07170000  0.80660000  1.0 0.0375203582
C  C132  1  0.33600000  0.09300000  0.85140000  1.0 -0.10092304
C  C133  1  0.28000000  0.08700000  0.87890000  1.0 -0.10092304
C  C134  1  0.21100000  0.06560000  0.87230000  1.0 -0.068202083
C  C135  1  0.19300000  0.04400000  0.82750000  1.0 -0.0756190381
C  C136  1  0.24800000  0.04990000  0.79990000  1.0 -0.1339196382
C  C137  1  0.37420000  0.07790000  0.77910000  1.0 -0.0585799082
C  C138  1  0.42700000  0.02670000  0.77820000  1.0 0.0314188038
C  C139  1  0.47300000  0.02800000  0.74900000  1.0 -0.0081343022
C  C140  1  0.15600000  0.06050000  0.90120000  1.0 0.5601434284
C  C141  1  0.43400000  0.97590000  0.80530000  1.0 -0.2663630969
C  C142  1  0.47500000  0.08000000  0.71800000  1.0 0.0375203582
C  C143  1  0.42200000  0.13100000  0.71900000  1.0 -0.0312027302
C  C144  1  0.68300000  0.92830000  0.80660000  1.0 0.0375203582
C  C145  1  0.66400000  0.90700000  0.85140000  1.0 -0.1055087828
C  C146  1  0.72000000  0.91300000  0.87890000  1.0 -0.10092304
C  C147  1  0.78900000  0.93440000  0.87230000  1.0 -0.068202083
C  C148  1  0.80700000  0.95600000  0.82750000  1.0 -0.068202083
C  C149  1  0.75200000  0.95010000  0.79990000  1.0 -0.1339196382
C  C150  1  0.62580000  0.92210000  0.77910000  1.0 -0.0585799082
C  C151  1  0.57300000  0.97330000  0.77820000  1.0 0.0314188038
C  C152  1  0.52700000  0.97200000  0.74900000  1.0 -0.0081343022
C  C153  1  0.84400000  0.93950000  0.90120000  1.0 0.5601434284
C  C154  1  0.56600000  0.02410000  0.80530000  1.0 -0.2663630969
C  C155  1  0.52500000  0.92000000  0.71800000  1.0 0.0375203582
C  C156  1  0.57800000  0.86900000  0.71900000  1.0 -0.0312027302
C  C157  1  0.42830000  0.18300000  0.69340000  1.0 0.0375203582
C  C158  1  0.40700000  0.16400000  0.64860000  1.0 -0.1055087828
C  C159  1  0.41300000  0.22000000  0.62110000  1.0 -0.10092304
C  C160  1  0.43440000  0.28900000  0.62770000  1.0 -0.068202083
C  C161  1  0.45600000  0.30700000  0.67250000  1.0 -0.0756190381
C  C162  1  0.45010000  0.25200000  0.70010000  1.0 -0.1339196382
C  C163  1  0.42210000  0.12580000  0.72090000  1.0 -0.0585799082
C  C164  1  0.47330000  0.07300000  0.72180000  1.0 0.0314188038
C  C165  1  0.47200000  0.02700000  0.75100000  1.0 -0.0081343022
C  C166  1  0.43950000  0.34400000  0.59880000  1.0 0.5601434284
C  C167  1  0.52410000  0.06600000  0.69470000  1.0 -0.2663630969
C  C168  1  0.42000000  0.02500000  0.78200000  1.0 0.0375203582
C  C169  1  0.36900000  0.07800000  0.78100000  1.0 -0.0312027302
C  C170  1  0.57170000  0.81700000  0.69340000  1.0 0.0375203582
C  C171  1  0.59300000  0.83600000  0.64860000  1.0 -0.1055087828
C  C172  1  0.58700000  0.78000000  0.62110000  1.0 -0.10092304
C  C173  1  0.56560000  0.71100000  0.62770000  1.0 -0.068202083
C  C174  1  0.54400000  0.69300000  0.67250000  1.0 -0.0756190381
C  C175  1  0.54990000  0.74800000  0.70010000  1.0 -0.1339196382
C  C176  1  0.57790000  0.87420000  0.72090000  1.0 -0.0585799082
C  C177  1  0.52670000  0.92700000  0.72180000  1.0 0.0314188038
C  C178  1  0.52800000  0.97300000  0.75100000  1.0 -0.0081343022
C  C179  1  0.56050000  0.65600000  0.59880000  1.0 0.5601434284
C  C180  1  0.47590000  0.93400000  0.69470000  1.0 -0.2663630969
C  C181  1  0.58000000  0.97500000  0.78200000  1.0 0.0375203582
C  C182  1  0.63100000  0.92200000  0.78100000  1.0 -0.0312027302
C  C183  1  0.18300000  0.57170000  0.69340000  1.0 0.0375203582
C  C184  1  0.16400000  0.59300000  0.64860000  1.0 -0.1055087828
C  C185  1  0.22000000  0.58700000  0.62110000  1.0 -0.10092304
C  C186  1  0.28900000  0.56560000  0.62770000  1.0 -0.068202083
C  C187  1  0.30700000  0.54400000  0.67250000  1.0 -0.0756190381
C  C188  1  0.25200000  0.54990000  0.70010000  1.0 -0.1339196382
C  C189  1  0.12580000  0.57790000  0.72090000  1.0 -0.0585799082
C  C190  1  0.07300000  0.52670000  0.72180000  1.0 0.0314188038
C  C191  1  0.02700000  0.52800000  0.75100000  1.0 -0.0081343022
C  C192  1  0.34400000  0.56050000  0.59880000  1.0 0.5601434284
C  C193  1  0.06600000  0.47590000  0.69470000  1.0 -0.2663630969
C  C194  1  0.02500000  0.58000000  0.78200000  1.0 0.0375203582
C  C195  1  0.07800000  0.63100000  0.78100000  1.0 -0.0312027302
C  C196  1  0.81700000  0.42830000  0.69340000  1.0 0.0375203582
C  C197  1  0.83600000  0.40700000  0.64860000  1.0 -0.1055087828
C  C198  1  0.78000000  0.41300000  0.62110000  1.0 -0.10092304
C  C199  1  0.71100000  0.43440000  0.62770000  1.0 -0.068202083
C  C200  1  0.69300000  0.45600000  0.67250000  1.0 -0.0756190381
C  C201  1  0.74800000  0.45010000  0.70010000  1.0 -0.1339196382
C  C202  1  0.87420000  0.42210000  0.72090000  1.0 -0.0585799082
C  C203  1  0.92700000  0.47330000  0.72180000  1.0 0.0314188038
C  C204  1  0.97300000  0.47200000  0.75100000  1.0 -0.0081343022
C  C205  1  0.65600000  0.43950000  0.59880000  1.0 0.5601434284
C  C206  1  0.93400000  0.52410000  0.69470000  1.0 -0.2663630969
C  C207  1  0.97500000  0.42000000  0.78200000  1.0 0.0375203582
C  C208  1  0.92200000  0.36900000  0.78100000  1.0 -0.0312027302
C  C209  1  0.87010000  0.37010000  0.25000000  1.0 0.0169803047
C  C210  1  0.81910000  0.31910000  0.25000000  1.0 -0.1762993164
C  C211  1  0.12990000  0.62990000  0.25000000  1.0 0.0169803047
C  C212  1  0.18090000  0.68090000  0.25000000  1.0 -0.1762993164
C  C213  1  0.62990000  0.87010000  0.25000000  1.0 0.0169803047
C  C214  1  0.68090000  0.81910000  0.25000000  1.0 -0.1762993164
C  C215  1  0.37010000  0.12990000  0.25000000  1.0 0.0169803047
C  C216  1  0.31910000  0.18090000  0.25000000  1.0 -0.1762993164
C  C217  1  0.12990000  0.62990000  0.75000000  1.0 0.0169803047
C  C218  1  0.18090000  0.68090000  0.75000000  1.0 -0.1762993164
C  C219  1  0.87010000  0.37010000  0.75000000  1.0 0.0169803047
C  C220  1  0.81910000  0.31910000  0.75000000  1.0 -0.1762993164
C  C221  1  0.37010000  0.12990000  0.75000000  1.0 0.0169803047
C  C222  1  0.31910000  0.18090000  0.75000000  1.0 -0.1762993164
C  C223  1  0.62990000  0.87010000  0.75000000  1.0 0.0169803047
C  C224  1  0.68090000  0.81910000  0.75000000  1.0 -0.1762993164
O  O1  1  0.97000000  0.08980000  0.10820000  1.0 -0.5035569719
O  O2  1  0.91600000  0.03500000  0.03780000  1.0 -0.7411472811
O  O3  1  0.93400000  0.17300000  0.05730000  1.0 -0.602827723
O  O4  1  0.03000000  0.91020000  0.10820000  1.0 -0.5035569719
O  O5  1  0.08400000  0.96500000  0.03780000  1.0 -0.7411472811
O  O6  1  0.06600000  0.82700000  0.05730000  1.0 -0.602827723
O  O7  1  0.91020000  0.97000000  0.10820000  1.0 -0.5035569719
O  O8  1  0.96500000  0.91600000  0.03780000  1.0 -0.7411472811
O  O9  1  0.82700000  0.93400000  0.05730000  1.0 -0.602827723
O  O10  1  0.08980000  0.03000000  0.10820000  1.0 -0.5035569719
O  O11  1  0.03500000  0.08400000  0.03780000  1.0 -0.7411472811
O  O12  1  0.17300000  0.06600000  0.05730000  1.0 -0.6081261984
O  O13  1  0.53000000  0.58980000  0.39180000  1.0 -0.5035569719
O  O14  1  0.58400000  0.53500000  0.46220000  1.0 -0.7411472811
O  O15  1  0.56600000  0.67300000  0.44270000  1.0 -0.602827723
O  O16  1  0.47000000  0.41020000  0.39180000  1.0 -0.5035569719
O  O17  1  0.41600000  0.46500000  0.46220000  1.0 -0.7411472811
O  O18  1  0.43400000  0.32700000  0.44270000  1.0 -0.602827723
O  O19  1  0.58980000  0.47000000  0.39180000  1.0 -0.5035569719
O  O20  1  0.53500000  0.41600000  0.46220000  1.0 -0.7411472811
O  O21  1  0.67300000  0.43400000  0.44270000  1.0 -0.602827723
O  O22  1  0.41020000  0.53000000  0.39180000  1.0 -0.5035569719
O  O23  1  0.46500000  0.58400000  0.46220000  1.0 -0.7411472811
O  O24  1  0.32700000  0.56600000  0.44270000  1.0 -0.602827723
O  O25  1  0.03000000  0.91020000  0.89180000  1.0 -0.5053184382
O  O26  1  0.08400000  0.96500000  0.96220000  1.0 -0.7411472811
O  O27  1  0.06600000  0.82700000  0.94270000  1.0 -0.6081261984
O  O28  1  0.97000000  0.08980000  0.89180000  1.0 -0.5035569719
O  O29  1  0.91600000  0.03500000  0.96220000  1.0 -0.7411472811
O  O30  1  0.93400000  0.17300000  0.94270000  1.0 -0.6081261984
O  O31  1  0.08980000  0.03000000  0.89180000  1.0 -0.5053184382
O  O32  1  0.03500000  0.08400000  0.96220000  1.0 -0.7411472811
O  O33  1  0.17300000  0.06600000  0.94270000  1.0 -0.6081261984
O  O34  1  0.91020000  0.97000000  0.89180000  1.0 -0.5035569719
O  O35  1  0.96500000  0.91600000  0.96220000  1.0 -0.7411472811
O  O36  1  0.82700000  0.93400000  0.94270000  1.0 -0.602827723
O  O37  1  0.47000000  0.41020000  0.60820000  1.0 -0.5035569719
O  O38  1  0.41600000  0.46500000  0.53780000  1.0 -0.7411472811
O  O39  1  0.43400000  0.32700000  0.55730000  1.0 -0.602827723
O  O40  1  0.53000000  0.58980000  0.60820000  1.0 -0.5035569719
O  O41  1  0.58400000  0.53500000  0.53780000  1.0 -0.7411472811
O  O42  1  0.56600000  0.67300000  0.55730000  1.0 -0.602827723
O  O43  1  0.41020000  0.53000000  0.60820000  1.0 -0.5035569719
O  O44  1  0.46500000  0.58400000  0.53780000  1.0 -0.7411472811
O  O45  1  0.32700000  0.56600000  0.55730000  1.0 -0.602827723
O  O46  1  0.58980000  0.47000000  0.60820000  1.0 -0.5035569719
O  O47  1  0.53500000  0.41600000  0.53780000  1.0 -0.7411472811
O  O48  1  0.67300000  0.43400000  0.55730000  1.0 -0.602827723
