# DDEC6 charges by PACMAN v1.1 (https://github.com/mtap-research/PACMAN-charge/)
data_NEVTIU08_ASR_pacman
_symmetry_space_group_name_H-M   'P 1'
_cell_length_a   18.93200000
_cell_length_b   18.93200000
_cell_length_c   33.13800000
_cell_angle_alpha   90.00000000
_cell_angle_beta   90.00000000
_cell_angle_gamma   90.00000000
_symmetry_Int_Tables_number   1
_chemical_formula_structural   Hf3H40(C14O3)4
_chemical_formula_sum   'Hf12 H160 C224 O48'
_cell_volume   11877.34263811
_cell_formula_units_Z   4
loop_
 _symmetry_equiv_pos_site_id
 _symmetry_equiv_pos_as_xyz
  1  'x, y, z'
loop_
 _atom_site_type_symbol
 _atom_site_label
 _atom_site_symmetry_multiplicity
 _atom_site_fract_x
 _atom_site_fract_y
 _atom_site_fract_z
 _atom_site_occupancy
 _atom_site_charge
Hf  Hf1  1  0.95395000  0.12322000  0.00000000  1.0 1.5623696013
Hf  Hf2  1  0.04605000  0.87678000  0.00000000  1.0 1.568610393
Hf  Hf3  1  0.87678000  0.95395000  0.00000000  1.0 1.5623696013
Hf  Hf4  1  0.12322000  0.04605000  0.00000000  1.0 1.568610393
Hf  Hf5  1  0.54605000  0.62322000  0.50000000  1.0 1.5623696013
Hf  Hf6  1  0.45395000  0.37678000  0.50000000  1.0 1.5623696013
Hf  Hf7  1  0.62322000  0.45395000  0.50000000  1.0 1.5623696013
Hf  Hf8  1  0.37678000  0.54605000  0.50000000  1.0 1.5623696013
Hf  Hf9  1  0.00000000  0.00000000  0.07332000  1.0 1.5623696013
Hf  Hf10  1  0.50000000  0.50000000  0.42668000  1.0 1.5623696013
Hf  Hf11  1  0.00000000  0.00000000  0.92668000  1.0 1.5623696013
Hf  Hf12  1  0.50000000  0.50000000  0.57332000  1.0 1.568610393
H  H1  1  0.89070000  0.37290000  0.14160000  1.0 0.1132828145
H  H2  1  0.90110000  0.28480000  0.09420000  1.0 0.1282695005
H  H3  1  0.96960000  0.14510000  0.17900000  1.0 0.1282695005
H  H4  1  0.95930000  0.23310000  0.22630000  1.0 0.1190173426
H  H5  1  0.03530000  0.46690000  0.18940000  1.0 0.0906289498
H  H6  1  0.01730000  0.39130000  0.17310000  1.0 0.1190173426
H  H7  1  0.06860000  0.40020000  0.20990000  1.0 0.1190173426
H  H8  1  0.77590000  0.32500000  0.26880000  1.0 0.0288774139
H  H9  1  0.83280000  0.26800000  0.25770000  1.0 0.019723214
H  H10  1  0.79250000  0.30840000  0.22340000  1.0 0.0288774139
H  H11  1  0.10930000  0.62710000  0.14160000  1.0 0.1132828145
H  H12  1  0.09890000  0.71520000  0.09420000  1.0 0.1282695005
H  H13  1  0.03040000  0.85490000  0.17900000  1.0 0.1282695005
H  H14  1  0.04070000  0.76690000  0.22630000  1.0 0.1282695005
H  H15  1  0.96470000  0.53310000  0.18940000  1.0 0.0906289498
H  H16  1  0.98270000  0.60870000  0.17310000  1.0 0.1190173426
H  H17  1  0.93140000  0.59980000  0.20990000  1.0 0.1190173426
H  H18  1  0.22410000  0.67500000  0.26880000  1.0 0.0288774139
H  H19  1  0.16720000  0.73200000  0.25770000  1.0 0.019723214
H  H20  1  0.20750000  0.69160000  0.22340000  1.0 0.0288774139
H  H21  1  0.62710000  0.89070000  0.14160000  1.0 0.1132828145
H  H22  1  0.71520000  0.90110000  0.09420000  1.0 0.1282695005
H  H23  1  0.85490000  0.96960000  0.17900000  1.0 0.1282695005
H  H24  1  0.76690000  0.95930000  0.22630000  1.0 0.1190173426
H  H25  1  0.53310000  0.03530000  0.18940000  1.0 0.0906289498
H  H26  1  0.60870000  0.01730000  0.17310000  1.0 0.1190173426
H  H27  1  0.59980000  0.06860000  0.20990000  1.0 0.1190173426
H  H28  1  0.67500000  0.77590000  0.26880000  1.0 0.0288774139
H  H29  1  0.73200000  0.83280000  0.25770000  1.0 0.019723214
H  H30  1  0.69160000  0.79250000  0.22340000  1.0 0.0288774139
H  H31  1  0.37290000  0.10930000  0.14160000  1.0 0.1132828145
H  H32  1  0.28480000  0.09890000  0.09420000  1.0 0.1282695005
H  H33  1  0.14510000  0.03040000  0.17900000  1.0 0.1282695005
H  H34  1  0.23310000  0.04070000  0.22630000  1.0 0.1190173426
H  H35  1  0.46690000  0.96470000  0.18940000  1.0 0.0906289498
H  H36  1  0.39130000  0.98270000  0.17310000  1.0 0.1190173426
H  H37  1  0.40020000  0.93140000  0.20990000  1.0 0.1190173426
H  H38  1  0.32500000  0.22410000  0.26880000  1.0 0.0288774139
H  H39  1  0.26800000  0.16720000  0.25770000  1.0 0.019723214
H  H40  1  0.30840000  0.20750000  0.22340000  1.0 0.0288774139
H  H41  1  0.60930000  0.87290000  0.35840000  1.0 0.1132828145
H  H42  1  0.59890000  0.78480000  0.40580000  1.0 0.1282695005
H  H43  1  0.53040000  0.64510000  0.32100000  1.0 0.1282695005
H  H44  1  0.54070000  0.73310000  0.27370000  1.0 0.1282695005
H  H45  1  0.46470000  0.96690000  0.31060000  1.0 0.0906289498
H  H46  1  0.48270000  0.89130000  0.32690000  1.0 0.1190173426
H  H47  1  0.43140000  0.90020000  0.29010000  1.0 0.1190173426
H  H48  1  0.72410000  0.82500000  0.23120000  1.0 0.0288774139
H  H49  1  0.66720000  0.76800000  0.24230000  1.0 0.019723214
H  H50  1  0.70750000  0.80840000  0.27660000  1.0 0.0288774139
H  H51  1  0.39070000  0.12710000  0.35840000  1.0 0.1132828145
H  H52  1  0.40110000  0.21520000  0.40580000  1.0 0.1282695005
H  H53  1  0.46960000  0.35490000  0.32100000  1.0 0.1282695005
H  H54  1  0.45930000  0.26690000  0.27370000  1.0 0.1282695005
H  H55  1  0.53530000  0.03310000  0.31060000  1.0 0.0906289498
H  H56  1  0.51730000  0.10870000  0.32690000  1.0 0.1190173426
H  H57  1  0.56860000  0.09980000  0.29010000  1.0 0.1190173426
H  H58  1  0.27590000  0.17500000  0.23120000  1.0 0.0288774139
H  H59  1  0.33280000  0.23200000  0.24230000  1.0 0.019723214
H  H60  1  0.29250000  0.19160000  0.27660000  1.0 0.0288774139
H  H61  1  0.87290000  0.39070000  0.35840000  1.0 0.1132828145
H  H62  1  0.78480000  0.40110000  0.40580000  1.0 0.1282695005
H  H63  1  0.64510000  0.46960000  0.32100000  1.0 0.1282695005
H  H64  1  0.73310000  0.45930000  0.27370000  1.0 0.1190173426
H  H65  1  0.96690000  0.53530000  0.31060000  1.0 0.0906289498
H  H66  1  0.89130000  0.51730000  0.32690000  1.0 0.1190173426
H  H67  1  0.90020000  0.56860000  0.29010000  1.0 0.1190173426
H  H68  1  0.82500000  0.27590000  0.23120000  1.0 0.0288774139
H  H69  1  0.76800000  0.33280000  0.24230000  1.0 0.019723214
H  H70  1  0.80840000  0.29250000  0.27660000  1.0 0.0288774139
H  H71  1  0.12710000  0.60930000  0.35840000  1.0 0.1132828145
H  H72  1  0.21520000  0.59890000  0.40580000  1.0 0.1282695005
H  H73  1  0.35490000  0.53040000  0.32100000  1.0 0.1282695005
H  H74  1  0.26690000  0.54070000  0.27370000  1.0 0.1282695005
H  H75  1  0.03310000  0.46470000  0.31060000  1.0 0.0906289498
H  H76  1  0.10870000  0.48270000  0.32690000  1.0 0.1190173426
H  H77  1  0.09980000  0.43140000  0.29010000  1.0 0.1190173426
H  H78  1  0.17500000  0.72410000  0.23120000  1.0 0.0288774139
H  H79  1  0.23200000  0.66720000  0.24230000  1.0 0.019723214
H  H80  1  0.19160000  0.70750000  0.27660000  1.0 0.0288774139
H  H81  1  0.10930000  0.62710000  0.85840000  1.0 0.1132828145
H  H82  1  0.09890000  0.71520000  0.90580000  1.0 0.1282695005
H  H83  1  0.03040000  0.85490000  0.82100000  1.0 0.1282695005
H  H84  1  0.04070000  0.76690000  0.77370000  1.0 0.1282695005
H  H85  1  0.96470000  0.53310000  0.81060000  1.0 0.0906289498
H  H86  1  0.98270000  0.60870000  0.82690000  1.0 0.1190173426
H  H87  1  0.93140000  0.59980000  0.79010000  1.0 0.1190173426
H  H88  1  0.22410000  0.67500000  0.73120000  1.0 0.0288774139
H  H89  1  0.16720000  0.73200000  0.74230000  1.0 0.019723214
H  H90  1  0.20750000  0.69160000  0.77660000  1.0 0.0288774139
H  H91  1  0.89070000  0.37290000  0.85840000  1.0 0.1132828145
H  H92  1  0.90110000  0.28480000  0.90580000  1.0 0.1282695005
H  H93  1  0.96960000  0.14510000  0.82100000  1.0 0.1282695005
H  H94  1  0.95930000  0.23310000  0.77370000  1.0 0.1190173426
H  H95  1  0.03530000  0.46690000  0.81060000  1.0 0.0906289498
H  H96  1  0.01730000  0.39130000  0.82690000  1.0 0.1190173426
H  H97  1  0.06860000  0.40020000  0.79010000  1.0 0.1190173426
H  H98  1  0.77590000  0.32500000  0.73120000  1.0 0.0288774139
H  H99  1  0.83280000  0.26800000  0.74230000  1.0 0.0288774139
H  H100  1  0.79250000  0.30840000  0.77660000  1.0 0.0288774139
H  H101  1  0.37290000  0.10930000  0.85840000  1.0 0.1132828145
H  H102  1  0.28480000  0.09890000  0.90580000  1.0 0.1282695005
H  H103  1  0.14510000  0.03040000  0.82100000  1.0 0.1282695005
H  H104  1  0.23310000  0.04070000  0.77370000  1.0 0.1282695005
H  H105  1  0.46690000  0.96470000  0.81060000  1.0 0.0906289498
H  H106  1  0.39130000  0.98270000  0.82690000  1.0 0.1190173426
H  H107  1  0.40020000  0.93140000  0.79010000  1.0 0.1190173426
H  H108  1  0.32500000  0.22410000  0.73120000  1.0 0.0288774139
H  H109  1  0.26800000  0.16720000  0.74230000  1.0 0.019723214
H  H110  1  0.30840000  0.20750000  0.77660000  1.0 0.0288774139
H  H111  1  0.62710000  0.89070000  0.85840000  1.0 0.1132828145
H  H112  1  0.71520000  0.90110000  0.90580000  1.0 0.1282695005
H  H113  1  0.85490000  0.96960000  0.82100000  1.0 0.1282695005
H  H114  1  0.76690000  0.95930000  0.77370000  1.0 0.1190173426
H  H115  1  0.53310000  0.03530000  0.81060000  1.0 0.0906289498
H  H116  1  0.60870000  0.01730000  0.82690000  1.0 0.1190173426
H  H117  1  0.59980000  0.06860000  0.79010000  1.0 0.1190173426
H  H118  1  0.67500000  0.77590000  0.73120000  1.0 0.0288774139
H  H119  1  0.73200000  0.83280000  0.74230000  1.0 0.0288774139
H  H120  1  0.69160000  0.79250000  0.77660000  1.0 0.0288774139
H  H121  1  0.39070000  0.12710000  0.64160000  1.0 0.1132828145
H  H122  1  0.40110000  0.21520000  0.59420000  1.0 0.1282695005
H  H123  1  0.46960000  0.35490000  0.67900000  1.0 0.1282695005
H  H124  1  0.45930000  0.26690000  0.72630000  1.0 0.1282695005
H  H125  1  0.53530000  0.03310000  0.68940000  1.0 0.0906289498
H  H126  1  0.51730000  0.10870000  0.67310000  1.0 0.1190173426
H  H127  1  0.56860000  0.09980000  0.70990000  1.0 0.1190173426
H  H128  1  0.27590000  0.17500000  0.76880000  1.0 0.0288774139
H  H129  1  0.33280000  0.23200000  0.75770000  1.0 0.0288774139
H  H130  1  0.29250000  0.19160000  0.72340000  1.0 0.0288774139
H  H131  1  0.60930000  0.87290000  0.64160000  1.0 0.1132828145
H  H132  1  0.59890000  0.78480000  0.59420000  1.0 0.1282695005
H  H133  1  0.53040000  0.64510000  0.67900000  1.0 0.1282695005
H  H134  1  0.54070000  0.73310000  0.72630000  1.0 0.1282695005
H  H135  1  0.46470000  0.96690000  0.68940000  1.0 0.0906289498
H  H136  1  0.48270000  0.89130000  0.67310000  1.0 0.1190173426
H  H137  1  0.43140000  0.90020000  0.70990000  1.0 0.1190173426
H  H138  1  0.72410000  0.82500000  0.76880000  1.0 0.0288774139
H  H139  1  0.66720000  0.76800000  0.75770000  1.0 0.0288774139
H  H140  1  0.70750000  0.80840000  0.72340000  1.0 0.0288774139
H  H141  1  0.12710000  0.60930000  0.64160000  1.0 0.1132828145
H  H142  1  0.21520000  0.59890000  0.59420000  1.0 0.1282695005
H  H143  1  0.35490000  0.53040000  0.67900000  1.0 0.1282695005
H  H144  1  0.26690000  0.54070000  0.72630000  1.0 0.1282695005
H  H145  1  0.03310000  0.46470000  0.68940000  1.0 0.0906289498
H  H146  1  0.10870000  0.48270000  0.67310000  1.0 0.1190173426
H  H147  1  0.09980000  0.43140000  0.70990000  1.0 0.1190173426
H  H148  1  0.17500000  0.72410000  0.76880000  1.0 0.0288774139
H  H149  1  0.23200000  0.66720000  0.75770000  1.0 0.0288774139
H  H150  1  0.19160000  0.70750000  0.72340000  1.0 0.0288774139
H  H151  1  0.87290000  0.39070000  0.64160000  1.0 0.1132828145
H  H152  1  0.78480000  0.40110000  0.59420000  1.0 0.1282695005
H  H153  1  0.64510000  0.46960000  0.67900000  1.0 0.1282695005
H  H154  1  0.73310000  0.45930000  0.72630000  1.0 0.1282695005
H  H155  1  0.96690000  0.53530000  0.68940000  1.0 0.0906289498
H  H156  1  0.89130000  0.51730000  0.67310000  1.0 0.1190173426
H  H157  1  0.90020000  0.56860000  0.70990000  1.0 0.1190173426
H  H158  1  0.82500000  0.27590000  0.76880000  1.0 0.0288774139
H  H159  1  0.76800000  0.33280000  0.75770000  1.0 0.0288774139
H  H160  1  0.80840000  0.29250000  0.72340000  1.0 0.0288774139
C  C1  1  0.92520000  0.31120000  0.19150000  1.0 0.043886691
C  C2  1  0.90630000  0.32820000  0.14900000  1.0 -0.1076777224
C  C3  1  0.91280000  0.27430000  0.12080000  1.0 -0.0975742723
C  C4  1  0.93530000  0.20680000  0.12890000  1.0 -0.0625646487
C  C5  1  0.95410000  0.18990000  0.17160000  1.0 -0.0625646487
C  C6  1  0.94760000  0.24360000  0.19970000  1.0 -0.1365859733
C  C7  1  0.91970000  0.36360000  0.22180000  1.0 -0.0165065712
C  C8  1  0.97210000  0.41500000  0.22230000  1.0 0.019723214
C  C9  1  0.97100000  0.47000000  0.25030000  1.0 0.0108138005
C  C10  1  0.94050000  0.15500000  0.09840000  1.0 0.557515269
C  C11  1  0.02730000  0.41860000  0.19690000  1.0 -0.2979541665
C  C12  1  0.91800000  0.46900000  0.28000000  1.0 0.019723214
C  C13  1  0.86500000  0.41700000  0.27990000  1.0 -0.0071144348
C  C14  1  0.07480000  0.68880000  0.19150000  1.0 0.043886691
C  C15  1  0.09370000  0.67180000  0.14900000  1.0 -0.1076777224
C  C16  1  0.08720000  0.72570000  0.12080000  1.0 -0.0975742723
C  C17  1  0.06470000  0.79320000  0.12890000  1.0 -0.0625646487
C  C18  1  0.04590000  0.81010000  0.17160000  1.0 -0.0625646487
C  C19  1  0.05240000  0.75640000  0.19970000  1.0 -0.1365859733
C  C20  1  0.08030000  0.63640000  0.22180000  1.0 -0.0165065712
C  C21  1  0.02790000  0.58500000  0.22230000  1.0 0.019723214
C  C22  1  0.02900000  0.53000000  0.25030000  1.0 0.0108138005
C  C23  1  0.05950000  0.84500000  0.09840000  1.0 0.557515269
C  C24  1  0.97270000  0.58140000  0.19690000  1.0 -0.2979541665
C  C25  1  0.08200000  0.53100000  0.28000000  1.0 0.019723214
C  C26  1  0.13500000  0.58300000  0.27990000  1.0 -0.0071144348
C  C27  1  0.68880000  0.92520000  0.19150000  1.0 0.043886691
C  C28  1  0.67180000  0.90630000  0.14900000  1.0 -0.1076777224
C  C29  1  0.72570000  0.91280000  0.12080000  1.0 -0.0975742723
C  C30  1  0.79320000  0.93530000  0.12890000  1.0 -0.0625646487
C  C31  1  0.81010000  0.95410000  0.17160000  1.0 -0.0625646487
C  C32  1  0.75640000  0.94760000  0.19970000  1.0 -0.1365859733
C  C33  1  0.63640000  0.91970000  0.22180000  1.0 -0.0165065712
C  C34  1  0.58500000  0.97210000  0.22230000  1.0 0.019723214
C  C35  1  0.53000000  0.97100000  0.25030000  1.0 0.0108138005
C  C36  1  0.84500000  0.94050000  0.09840000  1.0 0.557515269
C  C37  1  0.58140000  0.02730000  0.19690000  1.0 -0.2979541665
C  C38  1  0.53100000  0.91800000  0.28000000  1.0 0.019723214
C  C39  1  0.58300000  0.86500000  0.27990000  1.0 -0.0071144348
C  C40  1  0.31120000  0.07480000  0.19150000  1.0 0.043886691
C  C41  1  0.32820000  0.09370000  0.14900000  1.0 -0.1076777224
C  C42  1  0.27430000  0.08720000  0.12080000  1.0 -0.0975742723
C  C43  1  0.20680000  0.06470000  0.12890000  1.0 -0.0625646487
C  C44  1  0.18990000  0.04590000  0.17160000  1.0 -0.0625646487
C  C45  1  0.24360000  0.05240000  0.19970000  1.0 -0.1365859733
C  C46  1  0.36360000  0.08030000  0.22180000  1.0 -0.0165065712
C  C47  1  0.41500000  0.02790000  0.22230000  1.0 0.019723214
C  C48  1  0.47000000  0.02900000  0.25030000  1.0 0.0108138005
C  C49  1  0.15500000  0.05950000  0.09840000  1.0 0.557515269
C  C50  1  0.41860000  0.97270000  0.19690000  1.0 -0.2979541665
C  C51  1  0.46900000  0.08200000  0.28000000  1.0 0.019723214
C  C52  1  0.41700000  0.13500000  0.27990000  1.0 -0.0071144348
C  C53  1  0.57480000  0.81120000  0.30850000  1.0 0.043886691
C  C54  1  0.59370000  0.82820000  0.35100000  1.0 -0.1076777224
C  C55  1  0.58720000  0.77430000  0.37920000  1.0 -0.0975742723
C  C56  1  0.56470000  0.70680000  0.37110000  1.0 -0.0625646487
C  C57  1  0.54590000  0.68990000  0.32840000  1.0 -0.0625646487
C  C58  1  0.55240000  0.74360000  0.30030000  1.0 -0.1365859733
C  C59  1  0.58030000  0.86360000  0.27820000  1.0 -0.0165065712
C  C60  1  0.52790000  0.91500000  0.27770000  1.0 0.019723214
C  C61  1  0.52900000  0.97000000  0.24970000  1.0 0.0108138005
C  C62  1  0.55950000  0.65500000  0.40160000  1.0 0.557515269
C  C63  1  0.47270000  0.91860000  0.30310000  1.0 -0.2979541665
C  C64  1  0.58200000  0.96900000  0.22000000  1.0 0.019723214
C  C65  1  0.63500000  0.91700000  0.22010000  1.0 -0.0071144348
C  C66  1  0.42520000  0.18880000  0.30850000  1.0 0.043886691
C  C67  1  0.40630000  0.17180000  0.35100000  1.0 -0.1076777224
C  C68  1  0.41280000  0.22570000  0.37920000  1.0 -0.0975742723
C  C69  1  0.43530000  0.29320000  0.37110000  1.0 -0.0625646487
C  C70  1  0.45410000  0.31010000  0.32840000  1.0 -0.0625646487
C  C71  1  0.44760000  0.25640000  0.30030000  1.0 -0.1365859733
C  C72  1  0.41970000  0.13640000  0.27820000  1.0 -0.0165065712
C  C73  1  0.47210000  0.08500000  0.27770000  1.0 0.019723214
C  C74  1  0.47100000  0.03000000  0.24970000  1.0 0.0108138005
C  C75  1  0.44050000  0.34500000  0.40160000  1.0 0.557515269
C  C76  1  0.52730000  0.08140000  0.30310000  1.0 -0.2979541665
C  C77  1  0.41800000  0.03100000  0.22000000  1.0 0.019723214
C  C78  1  0.36500000  0.08300000  0.22010000  1.0 -0.0071144348
C  C79  1  0.81120000  0.42520000  0.30850000  1.0 0.043886691
C  C80  1  0.82820000  0.40630000  0.35100000  1.0 -0.1076777224
C  C81  1  0.77430000  0.41280000  0.37920000  1.0 -0.0975742723
C  C82  1  0.70680000  0.43530000  0.37110000  1.0 -0.0625646487
C  C83  1  0.68990000  0.45410000  0.32840000  1.0 -0.0625646487
C  C84  1  0.74360000  0.44760000  0.30030000  1.0 -0.1365859733
C  C85  1  0.86360000  0.41970000  0.27820000  1.0 -0.0165065712
C  C86  1  0.91500000  0.47210000  0.27770000  1.0 0.019723214
C  C87  1  0.97000000  0.47100000  0.24970000  1.0 0.0108138005
C  C88  1  0.65500000  0.44050000  0.40160000  1.0 0.557515269
C  C89  1  0.91860000  0.52730000  0.30310000  1.0 -0.2979541665
C  C90  1  0.96900000  0.41800000  0.22000000  1.0 0.019723214
C  C91  1  0.91700000  0.36500000  0.22010000  1.0 -0.0071144348
C  C92  1  0.18880000  0.57480000  0.30850000  1.0 0.043886691
C  C93  1  0.17180000  0.59370000  0.35100000  1.0 -0.1076777224
C  C94  1  0.22570000  0.58720000  0.37920000  1.0 -0.0975742723
C  C95  1  0.29320000  0.56470000  0.37110000  1.0 -0.0625646487
C  C96  1  0.31010000  0.54590000  0.32840000  1.0 -0.0625646487
C  C97  1  0.25640000  0.55240000  0.30030000  1.0 -0.1365859733
C  C98  1  0.13640000  0.58030000  0.27820000  1.0 -0.0165065712
C  C99  1  0.08500000  0.52790000  0.27770000  1.0 0.019723214
C  C100  1  0.03000000  0.52900000  0.24970000  1.0 0.0108138005
C  C101  1  0.34500000  0.55950000  0.40160000  1.0 0.557515269
C  C102  1  0.08140000  0.47270000  0.30310000  1.0 -0.2979541665
C  C103  1  0.03100000  0.58200000  0.22000000  1.0 0.019723214
C  C104  1  0.08300000  0.63500000  0.22010000  1.0 -0.0071144348
C  C105  1  0.07480000  0.68880000  0.80850000  1.0 0.043886691
C  C106  1  0.09370000  0.67180000  0.85100000  1.0 -0.1076777224
C  C107  1  0.08720000  0.72570000  0.87920000  1.0 -0.0975742723
C  C108  1  0.06470000  0.79320000  0.87110000  1.0 -0.0625646487
C  C109  1  0.04590000  0.81010000  0.82840000  1.0 -0.0625646487
C  C110  1  0.05240000  0.75640000  0.80030000  1.0 -0.1365859733
C  C111  1  0.08030000  0.63640000  0.77820000  1.0 -0.0165065712
C  C112  1  0.02790000  0.58500000  0.77770000  1.0 0.019723214
C  C113  1  0.02900000  0.53000000  0.74970000  1.0 0.0108138005
C  C114  1  0.05950000  0.84500000  0.90160000  1.0 0.557515269
C  C115  1  0.97270000  0.58140000  0.80310000  1.0 -0.2979541665
C  C116  1  0.08200000  0.53100000  0.72000000  1.0 0.019723214
C  C117  1  0.13500000  0.58300000  0.72010000  1.0 -0.0071144348
C  C118  1  0.92520000  0.31120000  0.80850000  1.0 0.043886691
C  C119  1  0.90630000  0.32820000  0.85100000  1.0 -0.1076777224
C  C120  1  0.91280000  0.27430000  0.87920000  1.0 -0.0975742723
C  C121  1  0.93530000  0.20680000  0.87110000  1.0 -0.0625646487
C  C122  1  0.95410000  0.18990000  0.82840000  1.0 -0.0625646487
C  C123  1  0.94760000  0.24360000  0.80030000  1.0 -0.1365859733
C  C124  1  0.91970000  0.36360000  0.77820000  1.0 -0.0165065712
C  C125  1  0.97210000  0.41500000  0.77770000  1.0 0.019723214
C  C126  1  0.97100000  0.47000000  0.74970000  1.0 0.0108138005
C  C127  1  0.94050000  0.15500000  0.90160000  1.0 0.557515269
C  C128  1  0.02730000  0.41860000  0.80310000  1.0 -0.2979541665
C  C129  1  0.91800000  0.46900000  0.72000000  1.0 0.019723214
C  C130  1  0.86500000  0.41700000  0.72010000  1.0 -0.0071144348
C  C131  1  0.31120000  0.07480000  0.80850000  1.0 0.043886691
C  C132  1  0.32820000  0.09370000  0.85100000  1.0 -0.1076777224
C  C133  1  0.27430000  0.08720000  0.87920000  1.0 -0.0975742723
C  C134  1  0.20680000  0.06470000  0.87110000  1.0 -0.0625646487
C  C135  1  0.18990000  0.04590000  0.82840000  1.0 -0.0625646487
C  C136  1  0.24360000  0.05240000  0.80030000  1.0 -0.1365859733
C  C137  1  0.36360000  0.08030000  0.77820000  1.0 -0.0165065712
C  C138  1  0.41500000  0.02790000  0.77770000  1.0 0.019723214
C  C139  1  0.47000000  0.02900000  0.74970000  1.0 0.0108138005
C  C140  1  0.15500000  0.05950000  0.90160000  1.0 0.557515269
C  C141  1  0.41860000  0.97270000  0.80310000  1.0 -0.2979541665
C  C142  1  0.46900000  0.08200000  0.72000000  1.0 0.019723214
C  C143  1  0.41700000  0.13500000  0.72010000  1.0 -0.0071144348
C  C144  1  0.68880000  0.92520000  0.80850000  1.0 0.043886691
C  C145  1  0.67180000  0.90630000  0.85100000  1.0 -0.1076777224
C  C146  1  0.72570000  0.91280000  0.87920000  1.0 -0.0975742723
C  C147  1  0.79320000  0.93530000  0.87110000  1.0 -0.0625646487
C  C148  1  0.81010000  0.95410000  0.82840000  1.0 -0.0625646487
C  C149  1  0.75640000  0.94760000  0.80030000  1.0 -0.1365859733
C  C150  1  0.63640000  0.91970000  0.77820000  1.0 -0.0165065712
C  C151  1  0.58500000  0.97210000  0.77770000  1.0 0.019723214
C  C152  1  0.53000000  0.97100000  0.74970000  1.0 0.0108138005
C  C153  1  0.84500000  0.94050000  0.90160000  1.0 0.557515269
C  C154  1  0.58140000  0.02730000  0.80310000  1.0 -0.2979541665
C  C155  1  0.53100000  0.91800000  0.72000000  1.0 0.019723214
C  C156  1  0.58300000  0.86500000  0.72010000  1.0 -0.0071144348
C  C157  1  0.42520000  0.18880000  0.69150000  1.0 0.043886691
C  C158  1  0.40630000  0.17180000  0.64900000  1.0 -0.1076777224
C  C159  1  0.41280000  0.22570000  0.62080000  1.0 -0.0975742723
C  C160  1  0.43530000  0.29320000  0.62890000  1.0 -0.0625646487
C  C161  1  0.45410000  0.31010000  0.67160000  1.0 -0.0625646487
C  C162  1  0.44760000  0.25640000  0.69970000  1.0 -0.1365859733
C  C163  1  0.41970000  0.13640000  0.72180000  1.0 -0.0165065712
C  C164  1  0.47210000  0.08500000  0.72230000  1.0 0.019723214
C  C165  1  0.47100000  0.03000000  0.75030000  1.0 0.0108138005
C  C166  1  0.44050000  0.34500000  0.59840000  1.0 0.557515269
C  C167  1  0.52730000  0.08140000  0.69690000  1.0 -0.2979541665
C  C168  1  0.41800000  0.03100000  0.78000000  1.0 0.019723214
C  C169  1  0.36500000  0.08300000  0.77990000  1.0 -0.0071144348
C  C170  1  0.57480000  0.81120000  0.69150000  1.0 0.043886691
C  C171  1  0.59370000  0.82820000  0.64900000  1.0 -0.1076777224
C  C172  1  0.58720000  0.77430000  0.62080000  1.0 -0.0975742723
C  C173  1  0.56470000  0.70680000  0.62890000  1.0 -0.0625646487
C  C174  1  0.54590000  0.68990000  0.67160000  1.0 -0.0625646487
C  C175  1  0.55240000  0.74360000  0.69970000  1.0 -0.1365859733
C  C176  1  0.58030000  0.86360000  0.72180000  1.0 -0.0165065712
C  C177  1  0.52790000  0.91500000  0.72230000  1.0 0.019723214
C  C178  1  0.52900000  0.97000000  0.75030000  1.0 0.0108138005
C  C179  1  0.55950000  0.65500000  0.59840000  1.0 0.557515269
C  C180  1  0.47270000  0.91860000  0.69690000  1.0 -0.2979541665
C  C181  1  0.58200000  0.96900000  0.78000000  1.0 0.019723214
C  C182  1  0.63500000  0.91700000  0.77990000  1.0 -0.0071144348
C  C183  1  0.18880000  0.57480000  0.69150000  1.0 0.043886691
C  C184  1  0.17180000  0.59370000  0.64900000  1.0 -0.1076777224
C  C185  1  0.22570000  0.58720000  0.62080000  1.0 -0.0975742723
C  C186  1  0.29320000  0.56470000  0.62890000  1.0 -0.0625646487
C  C187  1  0.31010000  0.54590000  0.67160000  1.0 -0.0625646487
C  C188  1  0.25640000  0.55240000  0.69970000  1.0 -0.1365859733
C  C189  1  0.13640000  0.58030000  0.72180000  1.0 -0.0165065712
C  C190  1  0.08500000  0.52790000  0.72230000  1.0 0.019723214
C  C191  1  0.03000000  0.52900000  0.75030000  1.0 0.0108138005
C  C192  1  0.34500000  0.55950000  0.59840000  1.0 0.557515269
C  C193  1  0.08140000  0.47270000  0.69690000  1.0 -0.2979541665
C  C194  1  0.03100000  0.58200000  0.78000000  1.0 0.019723214
C  C195  1  0.08300000  0.63500000  0.77990000  1.0 -0.0071144348
C  C196  1  0.81120000  0.42520000  0.69150000  1.0 0.043886691
C  C197  1  0.82820000  0.40630000  0.64900000  1.0 -0.1076777224
C  C198  1  0.77430000  0.41280000  0.62080000  1.0 -0.0975742723
C  C199  1  0.70680000  0.43530000  0.62890000  1.0 -0.0625646487
C  C200  1  0.68990000  0.45410000  0.67160000  1.0 -0.0625646487
C  C201  1  0.74360000  0.44760000  0.69970000  1.0 -0.1365859733
C  C202  1  0.86360000  0.41970000  0.72180000  1.0 -0.0165065712
C  C203  1  0.91500000  0.47210000  0.72230000  1.0 0.019723214
C  C204  1  0.97000000  0.47100000  0.75030000  1.0 0.0108138005
C  C205  1  0.65500000  0.44050000  0.59840000  1.0 0.557515269
C  C206  1  0.91860000  0.52730000  0.69690000  1.0 -0.2979541665
C  C207  1  0.96900000  0.41800000  0.78000000  1.0 0.019723214
C  C208  1  0.91700000  0.36500000  0.77990000  1.0 -0.0071144348
C  C209  1  0.86630000  0.36630000  0.25000000  1.0 0.019723214
C  C210  1  0.81240000  0.31240000  0.25000000  1.0 -0.1536046249
C  C211  1  0.13370000  0.63370000  0.25000000  1.0 0.019723214
C  C212  1  0.18760000  0.68760000  0.25000000  1.0 -0.1536046249
C  C213  1  0.63370000  0.86630000  0.25000000  1.0 0.019723214
C  C214  1  0.68760000  0.81240000  0.25000000  1.0 -0.1536046249
C  C215  1  0.36630000  0.13370000  0.25000000  1.0 0.019723214
C  C216  1  0.31240000  0.18760000  0.25000000  1.0 -0.1536046249
C  C217  1  0.13370000  0.63370000  0.75000000  1.0 0.019723214
C  C218  1  0.18760000  0.68760000  0.75000000  1.0 -0.1536046249
C  C219  1  0.86630000  0.36630000  0.75000000  1.0 0.019723214
C  C220  1  0.81240000  0.31240000  0.75000000  1.0 -0.1536046249
C  C221  1  0.36630000  0.13370000  0.75000000  1.0 0.019723214
C  C222  1  0.31240000  0.18760000  0.75000000  1.0 -0.1536046249
C  C223  1  0.63370000  0.86630000  0.75000000  1.0 0.019723214
C  C224  1  0.68760000  0.81240000  0.75000000  1.0 -0.1536046249
O  O1  1  0.96920000  0.08900000  0.10840000  1.0 -0.5136621848
O  O2  1  0.91760000  0.03890000  0.03560000  1.0 -0.7322679331
O  O3  1  0.93530000  0.17430000  0.05750000  1.0 -0.6204417964
O  O4  1  0.03080000  0.91100000  0.10840000  1.0 -0.5136621848
O  O5  1  0.08240000  0.96110000  0.03560000  1.0 -0.7358216614
O  O6  1  0.06470000  0.82570000  0.05750000  1.0 -0.6204417964
O  O7  1  0.91100000  0.96920000  0.10840000  1.0 -0.5136621848
O  O8  1  0.96110000  0.91760000  0.03560000  1.0 -0.7322679331
O  O9  1  0.82570000  0.93530000  0.05750000  1.0 -0.6204417964
O  O10  1  0.08900000  0.03080000  0.10840000  1.0 -0.5170585946
O  O11  1  0.03890000  0.08240000  0.03560000  1.0 -0.7358216614
O  O12  1  0.17430000  0.06470000  0.05750000  1.0 -0.6204417964
O  O13  1  0.53080000  0.58900000  0.39160000  1.0 -0.5170585946
O  O14  1  0.58240000  0.53890000  0.46440000  1.0 -0.7358216614
O  O15  1  0.56470000  0.67430000  0.44250000  1.0 -0.6251917203
O  O16  1  0.46920000  0.41100000  0.39160000  1.0 -0.5170585946
O  O17  1  0.41760000  0.46110000  0.46440000  1.0 -0.7358216614
O  O18  1  0.43530000  0.32570000  0.44250000  1.0 -0.6251917203
O  O19  1  0.58900000  0.46920000  0.39160000  1.0 -0.5170585946
O  O20  1  0.53890000  0.41760000  0.46440000  1.0 -0.7358216614
O  O21  1  0.67430000  0.43530000  0.44250000  1.0 -0.6251917203
O  O22  1  0.41100000  0.53080000  0.39160000  1.0 -0.5170585946
O  O23  1  0.46110000  0.58240000  0.46440000  1.0 -0.7358216614
O  O24  1  0.32570000  0.56470000  0.44250000  1.0 -0.6251917203
O  O25  1  0.03080000  0.91100000  0.89160000  1.0 -0.5136621848
O  O26  1  0.08240000  0.96110000  0.96440000  1.0 -0.7358216614
O  O27  1  0.06470000  0.82570000  0.94250000  1.0 -0.6204417964
O  O28  1  0.96920000  0.08900000  0.89160000  1.0 -0.5136621848
O  O29  1  0.91760000  0.03890000  0.96440000  1.0 -0.7322679331
O  O30  1  0.93530000  0.17430000  0.94250000  1.0 -0.6204417964
O  O31  1  0.08900000  0.03080000  0.89160000  1.0 -0.5136621848
O  O32  1  0.03890000  0.08240000  0.96440000  1.0 -0.7358216614
O  O33  1  0.17430000  0.06470000  0.94250000  1.0 -0.6204417964
O  O34  1  0.91100000  0.96920000  0.89160000  1.0 -0.5136621848
O  O35  1  0.96110000  0.91760000  0.96440000  1.0 -0.7322679331
O  O36  1  0.82570000  0.93530000  0.94250000  1.0 -0.6204417964
O  O37  1  0.46920000  0.41100000  0.60840000  1.0 -0.5170585946
O  O38  1  0.41760000  0.46110000  0.53560000  1.0 -0.7358216614
O  O39  1  0.43530000  0.32570000  0.55750000  1.0 -0.6251917203
O  O40  1  0.53080000  0.58900000  0.60840000  1.0 -0.5170585946
O  O41  1  0.58240000  0.53890000  0.53560000  1.0 -0.7358216614
O  O42  1  0.56470000  0.67430000  0.55750000  1.0 -0.6251917203
O  O43  1  0.41100000  0.53080000  0.60840000  1.0 -0.5170585946
O  O44  1  0.46110000  0.58240000  0.53560000  1.0 -0.7358216614
O  O45  1  0.32570000  0.56470000  0.55750000  1.0 -0.6251917203
O  O46  1  0.58900000  0.46920000  0.60840000  1.0 -0.5170585946
O  O47  1  0.53890000  0.41760000  0.53560000  1.0 -0.7358216614
O  O48  1  0.67430000  0.43530000  0.55750000  1.0 -0.6251917203
