# DDEC6 charges by PACMAN v1.1 (https://github.com/mtap-research/PACMAN-charge/)
data_NEVTIU09_ASR_pacman
_symmetry_space_group_name_H-M   'P 1'
_cell_length_a   19.07900000
_cell_length_b   19.07900000
_cell_length_c   32.90500000
_cell_angle_alpha   90.00000000
_cell_angle_beta   90.00000000
_cell_angle_gamma   90.00000000
_symmetry_Int_Tables_number   1
_chemical_formula_structural   Hf3H40(C13O3)4
_chemical_formula_sum   'Hf12 H160 C208 O48'
_cell_volume   11977.69117011
_cell_formula_units_Z   4
loop_
 _symmetry_equiv_pos_site_id
 _symmetry_equiv_pos_as_xyz
  1  'x, y, z'
loop_
 _atom_site_type_symbol
 _atom_site_label
 _atom_site_symmetry_multiplicity
 _atom_site_fract_x
 _atom_site_fract_y
 _atom_site_fract_z
 _atom_site_occupancy
 _atom_site_charge
Hf  Hf1  1  0.95663000  0.12279000  0.00000000  1.0 1.46977808
Hf  Hf2  1  0.04337000  0.87721000  0.00000000  1.0 1.46977808
Hf  Hf3  1  0.87721000  0.95663000  0.00000000  1.0 1.4629683536
Hf  Hf4  1  0.12279000  0.04337000  0.00000000  1.0 1.46977808
Hf  Hf5  1  0.54337000  0.62279000  0.50000000  1.0 1.4629683536
Hf  Hf6  1  0.45663000  0.37721000  0.50000000  1.0 1.4629683536
Hf  Hf7  1  0.62279000  0.45663000  0.50000000  1.0 1.4629683536
Hf  Hf8  1  0.37721000  0.54337000  0.50000000  1.0 1.4629683536
Hf  Hf9  1  0.00000000  0.00000000  0.07426000  1.0 1.4629683536
Hf  Hf10  1  0.50000000  0.50000000  0.42574000  1.0 1.4629683536
Hf  Hf11  1  0.00000000  0.00000000  0.92574000  1.0 1.46977808
Hf  Hf12  1  0.50000000  0.50000000  0.57426000  1.0 1.4629683536
H  H1  1  0.89500000  0.37100000  0.14270000  1.0 0.1389605212
H  H2  1  0.90530000  0.28500000  0.09330000  1.0 0.1190511784
H  H3  1  0.96730000  0.14720000  0.17840000  1.0 0.1283807908
H  H4  1  0.95690000  0.23330000  0.22780000  1.0 0.1389605212
H  H5  1  0.05980000  0.38830000  0.20050000  1.0 0.1389605212
H  H6  1  0.03930000  0.46510000  0.18840000  1.0 0.1283807908
H  H7  1  0.00720000  0.40150000  0.16470000  1.0 0.1389605212
H  H8  1  0.79300000  0.31490000  0.27860000  1.0 0.0605946849
H  H9  1  0.83500000  0.26940000  0.24740000  1.0 0.0486499243
H  H10  1  0.77770000  0.32190000  0.23200000  1.0 0.0605946849
H  H11  1  0.10500000  0.62900000  0.14270000  1.0 0.1389605212
H  H12  1  0.09470000  0.71500000  0.09330000  1.0 0.1190511784
H  H13  1  0.03270000  0.85280000  0.17840000  1.0 0.1283807908
H  H14  1  0.04310000  0.76670000  0.22780000  1.0 0.1389605212
H  H15  1  0.94020000  0.61170000  0.20050000  1.0 0.1389605212
H  H16  1  0.96070000  0.53490000  0.18840000  1.0 0.1283807908
H  H17  1  0.99280000  0.59850000  0.16470000  1.0 0.1389605212
H  H18  1  0.20700000  0.68510000  0.27860000  1.0 0.0605946849
H  H19  1  0.16500000  0.73060000  0.24740000  1.0 0.0486499243
H  H20  1  0.22230000  0.67810000  0.23200000  1.0 0.0605946849
H  H21  1  0.62900000  0.89500000  0.14270000  1.0 0.1389605212
H  H22  1  0.71500000  0.90530000  0.09330000  1.0 0.1190511784
H  H23  1  0.85280000  0.96730000  0.17840000  1.0 0.1283807908
H  H24  1  0.76670000  0.95690000  0.22780000  1.0 0.1389605212
H  H25  1  0.61170000  0.05980000  0.20050000  1.0 0.1389605212
H  H26  1  0.53490000  0.03930000  0.18840000  1.0 0.1283807908
H  H27  1  0.59850000  0.00720000  0.16470000  1.0 0.1389605212
H  H28  1  0.68510000  0.79300000  0.27860000  1.0 0.0605946849
H  H29  1  0.73060000  0.83500000  0.24740000  1.0 0.0486499243
H  H30  1  0.67810000  0.77770000  0.23200000  1.0 0.0605946849
H  H31  1  0.37100000  0.10500000  0.14270000  1.0 0.1389605212
H  H32  1  0.28500000  0.09470000  0.09330000  1.0 0.1190511784
H  H33  1  0.14720000  0.03270000  0.17840000  1.0 0.1283807908
H  H34  1  0.23330000  0.04310000  0.22780000  1.0 0.1389605212
H  H35  1  0.38830000  0.94020000  0.20050000  1.0 0.1389605212
H  H36  1  0.46510000  0.96070000  0.18840000  1.0 0.1283807908
H  H37  1  0.40150000  0.99280000  0.16470000  1.0 0.1389605212
H  H38  1  0.31490000  0.20700000  0.27860000  1.0 0.0605946849
H  H39  1  0.26940000  0.16500000  0.24740000  1.0 0.0486499243
H  H40  1  0.32190000  0.22230000  0.23200000  1.0 0.0605946849
H  H41  1  0.60500000  0.87100000  0.35730000  1.0 0.1389605212
H  H42  1  0.59470000  0.78500000  0.40670000  1.0 0.1190511784
H  H43  1  0.53270000  0.64720000  0.32160000  1.0 0.1283807908
H  H44  1  0.54310000  0.73330000  0.27220000  1.0 0.1389605212
H  H45  1  0.44020000  0.88830000  0.29950000  1.0 0.1389605212
H  H46  1  0.46070000  0.96510000  0.31160000  1.0 0.1283807908
H  H47  1  0.49280000  0.90150000  0.33530000  1.0 0.1389605212
H  H48  1  0.70700000  0.81490000  0.22140000  1.0 0.0605946849
H  H49  1  0.66500000  0.76940000  0.25260000  1.0 0.0486499243
H  H50  1  0.72230000  0.82190000  0.26800000  1.0 0.0605946849
H  H51  1  0.39500000  0.12900000  0.35730000  1.0 0.1389605212
H  H52  1  0.40530000  0.21500000  0.40670000  1.0 0.1190511784
H  H53  1  0.46730000  0.35280000  0.32160000  1.0 0.1283807908
H  H54  1  0.45690000  0.26670000  0.27220000  1.0 0.1389605212
H  H55  1  0.55980000  0.11170000  0.29950000  1.0 0.1389605212
H  H56  1  0.53930000  0.03490000  0.31160000  1.0 0.1283807908
H  H57  1  0.50720000  0.09850000  0.33530000  1.0 0.1389605212
H  H58  1  0.29300000  0.18510000  0.22140000  1.0 0.0605946849
H  H59  1  0.33500000  0.23060000  0.25260000  1.0 0.0486499243
H  H60  1  0.27770000  0.17810000  0.26800000  1.0 0.0605946849
H  H61  1  0.87100000  0.39500000  0.35730000  1.0 0.1389605212
H  H62  1  0.78500000  0.40530000  0.40670000  1.0 0.1190511784
H  H63  1  0.64720000  0.46730000  0.32160000  1.0 0.1283807908
H  H64  1  0.73330000  0.45690000  0.27220000  1.0 0.1389605212
H  H65  1  0.88830000  0.55980000  0.29950000  1.0 0.1389605212
H  H66  1  0.96510000  0.53930000  0.31160000  1.0 0.1283807908
H  H67  1  0.90150000  0.50720000  0.33530000  1.0 0.1389605212
H  H68  1  0.81490000  0.29300000  0.22140000  1.0 0.0605946849
H  H69  1  0.76940000  0.33500000  0.25260000  1.0 0.0486499243
H  H70  1  0.82190000  0.27770000  0.26800000  1.0 0.0605946849
H  H71  1  0.12900000  0.60500000  0.35730000  1.0 0.1389605212
H  H72  1  0.21500000  0.59470000  0.40670000  1.0 0.1190511784
H  H73  1  0.35280000  0.53270000  0.32160000  1.0 0.1283807908
H  H74  1  0.26670000  0.54310000  0.27220000  1.0 0.1389605212
H  H75  1  0.11170000  0.44020000  0.29950000  1.0 0.1389605212
H  H76  1  0.03490000  0.46070000  0.31160000  1.0 0.1283807908
H  H77  1  0.09850000  0.49280000  0.33530000  1.0 0.1389605212
H  H78  1  0.18510000  0.70700000  0.22140000  1.0 0.0605946849
H  H79  1  0.23060000  0.66500000  0.25260000  1.0 0.0486499243
H  H80  1  0.17810000  0.72230000  0.26800000  1.0 0.0605946849
H  H81  1  0.10500000  0.62900000  0.85730000  1.0 0.1389605212
H  H82  1  0.09470000  0.71500000  0.90670000  1.0 0.1190511784
H  H83  1  0.03270000  0.85280000  0.82160000  1.0 0.1283807908
H  H84  1  0.04310000  0.76670000  0.77220000  1.0 0.1389605212
H  H85  1  0.94020000  0.61170000  0.79950000  1.0 0.1389605212
H  H86  1  0.96070000  0.53490000  0.81160000  1.0 0.1283807908
H  H87  1  0.99280000  0.59850000  0.83530000  1.0 0.1389605212
H  H88  1  0.20700000  0.68510000  0.72140000  1.0 0.0605946849
H  H89  1  0.16500000  0.73060000  0.75260000  1.0 0.0486499243
H  H90  1  0.22230000  0.67810000  0.76800000  1.0 0.0605946849
H  H91  1  0.89500000  0.37100000  0.85730000  1.0 0.1389605212
H  H92  1  0.90530000  0.28500000  0.90670000  1.0 0.1190511784
H  H93  1  0.96730000  0.14720000  0.82160000  1.0 0.1283807908
H  H94  1  0.95690000  0.23330000  0.77220000  1.0 0.1389605212
H  H95  1  0.05980000  0.38830000  0.79950000  1.0 0.1389605212
H  H96  1  0.03930000  0.46510000  0.81160000  1.0 0.1283807908
H  H97  1  0.00720000  0.40150000  0.83530000  1.0 0.1389605212
H  H98  1  0.79300000  0.31490000  0.72140000  1.0 0.0605946849
H  H99  1  0.83500000  0.26940000  0.75260000  1.0 0.0486499243
H  H100  1  0.77770000  0.32190000  0.76800000  1.0 0.0605946849
H  H101  1  0.37100000  0.10500000  0.85730000  1.0 0.1389605212
H  H102  1  0.28500000  0.09470000  0.90670000  1.0 0.1190511784
H  H103  1  0.14720000  0.03270000  0.82160000  1.0 0.1283807908
H  H104  1  0.23330000  0.04310000  0.77220000  1.0 0.1389605212
H  H105  1  0.38830000  0.94020000  0.79950000  1.0 0.1389605212
H  H106  1  0.46510000  0.96070000  0.81160000  1.0 0.1283807908
H  H107  1  0.40150000  0.99280000  0.83530000  1.0 0.1389605212
H  H108  1  0.31490000  0.20700000  0.72140000  1.0 0.0605946849
H  H109  1  0.26940000  0.16500000  0.75260000  1.0 0.0486499243
H  H110  1  0.32190000  0.22230000  0.76800000  1.0 0.0605946849
H  H111  1  0.62900000  0.89500000  0.85730000  1.0 0.1389605212
H  H112  1  0.71500000  0.90530000  0.90670000  1.0 0.1190511784
H  H113  1  0.85280000  0.96730000  0.82160000  1.0 0.1283807908
H  H114  1  0.76670000  0.95690000  0.77220000  1.0 0.1389605212
H  H115  1  0.61170000  0.05980000  0.79950000  1.0 0.1389605212
H  H116  1  0.53490000  0.03930000  0.81160000  1.0 0.1283807908
H  H117  1  0.59850000  0.00720000  0.83530000  1.0 0.1389605212
H  H118  1  0.68510000  0.79300000  0.72140000  1.0 0.0605946849
H  H119  1  0.73060000  0.83500000  0.75260000  1.0 0.0486499243
H  H120  1  0.67810000  0.77770000  0.76800000  1.0 0.0605946849
H  H121  1  0.39500000  0.12900000  0.64270000  1.0 0.1389605212
H  H122  1  0.40530000  0.21500000  0.59330000  1.0 0.1190511784
H  H123  1  0.46730000  0.35280000  0.67840000  1.0 0.1283807908
H  H124  1  0.45690000  0.26670000  0.72780000  1.0 0.1389605212
H  H125  1  0.55980000  0.11170000  0.70050000  1.0 0.1389605212
H  H126  1  0.53930000  0.03490000  0.68840000  1.0 0.1283807908
H  H127  1  0.50720000  0.09850000  0.66470000  1.0 0.1389605212
H  H128  1  0.29300000  0.18510000  0.77860000  1.0 0.0605946849
H  H129  1  0.33500000  0.23060000  0.74740000  1.0 0.0486499243
H  H130  1  0.27770000  0.17810000  0.73200000  1.0 0.0605946849
H  H131  1  0.60500000  0.87100000  0.64270000  1.0 0.1389605212
H  H132  1  0.59470000  0.78500000  0.59330000  1.0 0.1190511784
H  H133  1  0.53270000  0.64720000  0.67840000  1.0 0.1283807908
H  H134  1  0.54310000  0.73330000  0.72780000  1.0 0.1389605212
H  H135  1  0.44020000  0.88830000  0.70050000  1.0 0.1389605212
H  H136  1  0.46070000  0.96510000  0.68840000  1.0 0.1283807908
H  H137  1  0.49280000  0.90150000  0.66470000  1.0 0.1389605212
H  H138  1  0.70700000  0.81490000  0.77860000  1.0 0.0605946849
H  H139  1  0.66500000  0.76940000  0.74740000  1.0 0.0486499243
H  H140  1  0.72230000  0.82190000  0.73200000  1.0 0.0605946849
H  H141  1  0.12900000  0.60500000  0.64270000  1.0 0.1389605212
H  H142  1  0.21500000  0.59470000  0.59330000  1.0 0.1190511784
H  H143  1  0.35280000  0.53270000  0.67840000  1.0 0.1283807908
H  H144  1  0.26670000  0.54310000  0.72780000  1.0 0.1389605212
H  H145  1  0.11170000  0.44020000  0.70050000  1.0 0.1389605212
H  H146  1  0.03490000  0.46070000  0.68840000  1.0 0.1283807908
H  H147  1  0.09850000  0.49280000  0.66470000  1.0 0.1389605212
H  H148  1  0.18510000  0.70700000  0.77860000  1.0 0.0605946849
H  H149  1  0.23060000  0.66500000  0.74740000  1.0 0.0486499243
H  H150  1  0.17810000  0.72230000  0.73200000  1.0 0.0605946849
H  H151  1  0.87100000  0.39500000  0.64270000  1.0 0.1389605212
H  H152  1  0.78500000  0.40530000  0.59330000  1.0 0.1190511784
H  H153  1  0.64720000  0.46730000  0.67840000  1.0 0.1283807908
H  H154  1  0.73330000  0.45690000  0.72780000  1.0 0.1389605212
H  H155  1  0.88830000  0.55980000  0.70050000  1.0 0.1389605212
H  H156  1  0.96510000  0.53930000  0.68840000  1.0 0.1283807908
H  H157  1  0.90150000  0.50720000  0.66470000  1.0 0.1389605212
H  H158  1  0.81490000  0.29300000  0.77860000  1.0 0.0605946849
H  H159  1  0.76940000  0.33500000  0.74740000  1.0 0.0486499243
H  H160  1  0.82190000  0.27770000  0.73200000  1.0 0.0605946849
C  C1  1  0.92487000  0.31078000  0.19020000  1.0 0.0403038922
C  C2  1  0.90945000  0.32616000  0.14988000  1.0 -0.1431868137
C  C3  1  0.91566000  0.27460000  0.12025000  1.0 -0.0487064934
C  C4  1  0.93734000  0.20748000  0.13094000  1.0 -0.0817646566
C  C5  1  0.95276000  0.19211000  0.17125000  1.0 -0.0443333364
C  C6  1  0.94655000  0.24367000  0.20087000  1.0 -0.1487076688
C  C7  1  0.91845000  0.36337000  0.22008000  1.0 -0.0569214332
C  C8  1  0.96878000  0.41580000  0.21715000  1.0 0.0311407386
C  C9  1  0.96617000  0.47323000  0.24311000  1.0 0.0190319982
C  C10  1  0.94371000  0.15502000  0.10099000  1.0 0.5544961732
C  C11  1  0.02261000  0.41781000  0.19082000  1.0 -0.4043790694
C  C12  1  0.86551000  0.36836000  0.24896000  1.0 0.0311407386
C  C13  1  0.81348000  0.31413000  0.25199000  1.0 -0.2157873867
C  C14  1  0.07513000  0.68922000  0.19020000  1.0 0.0403038922
C  C15  1  0.09055000  0.67384000  0.14988000  1.0 -0.1431868137
C  C16  1  0.08434000  0.72540000  0.12025000  1.0 -0.0487064934
C  C17  1  0.06266000  0.79252000  0.13094000  1.0 -0.0817646566
C  C18  1  0.04724000  0.80789000  0.17125000  1.0 -0.0443333364
C  C19  1  0.05345000  0.75633000  0.20087000  1.0 -0.1487076688
C  C20  1  0.08155000  0.63663000  0.22008000  1.0 -0.0569214332
C  C21  1  0.03122000  0.58420000  0.21715000  1.0 0.0311407386
C  C22  1  0.03383000  0.52677000  0.24311000  1.0 0.0190319982
C  C23  1  0.05629000  0.84498000  0.10099000  1.0 0.5544961732
C  C24  1  0.97739000  0.58219000  0.19082000  1.0 -0.4043790694
C  C25  1  0.13449000  0.63164000  0.24896000  1.0 0.0311407386
C  C26  1  0.18652000  0.68587000  0.25199000  1.0 -0.2157873867
C  C27  1  0.68922000  0.92487000  0.19020000  1.0 0.0403038922
C  C28  1  0.67384000  0.90945000  0.14988000  1.0 -0.1431868137
C  C29  1  0.72540000  0.91566000  0.12025000  1.0 -0.0487064934
C  C30  1  0.79252000  0.93734000  0.13094000  1.0 -0.0817646566
C  C31  1  0.80789000  0.95276000  0.17125000  1.0 -0.0443333364
C  C32  1  0.75633000  0.94655000  0.20087000  1.0 -0.1487076688
C  C33  1  0.63663000  0.91845000  0.22008000  1.0 -0.0569214332
C  C34  1  0.58420000  0.96878000  0.21715000  1.0 0.0311407386
C  C35  1  0.52677000  0.96617000  0.24311000  1.0 0.0190319982
C  C36  1  0.84498000  0.94371000  0.10099000  1.0 0.5544961732
C  C37  1  0.58219000  0.02261000  0.19082000  1.0 -0.4043790694
C  C38  1  0.63164000  0.86551000  0.24896000  1.0 0.0311407386
C  C39  1  0.68587000  0.81348000  0.25199000  1.0 -0.2157873867
C  C40  1  0.31078000  0.07513000  0.19020000  1.0 0.0403038922
C  C41  1  0.32616000  0.09055000  0.14988000  1.0 -0.1431868137
C  C42  1  0.27460000  0.08434000  0.12025000  1.0 -0.0487064934
C  C43  1  0.20748000  0.06266000  0.13094000  1.0 -0.0817646566
C  C44  1  0.19211000  0.04724000  0.17125000  1.0 -0.0443333364
C  C45  1  0.24367000  0.05345000  0.20087000  1.0 -0.1487076688
C  C46  1  0.36337000  0.08155000  0.22008000  1.0 -0.0569214332
C  C47  1  0.41580000  0.03122000  0.21715000  1.0 0.0311407386
C  C48  1  0.47323000  0.03383000  0.24311000  1.0 0.0190319982
C  C49  1  0.15502000  0.05629000  0.10099000  1.0 0.5544961732
C  C50  1  0.41781000  0.97739000  0.19082000  1.0 -0.4043790694
C  C51  1  0.36836000  0.13449000  0.24896000  1.0 0.0311407386
C  C52  1  0.31413000  0.18652000  0.25199000  1.0 -0.2133500534
C  C53  1  0.57513000  0.81078000  0.30980000  1.0 0.0403038922
C  C54  1  0.59055000  0.82616000  0.35012000  1.0 -0.1431868137
C  C55  1  0.58434000  0.77460000  0.37975000  1.0 -0.0487064934
C  C56  1  0.56266000  0.70748000  0.36906000  1.0 -0.0817646566
C  C57  1  0.54724000  0.69211000  0.32875000  1.0 -0.0443333364
C  C58  1  0.55345000  0.74367000  0.29913000  1.0 -0.1487076688
C  C59  1  0.58155000  0.86337000  0.27992000  1.0 -0.0569214332
C  C60  1  0.53122000  0.91580000  0.28285000  1.0 0.0311407386
C  C61  1  0.53383000  0.97323000  0.25689000  1.0 0.0190319982
C  C62  1  0.55629000  0.65502000  0.39901000  1.0 0.5544961732
C  C63  1  0.47739000  0.91781000  0.30918000  1.0 -0.4043790694
C  C64  1  0.63449000  0.86836000  0.25104000  1.0 0.0311407386
C  C65  1  0.68652000  0.81413000  0.24801000  1.0 -0.2157873867
C  C66  1  0.42487000  0.18922000  0.30980000  1.0 0.0403038922
C  C67  1  0.40945000  0.17384000  0.35012000  1.0 -0.1431868137
C  C68  1  0.41566000  0.22540000  0.37975000  1.0 -0.0487064934
C  C69  1  0.43734000  0.29252000  0.36906000  1.0 -0.0817646566
C  C70  1  0.45276000  0.30789000  0.32875000  1.0 -0.0443333364
C  C71  1  0.44655000  0.25633000  0.29913000  1.0 -0.1487076688
C  C72  1  0.41845000  0.13663000  0.27992000  1.0 -0.0569214332
C  C73  1  0.46878000  0.08420000  0.28285000  1.0 0.0311407386
C  C74  1  0.46617000  0.02677000  0.25689000  1.0 0.0190319982
C  C75  1  0.44371000  0.34498000  0.39901000  1.0 0.5544961732
C  C76  1  0.52261000  0.08219000  0.30918000  1.0 -0.4043790694
C  C77  1  0.36551000  0.13164000  0.25104000  1.0 0.0311407386
C  C78  1  0.31348000  0.18587000  0.24801000  1.0 -0.2133500534
C  C79  1  0.81078000  0.42487000  0.30980000  1.0 0.0403038922
C  C80  1  0.82616000  0.40945000  0.35012000  1.0 -0.1431868137
C  C81  1  0.77460000  0.41566000  0.37975000  1.0 -0.0487064934
C  C82  1  0.70748000  0.43734000  0.36906000  1.0 -0.0817646566
C  C83  1  0.69211000  0.45276000  0.32875000  1.0 -0.0443333364
C  C84  1  0.74367000  0.44655000  0.29913000  1.0 -0.1487076688
C  C85  1  0.86337000  0.41845000  0.27992000  1.0 -0.0569214332
C  C86  1  0.91580000  0.46878000  0.28285000  1.0 0.0311407386
C  C87  1  0.97323000  0.46617000  0.25689000  1.0 0.0190319982
C  C88  1  0.65502000  0.44371000  0.39901000  1.0 0.5544961732
C  C89  1  0.91781000  0.52261000  0.30918000  1.0 -0.4043790694
C  C90  1  0.86836000  0.36551000  0.25104000  1.0 0.0311407386
C  C91  1  0.81413000  0.31348000  0.24801000  1.0 -0.2157873867
C  C92  1  0.18922000  0.57513000  0.30980000  1.0 0.0403038922
C  C93  1  0.17384000  0.59055000  0.35012000  1.0 -0.1431868137
C  C94  1  0.22540000  0.58434000  0.37975000  1.0 -0.0487064934
C  C95  1  0.29252000  0.56266000  0.36906000  1.0 -0.0817646566
C  C96  1  0.30789000  0.54724000  0.32875000  1.0 -0.0443333364
C  C97  1  0.25633000  0.55345000  0.29913000  1.0 -0.1487076688
C  C98  1  0.13663000  0.58155000  0.27992000  1.0 -0.0569214332
C  C99  1  0.08420000  0.53122000  0.28285000  1.0 0.0311407386
C  C100  1  0.02677000  0.53383000  0.25689000  1.0 0.0190319982
C  C101  1  0.34498000  0.55629000  0.39901000  1.0 0.5544961732
C  C102  1  0.08219000  0.47739000  0.30918000  1.0 -0.4043790694
C  C103  1  0.13164000  0.63449000  0.25104000  1.0 0.0311407386
C  C104  1  0.18587000  0.68652000  0.24801000  1.0 -0.2157873867
C  C105  1  0.07513000  0.68922000  0.80980000  1.0 0.0403038922
C  C106  1  0.09055000  0.67384000  0.85012000  1.0 -0.1431868137
C  C107  1  0.08434000  0.72540000  0.87975000  1.0 -0.0487064934
C  C108  1  0.06266000  0.79252000  0.86906000  1.0 -0.0817646566
C  C109  1  0.04724000  0.80789000  0.82875000  1.0 -0.0443333364
C  C110  1  0.05345000  0.75633000  0.79913000  1.0 -0.1487076688
C  C111  1  0.08155000  0.63663000  0.77992000  1.0 -0.0569214332
C  C112  1  0.03122000  0.58420000  0.78285000  1.0 0.0311407386
C  C113  1  0.03383000  0.52677000  0.75689000  1.0 0.0190319982
C  C114  1  0.05629000  0.84498000  0.89901000  1.0 0.5544961732
C  C115  1  0.97739000  0.58219000  0.80918000  1.0 -0.4043790694
C  C116  1  0.13449000  0.63164000  0.75104000  1.0 0.0311407386
C  C117  1  0.18652000  0.68587000  0.74801000  1.0 -0.2157873867
C  C118  1  0.92487000  0.31078000  0.80980000  1.0 0.0403038922
C  C119  1  0.90945000  0.32616000  0.85012000  1.0 -0.1431868137
C  C120  1  0.91566000  0.27460000  0.87975000  1.0 -0.0487064934
C  C121  1  0.93734000  0.20748000  0.86906000  1.0 -0.0817646566
C  C122  1  0.95276000  0.19211000  0.82875000  1.0 -0.0443333364
C  C123  1  0.94655000  0.24367000  0.79913000  1.0 -0.1487076688
C  C124  1  0.91845000  0.36337000  0.77992000  1.0 -0.0569214332
C  C125  1  0.96878000  0.41580000  0.78285000  1.0 0.0311407386
C  C126  1  0.96617000  0.47323000  0.75689000  1.0 0.0190319982
C  C127  1  0.94371000  0.15502000  0.89901000  1.0 0.5544961732
C  C128  1  0.02261000  0.41781000  0.80918000  1.0 -0.4043790694
C  C129  1  0.86551000  0.36836000  0.75104000  1.0 0.0311407386
C  C130  1  0.81348000  0.31413000  0.74801000  1.0 -0.2157873867
C  C131  1  0.31078000  0.07513000  0.80980000  1.0 0.0403038922
C  C132  1  0.32616000  0.09055000  0.85012000  1.0 -0.1431868137
C  C133  1  0.27460000  0.08434000  0.87975000  1.0 -0.0487064934
C  C134  1  0.20748000  0.06266000  0.86906000  1.0 -0.0817646566
C  C135  1  0.19211000  0.04724000  0.82875000  1.0 -0.0443333364
C  C136  1  0.24367000  0.05345000  0.79913000  1.0 -0.1487076688
C  C137  1  0.36337000  0.08155000  0.77992000  1.0 -0.0569214332
C  C138  1  0.41580000  0.03122000  0.78285000  1.0 0.0311407386
C  C139  1  0.47323000  0.03383000  0.75689000  1.0 0.0190319982
C  C140  1  0.15502000  0.05629000  0.89901000  1.0 0.5544961732
C  C141  1  0.41781000  0.97739000  0.80918000  1.0 -0.4043790694
C  C142  1  0.36836000  0.13449000  0.75104000  1.0 0.0311407386
C  C143  1  0.31413000  0.18652000  0.74801000  1.0 -0.2133500534
C  C144  1  0.68922000  0.92487000  0.80980000  1.0 0.0403038922
C  C145  1  0.67384000  0.90945000  0.85012000  1.0 -0.1431868137
C  C146  1  0.72540000  0.91566000  0.87975000  1.0 -0.0487064934
C  C147  1  0.79252000  0.93734000  0.86906000  1.0 -0.0817646566
C  C148  1  0.80789000  0.95276000  0.82875000  1.0 -0.0443333364
C  C149  1  0.75633000  0.94655000  0.79913000  1.0 -0.1487076688
C  C150  1  0.63663000  0.91845000  0.77992000  1.0 -0.0569214332
C  C151  1  0.58420000  0.96878000  0.78285000  1.0 0.0311407386
C  C152  1  0.52677000  0.96617000  0.75689000  1.0 0.0190319982
C  C153  1  0.84498000  0.94371000  0.89901000  1.0 0.5544961732
C  C154  1  0.58219000  0.02261000  0.80918000  1.0 -0.4043790694
C  C155  1  0.63164000  0.86551000  0.75104000  1.0 0.0311407386
C  C156  1  0.68587000  0.81348000  0.74801000  1.0 -0.2157873867
C  C157  1  0.42487000  0.18922000  0.69020000  1.0 0.0403038922
C  C158  1  0.40945000  0.17384000  0.64988000  1.0 -0.1431868137
C  C159  1  0.41566000  0.22540000  0.62025000  1.0 -0.0487064934
C  C160  1  0.43734000  0.29252000  0.63094000  1.0 -0.0817646566
C  C161  1  0.45276000  0.30789000  0.67125000  1.0 -0.0443333364
C  C162  1  0.44655000  0.25633000  0.70087000  1.0 -0.1487076688
C  C163  1  0.41845000  0.13663000  0.72008000  1.0 -0.0569214332
C  C164  1  0.46878000  0.08420000  0.71715000  1.0 0.0311407386
C  C165  1  0.46617000  0.02677000  0.74311000  1.0 0.0190319982
C  C166  1  0.44371000  0.34498000  0.60099000  1.0 0.5544961732
C  C167  1  0.52261000  0.08219000  0.69082000  1.0 -0.4043790694
C  C168  1  0.36551000  0.13164000  0.74896000  1.0 0.0311407386
C  C169  1  0.31348000  0.18587000  0.75199000  1.0 -0.2133500534
C  C170  1  0.57513000  0.81078000  0.69020000  1.0 0.0403038922
C  C171  1  0.59055000  0.82616000  0.64988000  1.0 -0.1431868137
C  C172  1  0.58434000  0.77460000  0.62025000  1.0 -0.0487064934
C  C173  1  0.56266000  0.70748000  0.63094000  1.0 -0.0817646566
C  C174  1  0.54724000  0.69211000  0.67125000  1.0 -0.0443333364
C  C175  1  0.55345000  0.74367000  0.70087000  1.0 -0.1487076688
C  C176  1  0.58155000  0.86337000  0.72008000  1.0 -0.0569214332
C  C177  1  0.53122000  0.91580000  0.71715000  1.0 0.0311407386
C  C178  1  0.53383000  0.97323000  0.74311000  1.0 0.0190319982
C  C179  1  0.55629000  0.65502000  0.60099000  1.0 0.5544961732
C  C180  1  0.47739000  0.91781000  0.69082000  1.0 -0.4043790694
C  C181  1  0.63449000  0.86836000  0.74896000  1.0 0.0311407386
C  C182  1  0.68652000  0.81413000  0.75199000  1.0 -0.2157873867
C  C183  1  0.18922000  0.57513000  0.69020000  1.0 0.0403038922
C  C184  1  0.17384000  0.59055000  0.64988000  1.0 -0.1431868137
C  C185  1  0.22540000  0.58434000  0.62025000  1.0 -0.0487064934
C  C186  1  0.29252000  0.56266000  0.63094000  1.0 -0.0817646566
C  C187  1  0.30789000  0.54724000  0.67125000  1.0 -0.0443333364
C  C188  1  0.25633000  0.55345000  0.70087000  1.0 -0.1487076688
C  C189  1  0.13663000  0.58155000  0.72008000  1.0 -0.0569214332
C  C190  1  0.08420000  0.53122000  0.71715000  1.0 0.0311407386
C  C191  1  0.02677000  0.53383000  0.74311000  1.0 0.0190319982
C  C192  1  0.34498000  0.55629000  0.60099000  1.0 0.5544961732
C  C193  1  0.08219000  0.47739000  0.69082000  1.0 -0.4043790694
C  C194  1  0.13164000  0.63449000  0.74896000  1.0 0.0311407386
C  C195  1  0.18587000  0.68652000  0.75199000  1.0 -0.2157873867
C  C196  1  0.81078000  0.42487000  0.69020000  1.0 0.0403038922
C  C197  1  0.82616000  0.40945000  0.64988000  1.0 -0.1431868137
C  C198  1  0.77460000  0.41566000  0.62025000  1.0 -0.0487064934
C  C199  1  0.70748000  0.43734000  0.63094000  1.0 -0.0817646566
C  C200  1  0.69211000  0.45276000  0.67125000  1.0 -0.0443333364
C  C201  1  0.74367000  0.44655000  0.70087000  1.0 -0.1487076688
C  C202  1  0.86337000  0.41845000  0.72008000  1.0 -0.0569214332
C  C203  1  0.91580000  0.46878000  0.71715000  1.0 0.0311407386
C  C204  1  0.97323000  0.46617000  0.74311000  1.0 0.0190319982
C  C205  1  0.65502000  0.44371000  0.60099000  1.0 0.5544961732
C  C206  1  0.91781000  0.52261000  0.69082000  1.0 -0.4043790694
C  C207  1  0.86836000  0.36551000  0.74896000  1.0 0.0311407386
C  C208  1  0.81413000  0.31348000  0.75199000  1.0 -0.2157873867
O  O1  1  0.97430000  0.08974000  0.10993000  1.0 -0.5195794344
O  O2  1  0.91380000  0.03030000  0.03494000  1.0 -0.6937680192
O  O3  1  0.94420000  0.16530000  0.05866000  1.0 -0.5195794344
O  O4  1  0.02570000  0.91026000  0.10993000  1.0 -0.5195794344
O  O5  1  0.08620000  0.96970000  0.03494000  1.0 -0.6960718242
O  O6  1  0.05580000  0.83470000  0.05866000  1.0 -0.5195794344
O  O7  1  0.91026000  0.97430000  0.10993000  1.0 -0.5195794344
O  O8  1  0.96970000  0.91380000  0.03494000  1.0 -0.6937680192
O  O9  1  0.83470000  0.94420000  0.05866000  1.0 -0.5195794344
O  O10  1  0.08974000  0.02570000  0.10993000  1.0 -0.5195794344
O  O11  1  0.03030000  0.08620000  0.03494000  1.0 -0.6937680192
O  O12  1  0.16530000  0.05580000  0.05866000  1.0 -0.5195794344
O  O13  1  0.52570000  0.58974000  0.39007000  1.0 -0.5195794344
O  O14  1  0.58620000  0.53030000  0.46506000  1.0 -0.6937680192
O  O15  1  0.55580000  0.66530000  0.44134000  1.0 -0.5195794344
O  O16  1  0.47430000  0.41026000  0.39007000  1.0 -0.5195794344
O  O17  1  0.41380000  0.46970000  0.46506000  1.0 -0.6937680192
O  O18  1  0.44420000  0.33470000  0.44134000  1.0 -0.5195794344
O  O19  1  0.58974000  0.47430000  0.39007000  1.0 -0.5195794344
O  O20  1  0.53030000  0.41380000  0.46506000  1.0 -0.6937680192
O  O21  1  0.66530000  0.44420000  0.44134000  1.0 -0.5195794344
O  O22  1  0.41026000  0.52570000  0.39007000  1.0 -0.5195794344
O  O23  1  0.46970000  0.58620000  0.46506000  1.0 -0.6937680192
O  O24  1  0.33470000  0.55580000  0.44134000  1.0 -0.5195794344
O  O25  1  0.02570000  0.91026000  0.89007000  1.0 -0.5195794344
O  O26  1  0.08620000  0.96970000  0.96506000  1.0 -0.6960718242
O  O27  1  0.05580000  0.83470000  0.94134000  1.0 -0.5195794344
O  O28  1  0.97430000  0.08974000  0.89007000  1.0 -0.5195794344
O  O29  1  0.91380000  0.03030000  0.96506000  1.0 -0.6937680192
O  O30  1  0.94420000  0.16530000  0.94134000  1.0 -0.5195794344
O  O31  1  0.08974000  0.02570000  0.89007000  1.0 -0.5195794344
O  O32  1  0.03030000  0.08620000  0.96506000  1.0 -0.6960718242
O  O33  1  0.16530000  0.05580000  0.94134000  1.0 -0.5195794344
O  O34  1  0.91026000  0.97430000  0.89007000  1.0 -0.5195794344
O  O35  1  0.96970000  0.91380000  0.96506000  1.0 -0.6937680192
O  O36  1  0.83470000  0.94420000  0.94134000  1.0 -0.5195794344
O  O37  1  0.47430000  0.41026000  0.60993000  1.0 -0.5195794344
O  O38  1  0.41380000  0.46970000  0.53494000  1.0 -0.6937680192
O  O39  1  0.44420000  0.33470000  0.55866000  1.0 -0.5195794344
O  O40  1  0.52570000  0.58974000  0.60993000  1.0 -0.5195794344
O  O41  1  0.58620000  0.53030000  0.53494000  1.0 -0.6937680192
O  O42  1  0.55580000  0.66530000  0.55866000  1.0 -0.5195794344
O  O43  1  0.41026000  0.52570000  0.60993000  1.0 -0.5195794344
O  O44  1  0.46970000  0.58620000  0.53494000  1.0 -0.6937680192
O  O45  1  0.33470000  0.55580000  0.55866000  1.0 -0.5195794344
O  O46  1  0.58974000  0.47430000  0.60993000  1.0 -0.5195794344
O  O47  1  0.53030000  0.41380000  0.53494000  1.0 -0.6937680192
O  O48  1  0.66530000  0.44420000  0.55866000  1.0 -0.5195794344
