# DDEC6 charges by PACMAN v1.1 (https://github.com/mtap-research/PACMAN-charge/)
data_NEVTIU12_ASR_pacman
_symmetry_space_group_name_H-M   'P 1'
_cell_length_a   19.46500000
_cell_length_b   19.46500000
_cell_length_c   32.37100000
_cell_angle_alpha   90.00000000
_cell_angle_beta   90.00000000
_cell_angle_gamma   90.00000000
_symmetry_Int_Tables_number   1
_chemical_formula_structural   Hf3H40(C5O)12
_chemical_formula_sum   'Hf12 H160 C240 O48'
_cell_volume   12264.92598947
_cell_formula_units_Z   4
loop_
 _symmetry_equiv_pos_site_id
 _symmetry_equiv_pos_as_xyz
  1  'x, y, z'
loop_
 _atom_site_type_symbol
 _atom_site_label
 _atom_site_symmetry_multiplicity
 _atom_site_fract_x
 _atom_site_fract_y
 _atom_site_fract_z
 _atom_site_occupancy
 _atom_site_charge
Hf  Hf1  1  0.95870000  0.12134000  0.00000000  1.0 1.3070785671
Hf  Hf2  1  0.04130000  0.87866000  0.00000000  1.0 1.3070785671
Hf  Hf3  1  0.87866000  0.95870000  0.00000000  1.0 1.3029775292
Hf  Hf4  1  0.12134000  0.04130000  0.00000000  1.0 1.3070785671
Hf  Hf5  1  0.54130000  0.62134000  0.50000000  1.0 1.2897080451
Hf  Hf6  1  0.45870000  0.37866000  0.50000000  1.0 1.2897080451
Hf  Hf7  1  0.62134000  0.45870000  0.50000000  1.0 1.2897080451
Hf  Hf8  1  0.37866000  0.54130000  0.50000000  1.0 1.2897080451
Hf  Hf9  1  0.00000000  0.00000000  0.07607000  1.0 1.3910070032
Hf  Hf10  1  0.50000000  0.50000000  0.42393000  1.0 1.3910070032
Hf  Hf11  1  0.00000000  0.00000000  0.92393000  1.0 1.3910070032
Hf  Hf12  1  0.50000000  0.50000000  0.57607000  1.0 1.3910070032
H  H1  1  0.91020000  0.27940000  0.09420000  1.0 0.1184210988
H  H2  1  0.97010000  0.14660000  0.18220000  1.0 0.1184210988
H  H3  1  0.90570000  0.36760000  0.14220000  1.0 0.1184210988
H  H4  1  0.96550000  0.23490000  0.23020000  1.0 0.1184210988
H  H5  1  0.03790000  0.36970000  0.17640000  1.0 0.1184210988
H  H6  1  0.07750000  0.42390000  0.20320000  1.0 0.1184210988
H  H7  1  0.02440000  0.44830000  0.16990000  1.0 0.1145314544
H  H8  1  0.79060000  0.33110000  0.24270000  1.0 0.045741768
H  H9  1  0.82210000  0.30620000  0.28470000  1.0 0.0877888741
H  H10  1  0.84680000  0.27340000  0.24300000  1.0 0.0781342432
H  H11  1  0.08980000  0.72060000  0.09420000  1.0 0.1184210988
H  H12  1  0.02990000  0.85340000  0.18220000  1.0 0.1184210988
H  H13  1  0.09430000  0.63240000  0.14220000  1.0 0.1184210988
H  H14  1  0.03450000  0.76510000  0.23020000  1.0 0.1184210988
H  H15  1  0.96210000  0.63030000  0.17640000  1.0 0.1184210988
H  H16  1  0.92250000  0.57610000  0.20320000  1.0 0.1184210988
H  H17  1  0.97560000  0.55170000  0.16990000  1.0 0.1145314544
H  H18  1  0.20940000  0.66890000  0.24270000  1.0 0.0392148429
H  H19  1  0.17790000  0.69380000  0.28470000  1.0 0.0877888741
H  H20  1  0.15320000  0.72660000  0.24300000  1.0 0.0781342432
H  H21  1  0.72060000  0.91020000  0.09420000  1.0 0.1184210988
H  H22  1  0.85340000  0.97010000  0.18220000  1.0 0.1184210988
H  H23  1  0.63240000  0.90570000  0.14220000  1.0 0.1184210988
H  H24  1  0.76510000  0.96550000  0.23020000  1.0 0.1184210988
H  H25  1  0.63030000  0.03790000  0.17640000  1.0 0.1184210988
H  H26  1  0.57610000  0.07750000  0.20320000  1.0 0.1184210988
H  H27  1  0.55170000  0.02440000  0.16990000  1.0 0.1145314544
H  H28  1  0.66890000  0.79060000  0.24270000  1.0 0.045741768
H  H29  1  0.69380000  0.82210000  0.28470000  1.0 0.0877888741
H  H30  1  0.72660000  0.84680000  0.24300000  1.0 0.0781342432
H  H31  1  0.27940000  0.08980000  0.09420000  1.0 0.1184210988
H  H32  1  0.14660000  0.02990000  0.18220000  1.0 0.1184210988
H  H33  1  0.36760000  0.09430000  0.14220000  1.0 0.1184210988
H  H34  1  0.23490000  0.03450000  0.23020000  1.0 0.1184210988
H  H35  1  0.36970000  0.96210000  0.17640000  1.0 0.1184210988
H  H36  1  0.42390000  0.92250000  0.20320000  1.0 0.1184210988
H  H37  1  0.44830000  0.97560000  0.16990000  1.0 0.1145314544
H  H38  1  0.33110000  0.20940000  0.24270000  1.0 0.0392148429
H  H39  1  0.30620000  0.17790000  0.28470000  1.0 0.0877888741
H  H40  1  0.27340000  0.15320000  0.24300000  1.0 0.0781342432
H  H41  1  0.58980000  0.77940000  0.40580000  1.0 0.1184210988
H  H42  1  0.52990000  0.64660000  0.31780000  1.0 0.1184210988
H  H43  1  0.59430000  0.86760000  0.35780000  1.0 0.1184210988
H  H44  1  0.53450000  0.73490000  0.26980000  1.0 0.1145314544
H  H45  1  0.46210000  0.86970000  0.32360000  1.0 0.1184210988
H  H46  1  0.42250000  0.92390000  0.29680000  1.0 0.1184210988
H  H47  1  0.47560000  0.94830000  0.33010000  1.0 0.1184210988
H  H48  1  0.70940000  0.83110000  0.25730000  1.0 0.0392148429
H  H49  1  0.67790000  0.80620000  0.21530000  1.0 0.0877888741
H  H50  1  0.65320000  0.77340000  0.25700000  1.0 0.0781342432
H  H51  1  0.41020000  0.22060000  0.40580000  1.0 0.1184210988
H  H52  1  0.47010000  0.35340000  0.31780000  1.0 0.1184210988
H  H53  1  0.40570000  0.13240000  0.35780000  1.0 0.1184210988
H  H54  1  0.46550000  0.26510000  0.26980000  1.0 0.1184210988
H  H55  1  0.53790000  0.13030000  0.32360000  1.0 0.1184210988
H  H56  1  0.57750000  0.07610000  0.29680000  1.0 0.1184210988
H  H57  1  0.52440000  0.05170000  0.33010000  1.0 0.1145314544
H  H58  1  0.29060000  0.16890000  0.25730000  1.0 0.0392148429
H  H59  1  0.32210000  0.19380000  0.21530000  1.0 0.0877888741
H  H60  1  0.34680000  0.22660000  0.25700000  1.0 0.0781342432
H  H61  1  0.77940000  0.41020000  0.40580000  1.0 0.1184210988
H  H62  1  0.64660000  0.47010000  0.31780000  1.0 0.1184210988
H  H63  1  0.86760000  0.40570000  0.35780000  1.0 0.1184210988
H  H64  1  0.73490000  0.46550000  0.26980000  1.0 0.1184210988
H  H65  1  0.86970000  0.53790000  0.32360000  1.0 0.1184210988
H  H66  1  0.92390000  0.57750000  0.29680000  1.0 0.1184210988
H  H67  1  0.94830000  0.52440000  0.33010000  1.0 0.1184210988
H  H68  1  0.83110000  0.29060000  0.25730000  1.0 0.0392148429
H  H69  1  0.80620000  0.32210000  0.21530000  1.0 0.0877888741
H  H70  1  0.77340000  0.34680000  0.25700000  1.0 0.0781342432
H  H71  1  0.22060000  0.58980000  0.40580000  1.0 0.1184210988
H  H72  1  0.35340000  0.52990000  0.31780000  1.0 0.1184210988
H  H73  1  0.13240000  0.59430000  0.35780000  1.0 0.1184210988
H  H74  1  0.26510000  0.53450000  0.26980000  1.0 0.1184210988
H  H75  1  0.13030000  0.46210000  0.32360000  1.0 0.1184210988
H  H76  1  0.07610000  0.42250000  0.29680000  1.0 0.1184210988
H  H77  1  0.05170000  0.47560000  0.33010000  1.0 0.1145314544
H  H78  1  0.16890000  0.70940000  0.25730000  1.0 0.0392148429
H  H79  1  0.19380000  0.67790000  0.21530000  1.0 0.0877888741
H  H80  1  0.22660000  0.65320000  0.25700000  1.0 0.0781342432
H  H81  1  0.08980000  0.72060000  0.90580000  1.0 0.1184210988
H  H82  1  0.02990000  0.85340000  0.81780000  1.0 0.1184210988
H  H83  1  0.09430000  0.63240000  0.85780000  1.0 0.1184210988
H  H84  1  0.03450000  0.76510000  0.76980000  1.0 0.1184210988
H  H85  1  0.96210000  0.63030000  0.82360000  1.0 0.1184210988
H  H86  1  0.92250000  0.57610000  0.79680000  1.0 0.1184210988
H  H87  1  0.97560000  0.55170000  0.83010000  1.0 0.1145314544
H  H88  1  0.20940000  0.66890000  0.75730000  1.0 0.0392148429
H  H89  1  0.17790000  0.69380000  0.71530000  1.0 0.0877888741
H  H90  1  0.15320000  0.72660000  0.75700000  1.0 0.0781342432
H  H91  1  0.91020000  0.27940000  0.90580000  1.0 0.1184210988
H  H92  1  0.97010000  0.14660000  0.81780000  1.0 0.1184210988
H  H93  1  0.90570000  0.36760000  0.85780000  1.0 0.1184210988
H  H94  1  0.96550000  0.23490000  0.76980000  1.0 0.1184210988
H  H95  1  0.03790000  0.36970000  0.82360000  1.0 0.1184210988
H  H96  1  0.07750000  0.42390000  0.79680000  1.0 0.1184210988
H  H97  1  0.02440000  0.44830000  0.83010000  1.0 0.1145314544
H  H98  1  0.79060000  0.33110000  0.75730000  1.0 0.045741768
H  H99  1  0.82210000  0.30620000  0.71530000  1.0 0.0877888741
H  H100  1  0.84680000  0.27340000  0.75700000  1.0 0.0781342432
H  H101  1  0.27940000  0.08980000  0.90580000  1.0 0.1184210988
H  H102  1  0.14660000  0.02990000  0.81780000  1.0 0.1184210988
H  H103  1  0.36760000  0.09430000  0.85780000  1.0 0.1184210988
H  H104  1  0.23490000  0.03450000  0.76980000  1.0 0.1184210988
H  H105  1  0.36970000  0.96210000  0.82360000  1.0 0.1184210988
H  H106  1  0.42390000  0.92250000  0.79680000  1.0 0.1184210988
H  H107  1  0.44830000  0.97560000  0.83010000  1.0 0.1145314544
H  H108  1  0.33110000  0.20940000  0.75730000  1.0 0.0392148429
H  H109  1  0.30620000  0.17790000  0.71530000  1.0 0.0877888741
H  H110  1  0.27340000  0.15320000  0.75700000  1.0 0.0781342432
H  H111  1  0.72060000  0.91020000  0.90580000  1.0 0.1184210988
H  H112  1  0.85340000  0.97010000  0.81780000  1.0 0.1184210988
H  H113  1  0.63240000  0.90570000  0.85780000  1.0 0.1184210988
H  H114  1  0.76510000  0.96550000  0.76980000  1.0 0.1184210988
H  H115  1  0.63030000  0.03790000  0.82360000  1.0 0.1184210988
H  H116  1  0.57610000  0.07750000  0.79680000  1.0 0.1184210988
H  H117  1  0.55170000  0.02440000  0.83010000  1.0 0.1145314544
H  H118  1  0.66890000  0.79060000  0.75730000  1.0 0.045741768
H  H119  1  0.69380000  0.82210000  0.71530000  1.0 0.0877888741
H  H120  1  0.72660000  0.84680000  0.75700000  1.0 0.0781342432
H  H121  1  0.41020000  0.22060000  0.59420000  1.0 0.1184210988
H  H122  1  0.47010000  0.35340000  0.68220000  1.0 0.1184210988
H  H123  1  0.40570000  0.13240000  0.64220000  1.0 0.1184210988
H  H124  1  0.46550000  0.26510000  0.73020000  1.0 0.1184210988
H  H125  1  0.53790000  0.13030000  0.67640000  1.0 0.1184210988
H  H126  1  0.57750000  0.07610000  0.70320000  1.0 0.1184210988
H  H127  1  0.52440000  0.05170000  0.66990000  1.0 0.1145314544
H  H128  1  0.29060000  0.16890000  0.74270000  1.0 0.045741768
H  H129  1  0.32210000  0.19380000  0.78470000  1.0 0.0877888741
H  H130  1  0.34680000  0.22660000  0.74300000  1.0 0.0781342432
H  H131  1  0.58980000  0.77940000  0.59420000  1.0 0.1184210988
H  H132  1  0.52990000  0.64660000  0.68220000  1.0 0.1184210988
H  H133  1  0.59430000  0.86760000  0.64220000  1.0 0.1184210988
H  H134  1  0.53450000  0.73490000  0.73020000  1.0 0.1145314544
H  H135  1  0.46210000  0.86970000  0.67640000  1.0 0.1184210988
H  H136  1  0.42250000  0.92390000  0.70320000  1.0 0.1184210988
H  H137  1  0.47560000  0.94830000  0.66990000  1.0 0.1145314544
H  H138  1  0.70940000  0.83110000  0.74270000  1.0 0.045741768
H  H139  1  0.67790000  0.80620000  0.78470000  1.0 0.0877888741
H  H140  1  0.65320000  0.77340000  0.74300000  1.0 0.0781342432
H  H141  1  0.22060000  0.58980000  0.59420000  1.0 0.1184210988
H  H142  1  0.35340000  0.52990000  0.68220000  1.0 0.1184210988
H  H143  1  0.13240000  0.59430000  0.64220000  1.0 0.1184210988
H  H144  1  0.26510000  0.53450000  0.73020000  1.0 0.1184210988
H  H145  1  0.13030000  0.46210000  0.67640000  1.0 0.1184210988
H  H146  1  0.07610000  0.42250000  0.70320000  1.0 0.1184210988
H  H147  1  0.05170000  0.47560000  0.66990000  1.0 0.1145314544
H  H148  1  0.16890000  0.70940000  0.74270000  1.0 0.045741768
H  H149  1  0.19380000  0.67790000  0.78470000  1.0 0.0877888741
H  H150  1  0.22660000  0.65320000  0.74300000  1.0 0.0781342432
H  H151  1  0.77940000  0.41020000  0.59420000  1.0 0.1184210988
H  H152  1  0.64660000  0.47010000  0.68220000  1.0 0.1184210988
H  H153  1  0.86760000  0.40570000  0.64220000  1.0 0.1184210988
H  H154  1  0.73490000  0.46550000  0.73020000  1.0 0.1184210988
H  H155  1  0.86970000  0.53790000  0.67640000  1.0 0.1184210988
H  H156  1  0.92390000  0.57750000  0.70320000  1.0 0.1184210988
H  H157  1  0.94830000  0.52440000  0.66990000  1.0 0.1145314544
H  H158  1  0.83110000  0.29060000  0.74270000  1.0 0.045741768
H  H159  1  0.80620000  0.32210000  0.78470000  1.0 0.0877888741
H  H160  1  0.77340000  0.34680000  0.74300000  1.0 0.0781342432
C  C1  1  0.94250000  0.15240000  0.10290000  1.0 0.5565342128
C  C2  1  0.94010000  0.20530000  0.13260000  1.0 -0.0800320336
C  C3  1  0.92140000  0.27000000  0.12160000  1.0 -0.086035107
C  C4  1  0.95720000  0.19070000  0.17420000  1.0 -0.0709584832
C  C5  1  0.91850000  0.32350000  0.15020000  1.0 -0.1905935057
C  C6  1  0.95430000  0.24400000  0.20280000  1.0 -0.1905935057
C  C7  1  0.93570000  0.30890000  0.19180000  1.0 0.0392148429
C  C8  1  0.93330000  0.36180000  0.22160000  1.0 0.0279419329
C  C9  1  0.92000000  0.38700000  0.21930000  1.0 -0.0436384205
C  C10  1  0.98440000  0.41140000  0.21840000  1.0 0.0279419329
C  C11  1  0.88440000  0.36600000  0.25280000  1.0 0.0392148429
C  C12  1  0.97000000  0.43800000  0.22200000  1.0 0.045741768
C  C13  1  0.98700000  0.46600000  0.24630000  1.0 -0.0036542618
C  C14  1  0.03470000  0.41300000  0.18990000  1.0 -0.3427573193
C  C15  1  0.83160000  0.31500000  0.25610000  1.0 -0.1284754623
C  C16  1  0.05750000  0.84760000  0.10290000  1.0 0.5565342128
C  C17  1  0.05990000  0.79470000  0.13260000  1.0 -0.0800320336
C  C18  1  0.07860000  0.73000000  0.12160000  1.0 -0.086035107
C  C19  1  0.04280000  0.80930000  0.17420000  1.0 -0.0709584832
C  C20  1  0.08150000  0.67650000  0.15020000  1.0 -0.1905935057
C  C21  1  0.04570000  0.75600000  0.20280000  1.0 -0.1905935057
C  C22  1  0.06430000  0.69110000  0.19180000  1.0 0.0392148429
C  C23  1  0.06670000  0.63820000  0.22160000  1.0 0.0279419329
C  C24  1  0.08000000  0.61300000  0.21930000  1.0 -0.0436384205
C  C25  1  0.01560000  0.58860000  0.21840000  1.0 0.0279419329
C  C26  1  0.11560000  0.63400000  0.25280000  1.0 0.0392148429
C  C27  1  0.03000000  0.56200000  0.22200000  1.0 0.045741768
C  C28  1  0.01300000  0.53400000  0.24630000  1.0 -0.0036542618
C  C29  1  0.96530000  0.58700000  0.18990000  1.0 -0.3427573193
C  C30  1  0.16840000  0.68500000  0.25610000  1.0 -0.1284754623
C  C31  1  0.84760000  0.94250000  0.10290000  1.0 0.5565342128
C  C32  1  0.79470000  0.94010000  0.13260000  1.0 -0.0800320336
C  C33  1  0.73000000  0.92140000  0.12160000  1.0 -0.086035107
C  C34  1  0.80930000  0.95720000  0.17420000  1.0 -0.0709584832
C  C35  1  0.67650000  0.91850000  0.15020000  1.0 -0.1905935057
C  C36  1  0.75600000  0.95430000  0.20280000  1.0 -0.1905935057
C  C37  1  0.69110000  0.93570000  0.19180000  1.0 0.0392148429
C  C38  1  0.63820000  0.93330000  0.22160000  1.0 0.0279419329
C  C39  1  0.61300000  0.92000000  0.21930000  1.0 -0.0436384205
C  C40  1  0.58860000  0.98440000  0.21840000  1.0 0.0279419329
C  C41  1  0.63400000  0.88440000  0.25280000  1.0 0.0392148429
C  C42  1  0.56200000  0.97000000  0.22200000  1.0 0.045741768
C  C43  1  0.53400000  0.98700000  0.24630000  1.0 -0.0036542618
C  C44  1  0.58700000  0.03470000  0.18990000  1.0 -0.3427573193
C  C45  1  0.68500000  0.83160000  0.25610000  1.0 -0.1284754623
C  C46  1  0.15240000  0.05750000  0.10290000  1.0 0.5565342128
C  C47  1  0.20530000  0.05990000  0.13260000  1.0 -0.0800320336
C  C48  1  0.27000000  0.07860000  0.12160000  1.0 -0.086035107
C  C49  1  0.19070000  0.04280000  0.17420000  1.0 -0.0709584832
C  C50  1  0.32350000  0.08150000  0.15020000  1.0 -0.1905935057
C  C51  1  0.24400000  0.04570000  0.20280000  1.0 -0.1905935057
C  C52  1  0.30890000  0.06430000  0.19180000  1.0 0.0392148429
C  C53  1  0.36180000  0.06670000  0.22160000  1.0 0.0279419329
C  C54  1  0.38700000  0.08000000  0.21930000  1.0 -0.0436384205
C  C55  1  0.41140000  0.01560000  0.21840000  1.0 0.0279419329
C  C56  1  0.36600000  0.11560000  0.25280000  1.0 0.0392148429
C  C57  1  0.43800000  0.03000000  0.22200000  1.0 0.045741768
C  C58  1  0.46600000  0.01300000  0.24630000  1.0 -0.0036542618
C  C59  1  0.41300000  0.96530000  0.18990000  1.0 -0.3427573193
C  C60  1  0.31500000  0.16840000  0.25610000  1.0 -0.1284754623
C  C61  1  0.55750000  0.65240000  0.39710000  1.0 0.5565342128
C  C62  1  0.55990000  0.70530000  0.36740000  1.0 -0.0800320336
C  C63  1  0.57860000  0.77000000  0.37840000  1.0 -0.086035107
C  C64  1  0.54280000  0.69070000  0.32580000  1.0 -0.0709584832
C  C65  1  0.58150000  0.82350000  0.34980000  1.0 -0.1905935057
C  C66  1  0.54570000  0.74400000  0.29720000  1.0 -0.1905935057
C  C67  1  0.56430000  0.80890000  0.30820000  1.0 0.0392148429
C  C68  1  0.56670000  0.86180000  0.27840000  1.0 0.0279419329
C  C69  1  0.58000000  0.88700000  0.28070000  1.0 -0.0436384205
C  C70  1  0.51560000  0.91140000  0.28160000  1.0 0.0279419329
C  C71  1  0.61560000  0.86600000  0.24720000  1.0 0.0392148429
C  C72  1  0.53000000  0.93800000  0.27800000  1.0 0.045741768
C  C73  1  0.51300000  0.96600000  0.25370000  1.0 -0.0036542618
C  C74  1  0.46530000  0.91300000  0.31010000  1.0 -0.3427573193
C  C75  1  0.66840000  0.81500000  0.24390000  1.0 -0.1284754623
C  C76  1  0.44250000  0.34760000  0.39710000  1.0 0.5565342128
C  C77  1  0.44010000  0.29470000  0.36740000  1.0 -0.0800320336
C  C78  1  0.42140000  0.23000000  0.37840000  1.0 -0.086035107
C  C79  1  0.45720000  0.30930000  0.32580000  1.0 -0.0709584832
C  C80  1  0.41850000  0.17650000  0.34980000  1.0 -0.1905935057
C  C81  1  0.45430000  0.25600000  0.29720000  1.0 -0.1905935057
C  C82  1  0.43570000  0.19110000  0.30820000  1.0 0.0392148429
C  C83  1  0.43330000  0.13820000  0.27840000  1.0 0.0279419329
C  C84  1  0.42000000  0.11300000  0.28070000  1.0 -0.0436384205
C  C85  1  0.48440000  0.08860000  0.28160000  1.0 0.0279419329
C  C86  1  0.38440000  0.13400000  0.24720000  1.0 0.0392148429
C  C87  1  0.47000000  0.06200000  0.27800000  1.0 0.045741768
C  C88  1  0.48700000  0.03400000  0.25370000  1.0 -0.0036542618
C  C89  1  0.53470000  0.08700000  0.31010000  1.0 -0.3427573193
C  C90  1  0.33160000  0.18500000  0.24390000  1.0 -0.1284754623
C  C91  1  0.65240000  0.44250000  0.39710000  1.0 0.5565342128
C  C92  1  0.70530000  0.44010000  0.36740000  1.0 -0.0800320336
C  C93  1  0.77000000  0.42140000  0.37840000  1.0 -0.086035107
C  C94  1  0.69070000  0.45720000  0.32580000  1.0 -0.0709584832
C  C95  1  0.82350000  0.41850000  0.34980000  1.0 -0.1905935057
C  C96  1  0.74400000  0.45430000  0.29720000  1.0 -0.1905935057
C  C97  1  0.80890000  0.43570000  0.30820000  1.0 0.0392148429
C  C98  1  0.86180000  0.43330000  0.27840000  1.0 0.0279419329
C  C99  1  0.88700000  0.42000000  0.28070000  1.0 -0.0436384205
C  C100  1  0.91140000  0.48440000  0.28160000  1.0 0.0279419329
C  C101  1  0.86600000  0.38440000  0.24720000  1.0 0.0392148429
C  C102  1  0.93800000  0.47000000  0.27800000  1.0 0.045741768
C  C103  1  0.96600000  0.48700000  0.25370000  1.0 -0.0036542618
C  C104  1  0.91300000  0.53470000  0.31010000  1.0 -0.3427573193
C  C105  1  0.81500000  0.33160000  0.24390000  1.0 -0.1284754623
C  C106  1  0.34760000  0.55750000  0.39710000  1.0 0.5565342128
C  C107  1  0.29470000  0.55990000  0.36740000  1.0 -0.0800320336
C  C108  1  0.23000000  0.57860000  0.37840000  1.0 -0.086035107
C  C109  1  0.30930000  0.54280000  0.32580000  1.0 -0.0709584832
C  C110  1  0.17650000  0.58150000  0.34980000  1.0 -0.1905935057
C  C111  1  0.25600000  0.54570000  0.29720000  1.0 -0.1905935057
C  C112  1  0.19110000  0.56430000  0.30820000  1.0 0.0392148429
C  C113  1  0.13820000  0.56670000  0.27840000  1.0 0.0279419329
C  C114  1  0.11300000  0.58000000  0.28070000  1.0 -0.0436384205
C  C115  1  0.08860000  0.51560000  0.28160000  1.0 0.0279419329
C  C116  1  0.13400000  0.61560000  0.24720000  1.0 0.0392148429
C  C117  1  0.06200000  0.53000000  0.27800000  1.0 0.045741768
C  C118  1  0.03400000  0.51300000  0.25370000  1.0 -0.0036542618
C  C119  1  0.08700000  0.46530000  0.31010000  1.0 -0.3427573193
C  C120  1  0.18500000  0.66840000  0.24390000  1.0 -0.1284754623
C  C121  1  0.05750000  0.84760000  0.89710000  1.0 0.5565342128
C  C122  1  0.05990000  0.79470000  0.86740000  1.0 -0.0800320336
C  C123  1  0.07860000  0.73000000  0.87840000  1.0 -0.086035107
C  C124  1  0.04280000  0.80930000  0.82580000  1.0 -0.0709584832
C  C125  1  0.08150000  0.67650000  0.84980000  1.0 -0.195557493
C  C126  1  0.04570000  0.75600000  0.79720000  1.0 -0.1905935057
C  C127  1  0.06430000  0.69110000  0.80820000  1.0 0.0392148429
C  C128  1  0.06670000  0.63820000  0.77840000  1.0 0.0279419329
C  C129  1  0.08000000  0.61300000  0.78070000  1.0 -0.0436384205
C  C130  1  0.01560000  0.58860000  0.78160000  1.0 0.0279419329
C  C131  1  0.11560000  0.63400000  0.74720000  1.0 0.0392148429
C  C132  1  0.03000000  0.56200000  0.77800000  1.0 0.045741768
C  C133  1  0.01300000  0.53400000  0.75370000  1.0 -0.0036542618
C  C134  1  0.96530000  0.58700000  0.81010000  1.0 -0.3427573193
C  C135  1  0.16840000  0.68500000  0.74390000  1.0 -0.1284754623
C  C136  1  0.94250000  0.15240000  0.89710000  1.0 0.5565342128
C  C137  1  0.94010000  0.20530000  0.86740000  1.0 -0.0800320336
C  C138  1  0.92140000  0.27000000  0.87840000  1.0 -0.086035107
C  C139  1  0.95720000  0.19070000  0.82580000  1.0 -0.0709584832
C  C140  1  0.91850000  0.32350000  0.84980000  1.0 -0.1905935057
C  C141  1  0.95430000  0.24400000  0.79720000  1.0 -0.1905935057
C  C142  1  0.93570000  0.30890000  0.80820000  1.0 0.0392148429
C  C143  1  0.93330000  0.36180000  0.77840000  1.0 0.0279419329
C  C144  1  0.92000000  0.38700000  0.78070000  1.0 -0.0436384205
C  C145  1  0.98440000  0.41140000  0.78160000  1.0 0.0279419329
C  C146  1  0.88440000  0.36600000  0.74720000  1.0 0.0392148429
C  C147  1  0.97000000  0.43800000  0.77800000  1.0 0.045741768
C  C148  1  0.98700000  0.46600000  0.75370000  1.0 -0.0036542618
C  C149  1  0.03470000  0.41300000  0.81010000  1.0 -0.3427573193
C  C150  1  0.83160000  0.31500000  0.74390000  1.0 -0.1284754623
C  C151  1  0.15240000  0.05750000  0.89710000  1.0 0.5565342128
C  C152  1  0.20530000  0.05990000  0.86740000  1.0 -0.0800320336
C  C153  1  0.27000000  0.07860000  0.87840000  1.0 -0.086035107
C  C154  1  0.19070000  0.04280000  0.82580000  1.0 -0.0709584832
C  C155  1  0.32350000  0.08150000  0.84980000  1.0 -0.1905935057
C  C156  1  0.24400000  0.04570000  0.79720000  1.0 -0.1905935057
C  C157  1  0.30890000  0.06430000  0.80820000  1.0 0.0392148429
C  C158  1  0.36180000  0.06670000  0.77840000  1.0 0.0279419329
C  C159  1  0.38700000  0.08000000  0.78070000  1.0 -0.0436384205
C  C160  1  0.41140000  0.01560000  0.78160000  1.0 0.0279419329
C  C161  1  0.36600000  0.11560000  0.74720000  1.0 0.0392148429
C  C162  1  0.43800000  0.03000000  0.77800000  1.0 0.045741768
C  C163  1  0.46600000  0.01300000  0.75370000  1.0 -0.0036542618
C  C164  1  0.41300000  0.96530000  0.81010000  1.0 -0.3427573193
C  C165  1  0.31500000  0.16840000  0.74390000  1.0 -0.1284754623
C  C166  1  0.84760000  0.94250000  0.89710000  1.0 0.5565342128
C  C167  1  0.79470000  0.94010000  0.86740000  1.0 -0.0800320336
C  C168  1  0.73000000  0.92140000  0.87840000  1.0 -0.086035107
C  C169  1  0.80930000  0.95720000  0.82580000  1.0 -0.0709584832
C  C170  1  0.67650000  0.91850000  0.84980000  1.0 -0.1905935057
C  C171  1  0.75600000  0.95430000  0.79720000  1.0 -0.1905935057
C  C172  1  0.69110000  0.93570000  0.80820000  1.0 0.0392148429
C  C173  1  0.63820000  0.93330000  0.77840000  1.0 0.0279419329
C  C174  1  0.61300000  0.92000000  0.78070000  1.0 -0.0436384205
C  C175  1  0.58860000  0.98440000  0.78160000  1.0 0.0279419329
C  C176  1  0.63400000  0.88440000  0.74720000  1.0 0.0392148429
C  C177  1  0.56200000  0.97000000  0.77800000  1.0 0.045741768
C  C178  1  0.53400000  0.98700000  0.75370000  1.0 -0.0036542618
C  C179  1  0.58700000  0.03470000  0.81010000  1.0 -0.3427573193
C  C180  1  0.68500000  0.83160000  0.74390000  1.0 -0.1284754623
C  C181  1  0.44250000  0.34760000  0.60290000  1.0 0.5565342128
C  C182  1  0.44010000  0.29470000  0.63260000  1.0 -0.0800320336
C  C183  1  0.42140000  0.23000000  0.62160000  1.0 -0.086035107
C  C184  1  0.45720000  0.30930000  0.67420000  1.0 -0.0709584832
C  C185  1  0.41850000  0.17650000  0.65020000  1.0 -0.1905935057
C  C186  1  0.45430000  0.25600000  0.70280000  1.0 -0.1905935057
C  C187  1  0.43570000  0.19110000  0.69180000  1.0 0.0392148429
C  C188  1  0.43330000  0.13820000  0.72160000  1.0 0.0279419329
C  C189  1  0.42000000  0.11300000  0.71930000  1.0 -0.0436384205
C  C190  1  0.48440000  0.08860000  0.71840000  1.0 0.0279419329
C  C191  1  0.38440000  0.13400000  0.75280000  1.0 0.0392148429
C  C192  1  0.47000000  0.06200000  0.72200000  1.0 0.045741768
C  C193  1  0.48700000  0.03400000  0.74630000  1.0 -0.0036542618
C  C194  1  0.53470000  0.08700000  0.68990000  1.0 -0.3427573193
C  C195  1  0.33160000  0.18500000  0.75610000  1.0 -0.1284754623
C  C196  1  0.55750000  0.65240000  0.60290000  1.0 0.5565342128
C  C197  1  0.55990000  0.70530000  0.63260000  1.0 -0.0800320336
C  C198  1  0.57860000  0.77000000  0.62160000  1.0 -0.086035107
C  C199  1  0.54280000  0.69070000  0.67420000  1.0 -0.0709584832
C  C200  1  0.58150000  0.82350000  0.65020000  1.0 -0.1905935057
C  C201  1  0.54570000  0.74400000  0.70280000  1.0 -0.1905935057
C  C202  1  0.56430000  0.80890000  0.69180000  1.0 0.0392148429
C  C203  1  0.56670000  0.86180000  0.72160000  1.0 0.0279419329
C  C204  1  0.58000000  0.88700000  0.71930000  1.0 -0.0436384205
C  C205  1  0.51560000  0.91140000  0.71840000  1.0 0.0279419329
C  C206  1  0.61560000  0.86600000  0.75280000  1.0 0.0392148429
C  C207  1  0.53000000  0.93800000  0.72200000  1.0 0.045741768
C  C208  1  0.51300000  0.96600000  0.74630000  1.0 -0.0036542618
C  C209  1  0.46530000  0.91300000  0.68990000  1.0 -0.3427573193
C  C210  1  0.66840000  0.81500000  0.75610000  1.0 -0.1284754623
C  C211  1  0.34760000  0.55750000  0.60290000  1.0 0.5565342128
C  C212  1  0.29470000  0.55990000  0.63260000  1.0 -0.0800320336
C  C213  1  0.23000000  0.57860000  0.62160000  1.0 -0.086035107
C  C214  1  0.30930000  0.54280000  0.67420000  1.0 -0.0709584832
C  C215  1  0.17650000  0.58150000  0.65020000  1.0 -0.1905935057
C  C216  1  0.25600000  0.54570000  0.70280000  1.0 -0.1905935057
C  C217  1  0.19110000  0.56430000  0.69180000  1.0 0.0392148429
C  C218  1  0.13820000  0.56670000  0.72160000  1.0 0.0246118668
C  C219  1  0.11300000  0.58000000  0.71930000  1.0 -0.0436384205
C  C220  1  0.08860000  0.51560000  0.71840000  1.0 0.0279419329
C  C221  1  0.13400000  0.61560000  0.75280000  1.0 0.0392148429
C  C222  1  0.06200000  0.53000000  0.72200000  1.0 0.045741768
C  C223  1  0.03400000  0.51300000  0.74630000  1.0 -0.0036542618
C  C224  1  0.08700000  0.46530000  0.68990000  1.0 -0.3427573193
C  C225  1  0.18500000  0.66840000  0.75610000  1.0 -0.1284754623
C  C226  1  0.65240000  0.44250000  0.60290000  1.0 0.5565342128
C  C227  1  0.70530000  0.44010000  0.63260000  1.0 -0.0800320336
C  C228  1  0.77000000  0.42140000  0.62160000  1.0 -0.086035107
C  C229  1  0.69070000  0.45720000  0.67420000  1.0 -0.0709584832
C  C230  1  0.82350000  0.41850000  0.65020000  1.0 -0.1905935057
C  C231  1  0.74400000  0.45430000  0.70280000  1.0 -0.1905935057
C  C232  1  0.80890000  0.43570000  0.69180000  1.0 0.0392148429
C  C233  1  0.86180000  0.43330000  0.72160000  1.0 0.0279419329
C  C234  1  0.88700000  0.42000000  0.71930000  1.0 -0.0436384205
C  C235  1  0.91140000  0.48440000  0.71840000  1.0 0.0279419329
C  C236  1  0.86600000  0.38440000  0.75280000  1.0 0.0392148429
C  C237  1  0.93800000  0.47000000  0.72200000  1.0 0.045741768
C  C238  1  0.96600000  0.48700000  0.74630000  1.0 -0.0036542618
C  C239  1  0.91300000  0.53470000  0.68990000  1.0 -0.3427573193
C  C240  1  0.81500000  0.33160000  0.75610000  1.0 -0.1284754623
O  O1  1  0.93030000  0.03100000  0.03840000  1.0 -0.5206966244
O  O2  1  0.93500000  0.16300000  0.06010000  1.0 -0.5776773125
O  O3  1  0.98260000  0.09320000  0.10990000  1.0 -0.5328005731
O  O4  1  0.06970000  0.96900000  0.03840000  1.0 -0.5206966244
O  O5  1  0.06500000  0.83700000  0.06010000  1.0 -0.5776773125
O  O6  1  0.01740000  0.90680000  0.10990000  1.0 -0.5328005731
O  O7  1  0.96900000  0.93030000  0.03840000  1.0 -0.5206966244
O  O8  1  0.83700000  0.93500000  0.06010000  1.0 -0.5776773125
O  O9  1  0.90680000  0.98260000  0.10990000  1.0 -0.5328005731
O  O10  1  0.03100000  0.06970000  0.03840000  1.0 -0.5206966244
O  O11  1  0.16300000  0.06500000  0.06010000  1.0 -0.5776773125
O  O12  1  0.09320000  0.01740000  0.10990000  1.0 -0.5328005731
O  O13  1  0.56970000  0.53100000  0.46160000  1.0 -0.5206966244
O  O14  1  0.56500000  0.66300000  0.43990000  1.0 -0.5742975205
O  O15  1  0.51740000  0.59320000  0.39010000  1.0 -0.5328005731
O  O16  1  0.43030000  0.46900000  0.46160000  1.0 -0.5206966244
O  O17  1  0.43500000  0.33700000  0.43990000  1.0 -0.5742975205
O  O18  1  0.48260000  0.40680000  0.39010000  1.0 -0.5328005731
O  O19  1  0.53100000  0.43030000  0.46160000  1.0 -0.5206966244
O  O20  1  0.66300000  0.43500000  0.43990000  1.0 -0.5742975205
O  O21  1  0.59320000  0.48260000  0.39010000  1.0 -0.5328005731
O  O22  1  0.46900000  0.56970000  0.46160000  1.0 -0.5206966244
O  O23  1  0.33700000  0.56500000  0.43990000  1.0 -0.5742975205
O  O24  1  0.40680000  0.51740000  0.39010000  1.0 -0.5328005731
O  O25  1  0.06970000  0.96900000  0.96160000  1.0 -0.5206966244
O  O26  1  0.06500000  0.83700000  0.93990000  1.0 -0.5776773125
O  O27  1  0.01740000  0.90680000  0.89010000  1.0 -0.5328005731
O  O28  1  0.93030000  0.03100000  0.96160000  1.0 -0.5206966244
O  O29  1  0.93500000  0.16300000  0.93990000  1.0 -0.5776773125
O  O30  1  0.98260000  0.09320000  0.89010000  1.0 -0.5328005731
O  O31  1  0.03100000  0.06970000  0.96160000  1.0 -0.5206966244
O  O32  1  0.16300000  0.06500000  0.93990000  1.0 -0.5776773125
O  O33  1  0.09320000  0.01740000  0.89010000  1.0 -0.5328005731
O  O34  1  0.96900000  0.93030000  0.96160000  1.0 -0.5206966244
O  O35  1  0.83700000  0.93500000  0.93990000  1.0 -0.5776773125
O  O36  1  0.90680000  0.98260000  0.89010000  1.0 -0.5328005731
O  O37  1  0.43030000  0.46900000  0.53840000  1.0 -0.5206966244
O  O38  1  0.43500000  0.33700000  0.56010000  1.0 -0.5742975205
O  O39  1  0.48260000  0.40680000  0.60990000  1.0 -0.5328005731
O  O40  1  0.56970000  0.53100000  0.53840000  1.0 -0.5206966244
O  O41  1  0.56500000  0.66300000  0.56010000  1.0 -0.5742975205
O  O42  1  0.51740000  0.59320000  0.60990000  1.0 -0.5328005731
O  O43  1  0.46900000  0.56970000  0.53840000  1.0 -0.5206966244
O  O44  1  0.33700000  0.56500000  0.56010000  1.0 -0.5742975205
O  O45  1  0.40680000  0.51740000  0.60990000  1.0 -0.5328005731
O  O46  1  0.53100000  0.43030000  0.53840000  1.0 -0.5206966244
O  O47  1  0.66300000  0.43500000  0.56010000  1.0 -0.5742975205
O  O48  1  0.59320000  0.48260000  0.60990000  1.0 -0.5328005731
