# DDEC6 charges by PACMAN v1.1 (https://github.com/mtap-research/PACMAN-charge/)
data_NEVTIU05_ASR_pacman
_symmetry_space_group_name_H-M   'P 1'
_cell_length_a   18.93960000
_cell_length_b   18.93960000
_cell_length_c   32.81700000
_cell_angle_alpha   90.00000000
_cell_angle_beta   90.00000000
_cell_angle_gamma   90.00000000
_symmetry_Int_Tables_number   1
_chemical_formula_structural   Hf3H40(C5O)12
_chemical_formula_sum   'Hf12 H160 C240 O48'
_cell_volume   11771.73514327
_cell_formula_units_Z   4
loop_
 _symmetry_equiv_pos_site_id
 _symmetry_equiv_pos_as_xyz
  1  'x, y, z'
loop_
 _atom_site_type_symbol
 _atom_site_label
 _atom_site_symmetry_multiplicity
 _atom_site_fract_x
 _atom_site_fract_y
 _atom_site_fract_z
 _atom_site_occupancy
 _atom_site_charge
Hf  Hf1  1  0.95540000  0.12320000  0.00000000  1.0 1.4509953408
Hf  Hf2  1  0.04460000  0.87680000  0.00000000  1.0 1.4509953408
Hf  Hf3  1  0.87680000  0.95540000  0.00000000  1.0 1.4509953408
Hf  Hf4  1  0.12320000  0.04460000  0.00000000  1.0 1.4564790317
Hf  Hf5  1  0.54460000  0.62320000  0.50000000  1.0 1.4418621608
Hf  Hf6  1  0.45540000  0.37680000  0.50000000  1.0 1.4418621608
Hf  Hf7  1  0.62320000  0.45540000  0.50000000  1.0 1.4418621608
Hf  Hf8  1  0.37680000  0.54460000  0.50000000  1.0 1.4418621608
Hf  Hf9  1  0.00000000  0.00000000  0.07371000  1.0 1.4564790317
Hf  Hf10  1  0.50000000  0.50000000  0.42629000  1.0 1.4564790317
Hf  Hf11  1  0.00000000  0.00000000  0.92629000  1.0 1.4564790317
Hf  Hf12  1  0.50000000  0.50000000  0.57371000  1.0 1.4564790317
H  H1  1  0.89300000  0.37610000  0.14560000  1.0 0.1220208739
H  H2  1  0.89840000  0.29100000  0.09560000  1.0 0.1375149586
H  H3  1  0.97420000  0.14820000  0.17800000  1.0 0.1220208739
H  H4  1  0.96880000  0.23340000  0.22800000  1.0 0.1303018439
H  H5  1  0.05160000  0.38960000  0.19410000  1.0 0.1303018439
H  H6  1  0.05590000  0.47050000  0.20380000  1.0 0.0809955235
H  H7  1  0.00490000  0.44320000  0.16960000  1.0 0.1220208739
H  H8  1  0.84220000  0.27250000  0.25900000  1.0 0.0809955235
H  H9  1  0.81100000  0.30750000  0.21960000  1.0 0.0809955235
H  H10  1  0.78210000  0.32890000  0.26270000  1.0 0.0874078726
H  H11  1  0.10700000  0.62390000  0.14560000  1.0 0.1220208739
H  H12  1  0.10160000  0.70900000  0.09560000  1.0 0.1375149586
H  H13  1  0.02580000  0.85180000  0.17800000  1.0 0.1220208739
H  H14  1  0.03120000  0.76660000  0.22800000  1.0 0.1303018439
H  H15  1  0.94840000  0.61040000  0.19410000  1.0 0.1303018439
H  H16  1  0.94410000  0.52950000  0.20380000  1.0 0.0809955235
H  H17  1  0.99510000  0.55680000  0.16960000  1.0 0.1220208739
H  H18  1  0.15780000  0.72750000  0.25900000  1.0 0.0809955235
H  H19  1  0.18900000  0.69250000  0.21960000  1.0 0.0809955235
H  H20  1  0.21790000  0.67110000  0.26270000  1.0 0.0874078726
H  H21  1  0.62390000  0.89300000  0.14560000  1.0 0.1220208739
H  H22  1  0.70900000  0.89840000  0.09560000  1.0 0.1375149586
H  H23  1  0.85180000  0.97420000  0.17800000  1.0 0.1220208739
H  H24  1  0.76660000  0.96880000  0.22800000  1.0 0.1303018439
H  H25  1  0.61040000  0.05160000  0.19410000  1.0 0.1303018439
H  H26  1  0.52950000  0.05590000  0.20380000  1.0 0.0809955235
H  H27  1  0.55680000  0.00490000  0.16960000  1.0 0.1220208739
H  H28  1  0.72750000  0.84220000  0.25900000  1.0 0.0809955235
H  H29  1  0.69250000  0.81100000  0.21960000  1.0 0.0809955235
H  H30  1  0.67110000  0.78210000  0.26270000  1.0 0.0874078726
H  H31  1  0.37610000  0.10700000  0.14560000  1.0 0.1220208739
H  H32  1  0.29100000  0.10160000  0.09560000  1.0 0.1375149586
H  H33  1  0.14820000  0.02580000  0.17800000  1.0 0.1220208739
H  H34  1  0.23340000  0.03120000  0.22800000  1.0 0.1303018439
H  H35  1  0.38960000  0.94840000  0.19410000  1.0 0.1303018439
H  H36  1  0.47050000  0.94410000  0.20380000  1.0 0.0809955235
H  H37  1  0.44320000  0.99510000  0.16960000  1.0 0.1220208739
H  H38  1  0.27250000  0.15780000  0.25900000  1.0 0.0809955235
H  H39  1  0.30750000  0.18900000  0.21960000  1.0 0.0809955235
H  H40  1  0.32890000  0.21790000  0.26270000  1.0 0.0874078726
H  H41  1  0.60700000  0.87610000  0.35440000  1.0 0.1220208739
H  H42  1  0.60160000  0.79100000  0.40440000  1.0 0.1375149586
H  H43  1  0.52580000  0.64820000  0.32200000  1.0 0.1220208739
H  H44  1  0.53120000  0.73340000  0.27200000  1.0 0.1303018439
H  H45  1  0.44840000  0.88960000  0.30590000  1.0 0.1303018439
H  H46  1  0.44410000  0.97050000  0.29620000  1.0 0.0809955235
H  H47  1  0.49510000  0.94320000  0.33040000  1.0 0.1220208739
H  H48  1  0.65780000  0.77250000  0.24100000  1.0 0.0809955235
H  H49  1  0.68900000  0.80750000  0.28040000  1.0 0.0809955235
H  H50  1  0.71790000  0.82890000  0.23730000  1.0 0.0874078726
H  H51  1  0.39300000  0.12390000  0.35440000  1.0 0.1220208739
H  H52  1  0.39840000  0.20900000  0.40440000  1.0 0.1375149586
H  H53  1  0.47420000  0.35180000  0.32200000  1.0 0.1220208739
H  H54  1  0.46880000  0.26660000  0.27200000  1.0 0.1303018439
H  H55  1  0.55160000  0.11040000  0.30590000  1.0 0.1303018439
H  H56  1  0.55590000  0.02950000  0.29620000  1.0 0.0809955235
H  H57  1  0.50490000  0.05680000  0.33040000  1.0 0.1220208739
H  H58  1  0.34220000  0.22750000  0.24100000  1.0 0.0809955235
H  H59  1  0.31100000  0.19250000  0.28040000  1.0 0.0809955235
H  H60  1  0.28210000  0.17110000  0.23730000  1.0 0.0874078726
H  H61  1  0.87610000  0.39300000  0.35440000  1.0 0.1220208739
H  H62  1  0.79100000  0.39840000  0.40440000  1.0 0.1375149586
H  H63  1  0.64820000  0.47420000  0.32200000  1.0 0.1220208739
H  H64  1  0.73340000  0.46880000  0.27200000  1.0 0.1303018439
H  H65  1  0.88960000  0.55160000  0.30590000  1.0 0.1303018439
H  H66  1  0.97050000  0.55590000  0.29620000  1.0 0.0809955235
H  H67  1  0.94320000  0.50490000  0.33040000  1.0 0.1220208739
H  H68  1  0.77250000  0.34220000  0.24100000  1.0 0.0809955235
H  H69  1  0.80750000  0.31100000  0.28040000  1.0 0.0809955235
H  H70  1  0.82890000  0.28210000  0.23730000  1.0 0.0874078726
H  H71  1  0.12390000  0.60700000  0.35440000  1.0 0.1220208739
H  H72  1  0.20900000  0.60160000  0.40440000  1.0 0.1375149586
H  H73  1  0.35180000  0.52580000  0.32200000  1.0 0.1220208739
H  H74  1  0.26660000  0.53120000  0.27200000  1.0 0.1303018439
H  H75  1  0.11040000  0.44840000  0.30590000  1.0 0.1303018439
H  H76  1  0.02950000  0.44410000  0.29620000  1.0 0.0809955235
H  H77  1  0.05680000  0.49510000  0.33040000  1.0 0.1220208739
H  H78  1  0.22750000  0.65780000  0.24100000  1.0 0.0809955235
H  H79  1  0.19250000  0.68900000  0.28040000  1.0 0.0809955235
H  H80  1  0.17110000  0.71790000  0.23730000  1.0 0.0874078726
H  H81  1  0.10700000  0.62390000  0.85440000  1.0 0.1220208739
H  H82  1  0.10160000  0.70900000  0.90440000  1.0 0.1375149586
H  H83  1  0.02580000  0.85180000  0.82200000  1.0 0.1220208739
H  H84  1  0.03120000  0.76660000  0.77200000  1.0 0.1303018439
H  H85  1  0.94840000  0.61040000  0.80590000  1.0 0.1303018439
H  H86  1  0.94410000  0.52950000  0.79620000  1.0 0.0809955235
H  H87  1  0.99510000  0.55680000  0.83040000  1.0 0.1220208739
H  H88  1  0.15780000  0.72750000  0.74100000  1.0 0.0809955235
H  H89  1  0.18900000  0.69250000  0.78040000  1.0 0.0809955235
H  H90  1  0.21790000  0.67110000  0.73730000  1.0 0.0874078726
H  H91  1  0.89300000  0.37610000  0.85440000  1.0 0.1220208739
H  H92  1  0.89840000  0.29100000  0.90440000  1.0 0.1375149586
H  H93  1  0.97420000  0.14820000  0.82200000  1.0 0.1220208739
H  H94  1  0.96880000  0.23340000  0.77200000  1.0 0.1303018439
H  H95  1  0.05160000  0.38960000  0.80590000  1.0 0.1303018439
H  H96  1  0.05590000  0.47050000  0.79620000  1.0 0.0809955235
H  H97  1  0.00490000  0.44320000  0.83040000  1.0 0.1220208739
H  H98  1  0.84220000  0.27250000  0.74100000  1.0 0.0809955235
H  H99  1  0.81100000  0.30750000  0.78040000  1.0 0.0809955235
H  H100  1  0.78210000  0.32890000  0.73730000  1.0 0.0874078726
H  H101  1  0.37610000  0.10700000  0.85440000  1.0 0.1220208739
H  H102  1  0.29100000  0.10160000  0.90440000  1.0 0.1375149586
H  H103  1  0.14820000  0.02580000  0.82200000  1.0 0.1220208739
H  H104  1  0.23340000  0.03120000  0.77200000  1.0 0.1303018439
H  H105  1  0.38960000  0.94840000  0.80590000  1.0 0.1303018439
H  H106  1  0.47050000  0.94410000  0.79620000  1.0 0.0809955235
H  H107  1  0.44320000  0.99510000  0.83040000  1.0 0.1220208739
H  H108  1  0.27250000  0.15780000  0.74100000  1.0 0.0809955235
H  H109  1  0.30750000  0.18900000  0.78040000  1.0 0.0809955235
H  H110  1  0.32890000  0.21790000  0.73730000  1.0 0.0874078726
H  H111  1  0.62390000  0.89300000  0.85440000  1.0 0.1220208739
H  H112  1  0.70900000  0.89840000  0.90440000  1.0 0.1375149586
H  H113  1  0.85180000  0.97420000  0.82200000  1.0 0.1220208739
H  H114  1  0.76660000  0.96880000  0.77200000  1.0 0.1303018439
H  H115  1  0.61040000  0.05160000  0.80590000  1.0 0.1303018439
H  H116  1  0.52950000  0.05590000  0.79620000  1.0 0.0809955235
H  H117  1  0.55680000  0.00490000  0.83040000  1.0 0.1220208739
H  H118  1  0.72750000  0.84220000  0.74100000  1.0 0.0809955235
H  H119  1  0.69250000  0.81100000  0.78040000  1.0 0.0809955235
H  H120  1  0.67110000  0.78210000  0.73730000  1.0 0.0874078726
H  H121  1  0.39300000  0.12390000  0.64560000  1.0 0.1220208739
H  H122  1  0.39840000  0.20900000  0.59560000  1.0 0.1375149586
H  H123  1  0.47420000  0.35180000  0.67800000  1.0 0.1220208739
H  H124  1  0.46880000  0.26660000  0.72800000  1.0 0.1303018439
H  H125  1  0.55160000  0.11040000  0.69410000  1.0 0.1303018439
H  H126  1  0.55590000  0.02950000  0.70380000  1.0 0.0809955235
H  H127  1  0.50490000  0.05680000  0.66960000  1.0 0.1220208739
H  H128  1  0.34220000  0.22750000  0.75900000  1.0 0.0809955235
H  H129  1  0.31100000  0.19250000  0.71960000  1.0 0.0809955235
H  H130  1  0.28210000  0.17110000  0.76270000  1.0 0.0874078726
H  H131  1  0.60700000  0.87610000  0.64560000  1.0 0.1220208739
H  H132  1  0.60160000  0.79100000  0.59560000  1.0 0.1375149586
H  H133  1  0.52580000  0.64820000  0.67800000  1.0 0.1220208739
H  H134  1  0.53120000  0.73340000  0.72800000  1.0 0.1303018439
H  H135  1  0.44840000  0.88960000  0.69410000  1.0 0.1303018439
H  H136  1  0.44410000  0.97050000  0.70380000  1.0 0.0809955235
H  H137  1  0.49510000  0.94320000  0.66960000  1.0 0.1220208739
H  H138  1  0.65780000  0.77250000  0.75900000  1.0 0.0809955235
H  H139  1  0.68900000  0.80750000  0.71960000  1.0 0.0809955235
H  H140  1  0.71790000  0.82890000  0.76270000  1.0 0.0874078726
H  H141  1  0.12390000  0.60700000  0.64560000  1.0 0.1220208739
H  H142  1  0.20900000  0.60160000  0.59560000  1.0 0.1375149586
H  H143  1  0.35180000  0.52580000  0.67800000  1.0 0.1220208739
H  H144  1  0.26660000  0.53120000  0.72800000  1.0 0.1303018439
H  H145  1  0.11040000  0.44840000  0.69410000  1.0 0.1303018439
H  H146  1  0.02950000  0.44410000  0.70380000  1.0 0.0809955235
H  H147  1  0.05680000  0.49510000  0.66960000  1.0 0.1220208739
H  H148  1  0.22750000  0.65780000  0.75900000  1.0 0.0809955235
H  H149  1  0.19250000  0.68900000  0.71960000  1.0 0.0809955235
H  H150  1  0.17110000  0.71790000  0.76270000  1.0 0.0874078726
H  H151  1  0.87610000  0.39300000  0.64560000  1.0 0.1220208739
H  H152  1  0.79100000  0.39840000  0.59560000  1.0 0.1375149586
H  H153  1  0.64820000  0.47420000  0.67800000  1.0 0.1220208739
H  H154  1  0.73340000  0.46880000  0.72800000  1.0 0.1303018439
H  H155  1  0.88960000  0.55160000  0.69410000  1.0 0.1303018439
H  H156  1  0.97050000  0.55590000  0.70380000  1.0 0.0809955235
H  H157  1  0.94320000  0.50490000  0.66960000  1.0 0.1220208739
H  H158  1  0.77250000  0.34220000  0.75900000  1.0 0.0809955235
H  H159  1  0.80750000  0.31100000  0.71960000  1.0 0.0809955235
H  H160  1  0.82890000  0.28210000  0.76270000  1.0 0.0874078726
C  C1  1  0.93060000  0.31500000  0.19360000  1.0 0.0448636995
C  C2  1  0.90900000  0.33110000  0.15200000  1.0 -0.1775095328
C  C3  1  0.91200000  0.28000000  0.12190000  1.0 -0.0761968945
C  C4  1  0.93660000  0.21000000  0.13010000  1.0 -0.0711817837
C  C5  1  0.95820000  0.19330000  0.17160000  1.0 -0.0711817837
C  C6  1  0.95480000  0.24500000  0.20170000  1.0 -0.1656193871
C  C7  1  0.92370000  0.37300000  0.22000000  1.0 -0.0294106915
C  C8  1  0.97460000  0.42600000  0.22270000  1.0 0.0467684985
C  C9  1  0.97400000  0.47100000  0.25100000  1.0 -0.003674957
C  C10  1  0.94060000  0.15630000  0.10020000  1.0 0.5649320432
C  C11  1  0.02500000  0.43300000  0.19580000  1.0 -0.2944324422
C  C12  1  0.87200000  0.36700000  0.25010000  1.0 0.061115124
C  C13  1  0.82300000  0.31500000  0.24800000  1.0 -0.255508577
C  C14  1  0.92300000  0.46600000  0.28500000  1.0 0.0467684985
C  C15  1  0.87200000  0.41400000  0.28300000  1.0 -0.0466958527
C  C16  1  0.06940000  0.68500000  0.19360000  1.0 0.0448636995
C  C17  1  0.09100000  0.66890000  0.15200000  1.0 -0.1775095328
C  C18  1  0.08800000  0.72000000  0.12190000  1.0 -0.0761968945
C  C19  1  0.06340000  0.79000000  0.13010000  1.0 -0.0711817837
C  C20  1  0.04180000  0.80670000  0.17160000  1.0 -0.0711817837
C  C21  1  0.04520000  0.75500000  0.20170000  1.0 -0.1656193871
C  C22  1  0.07630000  0.62700000  0.22000000  1.0 -0.0294106915
C  C23  1  0.02540000  0.57400000  0.22270000  1.0 0.0467684985
C  C24  1  0.02600000  0.52900000  0.25100000  1.0 -0.003674957
C  C25  1  0.05940000  0.84370000  0.10020000  1.0 0.5649320432
C  C26  1  0.97500000  0.56700000  0.19580000  1.0 -0.2944324422
C  C27  1  0.12800000  0.63300000  0.25010000  1.0 0.061115124
C  C28  1  0.17700000  0.68500000  0.24800000  1.0 -0.255508577
C  C29  1  0.07700000  0.53400000  0.28500000  1.0 0.0467684985
C  C30  1  0.12800000  0.58600000  0.28300000  1.0 -0.0466958527
C  C31  1  0.68500000  0.93060000  0.19360000  1.0 0.0448636995
C  C32  1  0.66890000  0.90900000  0.15200000  1.0 -0.1775095328
C  C33  1  0.72000000  0.91200000  0.12190000  1.0 -0.0761968945
C  C34  1  0.79000000  0.93660000  0.13010000  1.0 -0.0711817837
C  C35  1  0.80670000  0.95820000  0.17160000  1.0 -0.0711817837
C  C36  1  0.75500000  0.95480000  0.20170000  1.0 -0.1656193871
C  C37  1  0.62700000  0.92370000  0.22000000  1.0 -0.0294106915
C  C38  1  0.57400000  0.97460000  0.22270000  1.0 0.0467684985
C  C39  1  0.52900000  0.97400000  0.25100000  1.0 -0.003674957
C  C40  1  0.84370000  0.94060000  0.10020000  1.0 0.5649320432
C  C41  1  0.56700000  0.02500000  0.19580000  1.0 -0.2944324422
C  C42  1  0.63300000  0.87200000  0.25010000  1.0 0.061115124
C  C43  1  0.68500000  0.82300000  0.24800000  1.0 -0.255508577
C  C44  1  0.53400000  0.92300000  0.28500000  1.0 0.0467684985
C  C45  1  0.58600000  0.87200000  0.28300000  1.0 -0.0466958527
C  C46  1  0.31500000  0.06940000  0.19360000  1.0 0.0448636995
C  C47  1  0.33110000  0.09100000  0.15200000  1.0 -0.1775095328
C  C48  1  0.28000000  0.08800000  0.12190000  1.0 -0.0761968945
C  C49  1  0.21000000  0.06340000  0.13010000  1.0 -0.0711817837
C  C50  1  0.19330000  0.04180000  0.17160000  1.0 -0.0711817837
C  C51  1  0.24500000  0.04520000  0.20170000  1.0 -0.1641336433
C  C52  1  0.37300000  0.07630000  0.22000000  1.0 -0.0294106915
C  C53  1  0.42600000  0.02540000  0.22270000  1.0 0.0467684985
C  C54  1  0.47100000  0.02600000  0.25100000  1.0 -0.003674957
C  C55  1  0.15630000  0.05940000  0.10020000  1.0 0.5649320432
C  C56  1  0.43300000  0.97500000  0.19580000  1.0 -0.2944324422
C  C57  1  0.36700000  0.12800000  0.25010000  1.0 0.061115124
C  C58  1  0.31500000  0.17700000  0.24800000  1.0 -0.2539975248
C  C59  1  0.46600000  0.07700000  0.28500000  1.0 0.0467684985
C  C60  1  0.41400000  0.12800000  0.28300000  1.0 -0.0466958527
C  C61  1  0.56940000  0.81500000  0.30640000  1.0 0.0448636995
C  C62  1  0.59100000  0.83110000  0.34800000  1.0 -0.1775095328
C  C63  1  0.58800000  0.78000000  0.37810000  1.0 -0.0761968945
C  C64  1  0.56340000  0.71000000  0.36990000  1.0 -0.0711817837
C  C65  1  0.54180000  0.69330000  0.32840000  1.0 -0.0711817837
C  C66  1  0.54520000  0.74500000  0.29830000  1.0 -0.1656193871
C  C67  1  0.57630000  0.87300000  0.28000000  1.0 -0.0294106915
C  C68  1  0.52540000  0.92600000  0.27730000  1.0 0.0467684985
C  C69  1  0.52600000  0.97100000  0.24900000  1.0 -0.003674957
C  C70  1  0.55940000  0.65630000  0.39980000  1.0 0.5649320432
C  C71  1  0.47500000  0.93300000  0.30420000  1.0 -0.2944324422
C  C72  1  0.62800000  0.86700000  0.24990000  1.0 0.061115124
C  C73  1  0.67700000  0.81500000  0.25200000  1.0 -0.255508577
C  C74  1  0.57700000  0.96600000  0.21500000  1.0 0.0467684985
C  C75  1  0.62800000  0.91400000  0.21700000  1.0 -0.0466958527
C  C76  1  0.43060000  0.18500000  0.30640000  1.0 0.0448636995
C  C77  1  0.40900000  0.16890000  0.34800000  1.0 -0.1775095328
C  C78  1  0.41200000  0.22000000  0.37810000  1.0 -0.0761968945
C  C79  1  0.43660000  0.29000000  0.36990000  1.0 -0.0711817837
C  C80  1  0.45820000  0.30670000  0.32840000  1.0 -0.0711817837
C  C81  1  0.45480000  0.25500000  0.29830000  1.0 -0.1641336433
C  C82  1  0.42370000  0.12700000  0.28000000  1.0 -0.0294106915
C  C83  1  0.47460000  0.07400000  0.27730000  1.0 0.0467684985
C  C84  1  0.47400000  0.02900000  0.24900000  1.0 -0.003674957
C  C85  1  0.44060000  0.34370000  0.39980000  1.0 0.5649320432
C  C86  1  0.52500000  0.06700000  0.30420000  1.0 -0.2944324422
C  C87  1  0.37200000  0.13300000  0.24990000  1.0 0.061115124
C  C88  1  0.32300000  0.18500000  0.25200000  1.0 -0.2539975248
C  C89  1  0.42300000  0.03400000  0.21500000  1.0 0.0467684985
C  C90  1  0.37200000  0.08600000  0.21700000  1.0 -0.0466958527
C  C91  1  0.81500000  0.43060000  0.30640000  1.0 0.0448636995
C  C92  1  0.83110000  0.40900000  0.34800000  1.0 -0.1775095328
C  C93  1  0.78000000  0.41200000  0.37810000  1.0 -0.0761968945
C  C94  1  0.71000000  0.43660000  0.36990000  1.0 -0.0711817837
C  C95  1  0.69330000  0.45820000  0.32840000  1.0 -0.0711817837
C  C96  1  0.74500000  0.45480000  0.29830000  1.0 -0.1641336433
C  C97  1  0.87300000  0.42370000  0.28000000  1.0 -0.0294106915
C  C98  1  0.92600000  0.47460000  0.27730000  1.0 0.0467684985
C  C99  1  0.97100000  0.47400000  0.24900000  1.0 -0.003674957
C  C100  1  0.65630000  0.44060000  0.39980000  1.0 0.5649320432
C  C101  1  0.93300000  0.52500000  0.30420000  1.0 -0.2944324422
C  C102  1  0.86700000  0.37200000  0.24990000  1.0 0.061115124
C  C103  1  0.81500000  0.32300000  0.25200000  1.0 -0.255508577
C  C104  1  0.96600000  0.42300000  0.21500000  1.0 0.0467684985
C  C105  1  0.91400000  0.37200000  0.21700000  1.0 -0.0466958527
C  C106  1  0.18500000  0.56940000  0.30640000  1.0 0.0448636995
C  C107  1  0.16890000  0.59100000  0.34800000  1.0 -0.1775095328
C  C108  1  0.22000000  0.58800000  0.37810000  1.0 -0.0761968945
C  C109  1  0.29000000  0.56340000  0.36990000  1.0 -0.0711817837
C  C110  1  0.30670000  0.54180000  0.32840000  1.0 -0.0711817837
C  C111  1  0.25500000  0.54520000  0.29830000  1.0 -0.1641336433
C  C112  1  0.12700000  0.57630000  0.28000000  1.0 -0.0294106915
C  C113  1  0.07400000  0.52540000  0.27730000  1.0 0.0467684985
C  C114  1  0.02900000  0.52600000  0.24900000  1.0 -0.003674957
C  C115  1  0.34370000  0.55940000  0.39980000  1.0 0.5649320432
C  C116  1  0.06700000  0.47500000  0.30420000  1.0 -0.2944324422
C  C117  1  0.13300000  0.62800000  0.24990000  1.0 0.061115124
C  C118  1  0.18500000  0.67700000  0.25200000  1.0 -0.255508577
C  C119  1  0.03400000  0.57700000  0.21500000  1.0 0.0467684985
C  C120  1  0.08600000  0.62800000  0.21700000  1.0 -0.0466958527
C  C121  1  0.06940000  0.68500000  0.80640000  1.0 0.0467684985
C  C122  1  0.09100000  0.66890000  0.84800000  1.0 -0.1775095328
C  C123  1  0.08800000  0.72000000  0.87810000  1.0 -0.0761968945
C  C124  1  0.06340000  0.79000000  0.86990000  1.0 -0.0711817837
C  C125  1  0.04180000  0.80670000  0.82840000  1.0 -0.0711817837
C  C126  1  0.04520000  0.75500000  0.79830000  1.0 -0.1656193871
C  C127  1  0.07630000  0.62700000  0.78000000  1.0 -0.0294106915
C  C128  1  0.02540000  0.57400000  0.77730000  1.0 0.0467684985
C  C129  1  0.02600000  0.52900000  0.74900000  1.0 -0.003674957
C  C130  1  0.05940000  0.84370000  0.89980000  1.0 0.5649320432
C  C131  1  0.97500000  0.56700000  0.80420000  1.0 -0.2944324422
C  C132  1  0.12800000  0.63300000  0.74990000  1.0 0.061115124
C  C133  1  0.17700000  0.68500000  0.75200000  1.0 -0.2539975248
C  C134  1  0.07700000  0.53400000  0.71500000  1.0 0.0467684985
C  C135  1  0.12800000  0.58600000  0.71700000  1.0 -0.0466958527
C  C136  1  0.93060000  0.31500000  0.80640000  1.0 0.0467684985
C  C137  1  0.90900000  0.33110000  0.84800000  1.0 -0.1775095328
C  C138  1  0.91200000  0.28000000  0.87810000  1.0 -0.0761968945
C  C139  1  0.93660000  0.21000000  0.86990000  1.0 -0.0711817837
C  C140  1  0.95820000  0.19330000  0.82840000  1.0 -0.0711817837
C  C141  1  0.95480000  0.24500000  0.79830000  1.0 -0.1656193871
C  C142  1  0.92370000  0.37300000  0.78000000  1.0 -0.0294106915
C  C143  1  0.97460000  0.42600000  0.77730000  1.0 0.0467684985
C  C144  1  0.97400000  0.47100000  0.74900000  1.0 -0.003674957
C  C145  1  0.94060000  0.15630000  0.89980000  1.0 0.5649320432
C  C146  1  0.02500000  0.43300000  0.80420000  1.0 -0.2944324422
C  C147  1  0.87200000  0.36700000  0.74990000  1.0 0.061115124
C  C148  1  0.82300000  0.31500000  0.75200000  1.0 -0.2539975248
C  C149  1  0.92300000  0.46600000  0.71500000  1.0 0.0467684985
C  C150  1  0.87200000  0.41400000  0.71700000  1.0 -0.0466958527
C  C151  1  0.31500000  0.06940000  0.80640000  1.0 0.0467684985
C  C152  1  0.33110000  0.09100000  0.84800000  1.0 -0.1775095328
C  C153  1  0.28000000  0.08800000  0.87810000  1.0 -0.0761968945
C  C154  1  0.21000000  0.06340000  0.86990000  1.0 -0.0711817837
C  C155  1  0.19330000  0.04180000  0.82840000  1.0 -0.0711817837
C  C156  1  0.24500000  0.04520000  0.79830000  1.0 -0.1656193871
C  C157  1  0.37300000  0.07630000  0.78000000  1.0 -0.0294106915
C  C158  1  0.42600000  0.02540000  0.77730000  1.0 0.0467684985
C  C159  1  0.47100000  0.02600000  0.74900000  1.0 -0.003674957
C  C160  1  0.15630000  0.05940000  0.89980000  1.0 0.5649320432
C  C161  1  0.43300000  0.97500000  0.80420000  1.0 -0.2944324422
C  C162  1  0.36700000  0.12800000  0.74990000  1.0 0.061115124
C  C163  1  0.31500000  0.17700000  0.75200000  1.0 -0.2539975248
C  C164  1  0.46600000  0.07700000  0.71500000  1.0 0.0467684985
C  C165  1  0.41400000  0.12800000  0.71700000  1.0 -0.0466958527
C  C166  1  0.68500000  0.93060000  0.80640000  1.0 0.0467684985
C  C167  1  0.66890000  0.90900000  0.84800000  1.0 -0.1775095328
C  C168  1  0.72000000  0.91200000  0.87810000  1.0 -0.0761968945
C  C169  1  0.79000000  0.93660000  0.86990000  1.0 -0.0711817837
C  C170  1  0.80670000  0.95820000  0.82840000  1.0 -0.0711817837
C  C171  1  0.75500000  0.95480000  0.79830000  1.0 -0.1656193871
C  C172  1  0.62700000  0.92370000  0.78000000  1.0 -0.0294106915
C  C173  1  0.57400000  0.97460000  0.77730000  1.0 0.0467684985
C  C174  1  0.52900000  0.97400000  0.74900000  1.0 -0.003674957
C  C175  1  0.84370000  0.94060000  0.89980000  1.0 0.5649320432
C  C176  1  0.56700000  0.02500000  0.80420000  1.0 -0.2944324422
C  C177  1  0.63300000  0.87200000  0.74990000  1.0 0.061115124
C  C178  1  0.68500000  0.82300000  0.75200000  1.0 -0.255508577
C  C179  1  0.53400000  0.92300000  0.71500000  1.0 0.0467684985
C  C180  1  0.58600000  0.87200000  0.71700000  1.0 -0.0466958527
C  C181  1  0.43060000  0.18500000  0.69360000  1.0 0.0467684985
C  C182  1  0.40900000  0.16890000  0.65200000  1.0 -0.1775095328
C  C183  1  0.41200000  0.22000000  0.62190000  1.0 -0.0761968945
C  C184  1  0.43660000  0.29000000  0.63010000  1.0 -0.0711817837
C  C185  1  0.45820000  0.30670000  0.67160000  1.0 -0.0711817837
C  C186  1  0.45480000  0.25500000  0.70170000  1.0 -0.1656193871
C  C187  1  0.42370000  0.12700000  0.72000000  1.0 -0.0294106915
C  C188  1  0.47460000  0.07400000  0.72270000  1.0 0.0467684985
C  C189  1  0.47400000  0.02900000  0.75100000  1.0 -0.003674957
C  C190  1  0.44060000  0.34370000  0.60020000  1.0 0.5649320432
C  C191  1  0.52500000  0.06700000  0.69580000  1.0 -0.2944324422
C  C192  1  0.37200000  0.13300000  0.75010000  1.0 0.061115124
C  C193  1  0.32300000  0.18500000  0.74800000  1.0 -0.2539975248
C  C194  1  0.42300000  0.03400000  0.78500000  1.0 0.0467684985
C  C195  1  0.37200000  0.08600000  0.78300000  1.0 -0.0466958527
C  C196  1  0.56940000  0.81500000  0.69360000  1.0 0.0467684985
C  C197  1  0.59100000  0.83110000  0.65200000  1.0 -0.1775095328
C  C198  1  0.58800000  0.78000000  0.62190000  1.0 -0.0761968945
C  C199  1  0.56340000  0.71000000  0.63010000  1.0 -0.0711817837
C  C200  1  0.54180000  0.69330000  0.67160000  1.0 -0.0711817837
C  C201  1  0.54520000  0.74500000  0.70170000  1.0 -0.1656193871
C  C202  1  0.57630000  0.87300000  0.72000000  1.0 -0.0294106915
C  C203  1  0.52540000  0.92600000  0.72270000  1.0 0.0467684985
C  C204  1  0.52600000  0.97100000  0.75100000  1.0 -0.003674957
C  C205  1  0.55940000  0.65630000  0.60020000  1.0 0.5649320432
C  C206  1  0.47500000  0.93300000  0.69580000  1.0 -0.2944324422
C  C207  1  0.62800000  0.86700000  0.75010000  1.0 0.061115124
C  C208  1  0.67700000  0.81500000  0.74800000  1.0 -0.255508577
C  C209  1  0.57700000  0.96600000  0.78500000  1.0 0.0467684985
C  C210  1  0.62800000  0.91400000  0.78300000  1.0 -0.0466958527
C  C211  1  0.18500000  0.56940000  0.69360000  1.0 0.0467684985
C  C212  1  0.16890000  0.59100000  0.65200000  1.0 -0.1775095328
C  C213  1  0.22000000  0.58800000  0.62190000  1.0 -0.0761968945
C  C214  1  0.29000000  0.56340000  0.63010000  1.0 -0.0711817837
C  C215  1  0.30670000  0.54180000  0.67160000  1.0 -0.0711817837
C  C216  1  0.25500000  0.54520000  0.70170000  1.0 -0.1656193871
C  C217  1  0.12700000  0.57630000  0.72000000  1.0 -0.0294106915
C  C218  1  0.07400000  0.52540000  0.72270000  1.0 0.0467684985
C  C219  1  0.02900000  0.52600000  0.75100000  1.0 -0.003674957
C  C220  1  0.34370000  0.55940000  0.60020000  1.0 0.5653517195
C  C221  1  0.06700000  0.47500000  0.69580000  1.0 -0.2944324422
C  C222  1  0.13300000  0.62800000  0.75010000  1.0 0.061115124
C  C223  1  0.18500000  0.67700000  0.74800000  1.0 -0.2539975248
C  C224  1  0.03400000  0.57700000  0.78500000  1.0 0.0467684985
C  C225  1  0.08600000  0.62800000  0.78300000  1.0 -0.0466958527
C  C226  1  0.81500000  0.43060000  0.69360000  1.0 0.0467684985
C  C227  1  0.83110000  0.40900000  0.65200000  1.0 -0.1775095328
C  C228  1  0.78000000  0.41200000  0.62190000  1.0 -0.0761968945
C  C229  1  0.71000000  0.43660000  0.63010000  1.0 -0.0711817837
C  C230  1  0.69330000  0.45820000  0.67160000  1.0 -0.0711817837
C  C231  1  0.74500000  0.45480000  0.70170000  1.0 -0.1656193871
C  C232  1  0.87300000  0.42370000  0.72000000  1.0 -0.0294106915
C  C233  1  0.92600000  0.47460000  0.72270000  1.0 0.0467684985
C  C234  1  0.97100000  0.47400000  0.75100000  1.0 -0.003674957
C  C235  1  0.65630000  0.44060000  0.60020000  1.0 0.5653517195
C  C236  1  0.93300000  0.52500000  0.69580000  1.0 -0.2944324422
C  C237  1  0.86700000  0.37200000  0.75010000  1.0 0.061115124
C  C238  1  0.81500000  0.32300000  0.74800000  1.0 -0.2539975248
C  C239  1  0.96600000  0.42300000  0.78500000  1.0 0.0467684985
C  C240  1  0.91400000  0.37200000  0.78300000  1.0 -0.0466958527
O  O1  1  0.97300000  0.09090000  0.10810000  1.0 -0.501802241
O  O2  1  0.92000000  0.03200000  0.03730000  1.0 -0.6783490419
O  O3  1  0.93400000  0.17000000  0.05820000  1.0 -0.577269075
O  O4  1  0.02700000  0.90910000  0.10810000  1.0 -0.501802241
O  O5  1  0.08000000  0.96800000  0.03730000  1.0 -0.6783490419
O  O6  1  0.06600000  0.83000000  0.05820000  1.0 -0.577269075
O  O7  1  0.90910000  0.97300000  0.10810000  1.0 -0.501802241
O  O8  1  0.96800000  0.92000000  0.03730000  1.0 -0.6783490419
O  O9  1  0.83000000  0.93400000  0.05820000  1.0 -0.577269075
O  O10  1  0.09090000  0.02700000  0.10810000  1.0 -0.501802241
O  O11  1  0.03200000  0.08000000  0.03730000  1.0 -0.6783490419
O  O12  1  0.17000000  0.06600000  0.05820000  1.0 -0.577269075
O  O13  1  0.52700000  0.59090000  0.39190000  1.0 -0.501802241
O  O14  1  0.58000000  0.53200000  0.46270000  1.0 -0.6783490419
O  O15  1  0.56600000  0.67000000  0.44180000  1.0 -0.577269075
O  O16  1  0.47300000  0.40910000  0.39190000  1.0 -0.501802241
O  O17  1  0.42000000  0.46800000  0.46270000  1.0 -0.6783490419
O  O18  1  0.43400000  0.33000000  0.44180000  1.0 -0.577269075
O  O19  1  0.59090000  0.47300000  0.39190000  1.0 -0.501802241
O  O20  1  0.53200000  0.42000000  0.46270000  1.0 -0.6783490419
O  O21  1  0.67000000  0.43400000  0.44180000  1.0 -0.577269075
O  O22  1  0.40910000  0.52700000  0.39190000  1.0 -0.501802241
O  O23  1  0.46800000  0.58000000  0.46270000  1.0 -0.6783490419
O  O24  1  0.33000000  0.56600000  0.44180000  1.0 -0.577269075
O  O25  1  0.02700000  0.90910000  0.89190000  1.0 -0.501802241
O  O26  1  0.08000000  0.96800000  0.96270000  1.0 -0.6783490419
O  O27  1  0.06600000  0.83000000  0.94180000  1.0 -0.577269075
O  O28  1  0.97300000  0.09090000  0.89190000  1.0 -0.501802241
O  O29  1  0.92000000  0.03200000  0.96270000  1.0 -0.6783490419
O  O30  1  0.93400000  0.17000000  0.94180000  1.0 -0.577269075
O  O31  1  0.09090000  0.02700000  0.89190000  1.0 -0.501802241
O  O32  1  0.03200000  0.08000000  0.96270000  1.0 -0.6783490419
O  O33  1  0.17000000  0.06600000  0.94180000  1.0 -0.577269075
O  O34  1  0.90910000  0.97300000  0.89190000  1.0 -0.501802241
O  O35  1  0.96800000  0.92000000  0.96270000  1.0 -0.6783490419
O  O36  1  0.83000000  0.93400000  0.94180000  1.0 -0.577269075
O  O37  1  0.47300000  0.40910000  0.60810000  1.0 -0.501802241
O  O38  1  0.42000000  0.46800000  0.53730000  1.0 -0.6783490419
O  O39  1  0.43400000  0.33000000  0.55820000  1.0 -0.577269075
O  O40  1  0.52700000  0.59090000  0.60810000  1.0 -0.501802241
O  O41  1  0.58000000  0.53200000  0.53730000  1.0 -0.6783490419
O  O42  1  0.56600000  0.67000000  0.55820000  1.0 -0.577269075
O  O43  1  0.40910000  0.52700000  0.60810000  1.0 -0.501802241
O  O44  1  0.46800000  0.58000000  0.53730000  1.0 -0.6783490419
O  O45  1  0.33000000  0.56600000  0.55820000  1.0 -0.577269075
O  O46  1  0.59090000  0.47300000  0.60810000  1.0 -0.501802241
O  O47  1  0.53200000  0.42000000  0.53730000  1.0 -0.6783490419
O  O48  1  0.67000000  0.43400000  0.55820000  1.0 -0.577269075
