# DDEC6 charges by PACMAN v1.1 (https://github.com/mtap-research/PACMAN-charge/)
data_NEVTIU04_ASR_pacman
_symmetry_space_group_name_H-M   'P 1'
_cell_length_a   19.16310000
_cell_length_b   19.16310000
_cell_length_c   32.54700000
_cell_angle_alpha   90.00000000
_cell_angle_beta   90.00000000
_cell_angle_gamma   90.00000000
_symmetry_Int_Tables_number   1
_chemical_formula_structural   Hf3H40(C5O)12
_chemical_formula_sum   'Hf12 H160 C240 O48'
_cell_volume   11952.05259920
_cell_formula_units_Z   4
loop_
 _symmetry_equiv_pos_site_id
 _symmetry_equiv_pos_as_xyz
  1  'x, y, z'
loop_
 _atom_site_type_symbol
 _atom_site_label
 _atom_site_symmetry_multiplicity
 _atom_site_fract_x
 _atom_site_fract_y
 _atom_site_fract_z
 _atom_site_occupancy
 _atom_site_charge
Hf  Hf1  1  0.95780000  0.12260000  0.00000000  1.0 1.5222705522
Hf  Hf2  1  0.04220000  0.87740000  0.00000000  1.0 1.5222705522
Hf  Hf3  1  0.87740000  0.95780000  0.00000000  1.0 1.5222705522
Hf  Hf4  1  0.12260000  0.04220000  0.00000000  1.0 1.5290348052
Hf  Hf5  1  0.54220000  0.62260000  0.50000000  1.0 1.5131888806
Hf  Hf6  1  0.45780000  0.37740000  0.50000000  1.0 1.5131888806
Hf  Hf7  1  0.62260000  0.45780000  0.50000000  1.0 1.5131888806
Hf  Hf8  1  0.37740000  0.54220000  0.50000000  1.0 1.5131888806
Hf  Hf9  1  0.00000000  0.00000000  0.07477000  1.0 1.5429692983
Hf  Hf10  1  0.50000000  0.50000000  0.42523000  1.0 1.5429692983
Hf  Hf11  1  0.00000000  0.00000000  0.92523000  1.0 1.5429692983
Hf  Hf12  1  0.50000000  0.50000000  0.57477000  1.0 1.5429692983
H  H1  1  0.89550000  0.36950000  0.14350000  1.0 0.120886252
H  H2  1  0.90270000  0.28190000  0.09470000  1.0 0.120886252
H  H3  1  0.97640000  0.14910000  0.18040000  1.0 0.120886252
H  H4  1  0.96930000  0.23670000  0.22920000  1.0 0.1081349223
H  H5  1  0.07550000  0.40590000  0.21470000  1.0 0.1011869725
H  H6  1  0.04470000  0.46620000  0.18770000  1.0 0.1011869725
H  H7  1  0.03280000  0.38820000  0.17500000  1.0 0.126169671
H  H8  1  0.77350000  0.34380000  0.22530000  1.0 0.0774076499
H  H9  1  0.79430000  0.31840000  0.26940000  1.0 0.0774076499
H  H10  1  0.82850000  0.28390000  0.23070000  1.0 0.1011869725
H  H11  1  0.10450000  0.63050000  0.14350000  1.0 0.120886252
H  H12  1  0.09730000  0.71810000  0.09470000  1.0 0.120886252
H  H13  1  0.02360000  0.85090000  0.18040000  1.0 0.120886252
H  H14  1  0.03070000  0.76330000  0.22920000  1.0 0.1081349223
H  H15  1  0.92450000  0.59410000  0.21470000  1.0 0.1011869725
H  H16  1  0.95530000  0.53380000  0.18770000  1.0 0.1011869725
H  H17  1  0.96720000  0.61180000  0.17500000  1.0 0.126169671
H  H18  1  0.22650000  0.65620000  0.22530000  1.0 0.0774076499
H  H19  1  0.20570000  0.68160000  0.26940000  1.0 0.0774076499
H  H20  1  0.17150000  0.71610000  0.23070000  1.0 0.1011869725
H  H21  1  0.63050000  0.89550000  0.14350000  1.0 0.120886252
H  H22  1  0.71810000  0.90270000  0.09470000  1.0 0.120886252
H  H23  1  0.85090000  0.97640000  0.18040000  1.0 0.120886252
H  H24  1  0.76330000  0.96930000  0.22920000  1.0 0.1081349223
H  H25  1  0.59410000  0.07550000  0.21470000  1.0 0.1011869725
H  H26  1  0.53380000  0.04470000  0.18770000  1.0 0.1011869725
H  H27  1  0.61180000  0.03280000  0.17500000  1.0 0.126169671
H  H28  1  0.65620000  0.77350000  0.22530000  1.0 0.0774076499
H  H29  1  0.68160000  0.79430000  0.26940000  1.0 0.0774076499
H  H30  1  0.71610000  0.82850000  0.23070000  1.0 0.1011869725
H  H31  1  0.36950000  0.10450000  0.14350000  1.0 0.120886252
H  H32  1  0.28190000  0.09730000  0.09470000  1.0 0.120886252
H  H33  1  0.14910000  0.02360000  0.18040000  1.0 0.120886252
H  H34  1  0.23670000  0.03070000  0.22920000  1.0 0.1081349223
H  H35  1  0.40590000  0.92450000  0.21470000  1.0 0.1011869725
H  H36  1  0.46620000  0.95530000  0.18770000  1.0 0.1011869725
H  H37  1  0.38820000  0.96720000  0.17500000  1.0 0.126169671
H  H38  1  0.34380000  0.22650000  0.22530000  1.0 0.0774076499
H  H39  1  0.31840000  0.20570000  0.26940000  1.0 0.0774076499
H  H40  1  0.28390000  0.17150000  0.23070000  1.0 0.1011869725
H  H41  1  0.60450000  0.86950000  0.35650000  1.0 0.120886252
H  H42  1  0.59730000  0.78190000  0.40530000  1.0 0.120886252
H  H43  1  0.52360000  0.64910000  0.31960000  1.0 0.120886252
H  H44  1  0.53070000  0.73670000  0.27080000  1.0 0.1081349223
H  H45  1  0.42450000  0.90590000  0.28530000  1.0 0.1011869725
H  H46  1  0.45530000  0.96620000  0.31230000  1.0 0.1011869725
H  H47  1  0.46720000  0.88820000  0.32500000  1.0 0.126169671
H  H48  1  0.72650000  0.84380000  0.27470000  1.0 0.0774076499
H  H49  1  0.70570000  0.81840000  0.23060000  1.0 0.0774076499
H  H50  1  0.67150000  0.78390000  0.26930000  1.0 0.1011869725
H  H51  1  0.39550000  0.13050000  0.35650000  1.0 0.120886252
H  H52  1  0.40270000  0.21810000  0.40530000  1.0 0.120886252
H  H53  1  0.47640000  0.35090000  0.31960000  1.0 0.120886252
H  H54  1  0.46930000  0.26330000  0.27080000  1.0 0.1081349223
H  H55  1  0.57550000  0.09410000  0.28530000  1.0 0.1011869725
H  H56  1  0.54470000  0.03380000  0.31230000  1.0 0.1011869725
H  H57  1  0.53280000  0.11180000  0.32500000  1.0 0.126169671
H  H58  1  0.27350000  0.15620000  0.27470000  1.0 0.0774076499
H  H59  1  0.29430000  0.18160000  0.23060000  1.0 0.0774076499
H  H60  1  0.32850000  0.21610000  0.26930000  1.0 0.1011869725
H  H61  1  0.86950000  0.39550000  0.35650000  1.0 0.120886252
H  H62  1  0.78190000  0.40270000  0.40530000  1.0 0.120886252
H  H63  1  0.64910000  0.47640000  0.31960000  1.0 0.120886252
H  H64  1  0.73670000  0.46930000  0.27080000  1.0 0.1081349223
H  H65  1  0.90590000  0.57550000  0.28530000  1.0 0.1011869725
H  H66  1  0.96620000  0.54470000  0.31230000  1.0 0.1011869725
H  H67  1  0.88820000  0.53280000  0.32500000  1.0 0.126169671
H  H68  1  0.84380000  0.27350000  0.27470000  1.0 0.0774076499
H  H69  1  0.81840000  0.29430000  0.23060000  1.0 0.0774076499
H  H70  1  0.78390000  0.32850000  0.26930000  1.0 0.1011869725
H  H71  1  0.13050000  0.60450000  0.35650000  1.0 0.120886252
H  H72  1  0.21810000  0.59730000  0.40530000  1.0 0.120886252
H  H73  1  0.35090000  0.52360000  0.31960000  1.0 0.120886252
H  H74  1  0.26330000  0.53070000  0.27080000  1.0 0.1081349223
H  H75  1  0.09410000  0.42450000  0.28530000  1.0 0.1011869725
H  H76  1  0.03380000  0.45530000  0.31230000  1.0 0.1011869725
H  H77  1  0.11180000  0.46720000  0.32500000  1.0 0.126169671
H  H78  1  0.15620000  0.72650000  0.27470000  1.0 0.0774076499
H  H79  1  0.18160000  0.70570000  0.23060000  1.0 0.0774076499
H  H80  1  0.21610000  0.67150000  0.26930000  1.0 0.1011869725
H  H81  1  0.10450000  0.63050000  0.85650000  1.0 0.120886252
H  H82  1  0.09730000  0.71810000  0.90530000  1.0 0.120886252
H  H83  1  0.02360000  0.85090000  0.81960000  1.0 0.120886252
H  H84  1  0.03070000  0.76330000  0.77080000  1.0 0.1081349223
H  H85  1  0.92450000  0.59410000  0.78530000  1.0 0.1011869725
H  H86  1  0.95530000  0.53380000  0.81230000  1.0 0.1011869725
H  H87  1  0.96720000  0.61180000  0.82500000  1.0 0.126169671
H  H88  1  0.22650000  0.65620000  0.77470000  1.0 0.0774076499
H  H89  1  0.20570000  0.68160000  0.73060000  1.0 0.0774076499
H  H90  1  0.17150000  0.71610000  0.76930000  1.0 0.1011869725
H  H91  1  0.89550000  0.36950000  0.85650000  1.0 0.120886252
H  H92  1  0.90270000  0.28190000  0.90530000  1.0 0.120886252
H  H93  1  0.97640000  0.14910000  0.81960000  1.0 0.120886252
H  H94  1  0.96930000  0.23670000  0.77080000  1.0 0.1081349223
H  H95  1  0.07550000  0.40590000  0.78530000  1.0 0.1011869725
H  H96  1  0.04470000  0.46620000  0.81230000  1.0 0.1011869725
H  H97  1  0.03280000  0.38820000  0.82500000  1.0 0.126169671
H  H98  1  0.77350000  0.34380000  0.77470000  1.0 0.0774076499
H  H99  1  0.79430000  0.31840000  0.73060000  1.0 0.0774076499
H  H100  1  0.82850000  0.28390000  0.76930000  1.0 0.1011869725
H  H101  1  0.36950000  0.10450000  0.85650000  1.0 0.120886252
H  H102  1  0.28190000  0.09730000  0.90530000  1.0 0.120886252
H  H103  1  0.14910000  0.02360000  0.81960000  1.0 0.120886252
H  H104  1  0.23670000  0.03070000  0.77080000  1.0 0.1081349223
H  H105  1  0.40590000  0.92450000  0.78530000  1.0 0.1011869725
H  H106  1  0.46620000  0.95530000  0.81230000  1.0 0.1011869725
H  H107  1  0.38820000  0.96720000  0.82500000  1.0 0.126169671
H  H108  1  0.34380000  0.22650000  0.77470000  1.0 0.0774076499
H  H109  1  0.31840000  0.20570000  0.73060000  1.0 0.0774076499
H  H110  1  0.28390000  0.17150000  0.76930000  1.0 0.1011869725
H  H111  1  0.63050000  0.89550000  0.85650000  1.0 0.120886252
H  H112  1  0.71810000  0.90270000  0.90530000  1.0 0.120886252
H  H113  1  0.85090000  0.97640000  0.81960000  1.0 0.120886252
H  H114  1  0.76330000  0.96930000  0.77080000  1.0 0.1081349223
H  H115  1  0.59410000  0.07550000  0.78530000  1.0 0.1011869725
H  H116  1  0.53380000  0.04470000  0.81230000  1.0 0.1011869725
H  H117  1  0.61180000  0.03280000  0.82500000  1.0 0.126169671
H  H118  1  0.65620000  0.77350000  0.77470000  1.0 0.0774076499
H  H119  1  0.68160000  0.79430000  0.73060000  1.0 0.0774076499
H  H120  1  0.71610000  0.82850000  0.76930000  1.0 0.1011869725
H  H121  1  0.39550000  0.13050000  0.64350000  1.0 0.120886252
H  H122  1  0.40270000  0.21810000  0.59470000  1.0 0.120886252
H  H123  1  0.47640000  0.35090000  0.68040000  1.0 0.120886252
H  H124  1  0.46930000  0.26330000  0.72920000  1.0 0.1081349223
H  H125  1  0.57550000  0.09410000  0.71470000  1.0 0.1011869725
H  H126  1  0.54470000  0.03380000  0.68770000  1.0 0.1011869725
H  H127  1  0.53280000  0.11180000  0.67500000  1.0 0.126169671
H  H128  1  0.27350000  0.15620000  0.72530000  1.0 0.0774076499
H  H129  1  0.29430000  0.18160000  0.76940000  1.0 0.0774076499
H  H130  1  0.32850000  0.21610000  0.73070000  1.0 0.1011869725
H  H131  1  0.60450000  0.86950000  0.64350000  1.0 0.120886252
H  H132  1  0.59730000  0.78190000  0.59470000  1.0 0.120886252
H  H133  1  0.52360000  0.64910000  0.68040000  1.0 0.120886252
H  H134  1  0.53070000  0.73670000  0.72920000  1.0 0.1081349223
H  H135  1  0.42450000  0.90590000  0.71470000  1.0 0.1011869725
H  H136  1  0.45530000  0.96620000  0.68770000  1.0 0.1011869725
H  H137  1  0.46720000  0.88820000  0.67500000  1.0 0.126169671
H  H138  1  0.72650000  0.84380000  0.72530000  1.0 0.0774076499
H  H139  1  0.70570000  0.81840000  0.76940000  1.0 0.0774076499
H  H140  1  0.67150000  0.78390000  0.73070000  1.0 0.1011869725
H  H141  1  0.13050000  0.60450000  0.64350000  1.0 0.120886252
H  H142  1  0.21810000  0.59730000  0.59470000  1.0 0.120886252
H  H143  1  0.35090000  0.52360000  0.68040000  1.0 0.120886252
H  H144  1  0.26330000  0.53070000  0.72920000  1.0 0.1081349223
H  H145  1  0.09410000  0.42450000  0.71470000  1.0 0.1011869725
H  H146  1  0.03380000  0.45530000  0.68770000  1.0 0.1011869725
H  H147  1  0.11180000  0.46720000  0.67500000  1.0 0.126169671
H  H148  1  0.15620000  0.72650000  0.72530000  1.0 0.0774076499
H  H149  1  0.18160000  0.70570000  0.76940000  1.0 0.0774076499
H  H150  1  0.21610000  0.67150000  0.73070000  1.0 0.1011869725
H  H151  1  0.86950000  0.39550000  0.64350000  1.0 0.120886252
H  H152  1  0.78190000  0.40270000  0.59470000  1.0 0.120886252
H  H153  1  0.64910000  0.47640000  0.68040000  1.0 0.120886252
H  H154  1  0.73670000  0.46930000  0.72920000  1.0 0.1081349223
H  H155  1  0.90590000  0.57550000  0.71470000  1.0 0.1011869725
H  H156  1  0.96620000  0.54470000  0.68770000  1.0 0.1011869725
H  H157  1  0.88820000  0.53280000  0.67500000  1.0 0.126169671
H  H158  1  0.84380000  0.27350000  0.72530000  1.0 0.0774076499
H  H159  1  0.81840000  0.29430000  0.76940000  1.0 0.0774076499
H  H160  1  0.78390000  0.32850000  0.73070000  1.0 0.1011869725
C  C1  1  0.93190000  0.31200000  0.19180000  1.0 0.0617886581
C  C2  1  0.91170000  0.32550000  0.15090000  1.0 -0.2163548389
C  C3  1  0.91600000  0.27300000  0.12160000  1.0 -0.0809791435
C  C4  1  0.94010000  0.20700000  0.13220000  1.0 -0.0809791435
C  C5  1  0.96030000  0.19310000  0.17300000  1.0 -0.0716072552
C  C6  1  0.95590000  0.24600000  0.20230000  1.0 -0.206594202
C  C7  1  0.92590000  0.36830000  0.21950000  1.0 0.0068043008
C  C8  1  0.97840000  0.41840000  0.21980000  1.0 0.0509558543
C  C9  1  0.97100000  0.47300000  0.24800000  1.0 -0.0127540068
C  C10  1  0.94280000  0.15610000  0.10070000  1.0 0.5623601942
C  C11  1  0.03700000  0.42000000  0.19770000  1.0 -0.315543541
C  C12  1  0.86630000  0.37800000  0.24320000  1.0 0.0509558543
C  C13  1  0.81100000  0.32700000  0.24210000  1.0 -0.1697979358
C  C14  1  0.91200000  0.48800000  0.26700000  1.0 0.0509558543
C  C15  1  0.85900000  0.43700000  0.26700000  1.0 -0.001827634
C  C16  1  0.06810000  0.68800000  0.19180000  1.0 0.0617886581
C  C17  1  0.08830000  0.67450000  0.15090000  1.0 -0.2163548389
C  C18  1  0.08400000  0.72700000  0.12160000  1.0 -0.0809791435
C  C19  1  0.05990000  0.79300000  0.13220000  1.0 -0.0809791435
C  C20  1  0.03970000  0.80690000  0.17300000  1.0 -0.0716072552
C  C21  1  0.04410000  0.75400000  0.20230000  1.0 -0.206594202
C  C22  1  0.07410000  0.63170000  0.21950000  1.0 0.0068043008
C  C23  1  0.02160000  0.58160000  0.21980000  1.0 0.0509558543
C  C24  1  0.02900000  0.52700000  0.24800000  1.0 -0.0127540068
C  C25  1  0.05720000  0.84390000  0.10070000  1.0 0.5623601942
C  C26  1  0.96300000  0.58000000  0.19770000  1.0 -0.315543541
C  C27  1  0.13370000  0.62200000  0.24320000  1.0 0.0509558543
C  C28  1  0.18900000  0.67300000  0.24210000  1.0 -0.1697979358
C  C29  1  0.08800000  0.51200000  0.26700000  1.0 0.0509558543
C  C30  1  0.14100000  0.56300000  0.26700000  1.0 -0.001827634
C  C31  1  0.68800000  0.93190000  0.19180000  1.0 0.0617886581
C  C32  1  0.67450000  0.91170000  0.15090000  1.0 -0.2163548389
C  C33  1  0.72700000  0.91600000  0.12160000  1.0 -0.0809791435
C  C34  1  0.79300000  0.94010000  0.13220000  1.0 -0.0809791435
C  C35  1  0.80690000  0.96030000  0.17300000  1.0 -0.0716072552
C  C36  1  0.75400000  0.95590000  0.20230000  1.0 -0.206594202
C  C37  1  0.63170000  0.92590000  0.21950000  1.0 0.0068043008
C  C38  1  0.58160000  0.97840000  0.21980000  1.0 0.0509558543
C  C39  1  0.52700000  0.97100000  0.24800000  1.0 -0.0127540068
C  C40  1  0.84390000  0.94280000  0.10070000  1.0 0.5623601942
C  C41  1  0.58000000  0.03700000  0.19770000  1.0 -0.315543541
C  C42  1  0.62200000  0.86630000  0.24320000  1.0 0.0509558543
C  C43  1  0.67300000  0.81100000  0.24210000  1.0 -0.1697979358
C  C44  1  0.51200000  0.91200000  0.26700000  1.0 0.0509558543
C  C45  1  0.56300000  0.85900000  0.26700000  1.0 -0.001827634
C  C46  1  0.31200000  0.06810000  0.19180000  1.0 0.0617886581
C  C47  1  0.32550000  0.08830000  0.15090000  1.0 -0.2163548389
C  C48  1  0.27300000  0.08400000  0.12160000  1.0 -0.0809791435
C  C49  1  0.20700000  0.05990000  0.13220000  1.0 -0.0809791435
C  C50  1  0.19310000  0.03970000  0.17300000  1.0 -0.0716072552
C  C51  1  0.24600000  0.04410000  0.20230000  1.0 -0.206594202
C  C52  1  0.36830000  0.07410000  0.21950000  1.0 0.0068043008
C  C53  1  0.41840000  0.02160000  0.21980000  1.0 0.0509558543
C  C54  1  0.47300000  0.02900000  0.24800000  1.0 -0.0127540068
C  C55  1  0.15610000  0.05720000  0.10070000  1.0 0.5623601942
C  C56  1  0.42000000  0.96300000  0.19770000  1.0 -0.315543541
C  C57  1  0.37800000  0.13370000  0.24320000  1.0 0.0509558543
C  C58  1  0.32700000  0.18900000  0.24210000  1.0 -0.1697979358
C  C59  1  0.48800000  0.08800000  0.26700000  1.0 0.0509558543
C  C60  1  0.43700000  0.14100000  0.26700000  1.0 -0.001827634
C  C61  1  0.56810000  0.81200000  0.30820000  1.0 0.0617886581
C  C62  1  0.58830000  0.82550000  0.34910000  1.0 -0.2163548389
C  C63  1  0.58400000  0.77300000  0.37840000  1.0 -0.0809791435
C  C64  1  0.55990000  0.70700000  0.36780000  1.0 -0.0809791435
C  C65  1  0.53970000  0.69310000  0.32700000  1.0 -0.0716072552
C  C66  1  0.54410000  0.74600000  0.29770000  1.0 -0.206594202
C  C67  1  0.57410000  0.86830000  0.28050000  1.0 0.0068043008
C  C68  1  0.52160000  0.91840000  0.28020000  1.0 0.0509558543
C  C69  1  0.52900000  0.97300000  0.25200000  1.0 -0.0127540068
C  C70  1  0.55720000  0.65610000  0.39930000  1.0 0.5623601942
C  C71  1  0.46300000  0.92000000  0.30230000  1.0 -0.315543541
C  C72  1  0.63370000  0.87800000  0.25680000  1.0 0.0509558543
C  C73  1  0.68900000  0.82700000  0.25790000  1.0 -0.1697979358
C  C74  1  0.58800000  0.98800000  0.23300000  1.0 0.0509558543
C  C75  1  0.64100000  0.93700000  0.23300000  1.0 -0.001827634
C  C76  1  0.43190000  0.18800000  0.30820000  1.0 0.0617886581
C  C77  1  0.41170000  0.17450000  0.34910000  1.0 -0.2163548389
C  C78  1  0.41600000  0.22700000  0.37840000  1.0 -0.0809791435
C  C79  1  0.44010000  0.29300000  0.36780000  1.0 -0.0809791435
C  C80  1  0.46030000  0.30690000  0.32700000  1.0 -0.0716072552
C  C81  1  0.45590000  0.25400000  0.29770000  1.0 -0.206594202
C  C82  1  0.42590000  0.13170000  0.28050000  1.0 0.0068043008
C  C83  1  0.47840000  0.08160000  0.28020000  1.0 0.0509558543
C  C84  1  0.47100000  0.02700000  0.25200000  1.0 -0.0127540068
C  C85  1  0.44280000  0.34390000  0.39930000  1.0 0.5623601942
C  C86  1  0.53700000  0.08000000  0.30230000  1.0 -0.315543541
C  C87  1  0.36630000  0.12200000  0.25680000  1.0 0.0509558543
C  C88  1  0.31100000  0.17300000  0.25790000  1.0 -0.1697979358
C  C89  1  0.41200000  0.01200000  0.23300000  1.0 0.0509558543
C  C90  1  0.35900000  0.06300000  0.23300000  1.0 -0.001827634
C  C91  1  0.81200000  0.43190000  0.30820000  1.0 0.0617886581
C  C92  1  0.82550000  0.41170000  0.34910000  1.0 -0.2163548389
C  C93  1  0.77300000  0.41600000  0.37840000  1.0 -0.0809791435
C  C94  1  0.70700000  0.44010000  0.36780000  1.0 -0.0809791435
C  C95  1  0.69310000  0.46030000  0.32700000  1.0 -0.0716072552
C  C96  1  0.74600000  0.45590000  0.29770000  1.0 -0.206594202
C  C97  1  0.86830000  0.42590000  0.28050000  1.0 0.0068043008
C  C98  1  0.91840000  0.47840000  0.28020000  1.0 0.0509558543
C  C99  1  0.97300000  0.47100000  0.25200000  1.0 -0.0127540068
C  C100  1  0.65610000  0.44280000  0.39930000  1.0 0.5623601942
C  C101  1  0.92000000  0.53700000  0.30230000  1.0 -0.315543541
C  C102  1  0.87800000  0.36630000  0.25680000  1.0 0.0509558543
C  C103  1  0.82700000  0.31100000  0.25790000  1.0 -0.1697979358
C  C104  1  0.98800000  0.41200000  0.23300000  1.0 0.0509558543
C  C105  1  0.93700000  0.35900000  0.23300000  1.0 -0.001827634
C  C106  1  0.18800000  0.56810000  0.30820000  1.0 0.0617886581
C  C107  1  0.17450000  0.58830000  0.34910000  1.0 -0.2163548389
C  C108  1  0.22700000  0.58400000  0.37840000  1.0 -0.0809791435
C  C109  1  0.29300000  0.55990000  0.36780000  1.0 -0.0809791435
C  C110  1  0.30690000  0.53970000  0.32700000  1.0 -0.0716072552
C  C111  1  0.25400000  0.54410000  0.29770000  1.0 -0.206594202
C  C112  1  0.13170000  0.57410000  0.28050000  1.0 0.0068043008
C  C113  1  0.08160000  0.52160000  0.28020000  1.0 0.0509558543
C  C114  1  0.02700000  0.52900000  0.25200000  1.0 -0.0127540068
C  C115  1  0.34390000  0.55720000  0.39930000  1.0 0.5623601942
C  C116  1  0.08000000  0.46300000  0.30230000  1.0 -0.315543541
C  C117  1  0.12200000  0.63370000  0.25680000  1.0 0.0509558543
C  C118  1  0.17300000  0.68900000  0.25790000  1.0 -0.1697979358
C  C119  1  0.01200000  0.58800000  0.23300000  1.0 0.0509558543
C  C120  1  0.06300000  0.64100000  0.23300000  1.0 -0.001827634
C  C121  1  0.06810000  0.68800000  0.80820000  1.0 0.0617886581
C  C122  1  0.08830000  0.67450000  0.84910000  1.0 -0.2163548389
C  C123  1  0.08400000  0.72700000  0.87840000  1.0 -0.0809791435
C  C124  1  0.05990000  0.79300000  0.86780000  1.0 -0.0809791435
C  C125  1  0.03970000  0.80690000  0.82700000  1.0 -0.0716072552
C  C126  1  0.04410000  0.75400000  0.79770000  1.0 -0.206594202
C  C127  1  0.07410000  0.63170000  0.78050000  1.0 0.0068043008
C  C128  1  0.02160000  0.58160000  0.78020000  1.0 0.0509558543
C  C129  1  0.02900000  0.52700000  0.75200000  1.0 -0.0127540068
C  C130  1  0.05720000  0.84390000  0.89930000  1.0 0.5623601942
C  C131  1  0.96300000  0.58000000  0.80230000  1.0 -0.315543541
C  C132  1  0.13370000  0.62200000  0.75680000  1.0 0.0509558543
C  C133  1  0.18900000  0.67300000  0.75790000  1.0 -0.1697979358
C  C134  1  0.08800000  0.51200000  0.73300000  1.0 0.0509558543
C  C135  1  0.14100000  0.56300000  0.73300000  1.0 -0.001827634
C  C136  1  0.93190000  0.31200000  0.80820000  1.0 0.0617886581
C  C137  1  0.91170000  0.32550000  0.84910000  1.0 -0.2163548389
C  C138  1  0.91600000  0.27300000  0.87840000  1.0 -0.0809791435
C  C139  1  0.94010000  0.20700000  0.86780000  1.0 -0.0809791435
C  C140  1  0.96030000  0.19310000  0.82700000  1.0 -0.0716072552
C  C141  1  0.95590000  0.24600000  0.79770000  1.0 -0.204953003
C  C142  1  0.92590000  0.36830000  0.78050000  1.0 0.0068043008
C  C143  1  0.97840000  0.41840000  0.78020000  1.0 0.0509558543
C  C144  1  0.97100000  0.47300000  0.75200000  1.0 -0.0127540068
C  C145  1  0.94280000  0.15610000  0.89930000  1.0 0.5623601942
C  C146  1  0.03700000  0.42000000  0.80230000  1.0 -0.315543541
C  C147  1  0.86630000  0.37800000  0.75680000  1.0 0.0509558543
C  C148  1  0.81100000  0.32700000  0.75790000  1.0 -0.1697979358
C  C149  1  0.91200000  0.48800000  0.73300000  1.0 0.0509558543
C  C150  1  0.85900000  0.43700000  0.73300000  1.0 -0.001827634
C  C151  1  0.31200000  0.06810000  0.80820000  1.0 0.0617886581
C  C152  1  0.32550000  0.08830000  0.84910000  1.0 -0.2163548389
C  C153  1  0.27300000  0.08400000  0.87840000  1.0 -0.0809791435
C  C154  1  0.20700000  0.05990000  0.86780000  1.0 -0.0809791435
C  C155  1  0.19310000  0.03970000  0.82700000  1.0 -0.0716072552
C  C156  1  0.24600000  0.04410000  0.79770000  1.0 -0.204953003
C  C157  1  0.36830000  0.07410000  0.78050000  1.0 0.0068043008
C  C158  1  0.41840000  0.02160000  0.78020000  1.0 0.0509558543
C  C159  1  0.47300000  0.02900000  0.75200000  1.0 -0.0127540068
C  C160  1  0.15610000  0.05720000  0.89930000  1.0 0.5623601942
C  C161  1  0.42000000  0.96300000  0.80230000  1.0 -0.315543541
C  C162  1  0.37800000  0.13370000  0.75680000  1.0 0.0509558543
C  C163  1  0.32700000  0.18900000  0.75790000  1.0 -0.1697979358
C  C164  1  0.48800000  0.08800000  0.73300000  1.0 0.0509558543
C  C165  1  0.43700000  0.14100000  0.73300000  1.0 -0.001827634
C  C166  1  0.68800000  0.93190000  0.80820000  1.0 0.0617886581
C  C167  1  0.67450000  0.91170000  0.84910000  1.0 -0.2163548389
C  C168  1  0.72700000  0.91600000  0.87840000  1.0 -0.0809791435
C  C169  1  0.79300000  0.94010000  0.86780000  1.0 -0.0809791435
C  C170  1  0.80690000  0.96030000  0.82700000  1.0 -0.0716072552
C  C171  1  0.75400000  0.95590000  0.79770000  1.0 -0.206594202
C  C172  1  0.63170000  0.92590000  0.78050000  1.0 0.0068043008
C  C173  1  0.58160000  0.97840000  0.78020000  1.0 0.0509558543
C  C174  1  0.52700000  0.97100000  0.75200000  1.0 -0.0127540068
C  C175  1  0.84390000  0.94280000  0.89930000  1.0 0.5623601942
C  C176  1  0.58000000  0.03700000  0.80230000  1.0 -0.315543541
C  C177  1  0.62200000  0.86630000  0.75680000  1.0 0.0509558543
C  C178  1  0.67300000  0.81100000  0.75790000  1.0 -0.1697979358
C  C179  1  0.51200000  0.91200000  0.73300000  1.0 0.0509558543
C  C180  1  0.56300000  0.85900000  0.73300000  1.0 -0.001827634
C  C181  1  0.43190000  0.18800000  0.69180000  1.0 0.0617886581
C  C182  1  0.41170000  0.17450000  0.65090000  1.0 -0.2163548389
C  C183  1  0.41600000  0.22700000  0.62160000  1.0 -0.0809791435
C  C184  1  0.44010000  0.29300000  0.63220000  1.0 -0.0809791435
C  C185  1  0.46030000  0.30690000  0.67300000  1.0 -0.0716072552
C  C186  1  0.45590000  0.25400000  0.70230000  1.0 -0.206594202
C  C187  1  0.42590000  0.13170000  0.71950000  1.0 0.0068043008
C  C188  1  0.47840000  0.08160000  0.71980000  1.0 0.0509558543
C  C189  1  0.47100000  0.02700000  0.74800000  1.0 -0.0127540068
C  C190  1  0.44280000  0.34390000  0.60070000  1.0 0.5623601942
C  C191  1  0.53700000  0.08000000  0.69770000  1.0 -0.315543541
C  C192  1  0.36630000  0.12200000  0.74320000  1.0 0.0509558543
C  C193  1  0.31100000  0.17300000  0.74210000  1.0 -0.1697979358
C  C194  1  0.41200000  0.01200000  0.76700000  1.0 0.0509558543
C  C195  1  0.35900000  0.06300000  0.76700000  1.0 -0.001827634
C  C196  1  0.56810000  0.81200000  0.69180000  1.0 0.0617886581
C  C197  1  0.58830000  0.82550000  0.65090000  1.0 -0.2163548389
C  C198  1  0.58400000  0.77300000  0.62160000  1.0 -0.0809791435
C  C199  1  0.55990000  0.70700000  0.63220000  1.0 -0.0809791435
C  C200  1  0.53970000  0.69310000  0.67300000  1.0 -0.0716072552
C  C201  1  0.54410000  0.74600000  0.70230000  1.0 -0.206594202
C  C202  1  0.57410000  0.86830000  0.71950000  1.0 0.0068043008
C  C203  1  0.52160000  0.91840000  0.71980000  1.0 0.0509558543
C  C204  1  0.52900000  0.97300000  0.74800000  1.0 -0.0127540068
C  C205  1  0.55720000  0.65610000  0.60070000  1.0 0.5623601942
C  C206  1  0.46300000  0.92000000  0.69770000  1.0 -0.315543541
C  C207  1  0.63370000  0.87800000  0.74320000  1.0 0.0509558543
C  C208  1  0.68900000  0.82700000  0.74210000  1.0 -0.1697979358
C  C209  1  0.58800000  0.98800000  0.76700000  1.0 0.0509558543
C  C210  1  0.64100000  0.93700000  0.76700000  1.0 -0.001827634
C  C211  1  0.18800000  0.56810000  0.69180000  1.0 0.0617886581
C  C212  1  0.17450000  0.58830000  0.65090000  1.0 -0.2163548389
C  C213  1  0.22700000  0.58400000  0.62160000  1.0 -0.0809791435
C  C214  1  0.29300000  0.55990000  0.63220000  1.0 -0.0809791435
C  C215  1  0.30690000  0.53970000  0.67300000  1.0 -0.0716072552
C  C216  1  0.25400000  0.54410000  0.70230000  1.0 -0.206594202
C  C217  1  0.13170000  0.57410000  0.71950000  1.0 0.0068043008
C  C218  1  0.08160000  0.52160000  0.71980000  1.0 0.0509558543
C  C219  1  0.02700000  0.52900000  0.74800000  1.0 -0.0127540068
C  C220  1  0.34390000  0.55720000  0.60070000  1.0 0.5623601942
C  C221  1  0.08000000  0.46300000  0.69770000  1.0 -0.315543541
C  C222  1  0.12200000  0.63370000  0.74320000  1.0 0.0509558543
C  C223  1  0.17300000  0.68900000  0.74210000  1.0 -0.1697979358
C  C224  1  0.01200000  0.58800000  0.76700000  1.0 0.0509558543
C  C225  1  0.06300000  0.64100000  0.76700000  1.0 -0.001827634
C  C226  1  0.81200000  0.43190000  0.69180000  1.0 0.0617886581
C  C227  1  0.82550000  0.41170000  0.65090000  1.0 -0.2163548389
C  C228  1  0.77300000  0.41600000  0.62160000  1.0 -0.0809791435
C  C229  1  0.70700000  0.44010000  0.63220000  1.0 -0.0809791435
C  C230  1  0.69310000  0.46030000  0.67300000  1.0 -0.0716072552
C  C231  1  0.74600000  0.45590000  0.70230000  1.0 -0.206594202
C  C232  1  0.86830000  0.42590000  0.71950000  1.0 0.0068043008
C  C233  1  0.91840000  0.47840000  0.71980000  1.0 0.0509558543
C  C234  1  0.97300000  0.47100000  0.74800000  1.0 -0.0127540068
C  C235  1  0.65610000  0.44280000  0.60070000  1.0 0.5623601942
C  C236  1  0.92000000  0.53700000  0.69770000  1.0 -0.315543541
C  C237  1  0.87800000  0.36630000  0.74320000  1.0 0.0509558543
C  C238  1  0.82700000  0.31100000  0.74210000  1.0 -0.1697979358
C  C239  1  0.98800000  0.41200000  0.76700000  1.0 0.0509558543
C  C240  1  0.93700000  0.35900000  0.76700000  1.0 -0.001827634
O  O1  1  0.97410000  0.09100000  0.10870000  1.0 -0.520234301
O  O2  1  0.91800000  0.03500000  0.03630000  1.0 -0.7236132801
O  O3  1  0.94070000  0.17120000  0.05840000  1.0 -0.5864237309
O  O4  1  0.02590000  0.90900000  0.10870000  1.0 -0.520234301
O  O5  1  0.08200000  0.96500000  0.03630000  1.0 -0.7236132801
O  O6  1  0.05930000  0.82880000  0.05840000  1.0 -0.5830584484
O  O7  1  0.90900000  0.97410000  0.10870000  1.0 -0.520234301
O  O8  1  0.96500000  0.91800000  0.03630000  1.0 -0.7236132801
O  O9  1  0.82880000  0.94070000  0.05840000  1.0 -0.5830584484
O  O10  1  0.09100000  0.02590000  0.10870000  1.0 -0.520234301
O  O11  1  0.03500000  0.08200000  0.03630000  1.0 -0.7236132801
O  O12  1  0.17120000  0.05930000  0.05840000  1.0 -0.5864237309
O  O13  1  0.52590000  0.59100000  0.39130000  1.0 -0.520234301
O  O14  1  0.58200000  0.53500000  0.46370000  1.0 -0.7236132801
O  O15  1  0.55930000  0.67120000  0.44160000  1.0 -0.5830584484
O  O16  1  0.47410000  0.40900000  0.39130000  1.0 -0.520234301
O  O17  1  0.41800000  0.46500000  0.46370000  1.0 -0.7236132801
O  O18  1  0.44070000  0.32880000  0.44160000  1.0 -0.5830584484
O  O19  1  0.59100000  0.47410000  0.39130000  1.0 -0.520234301
O  O20  1  0.53500000  0.41800000  0.46370000  1.0 -0.7236132801
O  O21  1  0.67120000  0.44070000  0.44160000  1.0 -0.5830584484
O  O22  1  0.40900000  0.52590000  0.39130000  1.0 -0.520234301
O  O23  1  0.46500000  0.58200000  0.46370000  1.0 -0.7236132801
O  O24  1  0.32880000  0.55930000  0.44160000  1.0 -0.5830584484
O  O25  1  0.02590000  0.90900000  0.89130000  1.0 -0.520234301
O  O26  1  0.08200000  0.96500000  0.96370000  1.0 -0.7236132801
O  O27  1  0.05930000  0.82880000  0.94160000  1.0 -0.5864237309
O  O28  1  0.97410000  0.09100000  0.89130000  1.0 -0.520234301
O  O29  1  0.91800000  0.03500000  0.96370000  1.0 -0.7236132801
O  O30  1  0.94070000  0.17120000  0.94160000  1.0 -0.5864237309
O  O31  1  0.09100000  0.02590000  0.89130000  1.0 -0.520234301
O  O32  1  0.03500000  0.08200000  0.96370000  1.0 -0.7236132801
O  O33  1  0.17120000  0.05930000  0.94160000  1.0 -0.5864237309
O  O34  1  0.90900000  0.97410000  0.89130000  1.0 -0.520234301
O  O35  1  0.96500000  0.91800000  0.96370000  1.0 -0.7236132801
O  O36  1  0.82880000  0.94070000  0.94160000  1.0 -0.5830584484
O  O37  1  0.47410000  0.40900000  0.60870000  1.0 -0.520234301
O  O38  1  0.41800000  0.46500000  0.53630000  1.0 -0.7236132801
O  O39  1  0.44070000  0.32880000  0.55840000  1.0 -0.5830584484
O  O40  1  0.52590000  0.59100000  0.60870000  1.0 -0.520234301
O  O41  1  0.58200000  0.53500000  0.53630000  1.0 -0.7236132801
O  O42  1  0.55930000  0.67120000  0.55840000  1.0 -0.5830584484
O  O43  1  0.40900000  0.52590000  0.60870000  1.0 -0.520234301
O  O44  1  0.46500000  0.58200000  0.53630000  1.0 -0.7236132801
O  O45  1  0.32880000  0.55930000  0.55840000  1.0 -0.5830584484
O  O46  1  0.59100000  0.47410000  0.60870000  1.0 -0.520234301
O  O47  1  0.53500000  0.41800000  0.53630000  1.0 -0.7236132801
O  O48  1  0.67120000  0.44070000  0.55840000  1.0 -0.5830584484
