# DDEC6 charges by PACMAN v1.1 (https://github.com/mtap-research/PACMAN-charge/)
data_NEVTIU11_ASR_pacman
_symmetry_space_group_name_H-M   'P 1'
_cell_length_a   19.17700000
_cell_length_b   19.17700000
_cell_length_c   32.82700000
_cell_angle_alpha   90.00000000
_cell_angle_beta   90.00000000
_cell_angle_gamma   90.00000000
_symmetry_Int_Tables_number   1
_chemical_formula_structural   Hf3H40(C5O)12
_chemical_formula_sum   'Hf12 H160 C240 O48'
_cell_volume   12072.36983908
_cell_formula_units_Z   4
loop_
 _symmetry_equiv_pos_site_id
 _symmetry_equiv_pos_as_xyz
  1  'x, y, z'
loop_
 _atom_site_type_symbol
 _atom_site_label
 _atom_site_symmetry_multiplicity
 _atom_site_fract_x
 _atom_site_fract_y
 _atom_site_fract_z
 _atom_site_occupancy
 _atom_site_charge
Hf  Hf1  1  0.95704000  0.12270000  0.00000000  1.0 1.4382545009
Hf  Hf2  1  0.04296000  0.87730000  0.00000000  1.0 1.4382545009
Hf  Hf3  1  0.87730000  0.95704000  0.00000000  1.0 1.4328118736
Hf  Hf4  1  0.12270000  0.04296000  0.00000000  1.0 1.4382545009
Hf  Hf5  1  0.54296000  0.62270000  0.50000000  1.0 1.4328118736
Hf  Hf6  1  0.45704000  0.37730000  0.50000000  1.0 1.4328118736
Hf  Hf7  1  0.62270000  0.45704000  0.50000000  1.0 1.4328118736
Hf  Hf8  1  0.37730000  0.54296000  0.50000000  1.0 1.4328118736
Hf  Hf9  1  0.00000000  0.00000000  0.07448000  1.0 1.4574429447
Hf  Hf10  1  0.50000000  0.50000000  0.42552000  1.0 1.452256228
Hf  Hf11  1  0.00000000  0.00000000  0.92552000  1.0 1.452256228
Hf  Hf12  1  0.50000000  0.50000000  0.57448000  1.0 1.452256228
H  H1  1  0.90100000  0.37310000  0.14470000  1.0 0.1106425767
H  H2  1  0.90930000  0.28540000  0.09550000  1.0 0.1285421511
H  H3  1  0.96520000  0.14710000  0.17770000  1.0 0.1188086659
H  H4  1  0.95680000  0.23490000  0.22690000  1.0 0.1188086659
H  H5  1  0.07590000  0.41930000  0.21390000  1.0 0.1106425767
H  H6  1  0.03190000  0.45110000  0.17820000  1.0 0.1188086659
H  H7  1  0.03950000  0.37000000  0.18230000  1.0 0.1285421511
H  H8  1  0.80190000  0.31140000  0.21070000  1.0 0.1106425767
H  H9  1  0.76660000  0.34460000  0.24920000  1.0 0.0795703743
H  H10  1  0.81720000  0.28100000  0.25420000  1.0 0.0361593457
H  H11  1  0.09900000  0.62690000  0.14470000  1.0 0.1188086659
H  H12  1  0.09070000  0.71460000  0.09550000  1.0 0.1285421511
H  H13  1  0.03480000  0.85290000  0.17770000  1.0 0.1188086659
H  H14  1  0.04320000  0.76510000  0.22690000  1.0 0.1188086659
H  H15  1  0.92410000  0.58070000  0.21390000  1.0 0.1106425767
H  H16  1  0.96810000  0.54890000  0.17820000  1.0 0.1188086659
H  H17  1  0.96050000  0.63000000  0.18230000  1.0 0.1285421511
H  H18  1  0.19810000  0.68860000  0.21070000  1.0 0.1106425767
H  H19  1  0.23340000  0.65540000  0.24920000  1.0 0.0795703743
H  H20  1  0.18280000  0.71900000  0.25420000  1.0 0.0361593457
H  H21  1  0.62690000  0.90100000  0.14470000  1.0 0.1106425767
H  H22  1  0.71460000  0.90930000  0.09550000  1.0 0.1285421511
H  H23  1  0.85290000  0.96520000  0.17770000  1.0 0.1188086659
H  H24  1  0.76510000  0.95680000  0.22690000  1.0 0.1188086659
H  H25  1  0.58070000  0.07590000  0.21390000  1.0 0.1106425767
H  H26  1  0.54890000  0.03190000  0.17820000  1.0 0.1188086659
H  H27  1  0.63000000  0.03950000  0.18230000  1.0 0.1285421511
H  H28  1  0.68860000  0.80190000  0.21070000  1.0 0.1106425767
H  H29  1  0.65540000  0.76660000  0.24920000  1.0 0.0795703743
H  H30  1  0.71900000  0.81720000  0.25420000  1.0 0.0361593457
H  H31  1  0.37310000  0.09900000  0.14470000  1.0 0.1188086659
H  H32  1  0.28540000  0.09070000  0.09550000  1.0 0.1285421511
H  H33  1  0.14710000  0.03480000  0.17770000  1.0 0.1188086659
H  H34  1  0.23490000  0.04320000  0.22690000  1.0 0.1188086659
H  H35  1  0.41930000  0.92410000  0.21390000  1.0 0.1106425767
H  H36  1  0.45110000  0.96810000  0.17820000  1.0 0.1188086659
H  H37  1  0.37000000  0.96050000  0.18230000  1.0 0.1285421511
H  H38  1  0.31140000  0.19810000  0.21070000  1.0 0.1106425767
H  H39  1  0.34460000  0.23340000  0.24920000  1.0 0.0795703743
H  H40  1  0.28100000  0.18280000  0.25420000  1.0 0.0361593457
H  H41  1  0.59900000  0.87310000  0.35530000  1.0 0.1106425767
H  H42  1  0.59070000  0.78540000  0.40450000  1.0 0.1285421511
H  H43  1  0.53480000  0.64710000  0.32230000  1.0 0.1188086659
H  H44  1  0.54320000  0.73490000  0.27310000  1.0 0.1188086659
H  H45  1  0.42410000  0.91930000  0.28610000  1.0 0.1106425767
H  H46  1  0.46810000  0.95110000  0.32180000  1.0 0.1188086659
H  H47  1  0.46050000  0.87000000  0.31770000  1.0 0.1285421511
H  H48  1  0.69810000  0.81140000  0.28930000  1.0 0.1106425767
H  H49  1  0.73340000  0.84460000  0.25080000  1.0 0.0795703743
H  H50  1  0.68280000  0.78100000  0.24580000  1.0 0.0361593457
H  H51  1  0.40100000  0.12690000  0.35530000  1.0 0.1106425767
H  H52  1  0.40930000  0.21460000  0.40450000  1.0 0.1285421511
H  H53  1  0.46520000  0.35290000  0.32230000  1.0 0.1188086659
H  H54  1  0.45680000  0.26510000  0.27310000  1.0 0.1188086659
H  H55  1  0.57590000  0.08070000  0.28610000  1.0 0.1106425767
H  H56  1  0.53190000  0.04890000  0.32180000  1.0 0.1188086659
H  H57  1  0.53950000  0.13000000  0.31770000  1.0 0.1285421511
H  H58  1  0.30190000  0.18860000  0.28930000  1.0 0.1106425767
H  H59  1  0.26660000  0.15540000  0.25080000  1.0 0.0795703743
H  H60  1  0.31720000  0.21900000  0.24580000  1.0 0.0361593457
H  H61  1  0.87310000  0.40100000  0.35530000  1.0 0.1106425767
H  H62  1  0.78540000  0.40930000  0.40450000  1.0 0.1285421511
H  H63  1  0.64710000  0.46520000  0.32230000  1.0 0.1188086659
H  H64  1  0.73490000  0.45680000  0.27310000  1.0 0.1188086659
H  H65  1  0.91930000  0.57590000  0.28610000  1.0 0.1106425767
H  H66  1  0.95110000  0.53190000  0.32180000  1.0 0.1188086659
H  H67  1  0.87000000  0.53950000  0.31770000  1.0 0.1285421511
H  H68  1  0.81140000  0.30190000  0.28930000  1.0 0.1106425767
H  H69  1  0.84460000  0.26660000  0.25080000  1.0 0.0795703743
H  H70  1  0.78100000  0.31720000  0.24580000  1.0 0.0361593457
H  H71  1  0.12690000  0.59900000  0.35530000  1.0 0.1106425767
H  H72  1  0.21460000  0.59070000  0.40450000  1.0 0.1285421511
H  H73  1  0.35290000  0.53480000  0.32230000  1.0 0.1188086659
H  H74  1  0.26510000  0.54320000  0.27310000  1.0 0.1188086659
H  H75  1  0.08070000  0.42410000  0.28610000  1.0 0.1106425767
H  H76  1  0.04890000  0.46810000  0.32180000  1.0 0.1188086659
H  H77  1  0.13000000  0.46050000  0.31770000  1.0 0.1285421511
H  H78  1  0.18860000  0.69810000  0.28930000  1.0 0.1106425767
H  H79  1  0.15540000  0.73340000  0.25080000  1.0 0.0795703743
H  H80  1  0.21900000  0.68280000  0.24580000  1.0 0.0361593457
H  H81  1  0.09900000  0.62690000  0.85530000  1.0 0.1188086659
H  H82  1  0.09070000  0.71460000  0.90450000  1.0 0.1285421511
H  H83  1  0.03480000  0.85290000  0.82230000  1.0 0.1188086659
H  H84  1  0.04320000  0.76510000  0.77310000  1.0 0.1188086659
H  H85  1  0.92410000  0.58070000  0.78610000  1.0 0.1106425767
H  H86  1  0.96810000  0.54890000  0.82180000  1.0 0.1188086659
H  H87  1  0.96050000  0.63000000  0.81770000  1.0 0.1285421511
H  H88  1  0.19810000  0.68860000  0.78930000  1.0 0.1106425767
H  H89  1  0.23340000  0.65540000  0.75080000  1.0 0.0795703743
H  H90  1  0.18280000  0.71900000  0.74580000  1.0 0.0361593457
H  H91  1  0.90100000  0.37310000  0.85530000  1.0 0.1106425767
H  H92  1  0.90930000  0.28540000  0.90450000  1.0 0.1285421511
H  H93  1  0.96520000  0.14710000  0.82230000  1.0 0.1188086659
H  H94  1  0.95680000  0.23490000  0.77310000  1.0 0.1188086659
H  H95  1  0.07590000  0.41930000  0.78610000  1.0 0.1106425767
H  H96  1  0.03190000  0.45110000  0.82180000  1.0 0.1188086659
H  H97  1  0.03950000  0.37000000  0.81770000  1.0 0.1285421511
H  H98  1  0.80190000  0.31140000  0.78930000  1.0 0.1106425767
H  H99  1  0.76660000  0.34460000  0.75080000  1.0 0.0795703743
H  H100  1  0.81720000  0.28100000  0.74580000  1.0 0.0361593457
H  H101  1  0.37310000  0.09900000  0.85530000  1.0 0.1188086659
H  H102  1  0.28540000  0.09070000  0.90450000  1.0 0.1285421511
H  H103  1  0.14710000  0.03480000  0.82230000  1.0 0.1188086659
H  H104  1  0.23490000  0.04320000  0.77310000  1.0 0.1188086659
H  H105  1  0.41930000  0.92410000  0.78610000  1.0 0.1106425767
H  H106  1  0.45110000  0.96810000  0.82180000  1.0 0.1188086659
H  H107  1  0.37000000  0.96050000  0.81770000  1.0 0.1285421511
H  H108  1  0.31140000  0.19810000  0.78930000  1.0 0.1106425767
H  H109  1  0.34460000  0.23340000  0.75080000  1.0 0.0795703743
H  H110  1  0.28100000  0.18280000  0.74580000  1.0 0.0361593457
H  H111  1  0.62690000  0.90100000  0.85530000  1.0 0.1106425767
H  H112  1  0.71460000  0.90930000  0.90450000  1.0 0.1285421511
H  H113  1  0.85290000  0.96520000  0.82230000  1.0 0.1188086659
H  H114  1  0.76510000  0.95680000  0.77310000  1.0 0.1188086659
H  H115  1  0.58070000  0.07590000  0.78610000  1.0 0.1106425767
H  H116  1  0.54890000  0.03190000  0.82180000  1.0 0.1188086659
H  H117  1  0.63000000  0.03950000  0.81770000  1.0 0.1285421511
H  H118  1  0.68860000  0.80190000  0.78930000  1.0 0.1106425767
H  H119  1  0.65540000  0.76660000  0.75080000  1.0 0.0795703743
H  H120  1  0.71900000  0.81720000  0.74580000  1.0 0.0361593457
H  H121  1  0.40100000  0.12690000  0.64470000  1.0 0.1188086659
H  H122  1  0.40930000  0.21460000  0.59550000  1.0 0.1285421511
H  H123  1  0.46520000  0.35290000  0.67770000  1.0 0.1188086659
H  H124  1  0.45680000  0.26510000  0.72690000  1.0 0.1188086659
H  H125  1  0.57590000  0.08070000  0.71390000  1.0 0.1106425767
H  H126  1  0.53190000  0.04890000  0.67820000  1.0 0.1188086659
H  H127  1  0.53950000  0.13000000  0.68230000  1.0 0.1285421511
H  H128  1  0.30190000  0.18860000  0.71070000  1.0 0.1106425767
H  H129  1  0.26660000  0.15540000  0.74920000  1.0 0.0795703743
H  H130  1  0.31720000  0.21900000  0.75420000  1.0 0.0361593457
H  H131  1  0.59900000  0.87310000  0.64470000  1.0 0.1106425767
H  H132  1  0.59070000  0.78540000  0.59550000  1.0 0.1285421511
H  H133  1  0.53480000  0.64710000  0.67770000  1.0 0.1188086659
H  H134  1  0.54320000  0.73490000  0.72690000  1.0 0.1188086659
H  H135  1  0.42410000  0.91930000  0.71390000  1.0 0.1106425767
H  H136  1  0.46810000  0.95110000  0.67820000  1.0 0.1188086659
H  H137  1  0.46050000  0.87000000  0.68230000  1.0 0.1285421511
H  H138  1  0.69810000  0.81140000  0.71070000  1.0 0.1106425767
H  H139  1  0.73340000  0.84460000  0.74920000  1.0 0.0795703743
H  H140  1  0.68280000  0.78100000  0.75420000  1.0 0.0361593457
H  H141  1  0.12690000  0.59900000  0.64470000  1.0 0.1188086659
H  H142  1  0.21460000  0.59070000  0.59550000  1.0 0.1285421511
H  H143  1  0.35290000  0.53480000  0.67770000  1.0 0.1188086659
H  H144  1  0.26510000  0.54320000  0.72690000  1.0 0.1188086659
H  H145  1  0.08070000  0.42410000  0.71390000  1.0 0.1106425767
H  H146  1  0.04890000  0.46810000  0.67820000  1.0 0.1188086659
H  H147  1  0.13000000  0.46050000  0.68230000  1.0 0.1285421511
H  H148  1  0.18860000  0.69810000  0.71070000  1.0 0.1106425767
H  H149  1  0.15540000  0.73340000  0.74920000  1.0 0.0795703743
H  H150  1  0.21900000  0.68280000  0.75420000  1.0 0.0361593457
H  H151  1  0.87310000  0.40100000  0.64470000  1.0 0.1188086659
H  H152  1  0.78540000  0.40930000  0.59550000  1.0 0.1285421511
H  H153  1  0.64710000  0.46520000  0.67770000  1.0 0.1188086659
H  H154  1  0.73490000  0.45680000  0.72690000  1.0 0.1188086659
H  H155  1  0.91930000  0.57590000  0.71390000  1.0 0.1106425767
H  H156  1  0.95110000  0.53190000  0.67820000  1.0 0.1188086659
H  H157  1  0.87000000  0.53950000  0.68230000  1.0 0.1285421511
H  H158  1  0.81140000  0.30190000  0.71070000  1.0 0.1106425767
H  H159  1  0.84460000  0.26660000  0.74920000  1.0 0.0795703743
H  H160  1  0.78100000  0.31720000  0.75420000  1.0 0.0361593457
C  C1  1  0.92960000  0.30710000  0.19090000  1.0 0.0795703743
C  C2  1  0.91390000  0.32780000  0.15130000  1.0 -0.2272194803
C  C3  1  0.91910000  0.27500000  0.12260000  1.0 -0.0815408292
C  C4  1  0.93670000  0.21300000  0.13150000  1.0 -0.0815408292
C  C5  1  0.95230000  0.19240000  0.17100000  1.0 -0.0815408292
C  C6  1  0.94700000  0.24500000  0.19980000  1.0 -0.1628571611
C  C7  1  0.92210000  0.36570000  0.21650000  1.0 -0.0370551205
C  C8  1  0.97810000  0.41110000  0.22060000  1.0 0.034105968
C  C9  1  0.97800000  0.46100000  0.25150000  1.0 0.0209230811
C  C10  1  0.86600000  0.37000000  0.24320000  1.0 0.0657406946
C  C11  1  0.80810000  0.32300000  0.23900000  1.0 -0.1628571611
C  C12  1  0.94300000  0.15700000  0.10400000  1.0 0.5389019454
C  C13  1  0.03550000  0.41300000  0.19710000  1.0 -0.3021636998
C  C14  1  0.92200000  0.46500000  0.27800000  1.0 -0.0094529017
C  C15  1  0.86600000  0.42000000  0.27410000  1.0 -0.051066633
C  C16  1  0.07040000  0.69290000  0.19090000  1.0 0.0795703743
C  C17  1  0.08610000  0.67220000  0.15130000  1.0 -0.2272194803
C  C18  1  0.08090000  0.72500000  0.12260000  1.0 -0.0815408292
C  C19  1  0.06330000  0.78700000  0.13150000  1.0 -0.0815408292
C  C20  1  0.04770000  0.80760000  0.17100000  1.0 -0.0815408292
C  C21  1  0.05300000  0.75500000  0.19980000  1.0 -0.1628571611
C  C22  1  0.07790000  0.63430000  0.21650000  1.0 -0.0370551205
C  C23  1  0.02190000  0.58890000  0.22060000  1.0 0.034105968
C  C24  1  0.02200000  0.53900000  0.25150000  1.0 0.0209230811
C  C25  1  0.13400000  0.63000000  0.24320000  1.0 0.0657406946
C  C26  1  0.19190000  0.67700000  0.23900000  1.0 -0.1628571611
C  C27  1  0.05700000  0.84300000  0.10400000  1.0 0.5389019454
C  C28  1  0.96450000  0.58700000  0.19710000  1.0 -0.3021636998
C  C29  1  0.07800000  0.53500000  0.27800000  1.0 -0.0094529017
C  C30  1  0.13400000  0.58000000  0.27410000  1.0 -0.051066633
C  C31  1  0.69290000  0.92960000  0.19090000  1.0 0.0795703743
C  C32  1  0.67220000  0.91390000  0.15130000  1.0 -0.2272194803
C  C33  1  0.72500000  0.91910000  0.12260000  1.0 -0.0815408292
C  C34  1  0.78700000  0.93670000  0.13150000  1.0 -0.0815408292
C  C35  1  0.80760000  0.95230000  0.17100000  1.0 -0.0815408292
C  C36  1  0.75500000  0.94700000  0.19980000  1.0 -0.1628571611
C  C37  1  0.63430000  0.92210000  0.21650000  1.0 -0.0370551205
C  C38  1  0.58890000  0.97810000  0.22060000  1.0 0.034105968
C  C39  1  0.53900000  0.97800000  0.25150000  1.0 0.0209230811
C  C40  1  0.63000000  0.86600000  0.24320000  1.0 0.0657406946
C  C41  1  0.67700000  0.80810000  0.23900000  1.0 -0.1628571611
C  C42  1  0.84300000  0.94300000  0.10400000  1.0 0.5389019454
C  C43  1  0.58700000  0.03550000  0.19710000  1.0 -0.3021636998
C  C44  1  0.53500000  0.92200000  0.27800000  1.0 -0.0094529017
C  C45  1  0.58000000  0.86600000  0.27410000  1.0 -0.051066633
C  C46  1  0.30710000  0.07040000  0.19090000  1.0 0.0795703743
C  C47  1  0.32780000  0.08610000  0.15130000  1.0 -0.2272194803
C  C48  1  0.27500000  0.08090000  0.12260000  1.0 -0.0815408292
C  C49  1  0.21300000  0.06330000  0.13150000  1.0 -0.0815408292
C  C50  1  0.19240000  0.04770000  0.17100000  1.0 -0.0815408292
C  C51  1  0.24500000  0.05300000  0.19980000  1.0 -0.1628571611
C  C52  1  0.36570000  0.07790000  0.21650000  1.0 -0.0370551205
C  C53  1  0.41110000  0.02190000  0.22060000  1.0 0.034105968
C  C54  1  0.46100000  0.02200000  0.25150000  1.0 0.0209230811
C  C55  1  0.37000000  0.13400000  0.24320000  1.0 0.0657406946
C  C56  1  0.32300000  0.19190000  0.23900000  1.0 -0.1628571611
C  C57  1  0.15700000  0.05700000  0.10400000  1.0 0.5389019454
C  C58  1  0.41300000  0.96450000  0.19710000  1.0 -0.3021636998
C  C59  1  0.46500000  0.07800000  0.27800000  1.0 -0.0094529017
C  C60  1  0.42000000  0.13400000  0.27410000  1.0 -0.051066633
C  C61  1  0.57040000  0.80710000  0.30910000  1.0 0.0795703743
C  C62  1  0.58610000  0.82780000  0.34870000  1.0 -0.2272194803
C  C63  1  0.58090000  0.77500000  0.37740000  1.0 -0.0858949039
C  C64  1  0.56330000  0.71300000  0.36850000  1.0 -0.0815408292
C  C65  1  0.54770000  0.69240000  0.32900000  1.0 -0.0815408292
C  C66  1  0.55300000  0.74500000  0.30020000  1.0 -0.1628571611
C  C67  1  0.57790000  0.86570000  0.28350000  1.0 -0.0370551205
C  C68  1  0.52190000  0.91110000  0.27940000  1.0 0.034105968
C  C69  1  0.52200000  0.96100000  0.24850000  1.0 0.0209230811
C  C70  1  0.63400000  0.87000000  0.25680000  1.0 0.0657406946
C  C71  1  0.69190000  0.82300000  0.26100000  1.0 -0.1628571611
C  C72  1  0.55700000  0.65700000  0.39600000  1.0 0.5389019454
C  C73  1  0.46450000  0.91300000  0.30290000  1.0 -0.3021636998
C  C74  1  0.57800000  0.96500000  0.22200000  1.0 -0.0094529017
C  C75  1  0.63400000  0.92000000  0.22590000  1.0 -0.051066633
C  C76  1  0.42960000  0.19290000  0.30910000  1.0 0.0795703743
C  C77  1  0.41390000  0.17220000  0.34870000  1.0 -0.2272194803
C  C78  1  0.41910000  0.22500000  0.37740000  1.0 -0.0815408292
C  C79  1  0.43670000  0.28700000  0.36850000  1.0 -0.0815408292
C  C80  1  0.45230000  0.30760000  0.32900000  1.0 -0.0815408292
C  C81  1  0.44700000  0.25500000  0.30020000  1.0 -0.1628571611
C  C82  1  0.42210000  0.13430000  0.28350000  1.0 -0.0370551205
C  C83  1  0.47810000  0.08890000  0.27940000  1.0 0.034105968
C  C84  1  0.47800000  0.03900000  0.24850000  1.0 0.0209230811
C  C85  1  0.36600000  0.13000000  0.25680000  1.0 0.0657406946
C  C86  1  0.30810000  0.17700000  0.26100000  1.0 -0.1628571611
C  C87  1  0.44300000  0.34300000  0.39600000  1.0 0.5389019454
C  C88  1  0.53550000  0.08700000  0.30290000  1.0 -0.3021636998
C  C89  1  0.42200000  0.03500000  0.22200000  1.0 -0.0094529017
C  C90  1  0.36600000  0.08000000  0.22590000  1.0 -0.051066633
C  C91  1  0.80710000  0.42960000  0.30910000  1.0 0.0795703743
C  C92  1  0.82780000  0.41390000  0.34870000  1.0 -0.2272194803
C  C93  1  0.77500000  0.41910000  0.37740000  1.0 -0.0858949039
C  C94  1  0.71300000  0.43670000  0.36850000  1.0 -0.0815408292
C  C95  1  0.69240000  0.45230000  0.32900000  1.0 -0.0815408292
C  C96  1  0.74500000  0.44700000  0.30020000  1.0 -0.1628571611
C  C97  1  0.86570000  0.42210000  0.28350000  1.0 -0.0370551205
C  C98  1  0.91110000  0.47810000  0.27940000  1.0 0.034105968
C  C99  1  0.96100000  0.47800000  0.24850000  1.0 0.0209230811
C  C100  1  0.87000000  0.36600000  0.25680000  1.0 0.0657406946
C  C101  1  0.82300000  0.30810000  0.26100000  1.0 -0.1628571611
C  C102  1  0.65700000  0.44300000  0.39600000  1.0 0.5389019454
C  C103  1  0.91300000  0.53550000  0.30290000  1.0 -0.3021636998
C  C104  1  0.96500000  0.42200000  0.22200000  1.0 -0.0094529017
C  C105  1  0.92000000  0.36600000  0.22590000  1.0 -0.051066633
C  C106  1  0.19290000  0.57040000  0.30910000  1.0 0.0795703743
C  C107  1  0.17220000  0.58610000  0.34870000  1.0 -0.2272194803
C  C108  1  0.22500000  0.58090000  0.37740000  1.0 -0.0858949039
C  C109  1  0.28700000  0.56330000  0.36850000  1.0 -0.0815408292
C  C110  1  0.30760000  0.54770000  0.32900000  1.0 -0.0815408292
C  C111  1  0.25500000  0.55300000  0.30020000  1.0 -0.1628571611
C  C112  1  0.13430000  0.57790000  0.28350000  1.0 -0.0370551205
C  C113  1  0.08890000  0.52190000  0.27940000  1.0 0.034105968
C  C114  1  0.03900000  0.52200000  0.24850000  1.0 0.0209230811
C  C115  1  0.13000000  0.63400000  0.25680000  1.0 0.0657406946
C  C116  1  0.17700000  0.69190000  0.26100000  1.0 -0.1628571611
C  C117  1  0.34300000  0.55700000  0.39600000  1.0 0.5389019454
C  C118  1  0.08700000  0.46450000  0.30290000  1.0 -0.3021636998
C  C119  1  0.03500000  0.57800000  0.22200000  1.0 -0.0094529017
C  C120  1  0.08000000  0.63400000  0.22590000  1.0 -0.051066633
C  C121  1  0.07040000  0.69290000  0.80910000  1.0 0.0795703743
C  C122  1  0.08610000  0.67220000  0.84870000  1.0 -0.2272194803
C  C123  1  0.08090000  0.72500000  0.87740000  1.0 -0.0858949039
C  C124  1  0.06330000  0.78700000  0.86850000  1.0 -0.0815408292
C  C125  1  0.04770000  0.80760000  0.82900000  1.0 -0.0815408292
C  C126  1  0.05300000  0.75500000  0.80020000  1.0 -0.1628571611
C  C127  1  0.07790000  0.63430000  0.78350000  1.0 -0.0370551205
C  C128  1  0.02190000  0.58890000  0.77940000  1.0 0.034105968
C  C129  1  0.02200000  0.53900000  0.74850000  1.0 0.0209230811
C  C130  1  0.13400000  0.63000000  0.75680000  1.0 0.0657406946
C  C131  1  0.19190000  0.67700000  0.76100000  1.0 -0.1628571611
C  C132  1  0.05700000  0.84300000  0.89600000  1.0 0.5389019454
C  C133  1  0.96450000  0.58700000  0.80290000  1.0 -0.3021636998
C  C134  1  0.07800000  0.53500000  0.72200000  1.0 -0.0094529017
C  C135  1  0.13400000  0.58000000  0.72590000  1.0 -0.051066633
C  C136  1  0.92960000  0.30710000  0.80910000  1.0 0.0795703743
C  C137  1  0.91390000  0.32780000  0.84870000  1.0 -0.2272194803
C  C138  1  0.91910000  0.27500000  0.87740000  1.0 -0.0858949039
C  C139  1  0.93670000  0.21300000  0.86850000  1.0 -0.0815408292
C  C140  1  0.95230000  0.19240000  0.82900000  1.0 -0.0815408292
C  C141  1  0.94700000  0.24500000  0.80020000  1.0 -0.1628571611
C  C142  1  0.92210000  0.36570000  0.78350000  1.0 -0.0370551205
C  C143  1  0.97810000  0.41110000  0.77940000  1.0 0.034105968
C  C144  1  0.97800000  0.46100000  0.74850000  1.0 0.0209230811
C  C145  1  0.86600000  0.37000000  0.75680000  1.0 0.0657406946
C  C146  1  0.80810000  0.32300000  0.76100000  1.0 -0.1628571611
C  C147  1  0.94300000  0.15700000  0.89600000  1.0 0.5389019454
C  C148  1  0.03550000  0.41300000  0.80290000  1.0 -0.3021636998
C  C149  1  0.92200000  0.46500000  0.72200000  1.0 -0.0094529017
C  C150  1  0.86600000  0.42000000  0.72590000  1.0 -0.051066633
C  C151  1  0.30710000  0.07040000  0.80910000  1.0 0.0795703743
C  C152  1  0.32780000  0.08610000  0.84870000  1.0 -0.2272194803
C  C153  1  0.27500000  0.08090000  0.87740000  1.0 -0.0858949039
C  C154  1  0.21300000  0.06330000  0.86850000  1.0 -0.0815408292
C  C155  1  0.19240000  0.04770000  0.82900000  1.0 -0.0815408292
C  C156  1  0.24500000  0.05300000  0.80020000  1.0 -0.1628571611
C  C157  1  0.36570000  0.07790000  0.78350000  1.0 -0.0370551205
C  C158  1  0.41110000  0.02190000  0.77940000  1.0 0.034105968
C  C159  1  0.46100000  0.02200000  0.74850000  1.0 0.0209230811
C  C160  1  0.37000000  0.13400000  0.75680000  1.0 0.0657406946
C  C161  1  0.32300000  0.19190000  0.76100000  1.0 -0.1628571611
C  C162  1  0.15700000  0.05700000  0.89600000  1.0 0.5389019454
C  C163  1  0.41300000  0.96450000  0.80290000  1.0 -0.3021636998
C  C164  1  0.46500000  0.07800000  0.72200000  1.0 -0.0094529017
C  C165  1  0.42000000  0.13400000  0.72590000  1.0 -0.051066633
C  C166  1  0.69290000  0.92960000  0.80910000  1.0 0.0795703743
C  C167  1  0.67220000  0.91390000  0.84870000  1.0 -0.2272194803
C  C168  1  0.72500000  0.91910000  0.87740000  1.0 -0.0858949039
C  C169  1  0.78700000  0.93670000  0.86850000  1.0 -0.0815408292
C  C170  1  0.80760000  0.95230000  0.82900000  1.0 -0.0815408292
C  C171  1  0.75500000  0.94700000  0.80020000  1.0 -0.1628571611
C  C172  1  0.63430000  0.92210000  0.78350000  1.0 -0.0370551205
C  C173  1  0.58890000  0.97810000  0.77940000  1.0 0.034105968
C  C174  1  0.53900000  0.97800000  0.74850000  1.0 0.0209230811
C  C175  1  0.63000000  0.86600000  0.75680000  1.0 0.0657406946
C  C176  1  0.67700000  0.80810000  0.76100000  1.0 -0.1628571611
C  C177  1  0.84300000  0.94300000  0.89600000  1.0 0.5389019454
C  C178  1  0.58700000  0.03550000  0.80290000  1.0 -0.3021636998
C  C179  1  0.53500000  0.92200000  0.72200000  1.0 -0.0094529017
C  C180  1  0.58000000  0.86600000  0.72590000  1.0 -0.051066633
C  C181  1  0.42960000  0.19290000  0.69090000  1.0 0.0795703743
C  C182  1  0.41390000  0.17220000  0.65130000  1.0 -0.2272194803
C  C183  1  0.41910000  0.22500000  0.62260000  1.0 -0.0815408292
C  C184  1  0.43670000  0.28700000  0.63150000  1.0 -0.0815408292
C  C185  1  0.45230000  0.30760000  0.67100000  1.0 -0.0815408292
C  C186  1  0.44700000  0.25500000  0.69980000  1.0 -0.1628571611
C  C187  1  0.42210000  0.13430000  0.71650000  1.0 -0.0370551205
C  C188  1  0.47810000  0.08890000  0.72060000  1.0 0.034105968
C  C189  1  0.47800000  0.03900000  0.75150000  1.0 0.0209230811
C  C190  1  0.36600000  0.13000000  0.74320000  1.0 0.0657406946
C  C191  1  0.30810000  0.17700000  0.73900000  1.0 -0.1628571611
C  C192  1  0.44300000  0.34300000  0.60400000  1.0 0.5389019454
C  C193  1  0.53550000  0.08700000  0.69710000  1.0 -0.3021636998
C  C194  1  0.42200000  0.03500000  0.77800000  1.0 -0.0094529017
C  C195  1  0.36600000  0.08000000  0.77410000  1.0 -0.051066633
C  C196  1  0.57040000  0.80710000  0.69090000  1.0 0.0795703743
C  C197  1  0.58610000  0.82780000  0.65130000  1.0 -0.2272194803
C  C198  1  0.58090000  0.77500000  0.62260000  1.0 -0.0815408292
C  C199  1  0.56330000  0.71300000  0.63150000  1.0 -0.0815408292
C  C200  1  0.54770000  0.69240000  0.67100000  1.0 -0.0815408292
C  C201  1  0.55300000  0.74500000  0.69980000  1.0 -0.1628571611
C  C202  1  0.57790000  0.86570000  0.71650000  1.0 -0.0370551205
C  C203  1  0.52190000  0.91110000  0.72060000  1.0 0.0361593457
C  C204  1  0.52200000  0.96100000  0.75150000  1.0 0.0209230811
C  C205  1  0.63400000  0.87000000  0.74320000  1.0 0.0657406946
C  C206  1  0.69190000  0.82300000  0.73900000  1.0 -0.1628571611
C  C207  1  0.55700000  0.65700000  0.60400000  1.0 0.5389019454
C  C208  1  0.46450000  0.91300000  0.69710000  1.0 -0.3021636998
C  C209  1  0.57800000  0.96500000  0.77800000  1.0 -0.0094529017
C  C210  1  0.63400000  0.92000000  0.77410000  1.0 -0.051066633
C  C211  1  0.19290000  0.57040000  0.69090000  1.0 0.0795703743
C  C212  1  0.17220000  0.58610000  0.65130000  1.0 -0.2272194803
C  C213  1  0.22500000  0.58090000  0.62260000  1.0 -0.0815408292
C  C214  1  0.28700000  0.56330000  0.63150000  1.0 -0.0815408292
C  C215  1  0.30760000  0.54770000  0.67100000  1.0 -0.0815408292
C  C216  1  0.25500000  0.55300000  0.69980000  1.0 -0.1628571611
C  C217  1  0.13430000  0.57790000  0.71650000  1.0 -0.0370551205
C  C218  1  0.08890000  0.52190000  0.72060000  1.0 0.0361593457
C  C219  1  0.03900000  0.52200000  0.75150000  1.0 0.0209230811
C  C220  1  0.13000000  0.63400000  0.74320000  1.0 0.0657406946
C  C221  1  0.17700000  0.69190000  0.73900000  1.0 -0.1628571611
C  C222  1  0.34300000  0.55700000  0.60400000  1.0 0.5389019454
C  C223  1  0.08700000  0.46450000  0.69710000  1.0 -0.3021636998
C  C224  1  0.03500000  0.57800000  0.77800000  1.0 -0.0094529017
C  C225  1  0.08000000  0.63400000  0.77410000  1.0 -0.051066633
C  C226  1  0.80710000  0.42960000  0.69090000  1.0 0.0795703743
C  C227  1  0.82780000  0.41390000  0.65130000  1.0 -0.2272194803
C  C228  1  0.77500000  0.41910000  0.62260000  1.0 -0.0815408292
C  C229  1  0.71300000  0.43670000  0.63150000  1.0 -0.0815408292
C  C230  1  0.69240000  0.45230000  0.67100000  1.0 -0.0815408292
C  C231  1  0.74500000  0.44700000  0.69980000  1.0 -0.1628571611
C  C232  1  0.86570000  0.42210000  0.71650000  1.0 -0.0370551205
C  C233  1  0.91110000  0.47810000  0.72060000  1.0 0.0361593457
C  C234  1  0.96100000  0.47800000  0.75150000  1.0 0.0209230811
C  C235  1  0.87000000  0.36600000  0.74320000  1.0 0.0657406946
C  C236  1  0.82300000  0.30810000  0.73900000  1.0 -0.1628571611
C  C237  1  0.65700000  0.44300000  0.60400000  1.0 0.5389019454
C  C238  1  0.91300000  0.53550000  0.69710000  1.0 -0.3021636998
C  C239  1  0.96500000  0.42200000  0.77800000  1.0 -0.0094529017
C  C240  1  0.92000000  0.36600000  0.77410000  1.0 -0.051066633
O  O1  1  0.98000000  0.09360000  0.10750000  1.0 -0.4955763465
O  O2  1  0.91890000  0.03300000  0.03580000  1.0 -0.7018723112
O  O3  1  0.93600000  0.16090000  0.06140000  1.0 -0.4911500534
O  O4  1  0.02000000  0.90640000  0.10750000  1.0 -0.4955763465
O  O5  1  0.08110000  0.96700000  0.03580000  1.0 -0.7056248332
O  O6  1  0.06400000  0.83910000  0.06140000  1.0 -0.4911500534
O  O7  1  0.90640000  0.98000000  0.10750000  1.0 -0.4955763465
O  O8  1  0.96700000  0.91890000  0.03580000  1.0 -0.7018723112
O  O9  1  0.83910000  0.93600000  0.06140000  1.0 -0.4911500534
O  O10  1  0.09360000  0.02000000  0.10750000  1.0 -0.4955763465
O  O11  1  0.03300000  0.08110000  0.03580000  1.0 -0.7018723112
O  O12  1  0.16090000  0.06400000  0.06140000  1.0 -0.4911500534
O  O13  1  0.52000000  0.59360000  0.39250000  1.0 -0.4911500534
O  O14  1  0.58110000  0.53300000  0.46420000  1.0 -0.7018723112
O  O15  1  0.56400000  0.66090000  0.43860000  1.0 -0.4911500534
O  O16  1  0.48000000  0.40640000  0.39250000  1.0 -0.4911500534
O  O17  1  0.41890000  0.46700000  0.46420000  1.0 -0.7018723112
O  O18  1  0.43600000  0.33910000  0.43860000  1.0 -0.4911500534
O  O19  1  0.59360000  0.48000000  0.39250000  1.0 -0.4911500534
O  O20  1  0.53300000  0.41890000  0.46420000  1.0 -0.7018723112
O  O21  1  0.66090000  0.43600000  0.43860000  1.0 -0.4911500534
O  O22  1  0.40640000  0.52000000  0.39250000  1.0 -0.4911500534
O  O23  1  0.46700000  0.58110000  0.46420000  1.0 -0.7018723112
O  O24  1  0.33910000  0.56400000  0.43860000  1.0 -0.4911500534
O  O25  1  0.02000000  0.90640000  0.89250000  1.0 -0.4911500534
O  O26  1  0.08110000  0.96700000  0.96420000  1.0 -0.7056248332
O  O27  1  0.06400000  0.83910000  0.93860000  1.0 -0.4911500534
O  O28  1  0.98000000  0.09360000  0.89250000  1.0 -0.4911500534
O  O29  1  0.91890000  0.03300000  0.96420000  1.0 -0.7018723112
O  O30  1  0.93600000  0.16090000  0.93860000  1.0 -0.4911500534
O  O31  1  0.09360000  0.02000000  0.89250000  1.0 -0.4911500534
O  O32  1  0.03300000  0.08110000  0.96420000  1.0 -0.7056248332
O  O33  1  0.16090000  0.06400000  0.93860000  1.0 -0.4911500534
O  O34  1  0.90640000  0.98000000  0.89250000  1.0 -0.4911500534
O  O35  1  0.96700000  0.91890000  0.96420000  1.0 -0.7018723112
O  O36  1  0.83910000  0.93600000  0.93860000  1.0 -0.4911500534
O  O37  1  0.48000000  0.40640000  0.60750000  1.0 -0.4911500534
O  O38  1  0.41890000  0.46700000  0.53580000  1.0 -0.7018723112
O  O39  1  0.43600000  0.33910000  0.56140000  1.0 -0.4911500534
O  O40  1  0.52000000  0.59360000  0.60750000  1.0 -0.4911500534
O  O41  1  0.58110000  0.53300000  0.53580000  1.0 -0.7018723112
O  O42  1  0.56400000  0.66090000  0.56140000  1.0 -0.4911500534
O  O43  1  0.40640000  0.52000000  0.60750000  1.0 -0.4911500534
O  O44  1  0.46700000  0.58110000  0.53580000  1.0 -0.7018723112
O  O45  1  0.33910000  0.56400000  0.56140000  1.0 -0.4911500534
O  O46  1  0.59360000  0.48000000  0.60750000  1.0 -0.4911500534
O  O47  1  0.53300000  0.41890000  0.53580000  1.0 -0.7018723112
O  O48  1  0.66090000  0.43600000  0.56140000  1.0 -0.4911500534
