# DDEC6 charges by PACMAN v1.1 (https://github.com/mtap-research/PACMAN-charge/)
data_NEVWOD_ASR_pacman
_symmetry_space_group_name_H-M   'P 1'
_cell_length_a   18.86990000
_cell_length_b   18.86990000
_cell_length_c   33.08220000
_cell_angle_alpha   90.00000000
_cell_angle_beta   90.00000000
_cell_angle_gamma   90.00000000
_symmetry_Int_Tables_number   1
_chemical_formula_structural   Hf3H40(C23O6)2
_chemical_formula_sum   'Hf12 H160 C184 O48'
_cell_volume   11779.68236929
_cell_formula_units_Z   4
loop_
 _symmetry_equiv_pos_site_id
 _symmetry_equiv_pos_as_xyz
  1  'x, y, z'
loop_
 _atom_site_type_symbol
 _atom_site_label
 _atom_site_symmetry_multiplicity
 _atom_site_fract_x
 _atom_site_fract_y
 _atom_site_fract_z
 _atom_site_occupancy
 _atom_site_charge
Hf  Hf1  1  0.04583000  0.12374000  0.00000000  1.0 1.5409469115
Hf  Hf2  1  0.95417000  0.87626000  0.00000000  1.0 1.5409469115
Hf  Hf3  1  0.87626000  0.04583000  0.00000000  1.0 1.5409469115
Hf  Hf4  1  0.12374000  0.95417000  0.00000000  1.0 1.5409469115
Hf  Hf5  1  0.45417000  0.62374000  0.50000000  1.0 1.5246670651
Hf  Hf6  1  0.54583000  0.37626000  0.50000000  1.0 1.5272195744
Hf  Hf7  1  0.62374000  0.54583000  0.50000000  1.0 1.5246670651
Hf  Hf8  1  0.37626000  0.45417000  0.50000000  1.0 1.5272195744
Hf  Hf9  1  0.00000000  0.00000000  0.07361000  1.0 1.5272195744
Hf  Hf10  1  0.50000000  0.50000000  0.42639000  1.0 1.5272195744
Hf  Hf11  1  0.00000000  0.00000000  0.92639000  1.0 1.5272195744
Hf  Hf12  1  0.50000000  0.50000000  0.57361000  1.0 1.5272195744
H  H1  1  0.93450000  0.45250000  0.19590000  1.0 0.1304453153
H  H2  1  0.98530000  0.41530000  0.16500000  1.0 0.1213220946
H  H3  1  0.94030000  0.36960000  0.19510000  1.0 0.1351076546
H  H4  1  0.04420000  0.22720000  0.22580000  1.0 0.1304453153
H  H5  1  0.11340000  0.36750000  0.14410000  1.0 0.1304453153
H  H6  1  0.10370000  0.28340000  0.09390000  1.0 0.1213220946
H  H7  1  0.02710000  0.14660000  0.17430000  1.0 0.1213220946
H  H8  1  0.17710000  0.27950000  0.22900000  1.0 0.0257455627
H  H9  1  0.23230000  0.33460000  0.24530000  1.0 0.0227920603
H  H10  1  0.18710000  0.28950000  0.27570000  1.0 0.0227920603
H  H11  1  0.06550000  0.54750000  0.19590000  1.0 0.1304453153
H  H12  1  0.01470000  0.58470000  0.16500000  1.0 0.1213220946
H  H13  1  0.05970000  0.63040000  0.19510000  1.0 0.1351076546
H  H14  1  0.95580000  0.77280000  0.22580000  1.0 0.1304453153
H  H15  1  0.88660000  0.63250000  0.14410000  1.0 0.1304453153
H  H16  1  0.89630000  0.71660000  0.09390000  1.0 0.1213220946
H  H17  1  0.97290000  0.85340000  0.17430000  1.0 0.1213220946
H  H18  1  0.82290000  0.72050000  0.22900000  1.0 0.0257455627
H  H19  1  0.76770000  0.66540000  0.24530000  1.0 0.0227920603
H  H20  1  0.81290000  0.71050000  0.27570000  1.0 0.0227920603
H  H21  1  0.54750000  0.93450000  0.19590000  1.0 0.1304453153
H  H22  1  0.58470000  0.98530000  0.16500000  1.0 0.1213220946
H  H23  1  0.63040000  0.94030000  0.19510000  1.0 0.1351076546
H  H24  1  0.77280000  0.04420000  0.22580000  1.0 0.1304453153
H  H25  1  0.63250000  0.11340000  0.14410000  1.0 0.1304453153
H  H26  1  0.71660000  0.10370000  0.09390000  1.0 0.1213220946
H  H27  1  0.85340000  0.02710000  0.17430000  1.0 0.1213220946
H  H28  1  0.72050000  0.17710000  0.22900000  1.0 0.0257455627
H  H29  1  0.66540000  0.23230000  0.24530000  1.0 0.0227920603
H  H30  1  0.71050000  0.18710000  0.27570000  1.0 0.0227920603
H  H31  1  0.45250000  0.06550000  0.19590000  1.0 0.1304453153
H  H32  1  0.41530000  0.01470000  0.16500000  1.0 0.1213220946
H  H33  1  0.36960000  0.05970000  0.19510000  1.0 0.1351076546
H  H34  1  0.22720000  0.95580000  0.22580000  1.0 0.1304453153
H  H35  1  0.36750000  0.88660000  0.14410000  1.0 0.1304453153
H  H36  1  0.28340000  0.89630000  0.09390000  1.0 0.1213220946
H  H37  1  0.14660000  0.97290000  0.17430000  1.0 0.1213220946
H  H38  1  0.27950000  0.82290000  0.22900000  1.0 0.0257455627
H  H39  1  0.33460000  0.76770000  0.24530000  1.0 0.0227920603
H  H40  1  0.28950000  0.81290000  0.27570000  1.0 0.0227920603
H  H41  1  0.56550000  0.95250000  0.30410000  1.0 0.1304453153
H  H42  1  0.51470000  0.91530000  0.33500000  1.0 0.1213220946
H  H43  1  0.55970000  0.86960000  0.30490000  1.0 0.1351076546
H  H44  1  0.45580000  0.72720000  0.27420000  1.0 0.1304453153
H  H45  1  0.38660000  0.86750000  0.35590000  1.0 0.1304453153
H  H46  1  0.39630000  0.78340000  0.40610000  1.0 0.1213220946
H  H47  1  0.47290000  0.64660000  0.32570000  1.0 0.1213220946
H  H48  1  0.32290000  0.77950000  0.27100000  1.0 0.0227920603
H  H49  1  0.26770000  0.83460000  0.25470000  1.0 0.0227920603
H  H50  1  0.31290000  0.78950000  0.22430000  1.0 0.0227920603
H  H51  1  0.43450000  0.04750000  0.30410000  1.0 0.1304453153
H  H52  1  0.48530000  0.08470000  0.33500000  1.0 0.1213220946
H  H53  1  0.44030000  0.13040000  0.30490000  1.0 0.1351076546
H  H54  1  0.54420000  0.27280000  0.27420000  1.0 0.1304453153
H  H55  1  0.61340000  0.13250000  0.35590000  1.0 0.1304453153
H  H56  1  0.60370000  0.21660000  0.40610000  1.0 0.1213220946
H  H57  1  0.52710000  0.35340000  0.32570000  1.0 0.1213220946
H  H58  1  0.67710000  0.22050000  0.27100000  1.0 0.0227920603
H  H59  1  0.73230000  0.16540000  0.25470000  1.0 0.0227920603
H  H60  1  0.68710000  0.21050000  0.22430000  1.0 0.0227920603
H  H61  1  0.95250000  0.43450000  0.30410000  1.0 0.1304453153
H  H62  1  0.91530000  0.48530000  0.33500000  1.0 0.1213220946
H  H63  1  0.86960000  0.44030000  0.30490000  1.0 0.1351076546
H  H64  1  0.72720000  0.54420000  0.27420000  1.0 0.1304453153
H  H65  1  0.86750000  0.61340000  0.35590000  1.0 0.1304453153
H  H66  1  0.78340000  0.60370000  0.40610000  1.0 0.1213220946
H  H67  1  0.64660000  0.52710000  0.32570000  1.0 0.1213220946
H  H68  1  0.77950000  0.67710000  0.27100000  1.0 0.0227920603
H  H69  1  0.83460000  0.73230000  0.25470000  1.0 0.0227920603
H  H70  1  0.78950000  0.68710000  0.22430000  1.0 0.0227920603
H  H71  1  0.04750000  0.56550000  0.30410000  1.0 0.1304453153
H  H72  1  0.08470000  0.51470000  0.33500000  1.0 0.1213220946
H  H73  1  0.13040000  0.55970000  0.30490000  1.0 0.1351076546
H  H74  1  0.27280000  0.45580000  0.27420000  1.0 0.1304453153
H  H75  1  0.13250000  0.38660000  0.35590000  1.0 0.1304453153
H  H76  1  0.21660000  0.39630000  0.40610000  1.0 0.1213220946
H  H77  1  0.35340000  0.47290000  0.32570000  1.0 0.1213220946
H  H78  1  0.22050000  0.32290000  0.27100000  1.0 0.0227920603
H  H79  1  0.16540000  0.26770000  0.25470000  1.0 0.0227920603
H  H80  1  0.21050000  0.31290000  0.22430000  1.0 0.0227920603
H  H81  1  0.06550000  0.54750000  0.80410000  1.0 0.1304453153
H  H82  1  0.01470000  0.58470000  0.83500000  1.0 0.1213220946
H  H83  1  0.05970000  0.63040000  0.80490000  1.0 0.1351076546
H  H84  1  0.95580000  0.77280000  0.77420000  1.0 0.1304453153
H  H85  1  0.88660000  0.63250000  0.85590000  1.0 0.1304453153
H  H86  1  0.89630000  0.71660000  0.90610000  1.0 0.1213220946
H  H87  1  0.97290000  0.85340000  0.82570000  1.0 0.1213220946
H  H88  1  0.82290000  0.72050000  0.77100000  1.0 0.0257455627
H  H89  1  0.76770000  0.66540000  0.75470000  1.0 0.0227920603
H  H90  1  0.81290000  0.71050000  0.72430000  1.0 0.0227920603
H  H91  1  0.93450000  0.45250000  0.80410000  1.0 0.1304453153
H  H92  1  0.98530000  0.41530000  0.83500000  1.0 0.1213220946
H  H93  1  0.94030000  0.36960000  0.80490000  1.0 0.1351076546
H  H94  1  0.04420000  0.22720000  0.77420000  1.0 0.1304453153
H  H95  1  0.11340000  0.36750000  0.85590000  1.0 0.1304453153
H  H96  1  0.10370000  0.28340000  0.90610000  1.0 0.1213220946
H  H97  1  0.02710000  0.14660000  0.82570000  1.0 0.1213220946
H  H98  1  0.17710000  0.27950000  0.77100000  1.0 0.0257455627
H  H99  1  0.23230000  0.33460000  0.75470000  1.0 0.0227920603
H  H100  1  0.18710000  0.28950000  0.72430000  1.0 0.0227920603
H  H101  1  0.45250000  0.06550000  0.80410000  1.0 0.1304453153
H  H102  1  0.41530000  0.01470000  0.83500000  1.0 0.1213220946
H  H103  1  0.36960000  0.05970000  0.80490000  1.0 0.1351076546
H  H104  1  0.22720000  0.95580000  0.77420000  1.0 0.1304453153
H  H105  1  0.36750000  0.88660000  0.85590000  1.0 0.1304453153
H  H106  1  0.28340000  0.89630000  0.90610000  1.0 0.1213220946
H  H107  1  0.14660000  0.97290000  0.82570000  1.0 0.1213220946
H  H108  1  0.27950000  0.82290000  0.77100000  1.0 0.0257455627
H  H109  1  0.33460000  0.76770000  0.75470000  1.0 0.0227920603
H  H110  1  0.28950000  0.81290000  0.72430000  1.0 0.0227920603
H  H111  1  0.54750000  0.93450000  0.80410000  1.0 0.1304453153
H  H112  1  0.58470000  0.98530000  0.83500000  1.0 0.1213220946
H  H113  1  0.63040000  0.94030000  0.80490000  1.0 0.1351076546
H  H114  1  0.77280000  0.04420000  0.77420000  1.0 0.1304453153
H  H115  1  0.63250000  0.11340000  0.85590000  1.0 0.1304453153
H  H116  1  0.71660000  0.10370000  0.90610000  1.0 0.1213220946
H  H117  1  0.85340000  0.02710000  0.82570000  1.0 0.1213220946
H  H118  1  0.72050000  0.17710000  0.77100000  1.0 0.0257455627
H  H119  1  0.66540000  0.23230000  0.75470000  1.0 0.0227920603
H  H120  1  0.71050000  0.18710000  0.72430000  1.0 0.0227920603
H  H121  1  0.43450000  0.04750000  0.69590000  1.0 0.1304453153
H  H122  1  0.48530000  0.08470000  0.66500000  1.0 0.1213220946
H  H123  1  0.44030000  0.13040000  0.69510000  1.0 0.1351076546
H  H124  1  0.54420000  0.27280000  0.72580000  1.0 0.1304453153
H  H125  1  0.61340000  0.13250000  0.64410000  1.0 0.1304453153
H  H126  1  0.60370000  0.21660000  0.59390000  1.0 0.1213220946
H  H127  1  0.52710000  0.35340000  0.67430000  1.0 0.1213220946
H  H128  1  0.67710000  0.22050000  0.72900000  1.0 0.0257455627
H  H129  1  0.73230000  0.16540000  0.74530000  1.0 0.0227920603
H  H130  1  0.68710000  0.21050000  0.77570000  1.0 0.0227920603
H  H131  1  0.56550000  0.95250000  0.69590000  1.0 0.1304453153
H  H132  1  0.51470000  0.91530000  0.66500000  1.0 0.1213220946
H  H133  1  0.55970000  0.86960000  0.69510000  1.0 0.1351076546
H  H134  1  0.45580000  0.72720000  0.72580000  1.0 0.1304453153
H  H135  1  0.38660000  0.86750000  0.64410000  1.0 0.1304453153
H  H136  1  0.39630000  0.78340000  0.59390000  1.0 0.1213220946
H  H137  1  0.47290000  0.64660000  0.67430000  1.0 0.1213220946
H  H138  1  0.32290000  0.77950000  0.72900000  1.0 0.0257455627
H  H139  1  0.26770000  0.83460000  0.74530000  1.0 0.0227920603
H  H140  1  0.31290000  0.78950000  0.77570000  1.0 0.0227920603
H  H141  1  0.04750000  0.56550000  0.69590000  1.0 0.1304453153
H  H142  1  0.08470000  0.51470000  0.66500000  1.0 0.1213220946
H  H143  1  0.13040000  0.55970000  0.69510000  1.0 0.1351076546
H  H144  1  0.27280000  0.45580000  0.72580000  1.0 0.1304453153
H  H145  1  0.13250000  0.38660000  0.64410000  1.0 0.1304453153
H  H146  1  0.21660000  0.39630000  0.59390000  1.0 0.1213220946
H  H147  1  0.35340000  0.47290000  0.67430000  1.0 0.1213220946
H  H148  1  0.22050000  0.32290000  0.72900000  1.0 0.0257455627
H  H149  1  0.16540000  0.26770000  0.74530000  1.0 0.0227920603
H  H150  1  0.21050000  0.31290000  0.77570000  1.0 0.0227920603
H  H151  1  0.95250000  0.43450000  0.69590000  1.0 0.1304453153
H  H152  1  0.91530000  0.48530000  0.66500000  1.0 0.1213220946
H  H153  1  0.86960000  0.44030000  0.69510000  1.0 0.1351076546
H  H154  1  0.72720000  0.54420000  0.72580000  1.0 0.1304453153
H  H155  1  0.86750000  0.61340000  0.64410000  1.0 0.1304453153
H  H156  1  0.78340000  0.60370000  0.59390000  1.0 0.1213220946
H  H157  1  0.64660000  0.52710000  0.67430000  1.0 0.1213220946
H  H158  1  0.77950000  0.67710000  0.72900000  1.0 0.0257455627
H  H159  1  0.83460000  0.73230000  0.74530000  1.0 0.0227920603
H  H160  1  0.78950000  0.68710000  0.77570000  1.0 0.0227920603
C  C1  1  0.07710000  0.36510000  0.22200000  1.0 -0.0396041181
C  C2  1  0.07600000  0.30870000  0.19010000  1.0 0.0599685134
C  C3  1  0.02490000  0.41630000  0.22200000  1.0 0.0439113821
C  C4  1  0.96600000  0.41310000  0.19180000  1.0 -0.419442818
C  C5  1  0.05360000  0.24000000  0.19920000  1.0 -0.1295314723
C  C6  1  0.09570000  0.32290000  0.15050000  1.0 -0.1295314723
C  C7  1  0.05230000  0.15310000  0.09653000  1.0 0.5886174845
C  C8  1  0.09000000  0.27280000  0.12020000  1.0 -0.0891334596
C  C9  1  0.04540000  0.19120000  0.16850000  1.0 -0.0891334596
C  C10  1  0.06400000  0.20770000  0.12952000  1.0 -0.0185153929
C  C11  1  0.92290000  0.63490000  0.22200000  1.0 -0.0396041181
C  C12  1  0.92400000  0.69130000  0.19010000  1.0 0.0599685134
C  C13  1  0.97510000  0.58370000  0.22200000  1.0 0.0439113821
C  C14  1  0.03400000  0.58690000  0.19180000  1.0 -0.419442818
C  C15  1  0.94640000  0.76000000  0.19920000  1.0 -0.1295314723
C  C16  1  0.90430000  0.67710000  0.15050000  1.0 -0.1295314723
C  C17  1  0.94770000  0.84690000  0.09653000  1.0 0.5886174845
C  C18  1  0.91000000  0.72720000  0.12020000  1.0 -0.0891334596
C  C19  1  0.95460000  0.80880000  0.16850000  1.0 -0.0891334596
C  C20  1  0.93600000  0.79230000  0.12952000  1.0 -0.0185153929
C  C21  1  0.63490000  0.07710000  0.22200000  1.0 -0.0396041181
C  C22  1  0.69130000  0.07600000  0.19010000  1.0 0.0599685134
C  C23  1  0.58370000  0.02490000  0.22200000  1.0 0.0439113821
C  C24  1  0.58690000  0.96600000  0.19180000  1.0 -0.419442818
C  C25  1  0.76000000  0.05360000  0.19920000  1.0 -0.1295314723
C  C26  1  0.67710000  0.09570000  0.15050000  1.0 -0.1295314723
C  C27  1  0.84690000  0.05230000  0.09653000  1.0 0.5886174845
C  C28  1  0.72720000  0.09000000  0.12020000  1.0 -0.0891334596
C  C29  1  0.80880000  0.04540000  0.16850000  1.0 -0.0891334596
C  C30  1  0.79230000  0.06400000  0.12952000  1.0 -0.0185153929
C  C31  1  0.36510000  0.92290000  0.22200000  1.0 -0.0396041181
C  C32  1  0.30870000  0.92400000  0.19010000  1.0 0.0599685134
C  C33  1  0.41630000  0.97510000  0.22200000  1.0 0.0439113821
C  C34  1  0.41310000  0.03400000  0.19180000  1.0 -0.419442818
C  C35  1  0.24000000  0.94640000  0.19920000  1.0 -0.1295314723
C  C36  1  0.32290000  0.90430000  0.15050000  1.0 -0.1295314723
C  C37  1  0.15310000  0.94770000  0.09653000  1.0 0.5886174845
C  C38  1  0.27280000  0.91000000  0.12020000  1.0 -0.0891334596
C  C39  1  0.19120000  0.95460000  0.16850000  1.0 -0.0891334596
C  C40  1  0.20770000  0.93600000  0.12952000  1.0 -0.0185153929
C  C41  1  0.42290000  0.86510000  0.27800000  1.0 -0.0396041181
C  C42  1  0.42400000  0.80870000  0.30990000  1.0 0.0599685134
C  C43  1  0.47510000  0.91630000  0.27800000  1.0 0.0439113821
C  C44  1  0.53400000  0.91310000  0.30820000  1.0 -0.419442818
C  C45  1  0.44640000  0.74000000  0.30080000  1.0 -0.1295314723
C  C46  1  0.40430000  0.82290000  0.34950000  1.0 -0.1295314723
C  C47  1  0.44770000  0.65310000  0.40347000  1.0 0.5886174845
C  C48  1  0.41000000  0.77280000  0.37980000  1.0 -0.0891334596
C  C49  1  0.45460000  0.69120000  0.33150000  1.0 -0.0891334596
C  C50  1  0.43600000  0.70770000  0.37048000  1.0 -0.0185153929
C  C51  1  0.57710000  0.13490000  0.27800000  1.0 -0.0396041181
C  C52  1  0.57600000  0.19130000  0.30990000  1.0 0.0599685134
C  C53  1  0.52490000  0.08370000  0.27800000  1.0 0.0439113821
C  C54  1  0.46600000  0.08690000  0.30820000  1.0 -0.419442818
C  C55  1  0.55360000  0.26000000  0.30080000  1.0 -0.1295314723
C  C56  1  0.59570000  0.17710000  0.34950000  1.0 -0.1295314723
C  C57  1  0.55230000  0.34690000  0.40347000  1.0 0.5886174845
C  C58  1  0.59000000  0.22720000  0.37980000  1.0 -0.0891334596
C  C59  1  0.54540000  0.30880000  0.33150000  1.0 -0.0891334596
C  C60  1  0.56400000  0.29230000  0.37048000  1.0 -0.0185153929
C  C61  1  0.86510000  0.57710000  0.27800000  1.0 -0.0396041181
C  C62  1  0.80870000  0.57600000  0.30990000  1.0 0.0599685134
C  C63  1  0.91630000  0.52490000  0.27800000  1.0 0.0439113821
C  C64  1  0.91310000  0.46600000  0.30820000  1.0 -0.419442818
C  C65  1  0.74000000  0.55360000  0.30080000  1.0 -0.1295314723
C  C66  1  0.82290000  0.59570000  0.34950000  1.0 -0.1295314723
C  C67  1  0.65310000  0.55230000  0.40347000  1.0 0.5886174845
C  C68  1  0.77280000  0.59000000  0.37980000  1.0 -0.0891334596
C  C69  1  0.69120000  0.54540000  0.33150000  1.0 -0.0891334596
C  C70  1  0.70770000  0.56400000  0.37048000  1.0 -0.0185153929
C  C71  1  0.13490000  0.42290000  0.27800000  1.0 -0.0396041181
C  C72  1  0.19130000  0.42400000  0.30990000  1.0 0.0599685134
C  C73  1  0.08370000  0.47510000  0.27800000  1.0 0.0439113821
C  C74  1  0.08690000  0.53400000  0.30820000  1.0 -0.419442818
C  C75  1  0.26000000  0.44640000  0.30080000  1.0 -0.1295314723
C  C76  1  0.17710000  0.40430000  0.34950000  1.0 -0.1295314723
C  C77  1  0.34690000  0.44770000  0.40347000  1.0 0.5886174845
C  C78  1  0.22720000  0.41000000  0.37980000  1.0 -0.0891334596
C  C79  1  0.30880000  0.45460000  0.33150000  1.0 -0.0891334596
C  C80  1  0.29230000  0.43600000  0.37048000  1.0 -0.0185153929
C  C81  1  0.92290000  0.63490000  0.77800000  1.0 -0.0396041181
C  C82  1  0.92400000  0.69130000  0.80990000  1.0 0.0599685134
C  C83  1  0.97510000  0.58370000  0.77800000  1.0 0.0439113821
C  C84  1  0.03400000  0.58690000  0.80820000  1.0 -0.419442818
C  C85  1  0.94640000  0.76000000  0.80080000  1.0 -0.1295314723
C  C86  1  0.90430000  0.67710000  0.84950000  1.0 -0.1295314723
C  C87  1  0.94770000  0.84690000  0.90347000  1.0 0.5886174845
C  C88  1  0.91000000  0.72720000  0.87980000  1.0 -0.0891334596
C  C89  1  0.95460000  0.80880000  0.83150000  1.0 -0.0891334596
C  C90  1  0.93600000  0.79230000  0.87048000  1.0 -0.0185153929
C  C91  1  0.07710000  0.36510000  0.77800000  1.0 -0.0396041181
C  C92  1  0.07600000  0.30870000  0.80990000  1.0 0.0599685134
C  C93  1  0.02490000  0.41630000  0.77800000  1.0 0.0439113821
C  C94  1  0.96600000  0.41310000  0.80820000  1.0 -0.419442818
C  C95  1  0.05360000  0.24000000  0.80080000  1.0 -0.1295314723
C  C96  1  0.09570000  0.32290000  0.84950000  1.0 -0.1295314723
C  C97  1  0.05230000  0.15310000  0.90347000  1.0 0.5886174845
C  C98  1  0.09000000  0.27280000  0.87980000  1.0 -0.0891334596
C  C99  1  0.04540000  0.19120000  0.83150000  1.0 -0.0891334596
C  C100  1  0.06400000  0.20770000  0.87048000  1.0 -0.0185153929
C  C101  1  0.36510000  0.92290000  0.77800000  1.0 -0.0396041181
C  C102  1  0.30870000  0.92400000  0.80990000  1.0 0.0599685134
C  C103  1  0.41630000  0.97510000  0.77800000  1.0 0.0439113821
C  C104  1  0.41310000  0.03400000  0.80820000  1.0 -0.419442818
C  C105  1  0.24000000  0.94640000  0.80080000  1.0 -0.1295314723
C  C106  1  0.32290000  0.90430000  0.84950000  1.0 -0.1295314723
C  C107  1  0.15310000  0.94770000  0.90347000  1.0 0.5886174845
C  C108  1  0.27280000  0.91000000  0.87980000  1.0 -0.0891334596
C  C109  1  0.19120000  0.95460000  0.83150000  1.0 -0.0891334596
C  C110  1  0.20770000  0.93600000  0.87048000  1.0 -0.0185153929
C  C111  1  0.63490000  0.07710000  0.77800000  1.0 -0.0396041181
C  C112  1  0.69130000  0.07600000  0.80990000  1.0 0.0599685134
C  C113  1  0.58370000  0.02490000  0.77800000  1.0 0.0439113821
C  C114  1  0.58690000  0.96600000  0.80820000  1.0 -0.419442818
C  C115  1  0.76000000  0.05360000  0.80080000  1.0 -0.1295314723
C  C116  1  0.67710000  0.09570000  0.84950000  1.0 -0.1295314723
C  C117  1  0.84690000  0.05230000  0.90347000  1.0 0.5886174845
C  C118  1  0.72720000  0.09000000  0.87980000  1.0 -0.0891334596
C  C119  1  0.80880000  0.04540000  0.83150000  1.0 -0.0891334596
C  C120  1  0.79230000  0.06400000  0.87048000  1.0 -0.0185153929
C  C121  1  0.57710000  0.13490000  0.72200000  1.0 -0.0396041181
C  C122  1  0.57600000  0.19130000  0.69010000  1.0 0.0599685134
C  C123  1  0.52490000  0.08370000  0.72200000  1.0 0.0439113821
C  C124  1  0.46600000  0.08690000  0.69180000  1.0 -0.419442818
C  C125  1  0.55360000  0.26000000  0.69920000  1.0 -0.1295314723
C  C126  1  0.59570000  0.17710000  0.65050000  1.0 -0.1295314723
C  C127  1  0.55230000  0.34690000  0.59653000  1.0 0.5886174845
C  C128  1  0.59000000  0.22720000  0.62020000  1.0 -0.0891334596
C  C129  1  0.54540000  0.30880000  0.66850000  1.0 -0.0891334596
C  C130  1  0.56400000  0.29230000  0.62952000  1.0 -0.0185153929
C  C131  1  0.42290000  0.86510000  0.72200000  1.0 -0.0396041181
C  C132  1  0.42400000  0.80870000  0.69010000  1.0 0.0599685134
C  C133  1  0.47510000  0.91630000  0.72200000  1.0 0.0439113821
C  C134  1  0.53400000  0.91310000  0.69180000  1.0 -0.419442818
C  C135  1  0.44640000  0.74000000  0.69920000  1.0 -0.1295314723
C  C136  1  0.40430000  0.82290000  0.65050000  1.0 -0.1295314723
C  C137  1  0.44770000  0.65310000  0.59653000  1.0 0.5886174845
C  C138  1  0.41000000  0.77280000  0.62020000  1.0 -0.0891334596
C  C139  1  0.45460000  0.69120000  0.66850000  1.0 -0.0891334596
C  C140  1  0.43600000  0.70770000  0.62952000  1.0 -0.0185153929
C  C141  1  0.13490000  0.42290000  0.72200000  1.0 -0.0396041181
C  C142  1  0.19130000  0.42400000  0.69010000  1.0 0.0599685134
C  C143  1  0.08370000  0.47510000  0.72200000  1.0 0.0439113821
C  C144  1  0.08690000  0.53400000  0.69180000  1.0 -0.419442818
C  C145  1  0.26000000  0.44640000  0.69920000  1.0 -0.1295314723
C  C146  1  0.17710000  0.40430000  0.65050000  1.0 -0.1295314723
C  C147  1  0.34690000  0.44770000  0.59653000  1.0 0.5886174845
C  C148  1  0.22720000  0.41000000  0.62020000  1.0 -0.0891334596
C  C149  1  0.30880000  0.45460000  0.66850000  1.0 -0.0891334596
C  C150  1  0.29230000  0.43600000  0.62952000  1.0 -0.0185153929
C  C151  1  0.86510000  0.57710000  0.72200000  1.0 -0.0396041181
C  C152  1  0.80870000  0.57600000  0.69010000  1.0 0.0599685134
C  C153  1  0.91630000  0.52490000  0.72200000  1.0 0.0439113821
C  C154  1  0.91310000  0.46600000  0.69180000  1.0 -0.419442818
C  C155  1  0.74000000  0.55360000  0.69920000  1.0 -0.1295314723
C  C156  1  0.82290000  0.59570000  0.65050000  1.0 -0.1295314723
C  C157  1  0.65310000  0.55230000  0.59653000  1.0 0.5886174845
C  C158  1  0.77280000  0.59000000  0.62020000  1.0 -0.0891334596
C  C159  1  0.69120000  0.54540000  0.66850000  1.0 -0.0891334596
C  C160  1  0.70770000  0.56400000  0.62952000  1.0 -0.0185153929
C  C161  1  0.02750000  0.47250000  0.25000000  1.0 -0.0185153929
C  C162  1  0.13210000  0.36790000  0.25000000  1.0 -0.0396041181
C  C163  1  0.18680000  0.31320000  0.25000000  1.0 -0.1543525052
C  C164  1  0.97250000  0.52750000  0.25000000  1.0 -0.0185153929
C  C165  1  0.86790000  0.63210000  0.25000000  1.0 -0.0396041181
C  C166  1  0.81320000  0.68680000  0.25000000  1.0 -0.156132142
C  C167  1  0.52750000  0.02750000  0.25000000  1.0 -0.0185153929
C  C168  1  0.63210000  0.13210000  0.25000000  1.0 -0.0396041181
C  C169  1  0.68680000  0.18680000  0.25000000  1.0 -0.1543525052
C  C170  1  0.47250000  0.97250000  0.25000000  1.0 -0.0185153929
C  C171  1  0.36790000  0.86790000  0.25000000  1.0 -0.0396041181
C  C172  1  0.31320000  0.81320000  0.25000000  1.0 -0.156132142
C  C173  1  0.97250000  0.52750000  0.75000000  1.0 -0.0185153929
C  C174  1  0.86790000  0.63210000  0.75000000  1.0 -0.0396041181
C  C175  1  0.81320000  0.68680000  0.75000000  1.0 -0.156132142
C  C176  1  0.02750000  0.47250000  0.75000000  1.0 -0.0185153929
C  C177  1  0.13210000  0.36790000  0.75000000  1.0 -0.0396041181
C  C178  1  0.18680000  0.31320000  0.75000000  1.0 -0.1543525052
C  C179  1  0.47250000  0.97250000  0.75000000  1.0 -0.0185153929
C  C180  1  0.36790000  0.86790000  0.75000000  1.0 -0.0396041181
C  C181  1  0.31320000  0.81320000  0.75000000  1.0 -0.156132142
C  C182  1  0.52750000  0.02750000  0.75000000  1.0 -0.0185153929
C  C183  1  0.63210000  0.13210000  0.75000000  1.0 -0.0396041181
C  C184  1  0.68680000  0.18680000  0.75000000  1.0 -0.156132142
O  O1  1  0.03250000  0.09240000  0.10797000  1.0 -0.4831258026
O  O2  1  0.08440000  0.03930000  0.03642000  1.0 -0.7487092582
O  O3  1  0.06280000  0.17400000  0.06148000  1.0 -0.5485066255
O  O4  1  0.96750000  0.90760000  0.10797000  1.0 -0.4831258026
O  O5  1  0.91560000  0.96070000  0.03642000  1.0 -0.7487092582
O  O6  1  0.93720000  0.82600000  0.06148000  1.0 -0.5485066255
O  O7  1  0.90760000  0.03250000  0.10797000  1.0 -0.4831258026
O  O8  1  0.96070000  0.08440000  0.03642000  1.0 -0.7487092582
O  O9  1  0.82600000  0.06280000  0.06148000  1.0 -0.5485066255
O  O10  1  0.09240000  0.96750000  0.10797000  1.0 -0.4831258026
O  O11  1  0.03930000  0.91560000  0.03642000  1.0 -0.7487092582
O  O12  1  0.17400000  0.93720000  0.06148000  1.0 -0.5485066255
O  O13  1  0.46750000  0.59240000  0.39203000  1.0 -0.4831258026
O  O14  1  0.41560000  0.53930000  0.46358000  1.0 -0.7487092582
O  O15  1  0.43720000  0.67400000  0.43852000  1.0 -0.5485066255
O  O16  1  0.53250000  0.40760000  0.39203000  1.0 -0.4831258026
O  O17  1  0.58440000  0.46070000  0.46358000  1.0 -0.7487092582
O  O18  1  0.56280000  0.32600000  0.43852000  1.0 -0.5485066255
O  O19  1  0.59240000  0.53250000  0.39203000  1.0 -0.4831258026
O  O20  1  0.53930000  0.58440000  0.46358000  1.0 -0.7487092582
O  O21  1  0.67400000  0.56280000  0.43852000  1.0 -0.5485066255
O  O22  1  0.40760000  0.46750000  0.39203000  1.0 -0.4831258026
O  O23  1  0.46070000  0.41560000  0.46358000  1.0 -0.7487092582
O  O24  1  0.32600000  0.43720000  0.43852000  1.0 -0.5485066255
O  O25  1  0.96750000  0.90760000  0.89203000  1.0 -0.4831258026
O  O26  1  0.91560000  0.96070000  0.96358000  1.0 -0.7487092582
O  O27  1  0.93720000  0.82600000  0.93852000  1.0 -0.5485066255
O  O28  1  0.03250000  0.09240000  0.89203000  1.0 -0.4831258026
O  O29  1  0.08440000  0.03930000  0.96358000  1.0 -0.7487092582
O  O30  1  0.06280000  0.17400000  0.93852000  1.0 -0.5485066255
O  O31  1  0.09240000  0.96750000  0.89203000  1.0 -0.4831258026
O  O32  1  0.03930000  0.91560000  0.96358000  1.0 -0.7487092582
O  O33  1  0.17400000  0.93720000  0.93852000  1.0 -0.5485066255
O  O34  1  0.90760000  0.03250000  0.89203000  1.0 -0.4831258026
O  O35  1  0.96070000  0.08440000  0.96358000  1.0 -0.7487092582
O  O36  1  0.82600000  0.06280000  0.93852000  1.0 -0.5485066255
O  O37  1  0.53250000  0.40760000  0.60797000  1.0 -0.4831258026
O  O38  1  0.58440000  0.46070000  0.53642000  1.0 -0.7487092582
O  O39  1  0.56280000  0.32600000  0.56148000  1.0 -0.5485066255
O  O40  1  0.46750000  0.59240000  0.60797000  1.0 -0.4831258026
O  O41  1  0.41560000  0.53930000  0.53642000  1.0 -0.7487092582
O  O42  1  0.43720000  0.67400000  0.56148000  1.0 -0.5485066255
O  O43  1  0.40760000  0.46750000  0.60797000  1.0 -0.4831258026
O  O44  1  0.46070000  0.41560000  0.53642000  1.0 -0.7487092582
O  O45  1  0.32600000  0.43720000  0.56148000  1.0 -0.5485066255
O  O46  1  0.59240000  0.53250000  0.60797000  1.0 -0.4831258026
O  O47  1  0.53930000  0.58440000  0.53642000  1.0 -0.7487092582
O  O48  1  0.67400000  0.56280000  0.56148000  1.0 -0.5485066255
