# DDEC6 charges by PACMAN v1.1 (https://github.com/mtap-research/PACMAN-charge/)
data_NEXDOK_ion_pacman
_symmetry_space_group_name_H-M   'P 1'
_cell_length_a   23.62700000
_cell_length_b   23.62700000
_cell_length_c   23.62700000
_cell_angle_alpha   90.00000000
_cell_angle_beta   90.00000000
_cell_angle_gamma   90.00000000
_symmetry_Int_Tables_number   1
_chemical_formula_structural   Na7Fe2H36C72N12(ClO6)6
_chemical_formula_sum   'Na28 Fe8 H144 C288 N48 Cl24 O144'
_cell_volume   13189.42139288
_cell_formula_units_Z   4
loop_
 _symmetry_equiv_pos_site_id
 _symmetry_equiv_pos_as_xyz
  1  'x, y, z'
loop_
 _atom_site_type_symbol
 _atom_site_label
 _atom_site_symmetry_multiplicity
 _atom_site_fract_x
 _atom_site_fract_y
 _atom_site_fract_z
 _atom_site_occupancy
 _atom_site_charge
Na  Na1  1  0.50000000  0.25000000  0.00000000  1.0 0.8055895137
Na  Na2  1  0.25000000  0.00000000  0.50000000  1.0 0.8055895137
Na  Na3  1  0.00000000  0.50000000  0.25000000  1.0 0.8055895137
Na  Na4  1  0.00000000  0.50000000  0.75000000  1.0 0.8055895137
Na  Na5  1  0.50000000  0.75000000  0.00000000  1.0 0.8055895137
Na  Na6  1  0.75000000  0.00000000  0.50000000  1.0 0.8055895137
Na  Na7  1  0.62010000  0.62010000  0.62010000  1.0 0.5611719187
Na  Na8  1  0.12010000  0.87990000  0.12010000  1.0 0.5611719187
Na  Na9  1  0.12010000  0.12010000  0.87990000  1.0 0.5611719187
Na  Na10  1  0.87990000  0.12010000  0.12010000  1.0 0.5611719187
Na  Na11  1  0.62010000  0.37990000  0.37990000  1.0 0.5611719187
Na  Na12  1  0.37990000  0.37990000  0.62010000  1.0 0.5611719187
Na  Na13  1  0.37990000  0.62010000  0.37990000  1.0 0.5611719187
Na  Na14  1  0.87990000  0.87990000  0.87990000  1.0 0.5654905604
Na  Na15  1  0.37990000  0.37990000  0.37990000  1.0 0.5611719187
Na  Na16  1  0.87990000  0.12010000  0.87990000  1.0 0.5654905604
Na  Na17  1  0.87990000  0.87990000  0.12010000  1.0 0.5611719187
Na  Na18  1  0.12010000  0.87990000  0.87990000  1.0 0.5611719187
Na  Na19  1  0.37990000  0.62010000  0.62010000  1.0 0.5611719187
Na  Na20  1  0.62010000  0.62010000  0.37990000  1.0 0.5611719187
Na  Na21  1  0.62010000  0.37990000  0.62010000  1.0 0.5611719187
Na  Na22  1  0.12010000  0.12010000  0.12010000  1.0 0.5611719187
Na  Na23  1  0.50000000  0.00000000  0.25000000  1.0 0.7364604043
Na  Na24  1  0.25000000  0.50000000  0.00000000  1.0 0.7329649048
Na  Na25  1  0.00000000  0.25000000  0.50000000  1.0 0.7329649048
Na  Na26  1  0.75000000  0.50000000  0.00000000  1.0 0.7329649048
Na  Na27  1  0.00000000  0.75000000  0.50000000  1.0 0.7329649048
Na  Na28  1  0.50000000  0.00000000  0.75000000  1.0 0.7364604043
Fe  Fe1  1  0.25000000  0.25000000  0.25000000  1.0 0.3893618191
Fe  Fe2  1  0.75000000  0.25000000  0.75000000  1.0 0.3893618191
Fe  Fe3  1  0.75000000  0.75000000  0.25000000  1.0 0.3893618191
Fe  Fe4  1  0.25000000  0.75000000  0.75000000  1.0 0.3893618191
Fe  Fe5  1  0.75000000  0.75000000  0.75000000  1.0 0.3893618191
Fe  Fe6  1  0.25000000  0.75000000  0.25000000  1.0 0.3893618191
Fe  Fe7  1  0.25000000  0.25000000  0.75000000  1.0 0.3893618191
Fe  Fe8  1  0.75000000  0.25000000  0.25000000  1.0 0.3893618191
H  H1  1  0.24110000  0.12660000  0.20290000  1.0 0.0985793935
H  H2  1  0.12660000  0.20290000  0.24110000  1.0 0.0985793935
H  H3  1  0.20290000  0.24110000  0.12660000  1.0 0.0985793935
H  H4  1  0.74110000  0.29710000  0.62660000  1.0 0.0985793935
H  H5  1  0.74110000  0.70290000  0.37340000  1.0 0.0985793935
H  H6  1  0.29710000  0.62660000  0.74110000  1.0 0.0985793935
H  H7  1  0.70290000  0.37340000  0.74110000  1.0 0.0985793935
H  H8  1  0.70290000  0.62660000  0.25890000  1.0 0.0985793935
H  H9  1  0.37340000  0.74110000  0.70290000  1.0 0.0985793935
H  H10  1  0.25890000  0.70290000  0.62660000  1.0 0.0985793935
H  H11  1  0.62660000  0.25890000  0.70290000  1.0 0.0985793935
H  H12  1  0.62660000  0.74110000  0.29710000  1.0 0.0985793935
H  H13  1  0.24110000  0.87340000  0.79710000  1.0 0.0985793935
H  H14  1  0.87340000  0.79710000  0.24110000  1.0 0.0985793935
H  H15  1  0.79710000  0.24110000  0.87340000  1.0 0.0985793935
H  H16  1  0.79710000  0.75890000  0.12660000  1.0 0.0985793935
H  H17  1  0.75890000  0.12660000  0.79710000  1.0 0.0985793935
H  H18  1  0.87340000  0.20290000  0.75890000  1.0 0.0985793935
H  H19  1  0.12660000  0.79710000  0.75890000  1.0 0.0985793935
H  H20  1  0.20290000  0.75890000  0.87340000  1.0 0.0985793935
H  H21  1  0.75890000  0.87340000  0.20290000  1.0 0.0985793935
H  H22  1  0.29710000  0.37340000  0.25890000  1.0 0.0985793935
H  H23  1  0.37340000  0.25890000  0.29710000  1.0 0.0985793935
H  H24  1  0.25890000  0.29710000  0.37340000  1.0 0.0985793935
H  H25  1  0.75890000  0.87340000  0.79710000  1.0 0.0985793935
H  H26  1  0.87340000  0.79710000  0.75890000  1.0 0.0985793935
H  H27  1  0.79710000  0.75890000  0.87340000  1.0 0.0985793935
H  H28  1  0.25890000  0.70290000  0.37340000  1.0 0.0985793935
H  H29  1  0.25890000  0.29710000  0.62660000  1.0 0.0985793935
H  H30  1  0.70290000  0.37340000  0.25890000  1.0 0.0985793935
H  H31  1  0.29710000  0.62660000  0.25890000  1.0 0.0985793935
H  H32  1  0.29710000  0.37340000  0.74110000  1.0 0.0985793935
H  H33  1  0.62660000  0.25890000  0.29710000  1.0 0.0985793935
H  H34  1  0.74110000  0.29710000  0.37340000  1.0 0.0985793935
H  H35  1  0.37340000  0.74110000  0.29710000  1.0 0.0985793935
H  H36  1  0.37340000  0.25890000  0.70290000  1.0 0.0985793935
H  H37  1  0.75890000  0.12660000  0.20290000  1.0 0.0985793935
H  H38  1  0.12660000  0.20290000  0.75890000  1.0 0.0985793935
H  H39  1  0.20290000  0.75890000  0.12660000  1.0 0.0985793935
H  H40  1  0.20290000  0.24110000  0.87340000  1.0 0.0985793935
H  H41  1  0.24110000  0.87340000  0.20290000  1.0 0.0985793935
H  H42  1  0.12660000  0.79710000  0.24110000  1.0 0.0985793935
H  H43  1  0.87340000  0.20290000  0.24110000  1.0 0.0985793935
H  H44  1  0.79710000  0.24110000  0.12660000  1.0 0.0985793935
H  H45  1  0.24110000  0.12660000  0.79710000  1.0 0.0985793935
H  H46  1  0.70290000  0.62660000  0.74110000  1.0 0.0985793935
H  H47  1  0.62660000  0.74110000  0.70290000  1.0 0.0985793935
H  H48  1  0.74110000  0.70290000  0.62660000  1.0 0.0985793935
H  H49  1  0.27950000  0.07540000  0.13680000  1.0 0.1269903374
H  H50  1  0.07540000  0.13680000  0.27950000  1.0 0.1269903374
H  H51  1  0.13680000  0.27950000  0.07540000  1.0 0.1269903374
H  H52  1  0.77950000  0.36320000  0.57540000  1.0 0.1269903374
H  H53  1  0.77950000  0.63680000  0.42460000  1.0 0.1269903374
H  H54  1  0.36320000  0.57540000  0.77950000  1.0 0.1269903374
H  H55  1  0.63680000  0.42460000  0.77950000  1.0 0.1269903374
H  H56  1  0.63680000  0.57540000  0.22050000  1.0 0.1269903374
H  H57  1  0.42460000  0.77950000  0.63680000  1.0 0.1269903374
H  H58  1  0.22050000  0.63680000  0.57540000  1.0 0.1269903374
H  H59  1  0.57540000  0.22050000  0.63680000  1.0 0.1269903374
H  H60  1  0.57540000  0.77950000  0.36320000  1.0 0.1269903374
H  H61  1  0.27950000  0.92460000  0.86320000  1.0 0.1269903374
H  H62  1  0.92460000  0.86320000  0.27950000  1.0 0.1269903374
H  H63  1  0.86320000  0.27950000  0.92460000  1.0 0.1269903374
H  H64  1  0.86320000  0.72050000  0.07540000  1.0 0.1269903374
H  H65  1  0.72050000  0.07540000  0.86320000  1.0 0.1269903374
H  H66  1  0.92460000  0.13680000  0.72050000  1.0 0.1269903374
H  H67  1  0.07540000  0.86320000  0.72050000  1.0 0.1269903374
H  H68  1  0.13680000  0.72050000  0.92460000  1.0 0.1269903374
H  H69  1  0.72050000  0.92460000  0.13680000  1.0 0.1269903374
H  H70  1  0.36320000  0.42460000  0.22050000  1.0 0.1269903374
H  H71  1  0.42460000  0.22050000  0.36320000  1.0 0.1269903374
H  H72  1  0.22050000  0.36320000  0.42460000  1.0 0.1269903374
H  H73  1  0.72050000  0.92460000  0.86320000  1.0 0.1269903374
H  H74  1  0.92460000  0.86320000  0.72050000  1.0 0.1269903374
H  H75  1  0.86320000  0.72050000  0.92460000  1.0 0.1269903374
H  H76  1  0.22050000  0.63680000  0.42460000  1.0 0.1269903374
H  H77  1  0.22050000  0.36320000  0.57540000  1.0 0.1269903374
H  H78  1  0.63680000  0.42460000  0.22050000  1.0 0.1269903374
H  H79  1  0.36320000  0.57540000  0.22050000  1.0 0.1269903374
H  H80  1  0.36320000  0.42460000  0.77950000  1.0 0.1269903374
H  H81  1  0.57540000  0.22050000  0.36320000  1.0 0.1269903374
H  H82  1  0.77950000  0.36320000  0.42460000  1.0 0.1269903374
H  H83  1  0.42460000  0.77950000  0.36320000  1.0 0.1269903374
H  H84  1  0.42460000  0.22050000  0.63680000  1.0 0.1269903374
H  H85  1  0.72050000  0.07540000  0.13680000  1.0 0.1269903374
H  H86  1  0.07540000  0.13680000  0.72050000  1.0 0.1269903374
H  H87  1  0.13680000  0.72050000  0.07540000  1.0 0.1269903374
H  H88  1  0.13680000  0.27950000  0.92460000  1.0 0.1269903374
H  H89  1  0.27950000  0.92460000  0.13680000  1.0 0.1269903374
H  H90  1  0.07540000  0.86320000  0.27950000  1.0 0.1269903374
H  H91  1  0.92460000  0.13680000  0.27950000  1.0 0.1269903374
H  H92  1  0.86320000  0.27950000  0.07540000  1.0 0.1269903374
H  H93  1  0.27950000  0.07540000  0.86320000  1.0 0.1269903374
H  H94  1  0.63680000  0.57540000  0.77950000  1.0 0.1269903374
H  H95  1  0.57540000  0.77950000  0.63680000  1.0 0.1269903374
H  H96  1  0.77950000  0.63680000  0.57540000  1.0 0.1269903374
H  H97  1  0.35920000  0.11150000  0.08640000  1.0 0.1127917352
H  H98  1  0.11150000  0.08640000  0.35920000  1.0 0.1127917352
H  H99  1  0.08640000  0.35920000  0.11150000  1.0 0.1127917352
H  H100  1  0.85920000  0.41360000  0.61150000  1.0 0.1127917352
H  H101  1  0.85920000  0.58640000  0.38850000  1.0 0.1127917352
H  H102  1  0.41360000  0.61150000  0.85920000  1.0 0.1127917352
H  H103  1  0.58640000  0.38850000  0.85920000  1.0 0.1127917352
H  H104  1  0.58640000  0.61150000  0.14080000  1.0 0.1127917352
H  H105  1  0.38850000  0.85920000  0.58640000  1.0 0.1127917352
H  H106  1  0.14080000  0.58640000  0.61150000  1.0 0.1127917352
H  H107  1  0.61150000  0.14080000  0.58640000  1.0 0.1127917352
H  H108  1  0.61150000  0.85920000  0.41360000  1.0 0.1127917352
H  H109  1  0.35920000  0.88850000  0.91360000  1.0 0.1127917352
H  H110  1  0.88850000  0.91360000  0.35920000  1.0 0.1127917352
H  H111  1  0.91360000  0.35920000  0.88850000  1.0 0.1127917352
H  H112  1  0.91360000  0.64080000  0.11150000  1.0 0.1127917352
H  H113  1  0.64080000  0.11150000  0.91360000  1.0 0.1127917352
H  H114  1  0.88850000  0.08640000  0.64080000  1.0 0.1127917352
H  H115  1  0.11150000  0.91360000  0.64080000  1.0 0.1127917352
H  H116  1  0.08640000  0.64080000  0.88850000  1.0 0.1127917352
H  H117  1  0.64080000  0.88850000  0.08640000  1.0 0.1127917352
H  H118  1  0.41360000  0.38850000  0.14080000  1.0 0.1127917352
H  H119  1  0.38850000  0.14080000  0.41360000  1.0 0.1127917352
H  H120  1  0.14080000  0.41360000  0.38850000  1.0 0.1127917352
H  H121  1  0.64080000  0.88850000  0.91360000  1.0 0.1127917352
H  H122  1  0.88850000  0.91360000  0.64080000  1.0 0.1127917352
H  H123  1  0.91360000  0.64080000  0.88850000  1.0 0.1127917352
H  H124  1  0.14080000  0.58640000  0.38850000  1.0 0.1127917352
H  H125  1  0.14080000  0.41360000  0.61150000  1.0 0.1127917352
H  H126  1  0.58640000  0.38850000  0.14080000  1.0 0.1127917352
H  H127  1  0.41360000  0.61150000  0.14080000  1.0 0.1127917352
H  H128  1  0.41360000  0.38850000  0.85920000  1.0 0.1127917352
H  H129  1  0.61150000  0.14080000  0.41360000  1.0 0.1127917352
H  H130  1  0.85920000  0.41360000  0.38850000  1.0 0.1127917352
H  H131  1  0.38850000  0.85920000  0.41360000  1.0 0.1127917352
H  H132  1  0.38850000  0.14080000  0.58640000  1.0 0.1127917352
H  H133  1  0.64080000  0.11150000  0.08640000  1.0 0.1127917352
H  H134  1  0.11150000  0.08640000  0.64080000  1.0 0.1127917352
H  H135  1  0.08640000  0.64080000  0.11150000  1.0 0.1127917352
H  H136  1  0.08640000  0.35920000  0.88850000  1.0 0.1127917352
H  H137  1  0.35920000  0.88850000  0.08640000  1.0 0.1127917352
H  H138  1  0.11150000  0.91360000  0.35920000  1.0 0.1127917352
H  H139  1  0.88850000  0.08640000  0.35920000  1.0 0.1127917352
H  H140  1  0.91360000  0.35920000  0.11150000  1.0 0.1127917352
H  H141  1  0.35920000  0.11150000  0.91360000  1.0 0.1127917352
H  H142  1  0.58640000  0.61150000  0.85920000  1.0 0.1127917352
H  H143  1  0.61150000  0.85920000  0.58640000  1.0 0.1127917352
H  H144  1  0.85920000  0.58640000  0.61150000  1.0 0.1127917352
C  C1  1  0.26979000  0.14309000  0.18152000  1.0 0.0073158857
C  C2  1  0.14309000  0.18152000  0.26979000  1.0 0.0073158857
C  C3  1  0.18152000  0.26979000  0.14309000  1.0 0.0073158857
C  C4  1  0.76979000  0.31848000  0.64309000  1.0 0.0073158857
C  C5  1  0.76979000  0.68152000  0.35691000  1.0 0.0073158857
C  C6  1  0.31848000  0.64309000  0.76979000  1.0 0.0073158857
C  C7  1  0.68152000  0.35691000  0.76979000  1.0 0.0073158857
C  C8  1  0.68152000  0.64309000  0.23021000  1.0 0.0073158857
C  C9  1  0.35691000  0.76979000  0.68152000  1.0 0.0073158857
C  C10  1  0.23021000  0.68152000  0.64309000  1.0 0.0073158857
C  C11  1  0.64309000  0.23021000  0.68152000  1.0 0.0073158857
C  C12  1  0.64309000  0.76979000  0.31848000  1.0 0.0073158857
C  C13  1  0.26979000  0.85691000  0.81848000  1.0 0.0073158857
C  C14  1  0.85691000  0.81848000  0.26979000  1.0 0.0073158857
C  C15  1  0.81848000  0.26979000  0.85691000  1.0 0.0073158857
C  C16  1  0.81848000  0.73021000  0.14309000  1.0 0.0073158857
C  C17  1  0.73021000  0.14309000  0.81848000  1.0 0.0073158857
C  C18  1  0.85691000  0.18152000  0.73021000  1.0 0.0073158857
C  C19  1  0.14309000  0.81848000  0.73021000  1.0 0.0073158857
C  C20  1  0.18152000  0.73021000  0.85691000  1.0 0.0073158857
C  C21  1  0.73021000  0.85691000  0.18152000  1.0 0.0073158857
C  C22  1  0.31848000  0.35691000  0.23021000  1.0 0.0073158857
C  C23  1  0.35691000  0.23021000  0.31848000  1.0 0.0073158857
C  C24  1  0.23021000  0.31848000  0.35691000  1.0 0.0073158857
C  C25  1  0.73021000  0.85691000  0.81848000  1.0 0.0073158857
C  C26  1  0.85691000  0.81848000  0.73021000  1.0 0.0073158857
C  C27  1  0.81848000  0.73021000  0.85691000  1.0 0.0073158857
C  C28  1  0.23021000  0.68152000  0.35691000  1.0 0.0073158857
C  C29  1  0.23021000  0.31848000  0.64309000  1.0 0.0073158857
C  C30  1  0.68152000  0.35691000  0.23021000  1.0 0.0073158857
C  C31  1  0.31848000  0.64309000  0.23021000  1.0 0.0073158857
C  C32  1  0.31848000  0.35691000  0.76979000  1.0 0.0073158857
C  C33  1  0.64309000  0.23021000  0.31848000  1.0 0.0073158857
C  C34  1  0.76979000  0.31848000  0.35691000  1.0 0.0073158857
C  C35  1  0.35691000  0.76979000  0.31848000  1.0 0.0073158857
C  C36  1  0.35691000  0.23021000  0.68152000  1.0 0.0073158857
C  C37  1  0.73021000  0.14309000  0.18152000  1.0 0.0073158857
C  C38  1  0.14309000  0.18152000  0.73021000  1.0 0.0073158857
C  C39  1  0.18152000  0.73021000  0.14309000  1.0 0.0073158857
C  C40  1  0.18152000  0.26979000  0.85691000  1.0 0.0073158857
C  C41  1  0.26979000  0.85691000  0.18152000  1.0 0.0073158857
C  C42  1  0.14309000  0.81848000  0.26979000  1.0 0.0073158857
C  C43  1  0.85691000  0.18152000  0.26979000  1.0 0.0073158857
C  C44  1  0.81848000  0.26979000  0.14309000  1.0 0.0073158857
C  C45  1  0.26979000  0.14309000  0.81848000  1.0 0.0073158857
C  C46  1  0.68152000  0.64309000  0.76979000  1.0 0.0073158857
C  C47  1  0.64309000  0.76979000  0.68152000  1.0 0.0073158857
C  C48  1  0.76979000  0.68152000  0.64309000  1.0 0.0073158857
C  C49  1  0.29290000  0.11180000  0.14368000  1.0 -0.1707485736
C  C50  1  0.11180000  0.14368000  0.29290000  1.0 -0.1707485736
C  C51  1  0.14368000  0.29290000  0.11180000  1.0 -0.1707485736
C  C52  1  0.79290000  0.35632000  0.61180000  1.0 -0.1707485736
C  C53  1  0.79290000  0.64368000  0.38820000  1.0 -0.1707485736
C  C54  1  0.35632000  0.61180000  0.79290000  1.0 -0.1707485736
C  C55  1  0.64368000  0.38820000  0.79290000  1.0 -0.1707485736
C  C56  1  0.64368000  0.61180000  0.20710000  1.0 -0.1707485736
C  C57  1  0.38820000  0.79290000  0.64368000  1.0 -0.1707485736
C  C58  1  0.20710000  0.64368000  0.61180000  1.0 -0.1707485736
C  C59  1  0.61180000  0.20710000  0.64368000  1.0 -0.1707485736
C  C60  1  0.61180000  0.79290000  0.35632000  1.0 -0.1707485736
C  C61  1  0.29290000  0.88820000  0.85632000  1.0 -0.1707485736
C  C62  1  0.88820000  0.85632000  0.29290000  1.0 -0.1707485736
C  C63  1  0.85632000  0.29290000  0.88820000  1.0 -0.1707485736
C  C64  1  0.85632000  0.70710000  0.11180000  1.0 -0.1707485736
C  C65  1  0.70710000  0.11180000  0.85632000  1.0 -0.1707485736
C  C66  1  0.88820000  0.14368000  0.70710000  1.0 -0.1707485736
C  C67  1  0.11180000  0.85632000  0.70710000  1.0 -0.1707485736
C  C68  1  0.14368000  0.70710000  0.88820000  1.0 -0.1707485736
C  C69  1  0.70710000  0.88820000  0.14368000  1.0 -0.1707485736
C  C70  1  0.35632000  0.38820000  0.20710000  1.0 -0.1707485736
C  C71  1  0.38820000  0.20710000  0.35632000  1.0 -0.1707485736
C  C72  1  0.20710000  0.35632000  0.38820000  1.0 -0.1707485736
C  C73  1  0.70710000  0.88820000  0.85632000  1.0 -0.1707485736
C  C74  1  0.88820000  0.85632000  0.70710000  1.0 -0.1707485736
C  C75  1  0.85632000  0.70710000  0.88820000  1.0 -0.1707485736
C  C76  1  0.20710000  0.64368000  0.38820000  1.0 -0.1707485736
C  C77  1  0.20710000  0.35632000  0.61180000  1.0 -0.1707485736
C  C78  1  0.64368000  0.38820000  0.20710000  1.0 -0.1707485736
C  C79  1  0.35632000  0.61180000  0.20710000  1.0 -0.1707485736
C  C80  1  0.35632000  0.38820000  0.79290000  1.0 -0.1707485736
C  C81  1  0.61180000  0.20710000  0.35632000  1.0 -0.1707485736
C  C82  1  0.79290000  0.35632000  0.38820000  1.0 -0.1707485736
C  C83  1  0.38820000  0.79290000  0.35632000  1.0 -0.1707485736
C  C84  1  0.38820000  0.20710000  0.64368000  1.0 -0.1707485736
C  C85  1  0.70710000  0.11180000  0.14368000  1.0 -0.1707485736
C  C86  1  0.11180000  0.14368000  0.70710000  1.0 -0.1707485736
C  C87  1  0.14368000  0.70710000  0.11180000  1.0 -0.1707485736
C  C88  1  0.14368000  0.29290000  0.88820000  1.0 -0.1707485736
C  C89  1  0.29290000  0.88820000  0.14368000  1.0 -0.1707485736
C  C90  1  0.11180000  0.85632000  0.29290000  1.0 -0.1707485736
C  C91  1  0.88820000  0.14368000  0.29290000  1.0 -0.1707485736
C  C92  1  0.85632000  0.29290000  0.11180000  1.0 -0.1707485736
C  C93  1  0.29290000  0.11180000  0.85632000  1.0 -0.1707485736
C  C94  1  0.64368000  0.61180000  0.79290000  1.0 -0.1707485736
C  C95  1  0.61180000  0.79290000  0.64368000  1.0 -0.1707485736
C  C96  1  0.79290000  0.64368000  0.61180000  1.0 -0.1707485736
C  C97  1  0.33955000  0.13378000  0.11224000  1.0 0.0011172424
C  C98  1  0.13378000  0.11224000  0.33955000  1.0 0.0011172424
C  C99  1  0.11224000  0.33955000  0.13378000  1.0 0.0011172424
C  C100  1  0.83955000  0.38776000  0.63378000  1.0 0.0011172424
C  C101  1  0.83955000  0.61224000  0.36622000  1.0 0.0011172424
C  C102  1  0.38776000  0.63378000  0.83955000  1.0 0.0011172424
C  C103  1  0.61224000  0.36622000  0.83955000  1.0 0.0011172424
C  C104  1  0.61224000  0.63378000  0.16045000  1.0 0.0011172424
C  C105  1  0.36622000  0.83955000  0.61224000  1.0 0.0011172424
C  C106  1  0.16045000  0.61224000  0.63378000  1.0 0.0011172424
C  C107  1  0.63378000  0.16045000  0.61224000  1.0 0.0011172424
C  C108  1  0.63378000  0.83955000  0.38776000  1.0 0.0011172424
C  C109  1  0.33955000  0.86622000  0.88776000  1.0 0.0011172424
C  C110  1  0.86622000  0.88776000  0.33955000  1.0 0.0011172424
C  C111  1  0.88776000  0.33955000  0.86622000  1.0 0.0011172424
C  C112  1  0.88776000  0.66045000  0.13378000  1.0 0.0011172424
C  C113  1  0.66045000  0.13378000  0.88776000  1.0 0.0011172424
C  C114  1  0.86622000  0.11224000  0.66045000  1.0 0.0011172424
C  C115  1  0.13378000  0.88776000  0.66045000  1.0 0.0011172424
C  C116  1  0.11224000  0.66045000  0.86622000  1.0 0.0011172424
C  C117  1  0.66045000  0.86622000  0.11224000  1.0 0.0011172424
C  C118  1  0.38776000  0.36622000  0.16045000  1.0 0.0011172424
C  C119  1  0.36622000  0.16045000  0.38776000  1.0 0.0011172424
C  C120  1  0.16045000  0.38776000  0.36622000  1.0 0.0011172424
C  C121  1  0.66045000  0.86622000  0.88776000  1.0 0.0011172424
C  C122  1  0.86622000  0.88776000  0.66045000  1.0 0.0011172424
C  C123  1  0.88776000  0.66045000  0.86622000  1.0 0.0011172424
C  C124  1  0.16045000  0.61224000  0.36622000  1.0 0.0011172424
C  C125  1  0.16045000  0.38776000  0.63378000  1.0 0.0011172424
C  C126  1  0.61224000  0.36622000  0.16045000  1.0 0.0011172424
C  C127  1  0.38776000  0.63378000  0.16045000  1.0 0.0011172424
C  C128  1  0.38776000  0.36622000  0.83955000  1.0 0.0011172424
C  C129  1  0.63378000  0.16045000  0.38776000  1.0 0.0011172424
C  C130  1  0.83955000  0.38776000  0.36622000  1.0 0.0011172424
C  C131  1  0.36622000  0.83955000  0.38776000  1.0 0.0011172424
C  C132  1  0.36622000  0.16045000  0.61224000  1.0 0.0011172424
C  C133  1  0.66045000  0.13378000  0.11224000  1.0 0.0011172424
C  C134  1  0.13378000  0.11224000  0.66045000  1.0 0.0011172424
C  C135  1  0.11224000  0.66045000  0.13378000  1.0 0.0011172424
C  C136  1  0.11224000  0.33955000  0.86622000  1.0 0.0011172424
C  C137  1  0.33955000  0.86622000  0.11224000  1.0 0.0011172424
C  C138  1  0.13378000  0.88776000  0.33955000  1.0 0.0011172424
C  C139  1  0.86622000  0.11224000  0.33955000  1.0 0.0011172424
C  C140  1  0.88776000  0.33955000  0.13378000  1.0 0.0011172424
C  C141  1  0.33955000  0.13378000  0.88776000  1.0 0.0011172424
C  C142  1  0.61224000  0.63378000  0.83955000  1.0 0.0011172424
C  C143  1  0.63378000  0.83955000  0.61224000  1.0 0.0011172424
C  C144  1  0.83955000  0.61224000  0.63378000  1.0 0.0011172424
C  C145  1  0.35496000  0.19201000  0.12223000  1.0 -0.0886911739
C  C146  1  0.19201000  0.12223000  0.35496000  1.0 -0.0886911739
C  C147  1  0.12223000  0.35496000  0.19201000  1.0 -0.0886911739
C  C148  1  0.85496000  0.37777000  0.69201000  1.0 -0.0886911739
C  C149  1  0.85496000  0.62223000  0.30799000  1.0 -0.0886911739
C  C150  1  0.37777000  0.69201000  0.85496000  1.0 -0.0886911739
C  C151  1  0.62223000  0.30799000  0.85496000  1.0 -0.0886911739
C  C152  1  0.62223000  0.69201000  0.14504000  1.0 -0.0886911739
C  C153  1  0.30799000  0.85496000  0.62223000  1.0 -0.0886911739
C  C154  1  0.14504000  0.62223000  0.69201000  1.0 -0.0886911739
C  C155  1  0.69201000  0.14504000  0.62223000  1.0 -0.0886911739
C  C156  1  0.69201000  0.85496000  0.37777000  1.0 -0.0886911739
C  C157  1  0.35496000  0.80799000  0.87777000  1.0 -0.0886911739
C  C158  1  0.80799000  0.87777000  0.35496000  1.0 -0.0886911739
C  C159  1  0.87777000  0.35496000  0.80799000  1.0 -0.0886911739
C  C160  1  0.87777000  0.64504000  0.19201000  1.0 -0.0886911739
C  C161  1  0.64504000  0.19201000  0.87777000  1.0 -0.0886911739
C  C162  1  0.80799000  0.12223000  0.64504000  1.0 -0.0886911739
C  C163  1  0.19201000  0.87777000  0.64504000  1.0 -0.0886911739
C  C164  1  0.12223000  0.64504000  0.80799000  1.0 -0.0886911739
C  C165  1  0.64504000  0.80799000  0.12223000  1.0 -0.0886911739
C  C166  1  0.37777000  0.30799000  0.14504000  1.0 -0.0886911739
C  C167  1  0.30799000  0.14504000  0.37777000  1.0 -0.0886911739
C  C168  1  0.14504000  0.37777000  0.30799000  1.0 -0.0886911739
C  C169  1  0.64504000  0.80799000  0.87777000  1.0 -0.0886911739
C  C170  1  0.80799000  0.87777000  0.64504000  1.0 -0.0886911739
C  C171  1  0.87777000  0.64504000  0.80799000  1.0 -0.0886911739
C  C172  1  0.14504000  0.62223000  0.30799000  1.0 -0.0886911739
C  C173  1  0.14504000  0.37777000  0.69201000  1.0 -0.0886911739
C  C174  1  0.62223000  0.30799000  0.14504000  1.0 -0.0886911739
C  C175  1  0.37777000  0.69201000  0.14504000  1.0 -0.0886911739
C  C176  1  0.37777000  0.30799000  0.85496000  1.0 -0.0886911739
C  C177  1  0.69201000  0.14504000  0.37777000  1.0 -0.0886911739
C  C178  1  0.85496000  0.37777000  0.30799000  1.0 -0.0886911739
C  C179  1  0.30799000  0.85496000  0.37777000  1.0 -0.0886911739
C  C180  1  0.30799000  0.14504000  0.62223000  1.0 -0.0886911739
C  C181  1  0.64504000  0.19201000  0.12223000  1.0 -0.0886911739
C  C182  1  0.19201000  0.12223000  0.64504000  1.0 -0.0886911739
C  C183  1  0.12223000  0.64504000  0.19201000  1.0 -0.0886911739
C  C184  1  0.12223000  0.35496000  0.80799000  1.0 -0.0886911739
C  C185  1  0.35496000  0.80799000  0.12223000  1.0 -0.0886911739
C  C186  1  0.19201000  0.87777000  0.35496000  1.0 -0.0886911739
C  C187  1  0.80799000  0.12223000  0.35496000  1.0 -0.0886911739
C  C188  1  0.87777000  0.35496000  0.19201000  1.0 -0.0886911739
C  C189  1  0.35496000  0.19201000  0.87777000  1.0 -0.0886911739
C  C190  1  0.62223000  0.69201000  0.85496000  1.0 -0.0886911739
C  C191  1  0.69201000  0.85496000  0.62223000  1.0 -0.0886911739
C  C192  1  0.85496000  0.62223000  0.69201000  1.0 -0.0886911739
C  C193  1  0.32525000  0.21828000  0.16384000  1.0 0.1431218254
C  C194  1  0.21828000  0.16384000  0.32525000  1.0 0.1431218254
C  C195  1  0.16384000  0.32525000  0.21828000  1.0 0.1431218254
C  C196  1  0.82525000  0.33616000  0.71828000  1.0 0.1431218254
C  C197  1  0.82525000  0.66384000  0.28172000  1.0 0.1431218254
C  C198  1  0.33616000  0.71828000  0.82525000  1.0 0.1431218254
C  C199  1  0.66384000  0.28172000  0.82525000  1.0 0.1431218254
C  C200  1  0.66384000  0.71828000  0.17475000  1.0 0.1431218254
C  C201  1  0.28172000  0.82525000  0.66384000  1.0 0.1431218254
C  C202  1  0.17475000  0.66384000  0.71828000  1.0 0.1431218254
C  C203  1  0.71828000  0.17475000  0.66384000  1.0 0.1431218254
C  C204  1  0.71828000  0.82525000  0.33616000  1.0 0.1431218254
C  C205  1  0.32525000  0.78172000  0.83616000  1.0 0.1431218254
C  C206  1  0.78172000  0.83616000  0.32525000  1.0 0.1431218254
C  C207  1  0.83616000  0.32525000  0.78172000  1.0 0.1431218254
C  C208  1  0.83616000  0.67475000  0.21828000  1.0 0.1431218254
C  C209  1  0.67475000  0.21828000  0.83616000  1.0 0.1431218254
C  C210  1  0.78172000  0.16384000  0.67475000  1.0 0.1431218254
C  C211  1  0.21828000  0.83616000  0.67475000  1.0 0.1431218254
C  C212  1  0.16384000  0.67475000  0.78172000  1.0 0.1431218254
C  C213  1  0.67475000  0.78172000  0.16384000  1.0 0.1431218254
C  C214  1  0.33616000  0.28172000  0.17475000  1.0 0.1431218254
C  C215  1  0.28172000  0.17475000  0.33616000  1.0 0.1431218254
C  C216  1  0.17475000  0.33616000  0.28172000  1.0 0.1431218254
C  C217  1  0.67475000  0.78172000  0.83616000  1.0 0.1431218254
C  C218  1  0.78172000  0.83616000  0.67475000  1.0 0.1431218254
C  C219  1  0.83616000  0.67475000  0.78172000  1.0 0.1431218254
C  C220  1  0.17475000  0.66384000  0.28172000  1.0 0.1431218254
C  C221  1  0.17475000  0.33616000  0.71828000  1.0 0.1431218254
C  C222  1  0.66384000  0.28172000  0.17475000  1.0 0.1431218254
C  C223  1  0.33616000  0.71828000  0.17475000  1.0 0.1431218254
C  C224  1  0.33616000  0.28172000  0.82525000  1.0 0.1431218254
C  C225  1  0.71828000  0.17475000  0.33616000  1.0 0.1431218254
C  C226  1  0.82525000  0.33616000  0.28172000  1.0 0.1431218254
C  C227  1  0.28172000  0.82525000  0.33616000  1.0 0.1431218254
C  C228  1  0.28172000  0.17475000  0.66384000  1.0 0.1431218254
C  C229  1  0.67475000  0.21828000  0.16384000  1.0 0.1431218254
C  C230  1  0.21828000  0.16384000  0.67475000  1.0 0.1431218254
C  C231  1  0.16384000  0.67475000  0.21828000  1.0 0.1431218254
C  C232  1  0.16384000  0.32525000  0.78172000  1.0 0.1431218254
C  C233  1  0.32525000  0.78172000  0.16384000  1.0 0.1431218254
C  C234  1  0.21828000  0.83616000  0.32525000  1.0 0.1431218254
C  C235  1  0.78172000  0.16384000  0.32525000  1.0 0.1431218254
C  C236  1  0.83616000  0.32525000  0.21828000  1.0 0.1431218254
C  C237  1  0.32525000  0.21828000  0.83616000  1.0 0.1431218254
C  C238  1  0.66384000  0.71828000  0.82525000  1.0 0.1431218254
C  C239  1  0.71828000  0.82525000  0.66384000  1.0 0.1431218254
C  C240  1  0.82525000  0.66384000  0.71828000  1.0 0.1431218254
C  C241  1  0.39878000  0.21663000  0.09075000  1.0 0.2824489714
C  C242  1  0.21663000  0.09075000  0.39878000  1.0 0.2824489714
C  C243  1  0.09075000  0.39878000  0.21663000  1.0 0.2824489714
C  C244  1  0.89878000  0.40925000  0.71663000  1.0 0.2824489714
C  C245  1  0.89878000  0.59075000  0.28337000  1.0 0.2824489714
C  C246  1  0.40925000  0.71663000  0.89878000  1.0 0.2824489714
C  C247  1  0.59075000  0.28337000  0.89878000  1.0 0.2824489714
C  C248  1  0.59075000  0.71663000  0.10122000  1.0 0.2824489714
C  C249  1  0.28337000  0.89878000  0.59075000  1.0 0.2824489714
C  C250  1  0.10122000  0.59075000  0.71663000  1.0 0.2824489714
C  C251  1  0.71663000  0.10122000  0.59075000  1.0 0.2824489714
C  C252  1  0.71663000  0.89878000  0.40925000  1.0 0.2824489714
C  C253  1  0.39878000  0.78337000  0.90925000  1.0 0.2824489714
C  C254  1  0.78337000  0.90925000  0.39878000  1.0 0.2824489714
C  C255  1  0.90925000  0.39878000  0.78337000  1.0 0.2824489714
C  C256  1  0.90925000  0.60122000  0.21663000  1.0 0.2824489714
C  C257  1  0.60122000  0.21663000  0.90925000  1.0 0.2824489714
C  C258  1  0.78337000  0.09075000  0.60122000  1.0 0.2824489714
C  C259  1  0.21663000  0.90925000  0.60122000  1.0 0.2824489714
C  C260  1  0.09075000  0.60122000  0.78337000  1.0 0.2824489714
C  C261  1  0.60122000  0.78337000  0.09075000  1.0 0.2824489714
C  C262  1  0.40925000  0.28337000  0.10122000  1.0 0.2824489714
C  C263  1  0.28337000  0.10122000  0.40925000  1.0 0.2824489714
C  C264  1  0.10122000  0.40925000  0.28337000  1.0 0.2824489714
C  C265  1  0.60122000  0.78337000  0.90925000  1.0 0.2824489714
C  C266  1  0.78337000  0.90925000  0.60122000  1.0 0.2824489714
C  C267  1  0.90925000  0.60122000  0.78337000  1.0 0.2824489714
C  C268  1  0.10122000  0.59075000  0.28337000  1.0 0.2824489714
C  C269  1  0.10122000  0.40925000  0.71663000  1.0 0.2824489714
C  C270  1  0.59075000  0.28337000  0.10122000  1.0 0.2824489714
C  C271  1  0.40925000  0.71663000  0.10122000  1.0 0.2824489714
C  C272  1  0.40925000  0.28337000  0.89878000  1.0 0.2824489714
C  C273  1  0.71663000  0.10122000  0.40925000  1.0 0.2824489714
C  C274  1  0.89878000  0.40925000  0.28337000  1.0 0.2824489714
C  C275  1  0.28337000  0.89878000  0.40925000  1.0 0.2824489714
C  C276  1  0.28337000  0.10122000  0.59075000  1.0 0.2824489714
C  C277  1  0.60122000  0.21663000  0.09075000  1.0 0.2824489714
C  C278  1  0.21663000  0.09075000  0.60122000  1.0 0.2824489714
C  C279  1  0.09075000  0.60122000  0.21663000  1.0 0.2824489714
C  C280  1  0.09075000  0.39878000  0.78337000  1.0 0.2824489714
C  C281  1  0.39878000  0.78337000  0.09075000  1.0 0.2824489714
C  C282  1  0.21663000  0.90925000  0.39878000  1.0 0.2824489714
C  C283  1  0.78337000  0.09075000  0.39878000  1.0 0.2824489714
C  C284  1  0.90925000  0.39878000  0.21663000  1.0 0.2824489714
C  C285  1  0.39878000  0.21663000  0.90925000  1.0 0.2824489714
C  C286  1  0.59075000  0.71663000  0.89878000  1.0 0.2824489714
C  C287  1  0.71663000  0.89878000  0.59075000  1.0 0.2824489714
C  C288  1  0.89878000  0.59075000  0.71663000  1.0 0.2824489714
N  N1  1  0.28245000  0.19689000  0.19359000  1.0 -0.2090047429
N  N2  1  0.19689000  0.19359000  0.28245000  1.0 -0.2090047429
N  N3  1  0.19359000  0.28245000  0.19689000  1.0 -0.2090047429
N  N4  1  0.78245000  0.30641000  0.69689000  1.0 -0.2090047429
N  N5  1  0.78245000  0.69359000  0.30311000  1.0 -0.2090047429
N  N6  1  0.30641000  0.69689000  0.78245000  1.0 -0.2090047429
N  N7  1  0.69359000  0.30311000  0.78245000  1.0 -0.2090047429
N  N8  1  0.69359000  0.69689000  0.21755000  1.0 -0.2090047429
N  N9  1  0.30311000  0.78245000  0.69359000  1.0 -0.2090047429
N  N10  1  0.21755000  0.69359000  0.69689000  1.0 -0.2090047429
N  N11  1  0.69689000  0.21755000  0.69359000  1.0 -0.2090047429
N  N12  1  0.69689000  0.78245000  0.30641000  1.0 -0.2090047429
N  N13  1  0.28245000  0.80311000  0.80641000  1.0 -0.2090047429
N  N14  1  0.80311000  0.80641000  0.28245000  1.0 -0.2090047429
N  N15  1  0.80641000  0.28245000  0.80311000  1.0 -0.2090047429
N  N16  1  0.80641000  0.71755000  0.19689000  1.0 -0.2090047429
N  N17  1  0.71755000  0.19689000  0.80641000  1.0 -0.2090047429
N  N18  1  0.80311000  0.19359000  0.71755000  1.0 -0.2090047429
N  N19  1  0.19689000  0.80641000  0.71755000  1.0 -0.2090047429
N  N20  1  0.19359000  0.71755000  0.80311000  1.0 -0.2090047429
N  N21  1  0.71755000  0.80311000  0.19359000  1.0 -0.2090047429
N  N22  1  0.30641000  0.30311000  0.21755000  1.0 -0.2090047429
N  N23  1  0.30311000  0.21755000  0.30641000  1.0 -0.2090047429
N  N24  1  0.21755000  0.30641000  0.30311000  1.0 -0.2090047429
N  N25  1  0.71755000  0.80311000  0.80641000  1.0 -0.2090047429
N  N26  1  0.80311000  0.80641000  0.71755000  1.0 -0.2090047429
N  N27  1  0.80641000  0.71755000  0.80311000  1.0 -0.2090047429
N  N28  1  0.21755000  0.69359000  0.30311000  1.0 -0.2090047429
N  N29  1  0.21755000  0.30641000  0.69689000  1.0 -0.2090047429
N  N30  1  0.69359000  0.30311000  0.21755000  1.0 -0.2090047429
N  N31  1  0.30641000  0.69689000  0.21755000  1.0 -0.2090047429
N  N32  1  0.30641000  0.30311000  0.78245000  1.0 -0.2090047429
N  N33  1  0.69689000  0.21755000  0.30641000  1.0 -0.2090047429
N  N34  1  0.78245000  0.30641000  0.30311000  1.0 -0.2090047429
N  N35  1  0.30311000  0.78245000  0.30641000  1.0 -0.2090047429
N  N36  1  0.30311000  0.21755000  0.69359000  1.0 -0.2090047429
N  N37  1  0.71755000  0.19689000  0.19359000  1.0 -0.2090047429
N  N38  1  0.19689000  0.19359000  0.71755000  1.0 -0.2090047429
N  N39  1  0.19359000  0.71755000  0.19689000  1.0 -0.2090047429
N  N40  1  0.19359000  0.28245000  0.80311000  1.0 -0.2090047429
N  N41  1  0.28245000  0.80311000  0.19359000  1.0 -0.2090047429
N  N42  1  0.19689000  0.80641000  0.28245000  1.0 -0.2090047429
N  N43  1  0.80311000  0.19359000  0.28245000  1.0 -0.2090047429
N  N44  1  0.80641000  0.28245000  0.19689000  1.0 -0.2090047429
N  N45  1  0.28245000  0.19689000  0.80641000  1.0 -0.2090047429
N  N46  1  0.69359000  0.69689000  0.78245000  1.0 -0.2090047429
N  N47  1  0.69689000  0.78245000  0.69359000  1.0 -0.2090047429
N  N48  1  0.78245000  0.69359000  0.69689000  1.0 -0.2090047429
Cl  Cl1  1  0.27701000  0.27796000  0.00000000  1.0 1.2419058797
Cl  Cl2  1  0.00000000  0.27701000  0.27796000  1.0 1.2419058797
Cl  Cl3  1  0.27796000  0.00000000  0.27701000  1.0 1.2419058797
Cl  Cl4  1  0.77701000  0.50000000  0.22204000  1.0 1.2419058797
Cl  Cl5  1  0.22204000  0.77701000  0.50000000  1.0 1.2419058797
Cl  Cl6  1  0.50000000  0.77796000  0.77701000  1.0 1.2419058797
Cl  Cl7  1  0.50000000  0.22204000  0.77701000  1.0 1.2419058797
Cl  Cl8  1  0.77701000  0.50000000  0.77796000  1.0 1.2419058797
Cl  Cl9  1  0.77796000  0.77701000  0.50000000  1.0 1.2419058797
Cl  Cl10  1  0.77796000  0.22299000  0.50000000  1.0 1.2419058797
Cl  Cl11  1  0.50000000  0.77796000  0.22299000  1.0 1.2419058797
Cl  Cl12  1  0.22299000  0.50000000  0.77796000  1.0 1.2419058797
Cl  Cl13  1  0.00000000  0.72299000  0.27796000  1.0 1.2419058797
Cl  Cl14  1  0.00000000  0.27701000  0.72204000  1.0 1.2419058797
Cl  Cl15  1  0.27701000  0.72204000  0.00000000  1.0 1.2419058797
Cl  Cl16  1  0.00000000  0.72299000  0.72204000  1.0 1.2419058797
Cl  Cl17  1  0.72204000  0.00000000  0.27701000  1.0 1.2419058797
Cl  Cl18  1  0.72204000  0.00000000  0.72299000  1.0 1.2419058797
Cl  Cl19  1  0.27796000  0.00000000  0.72299000  1.0 1.2419058797
Cl  Cl20  1  0.72299000  0.72204000  0.00000000  1.0 1.2419058797
Cl  Cl21  1  0.72299000  0.27796000  0.00000000  1.0 1.2419058797
Cl  Cl22  1  0.22204000  0.22299000  0.50000000  1.0 1.2419058797
Cl  Cl23  1  0.50000000  0.22204000  0.22299000  1.0 1.2419058797
Cl  Cl24  1  0.22299000  0.50000000  0.22204000  1.0 1.2419058797
O  O1  1  0.43205000  0.19536000  0.06004000  1.0 -0.3267757298
O  O2  1  0.19536000  0.06004000  0.43205000  1.0 -0.3267757298
O  O3  1  0.06004000  0.43205000  0.19536000  1.0 -0.3267757298
O  O4  1  0.93205000  0.43996000  0.69536000  1.0 -0.3267757298
O  O5  1  0.93205000  0.56004000  0.30464000  1.0 -0.3267757298
O  O6  1  0.43996000  0.69536000  0.93205000  1.0 -0.3267757298
O  O7  1  0.56004000  0.30464000  0.93205000  1.0 -0.3267757298
O  O8  1  0.56004000  0.69536000  0.06795000  1.0 -0.3267757298
O  O9  1  0.30464000  0.93205000  0.56004000  1.0 -0.3267757298
O  O10  1  0.06795000  0.56004000  0.69536000  1.0 -0.3267757298
O  O11  1  0.69536000  0.06795000  0.56004000  1.0 -0.3267757298
O  O12  1  0.69536000  0.93205000  0.43996000  1.0 -0.3267757298
O  O13  1  0.43205000  0.80464000  0.93996000  1.0 -0.3267757298
O  O14  1  0.80464000  0.93996000  0.43205000  1.0 -0.3267757298
O  O15  1  0.93996000  0.43205000  0.80464000  1.0 -0.3267757298
O  O16  1  0.93996000  0.56795000  0.19536000  1.0 -0.3267757298
O  O17  1  0.56795000  0.19536000  0.93996000  1.0 -0.3267757298
O  O18  1  0.80464000  0.06004000  0.56795000  1.0 -0.3267757298
O  O19  1  0.19536000  0.93996000  0.56795000  1.0 -0.3267757298
O  O20  1  0.06004000  0.56795000  0.80464000  1.0 -0.3267757298
O  O21  1  0.56795000  0.80464000  0.06004000  1.0 -0.3267757298
O  O22  1  0.43996000  0.30464000  0.06795000  1.0 -0.3267757298
O  O23  1  0.30464000  0.06795000  0.43996000  1.0 -0.3267757298
O  O24  1  0.06795000  0.43996000  0.30464000  1.0 -0.3267757298
O  O25  1  0.56795000  0.80464000  0.93996000  1.0 -0.3267757298
O  O26  1  0.80464000  0.93996000  0.56795000  1.0 -0.3267757298
O  O27  1  0.93996000  0.56795000  0.80464000  1.0 -0.3267757298
O  O28  1  0.06795000  0.56004000  0.30464000  1.0 -0.3267757298
O  O29  1  0.06795000  0.43996000  0.69536000  1.0 -0.3267757298
O  O30  1  0.56004000  0.30464000  0.06795000  1.0 -0.3267757298
O  O31  1  0.43996000  0.69536000  0.06795000  1.0 -0.3267757298
O  O32  1  0.43996000  0.30464000  0.93205000  1.0 -0.3267757298
O  O33  1  0.69536000  0.06795000  0.43996000  1.0 -0.3267757298
O  O34  1  0.93205000  0.43996000  0.30464000  1.0 -0.3267757298
O  O35  1  0.30464000  0.93205000  0.43996000  1.0 -0.3267757298
O  O36  1  0.30464000  0.06795000  0.56004000  1.0 -0.3267757298
O  O37  1  0.56795000  0.19536000  0.06004000  1.0 -0.3267757298
O  O38  1  0.19536000  0.06004000  0.56795000  1.0 -0.3267757298
O  O39  1  0.06004000  0.56795000  0.19536000  1.0 -0.3267757298
O  O40  1  0.06004000  0.43205000  0.80464000  1.0 -0.3267757298
O  O41  1  0.43205000  0.80464000  0.06004000  1.0 -0.3267757298
O  O42  1  0.19536000  0.93996000  0.43205000  1.0 -0.3267757298
O  O43  1  0.80464000  0.06004000  0.43205000  1.0 -0.3267757298
O  O44  1  0.93996000  0.43205000  0.19536000  1.0 -0.3267757298
O  O45  1  0.43205000  0.19536000  0.93996000  1.0 -0.3267757298
O  O46  1  0.56004000  0.69536000  0.93205000  1.0 -0.3267757298
O  O47  1  0.69536000  0.93205000  0.56004000  1.0 -0.3267757298
O  O48  1  0.93205000  0.56004000  0.69536000  1.0 -0.3267757298
O  O49  1  0.28712000  0.31021000  0.94922000  1.0 -0.5197242593
O  O50  1  0.28712000  0.31021000  0.05078000  1.0 -0.5197242593
O  O51  1  0.21970000  0.25910000  0.00000000  1.0 -0.5197242593
O  O52  1  0.31480000  0.22990000  0.00000000  1.0 -0.526215112
O  O53  1  0.94922000  0.28712000  0.31021000  1.0 -0.5197242593
O  O54  1  0.05078000  0.28712000  0.31021000  1.0 -0.5197242593
O  O55  1  0.00000000  0.21970000  0.25910000  1.0 -0.5197242593
O  O56  1  0.00000000  0.31480000  0.22990000  1.0 -0.526215112
O  O57  1  0.31021000  0.94922000  0.28712000  1.0 -0.5197242593
O  O58  1  0.31021000  0.05078000  0.28712000  1.0 -0.5197242593
O  O59  1  0.25910000  0.00000000  0.21970000  1.0 -0.5197242593
O  O60  1  0.22990000  0.00000000  0.31480000  1.0 -0.526215112
O  O61  1  0.78712000  0.44922000  0.18979000  1.0 -0.5197242593
O  O62  1  0.78712000  0.55078000  0.18979000  1.0 -0.5197242593
O  O63  1  0.71970000  0.50000000  0.24090000  1.0 -0.5197242593
O  O64  1  0.81480000  0.50000000  0.27010000  1.0 -0.526215112
O  O65  1  0.18979000  0.78712000  0.44922000  1.0 -0.5197242593
O  O66  1  0.18979000  0.78712000  0.55078000  1.0 -0.5197242593
O  O67  1  0.24090000  0.71970000  0.50000000  1.0 -0.5197242593
O  O68  1  0.27010000  0.81480000  0.50000000  1.0 -0.526215112
O  O69  1  0.55078000  0.81021000  0.78712000  1.0 -0.5197242593
O  O70  1  0.44922000  0.81021000  0.78712000  1.0 -0.5197242593
O  O71  1  0.50000000  0.75910000  0.71970000  1.0 -0.5197242593
O  O72  1  0.50000000  0.72990000  0.81480000  1.0 -0.526215112
O  O73  1  0.44922000  0.18979000  0.78712000  1.0 -0.5197242593
O  O74  1  0.55078000  0.18979000  0.78712000  1.0 -0.5197242593
O  O75  1  0.50000000  0.24090000  0.71970000  1.0 -0.5197242593
O  O76  1  0.50000000  0.27010000  0.81480000  1.0 -0.526215112
O  O77  1  0.78712000  0.55078000  0.81021000  1.0 -0.5197242593
O  O78  1  0.78712000  0.44922000  0.81021000  1.0 -0.5197242593
O  O79  1  0.71970000  0.50000000  0.75910000  1.0 -0.5197242593
O  O80  1  0.81480000  0.50000000  0.72990000  1.0 -0.526215112
O  O81  1  0.81021000  0.78712000  0.55078000  1.0 -0.5197242593
O  O82  1  0.81021000  0.78712000  0.44922000  1.0 -0.5197242593
O  O83  1  0.75910000  0.71970000  0.50000000  1.0 -0.5197242593
O  O84  1  0.72990000  0.81480000  0.50000000  1.0 -0.526215112
O  O85  1  0.81021000  0.21288000  0.44922000  1.0 -0.5197242593
O  O86  1  0.81021000  0.21288000  0.55078000  1.0 -0.5197242593
O  O87  1  0.75910000  0.28030000  0.50000000  1.0 -0.5197242593
O  O88  1  0.72990000  0.18520000  0.50000000  1.0 -0.526215112
O  O89  1  0.44922000  0.81021000  0.21288000  1.0 -0.5197242593
O  O90  1  0.55078000  0.81021000  0.21288000  1.0 -0.5197242593
O  O91  1  0.50000000  0.75910000  0.28030000  1.0 -0.5197242593
O  O92  1  0.50000000  0.72990000  0.18520000  1.0 -0.526215112
O  O93  1  0.21288000  0.44922000  0.81021000  1.0 -0.5197242593
O  O94  1  0.21288000  0.55078000  0.81021000  1.0 -0.5197242593
O  O95  1  0.28030000  0.50000000  0.75910000  1.0 -0.5197242593
O  O96  1  0.18520000  0.50000000  0.72990000  1.0 -0.526215112
O  O97  1  0.05078000  0.71288000  0.31021000  1.0 -0.5197242593
O  O98  1  0.94922000  0.71288000  0.31021000  1.0 -0.5197242593
O  O99  1  0.00000000  0.78030000  0.25910000  1.0 -0.5197242593
O  O100  1  0.00000000  0.68520000  0.22990000  1.0 -0.526215112
O  O101  1  0.05078000  0.28712000  0.68979000  1.0 -0.5197242593
O  O102  1  0.94922000  0.28712000  0.68979000  1.0 -0.5197242593
O  O103  1  0.00000000  0.21970000  0.74090000  1.0 -0.5197242593
O  O104  1  0.00000000  0.31480000  0.77010000  1.0 -0.526215112
O  O105  1  0.28712000  0.68979000  0.05078000  1.0 -0.5197242593
O  O106  1  0.28712000  0.68979000  0.94922000  1.0 -0.5197242593
O  O107  1  0.21970000  0.74090000  0.00000000  1.0 -0.5197242593
O  O108  1  0.31480000  0.77010000  0.00000000  1.0 -0.526215112
O  O109  1  0.94922000  0.71288000  0.68979000  1.0 -0.5197242593
O  O110  1  0.05078000  0.71288000  0.68979000  1.0 -0.5197242593
O  O111  1  0.00000000  0.78030000  0.74090000  1.0 -0.5197242593
O  O112  1  0.00000000  0.68520000  0.77010000  1.0 -0.526215112
O  O113  1  0.68979000  0.05078000  0.28712000  1.0 -0.5197242593
O  O114  1  0.68979000  0.94922000  0.28712000  1.0 -0.5197242593
O  O115  1  0.74090000  0.00000000  0.21970000  1.0 -0.5197242593
O  O116  1  0.77010000  0.00000000  0.31480000  1.0 -0.526215112
O  O117  1  0.68979000  0.94922000  0.71288000  1.0 -0.5197242593
O  O118  1  0.68979000  0.05078000  0.71288000  1.0 -0.5197242593
O  O119  1  0.74090000  0.00000000  0.78030000  1.0 -0.5197242593
O  O120  1  0.77010000  0.00000000  0.68520000  1.0 -0.526215112
O  O121  1  0.31021000  0.05078000  0.71288000  1.0 -0.5197242593
O  O122  1  0.31021000  0.94922000  0.71288000  1.0 -0.5197242593
O  O123  1  0.25910000  0.00000000  0.78030000  1.0 -0.5197242593
O  O124  1  0.22990000  0.00000000  0.68520000  1.0 -0.526215112
O  O125  1  0.71288000  0.68979000  0.94922000  1.0 -0.5197242593
O  O126  1  0.71288000  0.68979000  0.05078000  1.0 -0.5197242593
O  O127  1  0.78030000  0.74090000  0.00000000  1.0 -0.5197242593
O  O128  1  0.68520000  0.77010000  0.00000000  1.0 -0.526215112
O  O129  1  0.71288000  0.31021000  0.05078000  1.0 -0.5197242593
O  O130  1  0.71288000  0.31021000  0.94922000  1.0 -0.5197242593
O  O131  1  0.78030000  0.25910000  0.00000000  1.0 -0.5197242593
O  O132  1  0.68520000  0.22990000  0.00000000  1.0 -0.526215112
O  O133  1  0.18979000  0.21288000  0.55078000  1.0 -0.5197242593
O  O134  1  0.18979000  0.21288000  0.44922000  1.0 -0.5197242593
O  O135  1  0.24090000  0.28030000  0.50000000  1.0 -0.5197242593
O  O136  1  0.27010000  0.18520000  0.50000000  1.0 -0.526215112
O  O137  1  0.55078000  0.18979000  0.21288000  1.0 -0.5197242593
O  O138  1  0.44922000  0.18979000  0.21288000  1.0 -0.5197242593
O  O139  1  0.50000000  0.24090000  0.28030000  1.0 -0.5197242593
O  O140  1  0.50000000  0.27010000  0.18520000  1.0 -0.526215112
O  O141  1  0.21288000  0.55078000  0.18979000  1.0 -0.5197242593
O  O142  1  0.21288000  0.44922000  0.18979000  1.0 -0.5197242593
O  O143  1  0.28030000  0.50000000  0.24090000  1.0 -0.5197242593
O  O144  1  0.18520000  0.50000000  0.27010000  1.0 -0.526215112
