# DDEC6 charges by PACMAN v1.1 (https://github.com/mtap-research/PACMAN-charge/)
data_NEXNOX_FSR_pacman
_symmetry_space_group_name_H-M   'P 1'
_cell_length_a   42.79460000
_cell_length_b   42.79460000
_cell_length_c   42.79460000
_cell_angle_alpha   109.47100000
_cell_angle_beta   109.47100000
_cell_angle_gamma   109.47100000
_symmetry_Int_Tables_number   1
_chemical_formula_structural   Co9H42C72N63O16
_chemical_formula_sum   'Co72 H336 C576 N504 O128'
_cell_volume   60332.11789490
_cell_formula_units_Z   8
loop_
 _symmetry_equiv_pos_site_id
 _symmetry_equiv_pos_as_xyz
  1  'x, y, z'
loop_
 _atom_site_type_symbol
 _atom_site_label
 _atom_site_symmetry_multiplicity
 _atom_site_fract_x
 _atom_site_fract_y
 _atom_site_fract_z
 _atom_site_occupancy
 _atom_site_charge
Co  Co1  1  0.28171000  0.69345000  0.82976000  1.0 0.7223460655
Co  Co2  1  0.36369000  0.45195000  0.67024000  1.0 0.7223460655
Co  Co3  1  0.13631000  0.80655000  0.08826000  1.0 0.7223460655
Co  Co4  1  0.21829000  0.04805000  0.41174000  1.0 0.7223460655
Co  Co5  1  0.82976000  0.28171000  0.69345000  1.0 0.7223460655
Co  Co6  1  0.67024000  0.36369000  0.45195000  1.0 0.7223460655
Co  Co7  1  0.08826000  0.13631000  0.80655000  1.0 0.7223460655
Co  Co8  1  0.41174000  0.21829000  0.04805000  1.0 0.7223460655
Co  Co9  1  0.69345000  0.82976000  0.28171000  1.0 0.7259152719
Co  Co10  1  0.45195000  0.67024000  0.36369000  1.0 0.7223460655
Co  Co11  1  0.80655000  0.08826000  0.13631000  1.0 0.7223460655
Co  Co12  1  0.04805000  0.41174000  0.21829000  1.0 0.7223460655
Co  Co13  1  0.19345000  0.78171000  0.32976000  1.0 0.7223460655
Co  Co14  1  0.95195000  0.86369000  0.17024000  1.0 0.7223460655
Co  Co15  1  0.30655000  0.63631000  0.58826000  1.0 0.7223460655
Co  Co16  1  0.54805000  0.71829000  0.91174000  1.0 0.7223460655
Co  Co17  1  0.78171000  0.32976000  0.19345000  1.0 0.7223460655
Co  Co18  1  0.86369000  0.17024000  0.95195000  1.0 0.7223460655
Co  Co19  1  0.63631000  0.58826000  0.30655000  1.0 0.7223460655
Co  Co20  1  0.71829000  0.91174000  0.54805000  1.0 0.7223460655
Co  Co21  1  0.32976000  0.19345000  0.78171000  1.0 0.7223460655
Co  Co22  1  0.17024000  0.95195000  0.86369000  1.0 0.7223460655
Co  Co23  1  0.58826000  0.30655000  0.63631000  1.0 0.7223460655
Co  Co24  1  0.91174000  0.54805000  0.71829000  1.0 0.7223460655
Co  Co25  1  0.24979000  0.75498000  0.79475000  1.0 0.6293309543
Co  Co26  1  0.46023000  0.45504000  0.70525000  1.0 0.6293309543
Co  Co27  1  0.03977000  0.74502000  0.99481000  1.0 0.6293309543
Co  Co28  1  0.25021000  0.04496000  0.50519000  1.0 0.6293309543
Co  Co29  1  0.79475000  0.24979000  0.75498000  1.0 0.6293309543
Co  Co30  1  0.70525000  0.46023000  0.45504000  1.0 0.6293309543
Co  Co31  1  0.99481000  0.03977000  0.74502000  1.0 0.6293309543
Co  Co32  1  0.50519000  0.25021000  0.04496000  1.0 0.6293309543
Co  Co33  1  0.75498000  0.79475000  0.24979000  1.0 0.6293309543
Co  Co34  1  0.45504000  0.70525000  0.46023000  1.0 0.6293309543
Co  Co35  1  0.74502000  0.99481000  0.03977000  1.0 0.6293309543
Co  Co36  1  0.04496000  0.50519000  0.25021000  1.0 0.6293309543
Co  Co37  1  0.25498000  0.74979000  0.29475000  1.0 0.6293309543
Co  Co38  1  0.95504000  0.96023000  0.20525000  1.0 0.6293309543
Co  Co39  1  0.24502000  0.53977000  0.49481000  1.0 0.6293309543
Co  Co40  1  0.54496000  0.75021000  0.00519000  1.0 0.6293309543
Co  Co41  1  0.74979000  0.29475000  0.25498000  1.0 0.6293309543
Co  Co42  1  0.96023000  0.20525000  0.95504000  1.0 0.6293309543
Co  Co43  1  0.53977000  0.49481000  0.24502000  1.0 0.6293309543
Co  Co44  1  0.75021000  0.00519000  0.54496000  1.0 0.6293309543
Co  Co45  1  0.29475000  0.25498000  0.74979000  1.0 0.6293309543
Co  Co46  1  0.20525000  0.95504000  0.96023000  1.0 0.6293309543
Co  Co47  1  0.49481000  0.24502000  0.53977000  1.0 0.6293309543
Co  Co48  1  0.00519000  0.54496000  0.75021000  1.0 0.6293309543
Co  Co49  1  0.99243000  0.62297000  0.54404000  1.0 0.7600089231
Co  Co50  1  0.57894000  0.44840000  0.95596000  1.0 0.7600089231
Co  Co51  1  0.92107000  0.87702000  0.86946000  1.0 0.7600089231
Co  Co52  1  0.50757000  0.05160000  0.63054000  1.0 0.7539756088
Co  Co53  1  0.54404000  0.99243000  0.62298000  1.0 0.7600089231
Co  Co54  1  0.95596000  0.57893000  0.44839000  1.0 0.7600089231
Co  Co55  1  0.86946000  0.92107000  0.87703000  1.0 0.7600089231
Co  Co56  1  0.63054000  0.50757000  0.05160000  1.0 0.7600089231
Co  Co57  1  0.62297000  0.54404000  0.99243000  1.0 0.7600089231
Co  Co58  1  0.44839000  0.95596000  0.57893000  1.0 0.7600089231
Co  Co59  1  0.87703000  0.86946000  0.92107000  1.0 0.7600089231
Co  Co60  1  0.05160000  0.63054000  0.50757000  1.0 0.7665965745
Co  Co61  1  0.12297000  0.49243000  0.04404000  1.0 0.7600089231
Co  Co62  1  0.94840000  0.07894000  0.45596000  1.0 0.7600089231
Co  Co63  1  0.37702000  0.42106000  0.36946000  1.0 0.7600089231
Co  Co64  1  0.55161000  0.00757000  0.13054000  1.0 0.7539756088
Co  Co65  1  0.49244000  0.04404000  0.12297000  1.0 0.7539756088
Co  Co66  1  0.07893000  0.45596000  0.94839000  1.0 0.7600089231
Co  Co67  1  0.42107000  0.36946000  0.37702000  1.0 0.7600089231
Co  Co68  1  0.00757000  0.13054000  0.55161000  1.0 0.7600089231
Co  Co69  1  0.04404000  0.12298000  0.49244000  1.0 0.7600089231
Co  Co70  1  0.45596000  0.94839000  0.07894000  1.0 0.7600089231
Co  Co71  1  0.36946000  0.37702000  0.42107000  1.0 0.7600089231
Co  Co72  1  0.13054000  0.55161000  0.00756000  1.0 0.7600089231
H  H1  1  0.93740000  0.59950000  0.62550000  1.0 0.1504516268
H  H2  1  0.47400000  0.31190000  0.87450000  1.0 0.1504516268
H  H3  1  0.02600000  0.90050000  0.83790000  1.0 0.1504516268
H  H4  1  0.56260000  0.18810000  0.66210000  1.0 0.1504516268
H  H5  1  0.62550000  0.93740000  0.59950000  1.0 0.1504516268
H  H6  1  0.87450000  0.47400000  0.31190000  1.0 0.1504516268
H  H7  1  0.83790000  0.02600000  0.90050000  1.0 0.1504516268
H  H8  1  0.66210000  0.56260000  0.18810000  1.0 0.1504516268
H  H9  1  0.59950000  0.62550000  0.93740000  1.0 0.1504516268
H  H10  1  0.31190000  0.87450000  0.47400000  1.0 0.1504516268
H  H11  1  0.90050000  0.83790000  0.02600000  1.0 0.1504516268
H  H12  1  0.18810000  0.66210000  0.56260000  1.0 0.1504516268
H  H13  1  0.09950000  0.43740000  0.12550000  1.0 0.1504516268
H  H14  1  0.81190000  0.97400000  0.37450000  1.0 0.1504516268
H  H15  1  0.40050000  0.52600000  0.33790000  1.0 0.1504516268
H  H16  1  0.68810000  0.06260000  0.16210000  1.0 0.1504516268
H  H17  1  0.43740000  0.12550000  0.09950000  1.0 0.1504516268
H  H18  1  0.97400000  0.37450000  0.81190000  1.0 0.1504516268
H  H19  1  0.52600000  0.33790000  0.40050000  1.0 0.1504516268
H  H20  1  0.06260000  0.16210000  0.68810000  1.0 0.1504516268
H  H21  1  0.12550000  0.09950000  0.43740000  1.0 0.1504516268
H  H22  1  0.37450000  0.81190000  0.97400000  1.0 0.1504516268
H  H23  1  0.33790000  0.40050000  0.52600000  1.0 0.1504516268
H  H24  1  0.16210000  0.68810000  0.06260000  1.0 0.1504516268
H  H25  1  0.94330000  0.61510000  0.58240000  1.0 0.1166362341
H  H26  1  0.53270000  0.36090000  0.91760000  1.0 0.1166362341
H  H27  1  0.96730000  0.88490000  0.82820000  1.0 0.1166362341
H  H28  1  0.55670000  0.13910000  0.67180000  1.0 0.1119648644
H  H29  1  0.58240000  0.94330000  0.61510000  1.0 0.1119648644
H  H30  1  0.91760000  0.53270000  0.36090000  1.0 0.1166362341
H  H31  1  0.82820000  0.96730000  0.88490000  1.0 0.1166362341
H  H32  1  0.67180000  0.55670000  0.13910000  1.0 0.1166362341
H  H33  1  0.61510000  0.58240000  0.94330000  1.0 0.1166362341
H  H34  1  0.36090000  0.91760000  0.53270000  1.0 0.1119648644
H  H35  1  0.88490000  0.82820000  0.96730000  1.0 0.1166362341
H  H36  1  0.13910000  0.67180000  0.55670000  1.0 0.1119648644
H  H37  1  0.11510000  0.44330000  0.08240000  1.0 0.1119648644
H  H38  1  0.86090000  0.03270000  0.41760000  1.0 0.1166362341
H  H39  1  0.38490000  0.46730000  0.32820000  1.0 0.1119648644
H  H40  1  0.63910000  0.05670000  0.17180000  1.0 0.1166362341
H  H41  1  0.44330000  0.08240000  0.11510000  1.0 0.1119648644
H  H42  1  0.03270000  0.41760000  0.86090000  1.0 0.1119648644
H  H43  1  0.46730000  0.32820000  0.38490000  1.0 0.1119648644
H  H44  1  0.05670000  0.17180000  0.63910000  1.0 0.1119648644
H  H45  1  0.08240000  0.11510000  0.44330000  1.0 0.1119648644
H  H46  1  0.41760000  0.86090000  0.03270000  1.0 0.1166362341
H  H47  1  0.32820000  0.38490000  0.46730000  1.0 0.1166362341
H  H48  1  0.17180000  0.63910000  0.05670000  1.0 0.1119648644
H  H49  1  0.40880000  0.73260000  0.93740000  1.0 0.1406047522
H  H50  1  0.29520000  0.47140000  0.56260000  1.0 0.1406047522
H  H51  1  0.20480000  0.76740000  0.17620000  1.0 0.1406047522
H  H52  1  0.09120000  0.02860000  0.32380000  1.0 0.1406047522
H  H53  1  0.93740000  0.40880000  0.73260000  1.0 0.1406047522
H  H54  1  0.56260000  0.29520000  0.47140000  1.0 0.1406047522
H  H55  1  0.17620000  0.20480000  0.76740000  1.0 0.1406047522
H  H56  1  0.32380000  0.09120000  0.02860000  1.0 0.1406047522
H  H57  1  0.73260000  0.93740000  0.40880000  1.0 0.1406047522
H  H58  1  0.47140000  0.56260000  0.29520000  1.0 0.1406047522
H  H59  1  0.76740000  0.17620000  0.20480000  1.0 0.1406047522
H  H60  1  0.02860000  0.32380000  0.09120000  1.0 0.1406047522
H  H61  1  0.23260000  0.90880000  0.43740000  1.0 0.1406047522
H  H62  1  0.97140000  0.79520000  0.06260000  1.0 0.1406047522
H  H63  1  0.26740000  0.70480000  0.67620000  1.0 0.1406047522
H  H64  1  0.52860000  0.59120000  0.82380000  1.0 0.1406047522
H  H65  1  0.90880000  0.43740000  0.23260000  1.0 0.1406047522
H  H66  1  0.79520000  0.06260000  0.97140000  1.0 0.1406047522
H  H67  1  0.70480000  0.67620000  0.26740000  1.0 0.1406047522
H  H68  1  0.59120000  0.82380000  0.52860000  1.0 0.1406047522
H  H69  1  0.43740000  0.23260000  0.90880000  1.0 0.1406047522
H  H70  1  0.06260000  0.97140000  0.79520000  1.0 0.1406047522
H  H71  1  0.67620000  0.26740000  0.70480000  1.0 0.1406047522
H  H72  1  0.82380000  0.52860000  0.59120000  1.0 0.1406047522
H  H73  1  0.33720000  0.67460000  0.80640000  1.0 0.1166362341
H  H74  1  0.36820000  0.53080000  0.69360000  1.0 0.1166362341
H  H75  1  0.13180000  0.82540000  0.16260000  1.0 0.1166362341
H  H76  1  0.16280000  0.96920000  0.33740000  1.0 0.1166362341
H  H77  1  0.80640000  0.33720000  0.67460000  1.0 0.1166362341
H  H78  1  0.69360000  0.36820000  0.53080000  1.0 0.1166362341
H  H79  1  0.16260000  0.13180000  0.82540000  1.0 0.1166362341
H  H80  1  0.33740000  0.16280000  0.96920000  1.0 0.1166362341
H  H81  1  0.67460000  0.80640000  0.33720000  1.0 0.1166362341
H  H82  1  0.53080000  0.69360000  0.36820000  1.0 0.1166362341
H  H83  1  0.82540000  0.16260000  0.13180000  1.0 0.1166362341
H  H84  1  0.96920000  0.33740000  0.16280000  1.0 0.1166362341
H  H85  1  0.17460000  0.83720000  0.30640000  1.0 0.1166362341
H  H86  1  0.03080000  0.86820000  0.19360000  1.0 0.1166362341
H  H87  1  0.32540000  0.63180000  0.66260000  1.0 0.1166362341
H  H88  1  0.46920000  0.66280000  0.83740000  1.0 0.1166362341
H  H89  1  0.83720000  0.30640000  0.17460000  1.0 0.1166362341
H  H90  1  0.86820000  0.19360000  0.03080000  1.0 0.1166362341
H  H91  1  0.63180000  0.66260000  0.32540000  1.0 0.1166362341
H  H92  1  0.66280000  0.83740000  0.46920000  1.0 0.1166362341
H  H93  1  0.30640000  0.17460000  0.83720000  1.0 0.1166362341
H  H94  1  0.19360000  0.03080000  0.86820000  1.0 0.1166362341
H  H95  1  0.66260000  0.32540000  0.63180000  1.0 0.1166362341
H  H96  1  0.83740000  0.46920000  0.66280000  1.0 0.1166362341
H  H97  1  0.02230000  0.57360000  0.63590000  1.0 0.1504516268
H  H98  1  0.43770000  0.38640000  0.86410000  1.0 0.1504516268
H  H99  1  0.06230000  0.92640000  0.94870000  1.0 0.1504516268
H  H100  1  0.47770000  0.11360000  0.55130000  1.0 0.1504516268
H  H101  1  0.63590000  0.02230000  0.57360000  1.0 0.1504516268
H  H102  1  0.86410000  0.43770000  0.38640000  1.0 0.1504516268
H  H103  1  0.94870000  0.06230000  0.92640000  1.0 0.1504516268
H  H104  1  0.55130000  0.47770000  0.11360000  1.0 0.1504516268
H  H105  1  0.57360000  0.63590000  0.02230000  1.0 0.1504516268
H  H106  1  0.38640000  0.86410000  0.43770000  1.0 0.1504516268
H  H107  1  0.92640000  0.94870000  0.06230000  1.0 0.1504516268
H  H108  1  0.11360000  0.55130000  0.47770000  1.0 0.1504516268
H  H109  1  0.07360000  0.52230000  0.13590000  1.0 0.1504516268
H  H110  1  0.88640000  0.93770000  0.36410000  1.0 0.1504516268
H  H111  1  0.42640000  0.56230000  0.44870000  1.0 0.1504516268
H  H112  1  0.61360000  0.97770000  0.05130000  1.0 0.1504516268
H  H113  1  0.52230000  0.13590000  0.07360000  1.0 0.1504516268
H  H114  1  0.93770000  0.36410000  0.88640000  1.0 0.1504516268
H  H115  1  0.56230000  0.44870000  0.42640000  1.0 0.1504516268
H  H116  1  0.97770000  0.05130000  0.61360000  1.0 0.1504516268
H  H117  1  0.13590000  0.07360000  0.52230000  1.0 0.1504516268
H  H118  1  0.36410000  0.88640000  0.93770000  1.0 0.1504516268
H  H119  1  0.44870000  0.42640000  0.56230000  1.0 0.1504516268
H  H120  1  0.05130000  0.61360000  0.97770000  1.0 0.1504516268
H  H121  1  0.02710000  0.59350000  0.59420000  1.0 0.1166362341
H  H122  1  0.49930000  0.43290000  0.90580000  1.0 0.1166362341
H  H123  1  0.00070000  0.90650000  0.93360000  1.0 0.1119648644
H  H124  1  0.47290000  0.06710000  0.56640000  1.0 0.1166362341
H  H125  1  0.59420000  0.02710000  0.59350000  1.0 0.1166362341
H  H126  1  0.90580000  0.49930000  0.43290000  1.0 0.1166362341
H  H127  1  0.93360000  0.00070000  0.90650000  1.0 0.1166362341
H  H128  1  0.56640000  0.47290000  0.06710000  1.0 0.1166362341
H  H129  1  0.59350000  0.59420000  0.02710000  1.0 0.1166362341
H  H130  1  0.43290000  0.90580000  0.49930000  1.0 0.1119648644
H  H131  1  0.90650000  0.93360000  0.00070000  1.0 0.1166362341
H  H132  1  0.06710000  0.56640000  0.47290000  1.0 0.1166362341
H  H133  1  0.09350000  0.52710000  0.09420000  1.0 0.1166362341
H  H134  1  0.93290000  0.99930000  0.40580000  1.0 0.1166362341
H  H135  1  0.40650000  0.50070000  0.43360000  1.0 0.1166362341
H  H136  1  0.56710000  0.97290000  0.06640000  1.0 0.1166362341
H  H137  1  0.52710000  0.09420000  0.09350000  1.0 0.1166362341
H  H138  1  0.99930000  0.40580000  0.93290000  1.0 0.1119648644
H  H139  1  0.50070000  0.43360000  0.40650000  1.0 0.1166362341
H  H140  1  0.97290000  0.06640000  0.56710000  1.0 0.1166362341
H  H141  1  0.09420000  0.09350000  0.52710000  1.0 0.1166362341
H  H142  1  0.40580000  0.93290000  0.99930000  1.0 0.1119648644
H  H143  1  0.43360000  0.40650000  0.50070000  1.0 0.1166362341
H  H144  1  0.06640000  0.56710000  0.97290000  1.0 0.1119648644
H  H145  1  0.10860000  0.69770000  0.69150000  1.0 0.1504516268
H  H146  1  0.50620000  0.41710000  0.80850000  1.0 0.1504516268
H  H147  1  0.99380000  0.80230000  0.91090000  1.0 0.1504516268
H  H148  1  0.39140000  0.08290000  0.58910000  1.0 0.1504516268
H  H149  1  0.69150000  0.10860000  0.69770000  1.0 0.1504516268
H  H150  1  0.80850000  0.50620000  0.41710000  1.0 0.1504516268
H  H151  1  0.91090000  0.99380000  0.80230000  1.0 0.1504516268
H  H152  1  0.58910000  0.39140000  0.08290000  1.0 0.1504516268
H  H153  1  0.69770000  0.69150000  0.10860000  1.0 0.1504516268
H  H154  1  0.41710000  0.80850000  0.50620000  1.0 0.1504516268
H  H155  1  0.80230000  0.91090000  0.99380000  1.0 0.1504516268
H  H156  1  0.08290000  0.58910000  0.39140000  1.0 0.1504516268
H  H157  1  0.19770000  0.60860000  0.19150000  1.0 0.1504516268
H  H158  1  0.91710000  0.00620000  0.30850000  1.0 0.1504516268
H  H159  1  0.30230000  0.49380000  0.41090000  1.0 0.1504516268
H  H160  1  0.58290000  0.89140000  0.08910000  1.0 0.1504516268
H  H161  1  0.60860000  0.19150000  0.19770000  1.0 0.1504516268
H  H162  1  0.00620000  0.30850000  0.91710000  1.0 0.1504516268
H  H163  1  0.49380000  0.41090000  0.30230000  1.0 0.1504516268
H  H164  1  0.89140000  0.08910000  0.58290000  1.0 0.1504516268
H  H165  1  0.19150000  0.19770000  0.60860000  1.0 0.1504516268
H  H166  1  0.30850000  0.91710000  0.00620000  1.0 0.1504516268
H  H167  1  0.41090000  0.30230000  0.49380000  1.0 0.1504516268
H  H168  1  0.08910000  0.58290000  0.89140000  1.0 0.1504516268
H  H169  1  0.34850000  0.72550000  0.90780000  1.0 0.1119648644
H  H170  1  0.31770000  0.44070000  0.59220000  1.0 0.1119648644
H  H171  1  0.18230000  0.77450000  0.12300000  1.0 0.1119648644
H  H172  1  0.15150000  0.05930000  0.37700000  1.0 0.1119648644
H  H173  1  0.90780000  0.34850000  0.72550000  1.0 0.1119648644
H  H174  1  0.59220000  0.31770000  0.44070000  1.0 0.1119648644
H  H175  1  0.12300000  0.18230000  0.77450000  1.0 0.1119648644
H  H176  1  0.37700000  0.15150000  0.05930000  1.0 0.1119648644
H  H177  1  0.72550000  0.90780000  0.34850000  1.0 0.1119648644
H  H178  1  0.44070000  0.59220000  0.31770000  1.0 0.1119648644
H  H179  1  0.77450000  0.12300000  0.18230000  1.0 0.1119648644
H  H180  1  0.05930000  0.37700000  0.15150000  1.0 0.1119648644
H  H181  1  0.22550000  0.84850000  0.40780000  1.0 0.1119648644
H  H182  1  0.94070000  0.81770000  0.09220000  1.0 0.1119648644
H  H183  1  0.27450000  0.68230000  0.62300000  1.0 0.1119648644
H  H184  1  0.55930000  0.65150000  0.87700000  1.0 0.1119648644
H  H185  1  0.84850000  0.40780000  0.22550000  1.0 0.1119648644
H  H186  1  0.81770000  0.09220000  0.94070000  1.0 0.1119648644
H  H187  1  0.68230000  0.62300000  0.27450000  1.0 0.1119648644
H  H188  1  0.65150000  0.87700000  0.55930000  1.0 0.1119648644
H  H189  1  0.40780000  0.22550000  0.84850000  1.0 0.1119648644
H  H190  1  0.09220000  0.94070000  0.81770000  1.0 0.1119648644
H  H191  1  0.62300000  0.27450000  0.68230000  1.0 0.1119648644
H  H192  1  0.87700000  0.55930000  0.65150000  1.0 0.1119648644
H  H193  1  0.14490000  0.59830000  0.79040000  1.0 0.1695556251
H  H194  1  0.30790000  0.35450000  0.70960000  1.0 0.1695556251
H  H195  1  0.19210000  0.90170000  0.04660000  1.0 0.1695556251
H  H196  1  0.35510000  0.14550000  0.45340000  1.0 0.1695556251
H  H197  1  0.79040000  0.14490000  0.59830000  1.0 0.1695556251
H  H198  1  0.70960000  0.30790000  0.35450000  1.0 0.1695556251
H  H199  1  0.04660000  0.19210000  0.90170000  1.0 0.1695556251
H  H200  1  0.45340000  0.35510000  0.14550000  1.0 0.1695556251
H  H201  1  0.59830000  0.79040000  0.14490000  1.0 0.1695556251
H  H202  1  0.35450000  0.70960000  0.30790000  1.0 0.1695556251
H  H203  1  0.90170000  0.04660000  0.19210000  1.0 0.1695556251
H  H204  1  0.14550000  0.45340000  0.35510000  1.0 0.1695556251
H  H205  1  0.09830000  0.64490000  0.29040000  1.0 0.1695556251
H  H206  1  0.85450000  0.80790000  0.20960000  1.0 0.1695556251
H  H207  1  0.40170000  0.69210000  0.54660000  1.0 0.1695556251
H  H208  1  0.64550000  0.85510000  0.95340000  1.0 0.1695556251
H  H209  1  0.64490000  0.29040000  0.09830000  1.0 0.1695556251
H  H210  1  0.80790000  0.20960000  0.85450000  1.0 0.1695556251
H  H211  1  0.69210000  0.54660000  0.40170000  1.0 0.1695556251
H  H212  1  0.85510000  0.95340000  0.64550000  1.0 0.1695556251
H  H213  1  0.29040000  0.09830000  0.64490000  1.0 0.1695556251
H  H214  1  0.20960000  0.85450000  0.80790000  1.0 0.1695556251
H  H215  1  0.54660000  0.40170000  0.69210000  1.0 0.1695556251
H  H216  1  0.95340000  0.64550000  0.85510000  1.0 0.1695556251
H  H217  1  0.10470000  0.67010000  0.77800000  1.0 0.1764458034
H  H218  1  0.39210000  0.32670000  0.72200000  1.0 0.1764458034
H  H219  1  0.10790000  0.82990000  0.93460000  1.0 0.1764458034
H  H220  1  0.39530000  0.17330000  0.56540000  1.0 0.1764458034
H  H221  1  0.77800000  0.10470000  0.67010000  1.0 0.1764458034
H  H222  1  0.72200000  0.39210000  0.32670000  1.0 0.1764458034
H  H223  1  0.93460000  0.10790000  0.82990000  1.0 0.1764458034
H  H224  1  0.56540000  0.39530000  0.17330000  1.0 0.1764458034
H  H225  1  0.67010000  0.77800000  0.10470000  1.0 0.1764458034
H  H226  1  0.32670000  0.72200000  0.39210000  1.0 0.1764458034
H  H227  1  0.82990000  0.93460000  0.10790000  1.0 0.1764458034
H  H228  1  0.17330000  0.56540000  0.39530000  1.0 0.1764458034
H  H229  1  0.17010000  0.60470000  0.27800000  1.0 0.1764458034
H  H230  1  0.82670000  0.89210000  0.22200000  1.0 0.1764458034
H  H231  1  0.32990000  0.60790000  0.43460000  1.0 0.1764458034
H  H232  1  0.67330000  0.89530000  0.06540000  1.0 0.1764458034
H  H233  1  0.60470000  0.27800000  0.17010000  1.0 0.1764458034
H  H234  1  0.89210000  0.22200000  0.82670000  1.0 0.1764458034
H  H235  1  0.60790000  0.43460000  0.32990000  1.0 0.1764458034
H  H236  1  0.89530000  0.06540000  0.67330000  1.0 0.1764458034
H  H237  1  0.27800000  0.17010000  0.60470000  1.0 0.1764458034
H  H238  1  0.22200000  0.82670000  0.89210000  1.0 0.1764458034
H  H239  1  0.43460000  0.32990000  0.60790000  1.0 0.1764458034
H  H240  1  0.06540000  0.67330000  0.89530000  1.0 0.1764458034
H  H241  1  0.18270000  0.71640000  0.65290000  1.0 0.1504516268
H  H242  1  0.56350000  0.52980000  0.84710000  1.0 0.1504516268
H  H243  1  0.93650000  0.78360000  0.96630000  1.0 0.1504516268
H  H244  1  0.31730000  0.97020000  0.53370000  1.0 0.1504516268
H  H245  1  0.65290000  0.18270000  0.71640000  1.0 0.1504516268
H  H246  1  0.84710000  0.56350000  0.52980000  1.0 0.1504516268
H  H247  1  0.96630000  0.93650000  0.78360000  1.0 0.1504516268
H  H248  1  0.53370000  0.31730000  0.97020000  1.0 0.1504516268
H  H249  1  0.71640000  0.65290000  0.18270000  1.0 0.1504516268
H  H250  1  0.52980000  0.84710000  0.56350000  1.0 0.1504516268
H  H251  1  0.78360000  0.96630000  0.93650000  1.0 0.1504516268
H  H252  1  0.97020000  0.53370000  0.31730000  1.0 0.1504516268
H  H253  1  0.21640000  0.68270000  0.15290000  1.0 0.1504516268
H  H254  1  0.02980000  0.06350000  0.34710000  1.0 0.1504516268
H  H255  1  0.28360000  0.43650000  0.46630000  1.0 0.1504516268
H  H256  1  0.47020000  0.81730000  0.03370000  1.0 0.1504516268
H  H257  1  0.68270000  0.15290000  0.21640000  1.0 0.1504516268
H  H258  1  0.06350000  0.34710000  0.02980000  1.0 0.1504516268
H  H259  1  0.43650000  0.46630000  0.28360000  1.0 0.1504516268
H  H260  1  0.81730000  0.03370000  0.47020000  1.0 0.1504516268
H  H261  1  0.15290000  0.21640000  0.68270000  1.0 0.1504516268
H  H262  1  0.34710000  0.02980000  0.06350000  1.0 0.1504516268
H  H263  1  0.46630000  0.28360000  0.43650000  1.0 0.1504516268
H  H264  1  0.03370000  0.47020000  0.81730000  1.0 0.1504516268
H  H265  1  0.16360000  0.72570000  0.75310000  1.0 0.0990371591
H  H266  1  0.47260000  0.41050000  0.74690000  1.0 0.0990371591
H  H267  1  0.02740000  0.77430000  0.93790000  1.0 0.0990371591
H  H268  1  0.33640000  0.08950000  0.56210000  1.0 0.0990371591
H  H269  1  0.75310000  0.16360000  0.72570000  1.0 0.0990371591
H  H270  1  0.74690000  0.47260000  0.41050000  1.0 0.0990371591
H  H271  1  0.93790000  0.02740000  0.77430000  1.0 0.0990371591
H  H272  1  0.56210000  0.33640000  0.08950000  1.0 0.0990371591
H  H273  1  0.72570000  0.75310000  0.16360000  1.0 0.0990371591
H  H274  1  0.41050000  0.74690000  0.47260000  1.0 0.0990371591
H  H275  1  0.77430000  0.93790000  0.02740000  1.0 0.0990371591
H  H276  1  0.08950000  0.56210000  0.33640000  1.0 0.0990371591
H  H277  1  0.22570000  0.66360000  0.25310000  1.0 0.0990371591
H  H278  1  0.91050000  0.97260000  0.24690000  1.0 0.0990371591
H  H279  1  0.27430000  0.52740000  0.43790000  1.0 0.0990371591
H  H280  1  0.58950000  0.83640000  0.06210000  1.0 0.0990371591
H  H281  1  0.66360000  0.25310000  0.22570000  1.0 0.0990371591
H  H282  1  0.97260000  0.24690000  0.91050000  1.0 0.0990371591
H  H283  1  0.52740000  0.43790000  0.27430000  1.0 0.0990371591
H  H284  1  0.83640000  0.06210000  0.58950000  1.0 0.0990371591
H  H285  1  0.25310000  0.22570000  0.66360000  1.0 0.0990371591
H  H286  1  0.24690000  0.91050000  0.97260000  1.0 0.0990371591
H  H287  1  0.43790000  0.27430000  0.52740000  1.0 0.0990371591
H  H288  1  0.06210000  0.58950000  0.83640000  1.0 0.0990371591
H  H289  1  0.39780000  0.68410000  0.83470000  1.0 0.1406047522
H  H290  1  0.34940000  0.56310000  0.66530000  1.0 0.1406047522
H  H291  1  0.15060000  0.81590000  0.21370000  1.0 0.1406047522
H  H292  1  0.10220000  0.93690000  0.28630000  1.0 0.1406047522
H  H293  1  0.83470000  0.39780000  0.68410000  1.0 0.1406047522
H  H294  1  0.66530000  0.34940000  0.56310000  1.0 0.1406047522
H  H295  1  0.21370000  0.15060000  0.81590000  1.0 0.1406047522
H  H296  1  0.28630000  0.10220000  0.93690000  1.0 0.1406047522
H  H297  1  0.68410000  0.83470000  0.39780000  1.0 0.1406047522
H  H298  1  0.56310000  0.66530000  0.34940000  1.0 0.1406047522
H  H299  1  0.81590000  0.21370000  0.15060000  1.0 0.1406047522
H  H300  1  0.93690000  0.28630000  0.10220000  1.0 0.1406047522
H  H301  1  0.18410000  0.89780000  0.33470000  1.0 0.1406047522
H  H302  1  0.06310000  0.84940000  0.16530000  1.0 0.1406047522
H  H303  1  0.31590000  0.65060000  0.71370000  1.0 0.1406047522
H  H304  1  0.43690000  0.60220000  0.78630000  1.0 0.1406047522
H  H305  1  0.89780000  0.33470000  0.18410000  1.0 0.1406047522
H  H306  1  0.84940000  0.16530000  0.06310000  1.0 0.1406047522
H  H307  1  0.65060000  0.71370000  0.31590000  1.0 0.1406047522
H  H308  1  0.60220000  0.78630000  0.43690000  1.0 0.1406047522
H  H309  1  0.33470000  0.18410000  0.89780000  1.0 0.1406047522
H  H310  1  0.16530000  0.06310000  0.84940000  1.0 0.1406047522
H  H311  1  0.71370000  0.31590000  0.65060000  1.0 0.1406047522
H  H312  1  0.78630000  0.43690000  0.60220000  1.0 0.1406047522
H  H313  1  0.23170000  0.74030000  0.71120000  1.0 0.1119648644
H  H314  1  0.52910000  0.52050000  0.78880000  1.0 0.1119648644
H  H315  1  0.97090000  0.75970000  0.99140000  1.0 0.1119648644
H  H316  1  0.26830000  0.97950000  0.50860000  1.0 0.1119648644
H  H317  1  0.71120000  0.23170000  0.74030000  1.0 0.1119648644
H  H318  1  0.78880000  0.52910000  0.52050000  1.0 0.1119648644
H  H319  1  0.99140000  0.97090000  0.75970000  1.0 0.1119648644
H  H320  1  0.50860000  0.26830000  0.97950000  1.0 0.1119648644
H  H321  1  0.74030000  0.71120000  0.23170000  1.0 0.1119648644
H  H322  1  0.52050000  0.78880000  0.52910000  1.0 0.1119648644
H  H323  1  0.75970000  0.99140000  0.97090000  1.0 0.1119648644
H  H324  1  0.97950000  0.50860000  0.26830000  1.0 0.1119648644
H  H325  1  0.24030000  0.73170000  0.21120000  1.0 0.1119648644
H  H326  1  0.02050000  0.02910000  0.28880000  1.0 0.1119648644
H  H327  1  0.25970000  0.47090000  0.49140000  1.0 0.1119648644
H  H328  1  0.47950000  0.76830000  0.00860000  1.0 0.1119648644
H  H329  1  0.73170000  0.21120000  0.24030000  1.0 0.1119648644
H  H330  1  0.02910000  0.28880000  0.02050000  1.0 0.1119648644
H  H331  1  0.47090000  0.49140000  0.25970000  1.0 0.1119648644
H  H332  1  0.76830000  0.00860000  0.47950000  1.0 0.1119648644
H  H333  1  0.21120000  0.24030000  0.73170000  1.0 0.1119648644
H  H334  1  0.28880000  0.02050000  0.02910000  1.0 0.1119648644
H  H335  1  0.49140000  0.25970000  0.47090000  1.0 0.1119648644
H  H336  1  0.00860000  0.47950000  0.76830000  1.0 0.1119648644
C  C1  1  0.95572000  0.59784000  0.61908000  1.0 -0.1698716155
C  C2  1  0.47876000  0.33664000  0.88092000  1.0 -0.1698716155
C  C3  1  0.02124000  0.90216000  0.85788000  1.0 -0.1698716155
C  C4  1  0.54428000  0.16336000  0.64212000  1.0 -0.1698716155
C  C5  1  0.61908000  0.95572000  0.59784000  1.0 -0.1698716155
C  C6  1  0.88092000  0.47876000  0.33664000  1.0 -0.1698716155
C  C7  1  0.85788000  0.02124000  0.90216000  1.0 -0.1698716155
C  C8  1  0.64212000  0.54428000  0.16336000  1.0 -0.1698716155
C  C9  1  0.59784000  0.61908000  0.95572000  1.0 -0.1698716155
C  C10  1  0.33664000  0.88092000  0.47876000  1.0 -0.1698716155
C  C11  1  0.90216000  0.85788000  0.02124000  1.0 -0.1698716155
C  C12  1  0.16336000  0.64212000  0.54428000  1.0 -0.1698716155
C  C13  1  0.09784000  0.45572000  0.11908000  1.0 -0.1698716155
C  C14  1  0.83664000  0.97876000  0.38092000  1.0 -0.1698716155
C  C15  1  0.40216000  0.52124000  0.35788000  1.0 -0.1698716155
C  C16  1  0.66336000  0.04428000  0.14212000  1.0 -0.1698716155
C  C17  1  0.45572000  0.11908000  0.09784000  1.0 -0.1698716155
C  C18  1  0.97876000  0.38092000  0.83664000  1.0 -0.1698716155
C  C19  1  0.52124000  0.35788000  0.40216000  1.0 -0.1698716155
C  C20  1  0.04428000  0.14212000  0.66336000  1.0 -0.1698716155
C  C21  1  0.11908000  0.09784000  0.45572000  1.0 -0.1698716155
C  C22  1  0.38092000  0.83664000  0.97876000  1.0 -0.1698716155
C  C23  1  0.35788000  0.40216000  0.52124000  1.0 -0.1698716155
C  C24  1  0.14212000  0.66336000  0.04428000  1.0 -0.1698716155
C  C25  1  0.95971000  0.60752000  0.59381000  1.0 0.0796365969
C  C26  1  0.51371000  0.36590000  0.90619000  1.0 0.0796365969
C  C27  1  0.98629000  0.89248000  0.85219000  1.0 0.0796365969
C  C28  1  0.54029000  0.13410000  0.64781000  1.0 0.0796365969
C  C29  1  0.59381000  0.95971000  0.60752000  1.0 0.0796365969
C  C30  1  0.90619000  0.51371000  0.36590000  1.0 0.0796365969
C  C31  1  0.85219000  0.98629000  0.89248000  1.0 0.0796365969
C  C32  1  0.64781000  0.54029000  0.13410000  1.0 0.0796365969
C  C33  1  0.60752000  0.59381000  0.95971000  1.0 0.0796365969
C  C34  1  0.36590000  0.90619000  0.51371000  1.0 0.0796365969
C  C35  1  0.89248000  0.85219000  0.98629000  1.0 0.0796365969
C  C36  1  0.13410000  0.64781000  0.54029000  1.0 0.0796365969
C  C37  1  0.10752000  0.45971000  0.09381000  1.0 0.0796365969
C  C38  1  0.86590000  0.01371000  0.40619000  1.0 0.0796365969
C  C39  1  0.39248000  0.48629000  0.35219000  1.0 0.0796365969
C  C40  1  0.63410000  0.04029000  0.14781000  1.0 0.0796365969
C  C41  1  0.45971000  0.09381000  0.10752000  1.0 0.0796365969
C  C42  1  0.01371000  0.40619000  0.86590000  1.0 0.0796365969
C  C43  1  0.48629000  0.35219000  0.39248000  1.0 0.0796365969
C  C44  1  0.04029000  0.14781000  0.63410000  1.0 0.0796365969
C  C45  1  0.09381000  0.10752000  0.45971000  1.0 0.0796365969
C  C46  1  0.40619000  0.86590000  0.01371000  1.0 0.0796365969
C  C47  1  0.35219000  0.39248000  0.48629000  1.0 0.0796365969
C  C48  1  0.14781000  0.63410000  0.04029000  1.0 0.0796365969
C  C49  1  0.13153000  0.63981000  0.78698000  1.0 0.1406047522
C  C50  1  0.35283000  0.34455000  0.71302000  1.0 0.1406047522
C  C51  1  0.14717000  0.86019000  0.99172000  1.0 0.1406047522
C  C52  1  0.36847000  0.15545000  0.50828000  1.0 0.1406047522
C  C53  1  0.78698000  0.13153000  0.63981000  1.0 0.1406047522
C  C54  1  0.71302000  0.35283000  0.34455000  1.0 0.1406047522
C  C55  1  0.99172000  0.14717000  0.86019000  1.0 0.1406047522
C  C56  1  0.50828000  0.36847000  0.15545000  1.0 0.1406047522
C  C57  1  0.63981000  0.78698000  0.13153000  1.0 0.1406047522
C  C58  1  0.34455000  0.71302000  0.35283000  1.0 0.1406047522
C  C59  1  0.86019000  0.99172000  0.14717000  1.0 0.1406047522
C  C60  1  0.15545000  0.50828000  0.36847000  1.0 0.1406047522
C  C61  1  0.13981000  0.63153000  0.28698000  1.0 0.1406047522
C  C62  1  0.84455000  0.85283000  0.21302000  1.0 0.1406047522
C  C63  1  0.36019000  0.64717000  0.49172000  1.0 0.1406047522
C  C64  1  0.65545000  0.86847000  0.00828000  1.0 0.1406047522
C  C65  1  0.63153000  0.28698000  0.13981000  1.0 0.1406047522
C  C66  1  0.85283000  0.21302000  0.84455000  1.0 0.1406047522
C  C67  1  0.64717000  0.49172000  0.36019000  1.0 0.1406047522
C  C68  1  0.86847000  0.00828000  0.65545000  1.0 0.1406047522
C  C69  1  0.28698000  0.13981000  0.63153000  1.0 0.1406047522
C  C70  1  0.21302000  0.84455000  0.85283000  1.0 0.1406047522
C  C71  1  0.49172000  0.36019000  0.64717000  1.0 0.1406047522
C  C72  1  0.00828000  0.65545000  0.86847000  1.0 0.1406047522
C  C73  1  0.06691000  0.62155000  0.76956000  1.0 0.0990371591
C  C74  1  0.35199000  0.29735000  0.73044000  1.0 0.0990371591
C  C75  1  0.14801000  0.87845000  0.94536000  1.0 0.0990371591
C  C76  1  0.43309000  0.20265000  0.55464000  1.0 0.0990371591
C  C77  1  0.76956000  0.06691000  0.62155000  1.0 0.0990371591
C  C78  1  0.73044000  0.35199000  0.29735000  1.0 0.0990371591
C  C79  1  0.94536000  0.14801000  0.87845000  1.0 0.0990371591
C  C80  1  0.55464000  0.43309000  0.20265000  1.0 0.0990371591
C  C81  1  0.62155000  0.76956000  0.06691000  1.0 0.0990371591
C  C82  1  0.29735000  0.73044000  0.35199000  1.0 0.0990371591
C  C83  1  0.87845000  0.94536000  0.14801000  1.0 0.0990371591
C  C84  1  0.20265000  0.55464000  0.43309000  1.0 0.0990371591
C  C85  1  0.12155000  0.56691000  0.26956000  1.0 0.0990371591
C  C86  1  0.79735000  0.85199000  0.23044000  1.0 0.0990371591
C  C87  1  0.37845000  0.64801000  0.44536000  1.0 0.0990371591
C  C88  1  0.70265000  0.93309000  0.05464000  1.0 0.0990371591
C  C89  1  0.56691000  0.26956000  0.12155000  1.0 0.0990371591
C  C90  1  0.85199000  0.23044000  0.79735000  1.0 0.0990371591
C  C91  1  0.64801000  0.44536000  0.37845000  1.0 0.0990371591
C  C92  1  0.93309000  0.05464000  0.70265000  1.0 0.0990371591
C  C93  1  0.26956000  0.12155000  0.56691000  1.0 0.0990371591
C  C94  1  0.23044000  0.79735000  0.85199000  1.0 0.0990371591
C  C95  1  0.44536000  0.37845000  0.64801000  1.0 0.0990371591
C  C96  1  0.05464000  0.70265000  0.93309000  1.0 0.0990371591
C  C97  1  0.17059000  0.66812000  0.79689000  1.0 0.2121306386
C  C98  1  0.37123000  0.37370000  0.70311000  1.0 0.2121306386
C  C99  1  0.12877000  0.83188000  0.00247000  1.0 0.2121306386
C  C100  1  0.32941000  0.12630000  0.49753000  1.0 0.2121306386
C  C101  1  0.79689000  0.17059000  0.66812000  1.0 0.2121306386
C  C102  1  0.70311000  0.37123000  0.37370000  1.0 0.2121306386
C  C103  1  0.00247000  0.12877000  0.83188000  1.0 0.2121306386
C  C104  1  0.49753000  0.32941000  0.12630000  1.0 0.2121306386
C  C105  1  0.66812000  0.79689000  0.17059000  1.0 0.2121306386
C  C106  1  0.37370000  0.70311000  0.37123000  1.0 0.2121306386
C  C107  1  0.83188000  0.00247000  0.12877000  1.0 0.2121306386
C  C108  1  0.12630000  0.49753000  0.32941000  1.0 0.2121306386
C  C109  1  0.16812000  0.67059000  0.29689000  1.0 0.2121306386
C  C110  1  0.87370000  0.87123000  0.20311000  1.0 0.2121306386
C  C111  1  0.33188000  0.62877000  0.50247000  1.0 0.2121306386
C  C112  1  0.62630000  0.82941000  0.99753000  1.0 0.2121306386
C  C113  1  0.67059000  0.29689000  0.16812000  1.0 0.2121306386
C  C114  1  0.87123000  0.20311000  0.87370000  1.0 0.2121306386
C  C115  1  0.62877000  0.50247000  0.33188000  1.0 0.2121306386
C  C116  1  0.82941000  0.99753000  0.62630000  1.0 0.2121306386
C  C117  1  0.29689000  0.16812000  0.67059000  1.0 0.2121306386
C  C118  1  0.20311000  0.87370000  0.87123000  1.0 0.2121306386
C  C119  1  0.50247000  0.33188000  0.62877000  1.0 0.2121306386
C  C120  1  0.99753000  0.62630000  0.82941000  1.0 0.2121306386
C  C121  1  0.39476000  0.72124000  0.91090000  1.0 -0.1698716155
C  C122  1  0.31034000  0.48386000  0.58910000  1.0 -0.1698716155
C  C123  1  0.18966000  0.77876000  0.17352000  1.0 -0.1698716155
C  C124  1  0.10524000  0.01614000  0.32648000  1.0 -0.1698716155
C  C125  1  0.91090000  0.39476000  0.72124000  1.0 -0.1698716155
C  C126  1  0.58910000  0.31034000  0.48386000  1.0 -0.1698716155
C  C127  1  0.17352000  0.18966000  0.77876000  1.0 -0.1698716155
C  C128  1  0.32648000  0.10524000  0.01614000  1.0 -0.1698716155
C  C129  1  0.72124000  0.91090000  0.39476000  1.0 -0.1698716155
C  C130  1  0.48386000  0.58910000  0.31034000  1.0 -0.1698716155
C  C131  1  0.77876000  0.17352000  0.18966000  1.0 -0.1698716155
C  C132  1  0.01614000  0.32648000  0.10524000  1.0 -0.1698716155
C  C133  1  0.22124000  0.89476000  0.41090000  1.0 -0.1698716155
C  C134  1  0.98386000  0.81034000  0.08910000  1.0 -0.1698716155
C  C135  1  0.27876000  0.68966000  0.67352000  1.0 -0.1698716155
C  C136  1  0.51614000  0.60524000  0.82648000  1.0 -0.1698716155
C  C137  1  0.89476000  0.41090000  0.22124000  1.0 -0.1698716155
C  C138  1  0.81034000  0.08910000  0.98386000  1.0 -0.1698716155
C  C139  1  0.68966000  0.67352000  0.27876000  1.0 -0.1698716155
C  C140  1  0.60524000  0.82648000  0.51614000  1.0 -0.1698716155
C  C141  1  0.41090000  0.22124000  0.89476000  1.0 -0.1698716155
C  C142  1  0.08910000  0.98386000  0.81034000  1.0 -0.1698716155
C  C143  1  0.67352000  0.27876000  0.68966000  1.0 -0.1698716155
C  C144  1  0.82648000  0.51614000  0.60524000  1.0 -0.1698716155
C  C145  1  0.35150000  0.68692000  0.83294000  1.0 0.0696436739
C  C146  1  0.35398000  0.51856000  0.66706000  1.0 0.0696436739
C  C147  1  0.14602000  0.81308000  0.16458000  1.0 0.0696436739
C  C148  1  0.14850000  0.98144000  0.33542000  1.0 0.0696436739
C  C149  1  0.83294000  0.35150000  0.68692000  1.0 0.0696436739
C  C150  1  0.66706000  0.35398000  0.51856000  1.0 0.0696436739
C  C151  1  0.16458000  0.14602000  0.81308000  1.0 0.0696436739
C  C152  1  0.33542000  0.14850000  0.98144000  1.0 0.0696436739
C  C153  1  0.68692000  0.83294000  0.35150000  1.0 0.0696436739
C  C154  1  0.51856000  0.66706000  0.35398000  1.0 0.0696436739
C  C155  1  0.81308000  0.16458000  0.14602000  1.0 0.0696436739
C  C156  1  0.98144000  0.33542000  0.14850000  1.0 0.0696436739
C  C157  1  0.18692000  0.85150000  0.33294000  1.0 0.0696436739
C  C158  1  0.01856000  0.85398000  0.16706000  1.0 0.0696436739
C  C159  1  0.31308000  0.64602000  0.66458000  1.0 0.0696436739
C  C160  1  0.48144000  0.64850000  0.83542000  1.0 0.0696436739
C  C161  1  0.85150000  0.33294000  0.18692000  1.0 0.0696436739
C  C162  1  0.85398000  0.16706000  0.01856000  1.0 0.0696436739
C  C163  1  0.64602000  0.66458000  0.31308000  1.0 0.0696436739
C  C164  1  0.64850000  0.83542000  0.48144000  1.0 0.0696436739
C  C165  1  0.33294000  0.18692000  0.85150000  1.0 0.0696436739
C  C166  1  0.16706000  0.01856000  0.85398000  1.0 0.0696436739
C  C167  1  0.66458000  0.31308000  0.64602000  1.0 0.0696436739
C  C168  1  0.83542000  0.48144000  0.64850000  1.0 0.0696436739
C  C169  1  0.00671000  0.58259000  0.62594000  1.0 -0.1933177776
C  C170  1  0.45665000  0.38077000  0.87406000  1.0 -0.1933177776
C  C171  1  0.04335000  0.91741000  0.92412000  1.0 -0.1933177776
C  C172  1  0.49329000  0.11923000  0.57588000  1.0 -0.1933177776
C  C173  1  0.62594000  0.00671000  0.58259000  1.0 -0.1933177776
C  C174  1  0.87406000  0.45665000  0.38077000  1.0 -0.1933177776
C  C175  1  0.92412000  0.04335000  0.91741000  1.0 -0.1933177776
C  C176  1  0.57588000  0.49329000  0.11923000  1.0 -0.1933177776
C  C177  1  0.58259000  0.62594000  0.00671000  1.0 -0.1933177776
C  C178  1  0.38077000  0.87406000  0.45665000  1.0 -0.1933177776
C  C179  1  0.91741000  0.92412000  0.04335000  1.0 -0.1933177776
C  C180  1  0.11923000  0.57588000  0.49329000  1.0 -0.1933177776
C  C181  1  0.08259000  0.50671000  0.12594000  1.0 -0.1933177776
C  C182  1  0.88077000  0.95665000  0.37406000  1.0 -0.1933177776
C  C183  1  0.41741000  0.54335000  0.42412000  1.0 -0.1933177776
C  C184  1  0.61923000  0.99329000  0.07588000  1.0 -0.1933177776
C  C185  1  0.50671000  0.12594000  0.08259000  1.0 -0.1933177776
C  C186  1  0.95665000  0.37406000  0.88077000  1.0 -0.1933177776
C  C187  1  0.54335000  0.42412000  0.41741000  1.0 -0.1933177776
C  C188  1  0.99329000  0.07588000  0.61923000  1.0 -0.1933177776
C  C189  1  0.12594000  0.08259000  0.50671000  1.0 -0.1933177776
C  C190  1  0.37406000  0.88077000  0.95665000  1.0 -0.1933177776
C  C191  1  0.42412000  0.41741000  0.54335000  1.0 -0.1933177776
C  C192  1  0.07588000  0.61923000  0.99329000  1.0 -0.1933177776
C  C193  1  0.14131000  0.70625000  0.66690000  1.0 0.0894271966
C  C194  1  0.53935000  0.47441000  0.83310000  1.0 0.0894271966
C  C195  1  0.96065000  0.79375000  0.93506000  1.0 0.0894271966
C  C196  1  0.35869000  0.02559000  0.56494000  1.0 0.0894271966
C  C197  1  0.66690000  0.14131000  0.70625000  1.0 0.0894271966
C  C198  1  0.83310000  0.53935000  0.47441000  1.0 0.0894271966
C  C199  1  0.93506000  0.96065000  0.79375000  1.0 0.0894271966
C  C200  1  0.56494000  0.35869000  0.02559000  1.0 0.0894271966
C  C201  1  0.70625000  0.66690000  0.14131000  1.0 0.0894271966
C  C202  1  0.47441000  0.83310000  0.53935000  1.0 0.0894271966
C  C203  1  0.79375000  0.93506000  0.96065000  1.0 0.0894271966
C  C204  1  0.02559000  0.56494000  0.35869000  1.0 0.0894271966
C  C205  1  0.20625000  0.64131000  0.16690000  1.0 0.0894271966
C  C206  1  0.97441000  0.03935000  0.33310000  1.0 0.0894271966
C  C207  1  0.29375000  0.46065000  0.43506000  1.0 0.0894271966
C  C208  1  0.52559000  0.85869000  0.06494000  1.0 0.0894271966
C  C209  1  0.64131000  0.16690000  0.20625000  1.0 0.0894271966
C  C210  1  0.03935000  0.33310000  0.97441000  1.0 0.0894271966
C  C211  1  0.46065000  0.43506000  0.29375000  1.0 0.0894271966
C  C212  1  0.85869000  0.06494000  0.52559000  1.0 0.0894271966
C  C213  1  0.16690000  0.20625000  0.64131000  1.0 0.0894271966
C  C214  1  0.33310000  0.97441000  0.03935000  1.0 0.0894271966
C  C215  1  0.43506000  0.29375000  0.46065000  1.0 0.0894271966
C  C216  1  0.06494000  0.52559000  0.85869000  1.0 0.0894271966
C  C217  1  0.00853000  0.59423000  0.60066000  1.0 0.0696436739
C  C218  1  0.49357000  0.40787000  0.89934000  1.0 0.0696436739
C  C219  1  0.00643000  0.90577000  0.91430000  1.0 0.0696436739
C  C220  1  0.49147000  0.09213000  0.58570000  1.0 0.0696436739
C  C221  1  0.60066000  0.00853000  0.59423000  1.0 0.0696436739
C  C222  1  0.89934000  0.49357000  0.40787000  1.0 0.0696436739
C  C223  1  0.91430000  0.00643000  0.90577000  1.0 0.0696436739
C  C224  1  0.58570000  0.49147000  0.09213000  1.0 0.0696436739
C  C225  1  0.59423000  0.60066000  0.00853000  1.0 0.0696436739
C  C226  1  0.40787000  0.89934000  0.49357000  1.0 0.0696436739
C  C227  1  0.90577000  0.91430000  0.00643000  1.0 0.0696436739
C  C228  1  0.09213000  0.58570000  0.49147000  1.0 0.0696436739
C  C229  1  0.09423000  0.50853000  0.10066000  1.0 0.0696436739
C  C230  1  0.90787000  0.99357000  0.39934000  1.0 0.0696436739
C  C231  1  0.40577000  0.50643000  0.41430000  1.0 0.0696436739
C  C232  1  0.59213000  0.99147000  0.08570000  1.0 0.0696436739
C  C233  1  0.50853000  0.10066000  0.09423000  1.0 0.0696436739
C  C234  1  0.99357000  0.39934000  0.90787000  1.0 0.0696436739
C  C235  1  0.50643000  0.41430000  0.40577000  1.0 0.0696436739
C  C236  1  0.99147000  0.08570000  0.59213000  1.0 0.0696436739
C  C237  1  0.10066000  0.09423000  0.50853000  1.0 0.0696436739
C  C238  1  0.39934000  0.90787000  0.99357000  1.0 0.0696436739
C  C239  1  0.41430000  0.40577000  0.50643000  1.0 0.0696436739
C  C240  1  0.08570000  0.59213000  0.99147000  1.0 0.0696436739
C  C241  1  0.13328000  0.70687000  0.69525000  1.0 -0.1698716155
C  C242  1  0.51162000  0.43803000  0.80475000  1.0 -0.1698716155
C  C243  1  0.98838000  0.79313000  0.92641000  1.0 -0.1698716155
C  C244  1  0.36672000  0.06197000  0.57359000  1.0 -0.1698716155
C  C245  1  0.69525000  0.13328000  0.70687000  1.0 -0.1698716155
C  C246  1  0.80475000  0.51162000  0.43803000  1.0 -0.1698716155
C  C247  1  0.92641000  0.98838000  0.79313000  1.0 -0.1698716155
C  C248  1  0.57359000  0.36672000  0.06197000  1.0 -0.1698716155
C  C249  1  0.70687000  0.69525000  0.13328000  1.0 -0.1698716155
C  C250  1  0.43803000  0.80475000  0.51162000  1.0 -0.1698716155
C  C251  1  0.79313000  0.92641000  0.98838000  1.0 -0.1698716155
C  C252  1  0.06197000  0.57359000  0.36672000  1.0 -0.1698716155
C  C253  1  0.20687000  0.63328000  0.19525000  1.0 -0.1698716155
C  C254  1  0.93803000  0.01162000  0.30475000  1.0 -0.1698716155
C  C255  1  0.29313000  0.48838000  0.42641000  1.0 -0.1698716155
C  C256  1  0.56197000  0.86672000  0.07359000  1.0 -0.1698716155
C  C257  1  0.63328000  0.19525000  0.20687000  1.0 -0.1698716155
C  C258  1  0.01162000  0.30475000  0.93803000  1.0 -0.1698716155
C  C259  1  0.48838000  0.42641000  0.29313000  1.0 -0.1698716155
C  C260  1  0.86672000  0.07359000  0.56197000  1.0 -0.1698716155
C  C261  1  0.19525000  0.20687000  0.63328000  1.0 -0.1698716155
C  C262  1  0.30475000  0.93803000  0.01162000  1.0 -0.1698716155
C  C263  1  0.42641000  0.29313000  0.48838000  1.0 -0.1698716155
C  C264  1  0.07359000  0.56197000  0.86672000  1.0 -0.1698716155
C  C265  1  0.44754000  0.71429000  0.90667000  1.0 0.2244253417
C  C266  1  0.30762000  0.54087000  0.59333000  1.0 0.2244253417
C  C267  1  0.19238000  0.78571000  0.23325000  1.0 0.2244253417
C  C268  1  0.05246000  0.95913000  0.26675000  1.0 0.2244253417
C  C269  1  0.90667000  0.44754000  0.71429000  1.0 0.2244253417
C  C270  1  0.59333000  0.30762000  0.54087000  1.0 0.2244253417
C  C271  1  0.23325000  0.19238000  0.78571000  1.0 0.2244253417
C  C272  1  0.26675000  0.05246000  0.95913000  1.0 0.2244253417
C  C273  1  0.71429000  0.90667000  0.44754000  1.0 0.2299320687
C  C274  1  0.54087000  0.59333000  0.30762000  1.0 0.2244253417
C  C275  1  0.78571000  0.23325000  0.19238000  1.0 0.2299320687
C  C276  1  0.95913000  0.26675000  0.05246000  1.0 0.2244253417
C  C277  1  0.21429000  0.94754000  0.40667000  1.0 0.2244253417
C  C278  1  0.04087000  0.80762000  0.09333000  1.0 0.2244253417
C  C279  1  0.28571000  0.69238000  0.73325000  1.0 0.2244253417
C  C280  1  0.45913000  0.55246000  0.76675000  1.0 0.2244253417
C  C281  1  0.94754000  0.40667000  0.21429000  1.0 0.2244253417
C  C282  1  0.80762000  0.09333000  0.04087000  1.0 0.2244253417
C  C283  1  0.69238000  0.73325000  0.28571000  1.0 0.2244253417
C  C284  1  0.55246000  0.76675000  0.45913000  1.0 0.2244253417
C  C285  1  0.40667000  0.21429000  0.94754000  1.0 0.2244253417
C  C286  1  0.09333000  0.04087000  0.80762000  1.0 0.2244253417
C  C287  1  0.73325000  0.28571000  0.69238000  1.0 0.2244253417
C  C288  1  0.76675000  0.45913000  0.55246000  1.0 0.2299320687
C  C289  1  0.35819000  0.71644000  0.89255000  1.0 0.0990371591
C  C290  1  0.32389000  0.46564000  0.60745000  1.0 0.0990371591
C  C291  1  0.17611000  0.78356000  0.14175000  1.0 0.0990371591
C  C292  1  0.14181000  0.03436000  0.35825000  1.0 0.0990371591
C  C293  1  0.89255000  0.35819000  0.71644000  1.0 0.0990371591
C  C294  1  0.60745000  0.32389000  0.46564000  1.0 0.0990371591
C  C295  1  0.14175000  0.17611000  0.78356000  1.0 0.0990371591
C  C296  1  0.35825000  0.14181000  0.03436000  1.0 0.0990371591
C  C297  1  0.71644000  0.89255000  0.35819000  1.0 0.0990371591
C  C298  1  0.46564000  0.60745000  0.32389000  1.0 0.0990371591
C  C299  1  0.78356000  0.14175000  0.17611000  1.0 0.0990371591
C  C300  1  0.03436000  0.35825000  0.14181000  1.0 0.0990371591
C  C301  1  0.21644000  0.85819000  0.39255000  1.0 0.0990371591
C  C302  1  0.96564000  0.82389000  0.10745000  1.0 0.0990371591
C  C303  1  0.28356000  0.67611000  0.64175000  1.0 0.0990371591
C  C304  1  0.53436000  0.64181000  0.85825000  1.0 0.0990371591
C  C305  1  0.85819000  0.39255000  0.21644000  1.0 0.0990371591
C  C306  1  0.82389000  0.10745000  0.96564000  1.0 0.0990371591
C  C307  1  0.67611000  0.64175000  0.28356000  1.0 0.0990371591
C  C308  1  0.64181000  0.85825000  0.53436000  1.0 0.0990371591
C  C309  1  0.39255000  0.21644000  0.85819000  1.0 0.0990371591
C  C310  1  0.10745000  0.96564000  0.82389000  1.0 0.0990371591
C  C311  1  0.64175000  0.28356000  0.67611000  1.0 0.0990371591
C  C312  1  0.85825000  0.53436000  0.64181000  1.0 0.0990371591
C  C313  1  0.12573000  0.60465000  0.78582000  1.0 -0.2452397042
C  C314  1  0.31883000  0.33991000  0.71418000  1.0 -0.2452397042
C  C315  1  0.18117000  0.89535000  0.02108000  1.0 -0.2452397042
C  C316  1  0.37427000  0.16009000  0.47892000  1.0 -0.2452397042
C  C317  1  0.78582000  0.12573000  0.60465000  1.0 -0.2411654366
C  C318  1  0.71418000  0.31883000  0.33991000  1.0 -0.2411654366
C  C319  1  0.02108000  0.18117000  0.89535000  1.0 -0.2452397042
C  C320  1  0.47892000  0.37427000  0.16009000  1.0 -0.2452397042
C  C321  1  0.60465000  0.78582000  0.12573000  1.0 -0.2452397042
C  C322  1  0.33991000  0.71418000  0.31883000  1.0 -0.2452397042
C  C323  1  0.89535000  0.02108000  0.18117000  1.0 -0.2411654366
C  C324  1  0.16009000  0.47892000  0.37427000  1.0 -0.2452397042
C  C325  1  0.10465000  0.62573000  0.28582000  1.0 -0.2411654366
C  C326  1  0.83991000  0.81883000  0.21418000  1.0 -0.2411654366
C  C327  1  0.39535000  0.68117000  0.52108000  1.0 -0.2452397042
C  C328  1  0.66009000  0.87427000  0.97892000  1.0 -0.2452397042
C  C329  1  0.62573000  0.28582000  0.10465000  1.0 -0.2411654366
C  C330  1  0.81883000  0.21418000  0.83991000  1.0 -0.2411654366
C  C331  1  0.68117000  0.52108000  0.39535000  1.0 -0.2411654366
C  C332  1  0.87427000  0.97892000  0.66009000  1.0 -0.2411654366
C  C333  1  0.28582000  0.10465000  0.62573000  1.0 -0.2452397042
C  C334  1  0.21418000  0.83991000  0.81883000  1.0 -0.2452397042
C  C335  1  0.52108000  0.39535000  0.68117000  1.0 -0.2452397042
C  C336  1  0.97892000  0.66009000  0.87427000  1.0 -0.2411654366
C  C337  1  0.10113000  0.64743000  0.77802000  1.0 -0.2411654366
C  C338  1  0.36941000  0.32311000  0.72198000  1.0 -0.2411654366
C  C339  1  0.13059000  0.85257000  0.95370000  1.0 -0.2411654366
C  C340  1  0.39887000  0.17689000  0.54630000  1.0 -0.2411654366
C  C341  1  0.77802000  0.10113000  0.64743000  1.0 -0.2411654366
C  C342  1  0.72198000  0.36941000  0.32311000  1.0 -0.2411654366
C  C343  1  0.95370000  0.13059000  0.85257000  1.0 -0.2411654366
C  C344  1  0.54630000  0.39887000  0.17689000  1.0 -0.2411654366
C  C345  1  0.64743000  0.77802000  0.10113000  1.0 -0.2411654366
C  C346  1  0.32311000  0.72198000  0.36941000  1.0 -0.2411654366
C  C347  1  0.85257000  0.95370000  0.13059000  1.0 -0.2411654366
C  C348  1  0.17689000  0.54630000  0.39887000  1.0 -0.2411654366
C  C349  1  0.14743000  0.60113000  0.27802000  1.0 -0.2411654366
C  C350  1  0.82311000  0.86941000  0.22198000  1.0 -0.2411654366
C  C351  1  0.35257000  0.63059000  0.45370000  1.0 -0.2411654366
C  C352  1  0.67689000  0.89887000  0.04630000  1.0 -0.2411654366
C  C353  1  0.60113000  0.27802000  0.14743000  1.0 -0.2411654366
C  C354  1  0.86941000  0.22198000  0.82311000  1.0 -0.2411654366
C  C355  1  0.63059000  0.45370000  0.35257000  1.0 -0.2411654366
C  C356  1  0.89887000  0.04630000  0.67689000  1.0 -0.2411654366
C  C357  1  0.27802000  0.14743000  0.60113000  1.0 -0.2411654366
C  C358  1  0.22198000  0.82311000  0.86941000  1.0 -0.2411654366
C  C359  1  0.45370000  0.35257000  0.63059000  1.0 -0.2411654366
C  C360  1  0.04630000  0.67689000  0.89887000  1.0 -0.2411654366
C  C361  1  0.97294000  0.57147000  0.66329000  1.0 0.2454474685
C  C362  1  0.40818000  0.30965000  0.83671000  1.0 0.2454474685
C  C363  1  0.09182000  0.92853000  0.90147000  1.0 0.2454474685
C  C364  1  0.52706000  0.19035000  0.59853000  1.0 0.2454474685
C  C365  1  0.66329000  0.97294000  0.57147000  1.0 0.2454474685
C  C366  1  0.83671000  0.40818000  0.30965000  1.0 0.2454474685
C  C367  1  0.90147000  0.09182000  0.92853000  1.0 0.2454474685
C  C368  1  0.59853000  0.52706000  0.19035000  1.0 0.2454474685
C  C369  1  0.57147000  0.66329000  0.97294000  1.0 0.2454474685
C  C370  1  0.30965000  0.83671000  0.40818000  1.0 0.2454474685
C  C371  1  0.92853000  0.90147000  0.09182000  1.0 0.2454474685
C  C372  1  0.19035000  0.59853000  0.52706000  1.0 0.2454474685
C  C373  1  0.07147000  0.47294000  0.16329000  1.0 0.2454474685
C  C374  1  0.80965000  0.90818000  0.33671000  1.0 0.2454474685
C  C375  1  0.42853000  0.59182000  0.40147000  1.0 0.2454474685
C  C376  1  0.69035000  0.02706000  0.09853000  1.0 0.2454474685
C  C377  1  0.47294000  0.16329000  0.07147000  1.0 0.2454474685
C  C378  1  0.90818000  0.33671000  0.80965000  1.0 0.2454474685
C  C379  1  0.59182000  0.40147000  0.42853000  1.0 0.2454474685
C  C380  1  0.02706000  0.09853000  0.69035000  1.0 0.2442715058
C  C381  1  0.16329000  0.07147000  0.47294000  1.0 0.2454474685
C  C382  1  0.33671000  0.80965000  0.90818000  1.0 0.2454474685
C  C383  1  0.40147000  0.42853000  0.59182000  1.0 0.2454474685
C  C384  1  0.09853000  0.69035000  0.02706000  1.0 0.2454474685
C  C385  1  0.08919000  0.58032000  0.77733000  1.0 0.0696436739
C  C386  1  0.30299000  0.31186000  0.72267000  1.0 0.0696436739
C  C387  1  0.19701000  0.91968000  0.00887000  1.0 0.0696436739
C  C388  1  0.41081000  0.18814000  0.49113000  1.0 0.0696436739
C  C389  1  0.77733000  0.08919000  0.58032000  1.0 0.0638209959
C  C390  1  0.72267000  0.30299000  0.31186000  1.0 0.0638209959
C  C391  1  0.00887000  0.19701000  0.91968000  1.0 0.0696436739
C  C392  1  0.49113000  0.41081000  0.18814000  1.0 0.0696436739
C  C393  1  0.58032000  0.77733000  0.08919000  1.0 0.0696436739
C  C394  1  0.31186000  0.72267000  0.30299000  1.0 0.0696436739
C  C395  1  0.91968000  0.00887000  0.19701000  1.0 0.0696436739
C  C396  1  0.18814000  0.49113000  0.41081000  1.0 0.0696436739
C  C397  1  0.08032000  0.58919000  0.27733000  1.0 0.0638209959
C  C398  1  0.81186000  0.80299000  0.22267000  1.0 0.0638209959
C  C399  1  0.41968000  0.69701000  0.50887000  1.0 0.0638209959
C  C400  1  0.68814000  0.91081000  0.99113000  1.0 0.0696436739
C  C401  1  0.58919000  0.27733000  0.08032000  1.0 0.0638209959
C  C402  1  0.80299000  0.22267000  0.81186000  1.0 0.0696436739
C  C403  1  0.69701000  0.50887000  0.41968000  1.0 0.0638209959
C  C404  1  0.91081000  0.99113000  0.68814000  1.0 0.0638209959
C  C405  1  0.27733000  0.08032000  0.58919000  1.0 0.0696436739
C  C406  1  0.22267000  0.81186000  0.80299000  1.0 0.0696436739
C  C407  1  0.50887000  0.41968000  0.69701000  1.0 0.0696436739
C  C408  1  0.99113000  0.68814000  0.91081000  1.0 0.0696436739
C  C409  1  0.17808000  0.71813000  0.67301000  1.0 -0.1593421845
C  C410  1  0.54512000  0.50507000  0.82699000  1.0 -0.1593421845
C  C411  1  0.95488000  0.78187000  0.95995000  1.0 -0.1593421845
C  C412  1  0.32192000  0.99493000  0.54005000  1.0 -0.1593421845
C  C413  1  0.67301000  0.17808000  0.71813000  1.0 -0.1593421845
C  C414  1  0.82699000  0.54512000  0.50507000  1.0 -0.1593421845
C  C415  1  0.95995000  0.95488000  0.78187000  1.0 -0.1593421845
C  C416  1  0.54005000  0.32192000  0.99493000  1.0 -0.1593421845
C  C417  1  0.71813000  0.67301000  0.17808000  1.0 -0.1593421845
C  C418  1  0.50507000  0.82699000  0.54512000  1.0 -0.1593421845
C  C419  1  0.78187000  0.95995000  0.95488000  1.0 -0.1593421845
C  C420  1  0.99493000  0.54005000  0.32192000  1.0 -0.1593421845
C  C421  1  0.21813000  0.67808000  0.17301000  1.0 -0.1593421845
C  C422  1  0.00507000  0.04512000  0.32699000  1.0 -0.1593421845
C  C423  1  0.28187000  0.45488000  0.45995000  1.0 -0.1593421845
C  C424  1  0.49493000  0.82192000  0.04005000  1.0 -0.1593421845
C  C425  1  0.67808000  0.17301000  0.21813000  1.0 -0.1593421845
C  C426  1  0.04512000  0.32699000  0.00507000  1.0 -0.1593421845
C  C427  1  0.45488000  0.45995000  0.28187000  1.0 -0.1593421845
C  C428  1  0.82192000  0.04005000  0.49493000  1.0 -0.1593421845
C  C429  1  0.17301000  0.21813000  0.67808000  1.0 -0.1593421845
C  C430  1  0.32699000  0.00507000  0.04512000  1.0 -0.1593421845
C  C431  1  0.45995000  0.28187000  0.45488000  1.0 -0.1593421845
C  C432  1  0.04005000  0.49493000  0.82192000  1.0 -0.1593421845
C  C433  1  0.16737000  0.72337000  0.73246000  1.0 0.1166362341
C  C434  1  0.49091000  0.43491000  0.76754000  1.0 0.1166362341
C  C435  1  0.00909000  0.77663000  0.94400000  1.0 0.1166362341
C  C436  1  0.33263000  0.06509000  0.55600000  1.0 0.1251526394
C  C437  1  0.73246000  0.16737000  0.72337000  1.0 0.1251526394
C  C438  1  0.76754000  0.49091000  0.43491000  1.0 0.1251526394
C  C439  1  0.94400000  0.00909000  0.77663000  1.0 0.1251526394
C  C440  1  0.55600000  0.33263000  0.06509000  1.0 0.1166362341
C  C441  1  0.72337000  0.73246000  0.16737000  1.0 0.1251526394
C  C442  1  0.43491000  0.76754000  0.49091000  1.0 0.1166362341
C  C443  1  0.77663000  0.94400000  0.00909000  1.0 0.1166362341
C  C444  1  0.06509000  0.55600000  0.33263000  1.0 0.1166362341
C  C445  1  0.22337000  0.66737000  0.23246000  1.0 0.1166362341
C  C446  1  0.93491000  0.99091000  0.26754000  1.0 0.1251526394
C  C447  1  0.27663000  0.50909000  0.44400000  1.0 0.1166362341
C  C448  1  0.56509000  0.83263000  0.05600000  1.0 0.1166362341
C  C449  1  0.66737000  0.23246000  0.22337000  1.0 0.1251526394
C  C450  1  0.99091000  0.26754000  0.93491000  1.0 0.1251526394
C  C451  1  0.50909000  0.44400000  0.27663000  1.0 0.1251526394
C  C452  1  0.83263000  0.05600000  0.56509000  1.0 0.1251526394
C  C453  1  0.23246000  0.22337000  0.66737000  1.0 0.1166362341
C  C454  1  0.26754000  0.93491000  0.99091000  1.0 0.1166362341
C  C455  1  0.44400000  0.27663000  0.50909000  1.0 0.1166362341
C  C456  1  0.05600000  0.56509000  0.83263000  1.0 0.1166362341
C  C457  1  0.38766000  0.69205000  0.84987000  1.0 -0.1489420516
C  C458  1  0.34218000  0.53779000  0.65013000  1.0 -0.1489420516
C  C459  1  0.15782000  0.80795000  0.19561000  1.0 -0.1489420516
C  C460  1  0.11234000  0.96221000  0.30439000  1.0 -0.1489420516
C  C461  1  0.84987000  0.38766000  0.69205000  1.0 -0.1489420516
C  C462  1  0.65013000  0.34218000  0.53779000  1.0 -0.1489420516
C  C463  1  0.19561000  0.15782000  0.80795000  1.0 -0.1489420516
C  C464  1  0.30439000  0.11234000  0.96221000  1.0 -0.1489420516
C  C465  1  0.69205000  0.84987000  0.38766000  1.0 -0.1489420516
C  C466  1  0.53779000  0.65013000  0.34218000  1.0 -0.1489420516
C  C467  1  0.80795000  0.19561000  0.15782000  1.0 -0.1489420516
C  C468  1  0.96221000  0.30439000  0.11234000  1.0 -0.1489420516
C  C469  1  0.19205000  0.88766000  0.34987000  1.0 -0.1489420516
C  C470  1  0.03779000  0.84218000  0.15013000  1.0 -0.1489420516
C  C471  1  0.30795000  0.65782000  0.69561000  1.0 -0.1489420516
C  C472  1  0.46221000  0.61234000  0.80439000  1.0 -0.1489420516
C  C473  1  0.88766000  0.34987000  0.19205000  1.0 -0.1489420516
C  C474  1  0.84218000  0.15013000  0.03779000  1.0 -0.1489420516
C  C475  1  0.65782000  0.69561000  0.30795000  1.0 -0.1489420516
C  C476  1  0.61234000  0.80439000  0.46221000  1.0 -0.1489420516
C  C477  1  0.34987000  0.19205000  0.88766000  1.0 -0.1489420516
C  C478  1  0.15013000  0.03779000  0.84218000  1.0 -0.1489420516
C  C479  1  0.69561000  0.30795000  0.65782000  1.0 -0.1489420516
C  C480  1  0.80439000  0.46221000  0.61234000  1.0 -0.1489420516
C  C481  1  0.10739000  0.68806000  0.62761000  1.0 0.2299320687
C  C482  1  0.56045000  0.47978000  0.87239000  1.0 0.2299320687
C  C483  1  0.93955000  0.81194000  0.91933000  1.0 0.2299320687
C  C484  1  0.39261000  0.02022000  0.58067000  1.0 0.2299320687
C  C485  1  0.62761000  0.10739000  0.68806000  1.0 0.2299320687
C  C486  1  0.87239000  0.56045000  0.47978000  1.0 0.2299320687
C  C487  1  0.91933000  0.93955000  0.81194000  1.0 0.2299320687
C  C488  1  0.58067000  0.39261000  0.02022000  1.0 0.2299320687
C  C489  1  0.68806000  0.62761000  0.10739000  1.0 0.2299320687
C  C490  1  0.47978000  0.87239000  0.56045000  1.0 0.2299320687
C  C491  1  0.81194000  0.91933000  0.93955000  1.0 0.2299320687
C  C492  1  0.02022000  0.58067000  0.39261000  1.0 0.2299320687
C  C493  1  0.18806000  0.60739000  0.12761000  1.0 0.2299320687
C  C494  1  0.97978000  0.06045000  0.37239000  1.0 0.2299320687
C  C495  1  0.31194000  0.43955000  0.41933000  1.0 0.2299320687
C  C496  1  0.52022000  0.89261000  0.08067000  1.0 0.2299320687
C  C497  1  0.60739000  0.12761000  0.18806000  1.0 0.2299320687
C  C498  1  0.06045000  0.37239000  0.97978000  1.0 0.2299320687
C  C499  1  0.43955000  0.41933000  0.31194000  1.0 0.2299320687
C  C500  1  0.89261000  0.08067000  0.52022000  1.0 0.2299320687
C  C501  1  0.12761000  0.18806000  0.60739000  1.0 0.2299320687
C  C502  1  0.37239000  0.97978000  0.06045000  1.0 0.2299320687
C  C503  1  0.41933000  0.31194000  0.43955000  1.0 0.2299320687
C  C504  1  0.08067000  0.52022000  0.89261000  1.0 0.2299320687
C  C505  1  0.40883000  0.70870000  0.88853000  1.0 0.0696436739
C  C506  1  0.32017000  0.52030000  0.61147000  1.0 0.0638209959
C  C507  1  0.17983000  0.79130000  0.20013000  1.0 0.0696436739
C  C508  1  0.09117000  0.97970000  0.29987000  1.0 0.0696436739
C  C509  1  0.88853000  0.40883000  0.70870000  1.0 0.0696436739
C  C510  1  0.61147000  0.32017000  0.52030000  1.0 0.0696436739
C  C511  1  0.20013000  0.17983000  0.79130000  1.0 0.0696436739
C  C512  1  0.29987000  0.09117000  0.97970000  1.0 0.0696436739
C  C513  1  0.70870000  0.88853000  0.40883000  1.0 0.0638209959
C  C514  1  0.52030000  0.61147000  0.32017000  1.0 0.0638209959
C  C515  1  0.79130000  0.20013000  0.17983000  1.0 0.0696436739
C  C516  1  0.97970000  0.29987000  0.09117000  1.0 0.0696436739
C  C517  1  0.20870000  0.90883000  0.38853000  1.0 0.0696436739
C  C518  1  0.02030000  0.82017000  0.11147000  1.0 0.0696436739
C  C519  1  0.29130000  0.67983000  0.70013000  1.0 0.0696436739
C  C520  1  0.47970000  0.59117000  0.79987000  1.0 0.0696436739
C  C521  1  0.90883000  0.38853000  0.20870000  1.0 0.0696436739
C  C522  1  0.82017000  0.11147000  0.02030000  1.0 0.0696436739
C  C523  1  0.67983000  0.70013000  0.29130000  1.0 0.0696436739
C  C524  1  0.59117000  0.79987000  0.47970000  1.0 0.0638209959
C  C525  1  0.38853000  0.20870000  0.90883000  1.0 0.0696436739
C  C526  1  0.11147000  0.02030000  0.82017000  1.0 0.0696436739
C  C527  1  0.70013000  0.29130000  0.67983000  1.0 0.0696436739
C  C528  1  0.79987000  0.47970000  0.59117000  1.0 0.0696436739
C  C529  1  0.97876000  0.58525000  0.63625000  1.0 0.1166362341
C  C530  1  0.44900000  0.34251000  0.86375000  1.0 0.1166362341
C  C531  1  0.05100000  0.91475000  0.89351000  1.0 0.1166362341
C  C532  1  0.52124000  0.15749000  0.60649000  1.0 0.1166362341
C  C533  1  0.63625000  0.97876000  0.58525000  1.0 0.1166362341
C  C534  1  0.86375000  0.44900000  0.34251000  1.0 0.1166362341
C  C535  1  0.89351000  0.05100000  0.91475000  1.0 0.1166362341
C  C536  1  0.60649000  0.52124000  0.15749000  1.0 0.1166362341
C  C537  1  0.58525000  0.63625000  0.97876000  1.0 0.1166362341
C  C538  1  0.34251000  0.86375000  0.44900000  1.0 0.1166362341
C  C539  1  0.91475000  0.89351000  0.05100000  1.0 0.1166362341
C  C540  1  0.15749000  0.60649000  0.52124000  1.0 0.1166362341
C  C541  1  0.08525000  0.47876000  0.13625000  1.0 0.1166362341
C  C542  1  0.84251000  0.94900000  0.36375000  1.0 0.1166362341
C  C543  1  0.41475000  0.55100000  0.39351000  1.0 0.1166362341
C  C544  1  0.65749000  0.02124000  0.10649000  1.0 0.1166362341
C  C545  1  0.47876000  0.13625000  0.08525000  1.0 0.1166362341
C  C546  1  0.94900000  0.36375000  0.84251000  1.0 0.1166362341
C  C547  1  0.55100000  0.39351000  0.41475000  1.0 0.1166362341
C  C548  1  0.02124000  0.10649000  0.65749000  1.0 0.1166362341
C  C549  1  0.13625000  0.08525000  0.47876000  1.0 0.1166362341
C  C550  1  0.36375000  0.84251000  0.94900000  1.0 0.1166362341
C  C551  1  0.39351000  0.41475000  0.55100000  1.0 0.1166362341
C  C552  1  0.10649000  0.65749000  0.02124000  1.0 0.1166362341
C  C553  1  0.20714000  0.73212000  0.70782000  1.0 0.0539705601
C  C554  1  0.52430000  0.49932000  0.79218000  1.0 0.0539705601
C  C555  1  0.97570000  0.76788000  0.97502000  1.0 0.0539705601
C  C556  1  0.29286000  0.00068000  0.52498000  1.0 0.0539705601
C  C557  1  0.70782000  0.20714000  0.73212000  1.0 0.0539705601
C  C558  1  0.79218000  0.52430000  0.49932000  1.0 0.0539705601
C  C559  1  0.97502000  0.97570000  0.76788000  1.0 0.0539705601
C  C560  1  0.52498000  0.29286000  0.00068000  1.0 0.0539705601
C  C561  1  0.73212000  0.70782000  0.20714000  1.0 0.0539705601
C  C562  1  0.49932000  0.79218000  0.52430000  1.0 0.0539705601
C  C563  1  0.76788000  0.97502000  0.97570000  1.0 0.0539705601
C  C564  1  0.00068000  0.52498000  0.29286000  1.0 0.0539705601
C  C565  1  0.23212000  0.70714000  0.20782000  1.0 0.0539705601
C  C566  1  0.99932000  0.02430000  0.29218000  1.0 0.0539705601
C  C567  1  0.26788000  0.47570000  0.47502000  1.0 0.0539705601
C  C568  1  0.50068000  0.79286000  0.02498000  1.0 0.0539705601
C  C569  1  0.70714000  0.20782000  0.23212000  1.0 0.0539705601
C  C570  1  0.02430000  0.29218000  0.99932000  1.0 0.0539705601
C  C571  1  0.47570000  0.47502000  0.26788000  1.0 0.0539705601
C  C572  1  0.79286000  0.02498000  0.50068000  1.0 0.0539705601
C  C573  1  0.20782000  0.23212000  0.70714000  1.0 0.0539705601
C  C574  1  0.29218000  0.99932000  0.02430000  1.0 0.0539705601
C  C575  1  0.47502000  0.26788000  0.47570000  1.0 0.0539705601
C  C576  1  0.02498000  0.50068000  0.79286000  1.0 0.0539705601
N  N1  1  0.50112000  0.73000000  0.95060000  1.0 -0.0629462449
N  N2  1  0.27940000  0.55052000  0.54940000  1.0 -0.0629462449
N  N3  1  0.22060000  0.77000000  0.27112000  1.0 -0.0629462449
N  N4  1  0.99888000  0.94948000  0.22888000  1.0 -0.0629462449
N  N5  1  0.95060000  0.50112000  0.73000000  1.0 -0.0629462449
N  N6  1  0.54940000  0.27940000  0.55052000  1.0 -0.0629462449
N  N7  1  0.27112000  0.22060000  0.77000000  1.0 -0.0629462449
N  N8  1  0.22888000  0.99888000  0.94948000  1.0 -0.0629462449
N  N9  1  0.73000000  0.95060000  0.50112000  1.0 -0.0629462449
N  N10  1  0.55052000  0.54940000  0.27940000  1.0 -0.0629462449
N  N11  1  0.77000000  0.27112000  0.22060000  1.0 -0.0629462449
N  N12  1  0.94948000  0.22888000  0.99888000  1.0 -0.0629462449
N  N13  1  0.23000000  0.00112000  0.45060000  1.0 -0.0629462449
N  N14  1  0.05052000  0.77940000  0.04940000  1.0 -0.0629462449
N  N15  1  0.27000000  0.72060000  0.77112000  1.0 -0.0718836863
N  N16  1  0.44948000  0.49888000  0.72888000  1.0 -0.0629462449
N  N17  1  0.00112000  0.45060000  0.23000000  1.0 -0.0718836863
N  N18  1  0.77940000  0.04940000  0.05052000  1.0 -0.0629462449
N  N19  1  0.72060000  0.77112000  0.27000000  1.0 -0.0629462449
N  N20  1  0.49888000  0.72888000  0.44948000  1.0 -0.0629462449
N  N21  1  0.45060000  0.23000000  0.00112000  1.0 -0.0629462449
N  N22  1  0.04940000  0.05052000  0.77940000  1.0 -0.0629462449
N  N23  1  0.77112000  0.27000000  0.72060000  1.0 -0.0629462449
N  N24  1  0.72888000  0.44948000  0.49888000  1.0 -0.0629462449
N  N25  1  0.21614000  0.71113000  0.80131000  1.0 -0.0718836863
N  N26  1  0.40982000  0.41483000  0.69869000  1.0 -0.0718836863
N  N27  1  0.09018000  0.78887000  0.00501000  1.0 -0.0718836863
N  N28  1  0.28386000  0.08517000  0.49499000  1.0 -0.0718836863
N  N29  1  0.80131000  0.21614000  0.71113000  1.0 -0.0718836863
N  N30  1  0.69869000  0.40982000  0.41483000  1.0 -0.0718836863
N  N31  1  0.00501000  0.09018000  0.78887000  1.0 -0.0718836863
N  N32  1  0.49499000  0.28386000  0.08517000  1.0 -0.0718836863
N  N33  1  0.71113000  0.80131000  0.21614000  1.0 -0.0718836863
N  N34  1  0.41483000  0.69869000  0.40982000  1.0 -0.0718836863
N  N35  1  0.78887000  0.00501000  0.09018000  1.0 -0.0718836863
N  N36  1  0.08517000  0.49499000  0.28386000  1.0 -0.0718836863
N  N37  1  0.21113000  0.71614000  0.30131000  1.0 -0.0718836863
N  N38  1  0.91483000  0.90982000  0.19869000  1.0 -0.0718836863
N  N39  1  0.28887000  0.59018000  0.50501000  1.0 -0.0718836863
N  N40  1  0.58517000  0.78386000  0.99499000  1.0 -0.0718836863
N  N41  1  0.71614000  0.30131000  0.21113000  1.0 -0.0718836863
N  N42  1  0.90982000  0.19869000  0.91483000  1.0 -0.0718836863
N  N43  1  0.59018000  0.50501000  0.28887000  1.0 -0.0718836863
N  N44  1  0.78386000  0.99499000  0.58517000  1.0 -0.0718836863
N  N45  1  0.30131000  0.21113000  0.71614000  1.0 -0.0718836863
N  N46  1  0.19869000  0.91483000  0.90982000  1.0 -0.0718836863
N  N47  1  0.50501000  0.28887000  0.59018000  1.0 -0.0718836863
N  N48  1  0.99499000  0.58517000  0.78386000  1.0 -0.0718836863
N  N49  1  0.17940000  0.69823000  0.79311000  1.0 -0.2689144673
N  N50  1  0.40512000  0.38629000  0.70689000  1.0 -0.2689144673
N  N51  1  0.09488000  0.80177000  0.98117000  1.0 -0.2689144673
N  N52  1  0.32060000  0.11371000  0.51883000  1.0 -0.2689144673
N  N53  1  0.79311000  0.17940000  0.69823000  1.0 -0.2689144673
N  N54  1  0.70689000  0.40512000  0.38629000  1.0 -0.2689144673
N  N55  1  0.98117000  0.09488000  0.80177000  1.0 -0.2689144673
N  N56  1  0.51883000  0.32060000  0.11371000  1.0 -0.2689144673
N  N57  1  0.69823000  0.79311000  0.17940000  1.0 -0.2689144673
N  N58  1  0.38629000  0.70689000  0.40512000  1.0 -0.2689144673
N  N59  1  0.80177000  0.98117000  0.09488000  1.0 -0.2689144673
N  N60  1  0.11371000  0.51883000  0.32060000  1.0 -0.2689144673
N  N61  1  0.19823000  0.67940000  0.29311000  1.0 -0.2689144673
N  N62  1  0.88629000  0.90512000  0.20689000  1.0 -0.2689144673
N  N63  1  0.30177000  0.59488000  0.48117000  1.0 -0.2689144673
N  N64  1  0.61371000  0.82060000  0.01883000  1.0 -0.2689144673
N  N65  1  0.67940000  0.29311000  0.19823000  1.0 -0.2689144673
N  N66  1  0.90512000  0.20689000  0.88629000  1.0 -0.2689144673
N  N67  1  0.59488000  0.48117000  0.30177000  1.0 -0.2689144673
N  N68  1  0.82060000  0.01883000  0.61371000  1.0 -0.2689144673
N  N69  1  0.29311000  0.19823000  0.67940000  1.0 -0.2689144673
N  N70  1  0.20689000  0.88629000  0.90512000  1.0 -0.2689144673
N  N71  1  0.48117000  0.30177000  0.59488000  1.0 -0.2689144673
N  N72  1  0.01883000  0.61371000  0.82060000  1.0 -0.2689144673
N  N73  1  0.20226000  0.73493000  0.73887000  1.0 -0.2103845275
N  N74  1  0.49606000  0.46339000  0.76113000  1.0 -0.2103845275
N  N75  1  0.00394000  0.76507000  0.96733000  1.0 -0.2103845275
N  N76  1  0.29774000  0.03661000  0.53267000  1.0 -0.2103845275
N  N77  1  0.73887000  0.20226000  0.73493000  1.0 -0.2103845275
N  N78  1  0.76113000  0.49606000  0.46339000  1.0 -0.2103845275
N  N79  1  0.96733000  0.00394000  0.76507000  1.0 -0.2103845275
N  N80  1  0.53267000  0.29774000  0.03661000  1.0 -0.2037904194
N  N81  1  0.73493000  0.73887000  0.20226000  1.0 -0.2103845275
N  N82  1  0.46339000  0.76113000  0.49606000  1.0 -0.2103845275
N  N83  1  0.76507000  0.96733000  0.00394000  1.0 -0.2103845275
N  N84  1  0.03661000  0.53267000  0.29774000  1.0 -0.2103845275
N  N85  1  0.23493000  0.70226000  0.23887000  1.0 -0.2103845275
N  N86  1  0.96339000  0.99606000  0.26113000  1.0 -0.2037904194
N  N87  1  0.26507000  0.50394000  0.46733000  1.0 -0.2103845275
N  N88  1  0.53661000  0.79774000  0.03267000  1.0 -0.2037904194
N  N89  1  0.70226000  0.23887000  0.23493000  1.0 -0.2037904194
N  N90  1  0.99606000  0.26113000  0.96339000  1.0 -0.2103845275
N  N91  1  0.50394000  0.46733000  0.26507000  1.0 -0.2037904194
N  N92  1  0.79774000  0.03267000  0.53661000  1.0 -0.2103845275
N  N93  1  0.23887000  0.23493000  0.70226000  1.0 -0.2103845275
N  N94  1  0.26113000  0.96339000  0.99606000  1.0 -0.2103845275
N  N95  1  0.46733000  0.26507000  0.50394000  1.0 -0.2103845275
N  N96  1  0.03267000  0.53661000  0.79774000  1.0 -0.2103845275
N  N97  1  0.99590000  0.56427000  0.68443000  1.0 -0.2644831883
N  N98  1  0.37984000  0.31147000  0.81557000  1.0 -0.2644831883
N  N99  1  0.12016000  0.93573000  0.93163000  1.0 -0.2644831883
N  N100  1  0.50410000  0.18853000  0.56837000  1.0 -0.2644831883
N  N101  1  0.68443000  0.99590000  0.56427000  1.0 -0.2644831883
N  N102  1  0.81557000  0.37984000  0.31147000  1.0 -0.2644831883
N  N103  1  0.93163000  0.12016000  0.93573000  1.0 -0.2644831883
N  N104  1  0.56837000  0.50410000  0.18853000  1.0 -0.2644831883
N  N105  1  0.56427000  0.68443000  0.99590000  1.0 -0.2644831883
N  N106  1  0.31147000  0.81557000  0.37984000  1.0 -0.2644831883
N  N107  1  0.93573000  0.93163000  0.12016000  1.0 -0.2644831883
N  N108  1  0.18853000  0.56837000  0.50410000  1.0 -0.2644831883
N  N109  1  0.06427000  0.49590000  0.18443000  1.0 -0.2644831883
N  N110  1  0.81147000  0.87984000  0.31557000  1.0 -0.2644831883
N  N111  1  0.43573000  0.62016000  0.43163000  1.0 -0.2644831883
N  N112  1  0.68853000  0.00410000  0.06837000  1.0 -0.2644831883
N  N113  1  0.49590000  0.18443000  0.06427000  1.0 -0.2644831883
N  N114  1  0.87984000  0.31557000  0.81147000  1.0 -0.2644831883
N  N115  1  0.62016000  0.43163000  0.43573000  1.0 -0.2644831883
N  N116  1  0.00410000  0.06837000  0.68853000  1.0 -0.2644831883
N  N117  1  0.18443000  0.06427000  0.49590000  1.0 -0.2644831883
N  N118  1  0.31557000  0.81147000  0.87984000  1.0 -0.2644831883
N  N119  1  0.43163000  0.43573000  0.62016000  1.0 -0.2644831883
N  N120  1  0.06837000  0.68853000  0.00410000  1.0 -0.2644831883
N  N121  1  0.49986000  0.71714000  0.91594000  1.0 -0.0297298501
N  N122  1  0.30120000  0.58392000  0.58406000  1.0 -0.0297298501
N  N123  1  0.19880000  0.78286000  0.28272000  1.0 -0.0297298501
N  N124  1  0.00014000  0.91608000  0.21728000  1.0 -0.0297298501
N  N125  1  0.91594000  0.49986000  0.71714000  1.0 -0.0185880314
N  N126  1  0.58406000  0.30120000  0.58392000  1.0 -0.0297298501
N  N127  1  0.28272000  0.19880000  0.78286000  1.0 -0.0297298501
N  N128  1  0.21728000  0.00014000  0.91608000  1.0 -0.0297298501
N  N129  1  0.71714000  0.91594000  0.49986000  1.0 -0.0297298501
N  N130  1  0.58392000  0.58406000  0.30120000  1.0 -0.0185880314
N  N131  1  0.78286000  0.28272000  0.19880000  1.0 -0.0297298501
N  N132  1  0.91608000  0.21728000  0.00014000  1.0 -0.0185880314
N  N133  1  0.21714000  0.99986000  0.41594000  1.0 -0.0297298501
N  N134  1  0.08392000  0.80120000  0.08406000  1.0 -0.0297298501
N  N135  1  0.28286000  0.69880000  0.78272000  1.0 -0.0297298501
N  N136  1  0.41608000  0.50014000  0.71728000  1.0 -0.0297298501
N  N137  1  0.99986000  0.41594000  0.21714000  1.0 -0.0185880314
N  N138  1  0.80120000  0.08406000  0.08392000  1.0 -0.0185880314
N  N139  1  0.69880000  0.78272000  0.28286000  1.0 -0.0297298501
N  N140  1  0.50014000  0.71728000  0.41608000  1.0 -0.0185880314
N  N141  1  0.41594000  0.21714000  0.99986000  1.0 -0.0297298501
N  N142  1  0.08406000  0.08392000  0.80120000  1.0 -0.0297298501
N  N143  1  0.78272000  0.28286000  0.69880000  1.0 -0.0297298501
N  N144  1  0.71728000  0.41608000  0.50014000  1.0 -0.0297298501
N  N145  1  0.94889000  0.55794000  0.69581000  1.0 -0.0807863171
N  N146  1  0.36213000  0.25308000  0.80419000  1.0 -0.0807863171
N  N147  1  0.13787000  0.94206000  0.89095000  1.0 -0.0807863171
N  N148  1  0.55111000  0.24692000  0.60905000  1.0 -0.0807863171
N  N149  1  0.69581000  0.94889000  0.55794000  1.0 -0.0807863171
N  N150  1  0.80419000  0.36213000  0.25308000  1.0 -0.0807863171
N  N151  1  0.89095000  0.13787000  0.94206000  1.0 -0.0807863171
N  N152  1  0.60905000  0.55111000  0.24692000  1.0 -0.0807863171
N  N153  1  0.55794000  0.69581000  0.94889000  1.0 -0.0807863171
N  N154  1  0.25308000  0.80419000  0.36213000  1.0 -0.0807863171
N  N155  1  0.94206000  0.89095000  0.13787000  1.0 -0.0807863171
N  N156  1  0.24692000  0.60905000  0.55111000  1.0 -0.0807863171
N  N157  1  0.05794000  0.44889000  0.19581000  1.0 -0.0807863171
N  N158  1  0.75308000  0.86213000  0.30419000  1.0 -0.0807863171
N  N159  1  0.44206000  0.63787000  0.39095000  1.0 -0.0807863171
N  N160  1  0.74692000  0.05111000  0.10905000  1.0 -0.0807863171
N  N161  1  0.44889000  0.19581000  0.05794000  1.0 -0.0807863171
N  N162  1  0.86213000  0.30419000  0.75308000  1.0 -0.0807863171
N  N163  1  0.63787000  0.39095000  0.44206000  1.0 -0.0807863171
N  N164  1  0.05111000  0.10905000  0.74692000  1.0 -0.0807863171
N  N165  1  0.19581000  0.05794000  0.44889000  1.0 -0.0807863171
N  N166  1  0.30419000  0.75308000  0.86213000  1.0 -0.0807863171
N  N167  1  0.39095000  0.44206000  0.63787000  1.0 -0.0807863171
N  N168  1  0.10905000  0.74692000  0.05111000  1.0 -0.0807863171
N  N169  1  0.19918000  0.66010000  0.80662000  1.0 -0.1489420516
N  N170  1  0.35348000  0.39256000  0.69338000  1.0 -0.1489420516
N  N171  1  0.14652000  0.83990000  0.03908000  1.0 -0.1489420516
N  N172  1  0.30082000  0.10744000  0.46092000  1.0 -0.1489420516
N  N173  1  0.80662000  0.19918000  0.66010000  1.0 -0.1489420516
N  N174  1  0.69338000  0.35348000  0.39256000  1.0 -0.1489420516
N  N175  1  0.03908000  0.14652000  0.83990000  1.0 -0.1489420516
N  N176  1  0.46092000  0.30082000  0.10744000  1.0 -0.1489420516
N  N177  1  0.66010000  0.80662000  0.19918000  1.0 -0.1489420516
N  N178  1  0.39256000  0.69338000  0.35348000  1.0 -0.1489420516
N  N179  1  0.83990000  0.03908000  0.14652000  1.0 -0.1489420516
N  N180  1  0.10744000  0.46092000  0.30082000  1.0 -0.1489420516
N  N181  1  0.16010000  0.69918000  0.30662000  1.0 -0.1489420516
N  N182  1  0.89256000  0.85348000  0.19338000  1.0 -0.1489420516
N  N183  1  0.33990000  0.64652000  0.53908000  1.0 -0.1489420516
N  N184  1  0.60744000  0.80082000  0.96092000  1.0 -0.1489420516
N  N185  1  0.69918000  0.30662000  0.16010000  1.0 -0.1489420516
N  N186  1  0.85348000  0.19338000  0.89256000  1.0 -0.1489420516
N  N187  1  0.64652000  0.53908000  0.33990000  1.0 -0.1489420516
N  N188  1  0.80082000  0.96092000  0.60744000  1.0 -0.1489420516
N  N189  1  0.30662000  0.16010000  0.69918000  1.0 -0.1489420516
N  N190  1  0.19338000  0.89256000  0.85348000  1.0 -0.1489420516
N  N191  1  0.53908000  0.33990000  0.64652000  1.0 -0.1489420516
N  N192  1  0.96092000  0.60744000  0.80082000  1.0 -0.1489420516
N  N193  1  0.46748000  0.72863000  0.94477000  1.0 -0.2330209351
N  N194  1  0.28386000  0.52271000  0.55523000  1.0 -0.2330209351
N  N195  1  0.21614000  0.77137000  0.23885000  1.0 -0.2330209351
N  N196  1  0.03252000  0.97729000  0.26115000  1.0 -0.2330209351
N  N197  1  0.94477000  0.46748000  0.72863000  1.0 -0.2330209351
N  N198  1  0.55523000  0.28386000  0.52271000  1.0 -0.2330209351
N  N199  1  0.23885000  0.21614000  0.77137000  1.0 -0.2330209351
N  N200  1  0.26115000  0.03252000  0.97729000  1.0 -0.2330209351
N  N201  1  0.72863000  0.94477000  0.46748000  1.0 -0.2330209351
N  N202  1  0.52271000  0.55523000  0.28386000  1.0 -0.2330209351
N  N203  1  0.77137000  0.23885000  0.21614000  1.0 -0.2330209351
N  N204  1  0.97729000  0.26115000  0.03252000  1.0 -0.2330209351
N  N205  1  0.22863000  0.96748000  0.44477000  1.0 -0.2330209351
N  N206  1  0.02271000  0.78386000  0.05523000  1.0 -0.2330209351
N  N207  1  0.27137000  0.71614000  0.73885000  1.0 -0.2330209351
N  N208  1  0.47729000  0.53252000  0.76115000  1.0 -0.2330209351
N  N209  1  0.96748000  0.44477000  0.22863000  1.0 -0.2330209351
N  N210  1  0.78386000  0.05523000  0.02271000  1.0 -0.2330209351
N  N211  1  0.71614000  0.73885000  0.27137000  1.0 -0.2330209351
N  N212  1  0.53252000  0.76115000  0.47729000  1.0 -0.2330209351
N  N213  1  0.44477000  0.22863000  0.96748000  1.0 -0.2330209351
N  N214  1  0.05523000  0.02271000  0.78386000  1.0 -0.2330209351
N  N215  1  0.73885000  0.27137000  0.71614000  1.0 -0.2330209351
N  N216  1  0.76115000  0.47729000  0.53252000  1.0 -0.2330209351
N  N217  1  0.46742000  0.70767000  0.88941000  1.0 -0.1933177776
N  N218  1  0.31826000  0.57801000  0.61059000  1.0 -0.1933177776
N  N219  1  0.18174000  0.79233000  0.25975000  1.0 -0.1933177776
N  N220  1  0.03258000  0.92199000  0.24025000  1.0 -0.1933177776
N  N221  1  0.88941000  0.46742000  0.70767000  1.0 -0.1933177776
N  N222  1  0.61059000  0.31826000  0.57801000  1.0 -0.1933177776
N  N223  1  0.25975000  0.18174000  0.79233000  1.0 -0.1933177776
N  N224  1  0.24025000  0.03258000  0.92199000  1.0 -0.1933177776
N  N225  1  0.70767000  0.88941000  0.46742000  1.0 -0.1933177776
N  N226  1  0.57801000  0.61059000  0.31826000  1.0 -0.1933177776
N  N227  1  0.79233000  0.25975000  0.18174000  1.0 -0.1933177776
N  N228  1  0.92199000  0.24025000  0.03258000  1.0 -0.1933177776
N  N229  1  0.20767000  0.96742000  0.38941000  1.0 -0.1933177776
N  N230  1  0.07801000  0.81826000  0.11059000  1.0 -0.1933177776
N  N231  1  0.29233000  0.68174000  0.75975000  1.0 -0.1933177776
N  N232  1  0.42199000  0.53258000  0.74025000  1.0 -0.1933177776
N  N233  1  0.96742000  0.38941000  0.20767000  1.0 -0.1933177776
N  N234  1  0.81826000  0.11059000  0.07801000  1.0 -0.1933177776
N  N235  1  0.68174000  0.75975000  0.29233000  1.0 -0.1933177776
N  N236  1  0.53258000  0.74025000  0.42199000  1.0 -0.1933177776
N  N237  1  0.38941000  0.20767000  0.96742000  1.0 -0.1933177776
N  N238  1  0.11059000  0.07801000  0.81826000  1.0 -0.1933177776
N  N239  1  0.75975000  0.29233000  0.68174000  1.0 -0.1933177776
N  N240  1  0.74025000  0.42199000  0.53258000  1.0 -0.1933177776
N  N241  1  0.98073000  0.55538000  0.70445000  1.0 -0.0185880314
N  N242  1  0.35093000  0.27628000  0.79555000  1.0 -0.0185880314
N  N243  1  0.14907000  0.94462000  0.92535000  1.0 -0.0185880314
N  N244  1  0.51927000  0.22372000  0.57465000  1.0 -0.0185880314
N  N245  1  0.70445000  0.98073000  0.55538000  1.0 -0.0185880314
N  N246  1  0.79555000  0.35093000  0.27628000  1.0 -0.0185880314
N  N247  1  0.92535000  0.14907000  0.94462000  1.0 -0.0185880314
N  N248  1  0.57465000  0.51927000  0.22372000  1.0 -0.0185880314
N  N249  1  0.55538000  0.70445000  0.98073000  1.0 -0.0185880314
N  N250  1  0.27628000  0.79555000  0.35093000  1.0 -0.0185880314
N  N251  1  0.94462000  0.92535000  0.14907000  1.0 -0.0185880314
N  N252  1  0.22372000  0.57465000  0.51927000  1.0 -0.0185880314
N  N253  1  0.05538000  0.48073000  0.20445000  1.0 -0.0185880314
N  N254  1  0.77628000  0.85093000  0.29555000  1.0 -0.0185880314
N  N255  1  0.44462000  0.64907000  0.42535000  1.0 -0.0185880314
N  N256  1  0.72372000  0.01927000  0.07465000  1.0 -0.0185880314
N  N257  1  0.48073000  0.20445000  0.05538000  1.0 -0.0185880314
N  N258  1  0.85093000  0.29555000  0.77628000  1.0 -0.0185880314
N  N259  1  0.64907000  0.42535000  0.44462000  1.0 -0.0185880314
N  N260  1  0.01927000  0.07465000  0.72372000  1.0 -0.0185880314
N  N261  1  0.20445000  0.05538000  0.48073000  1.0 -0.0185880314
N  N262  1  0.29555000  0.77628000  0.85093000  1.0 -0.0185880314
N  N263  1  0.42535000  0.44462000  0.64907000  1.0 -0.0185880314
N  N264  1  0.07465000  0.72372000  0.01927000  1.0 -0.0185880314
N  N265  1  0.94374000  0.56946000  0.66914000  1.0 -0.2411654366
N  N266  1  0.40032000  0.27460000  0.83086000  1.0 -0.2411654366
N  N267  1  0.09968000  0.93054000  0.87428000  1.0 -0.2411654366
N  N268  1  0.55626000  0.22540000  0.62572000  1.0 -0.2411654366
N  N269  1  0.66914000  0.94374000  0.56946000  1.0 -0.2411654366
N  N270  1  0.83086000  0.40032000  0.27460000  1.0 -0.2411654366
N  N271  1  0.87428000  0.09968000  0.93054000  1.0 -0.2411654366
N  N272  1  0.62572000  0.55626000  0.22540000  1.0 -0.2411654366
N  N273  1  0.56946000  0.66914000  0.94374000  1.0 -0.2411654366
N  N274  1  0.27460000  0.83086000  0.40032000  1.0 -0.2411654366
N  N275  1  0.93054000  0.87428000  0.09968000  1.0 -0.2411654366
N  N276  1  0.22540000  0.62572000  0.55626000  1.0 -0.2411654366
N  N277  1  0.06946000  0.44374000  0.16914000  1.0 -0.2411654366
N  N278  1  0.77460000  0.90032000  0.33086000  1.0 -0.2411654366
N  N279  1  0.43054000  0.59968000  0.37428000  1.0 -0.2411654366
N  N280  1  0.72540000  0.05626000  0.12572000  1.0 -0.2411654366
N  N281  1  0.44374000  0.16914000  0.06946000  1.0 -0.2411654366
N  N282  1  0.90032000  0.33086000  0.77460000  1.0 -0.2411654366
N  N283  1  0.59968000  0.37428000  0.43054000  1.0 -0.2411654366
N  N284  1  0.05626000  0.12572000  0.72540000  1.0 -0.2411654366
N  N285  1  0.16914000  0.06946000  0.44374000  1.0 -0.2411654366
N  N286  1  0.33086000  0.77460000  0.90032000  1.0 -0.2411654366
N  N287  1  0.37428000  0.43054000  0.59968000  1.0 -0.2411654366
N  N288  1  0.12572000  0.72540000  0.05626000  1.0 -0.2411654366
N  N289  1  0.07429000  0.65837000  0.56786000  1.0 -0.0185880314
N  N290  1  0.59051000  0.50643000  0.93214000  1.0 -0.0185880314
N  N291  1  0.90949000  0.84163000  0.91592000  1.0 -0.0185880314
N  N292  1  0.42571000  0.99357000  0.58408000  1.0 -0.0185880314
N  N293  1  0.56786000  0.07429000  0.65837000  1.0 -0.0185880314
N  N294  1  0.93214000  0.59051000  0.50643000  1.0 -0.0185880314
N  N295  1  0.91592000  0.90949000  0.84163000  1.0 -0.0185880314
N  N296  1  0.58408000  0.42571000  0.99357000  1.0 -0.0185880314
N  N297  1  0.65837000  0.56786000  0.07429000  1.0 -0.0185880314
N  N298  1  0.50643000  0.93214000  0.59051000  1.0 -0.0185880314
N  N299  1  0.84163000  0.91592000  0.90949000  1.0 -0.0185880314
N  N300  1  0.99357000  0.58408000  0.42571000  1.0 -0.0185880314
N  N301  1  0.15837000  0.57429000  0.06786000  1.0 -0.0185880314
N  N302  1  0.00643000  0.09051000  0.43214000  1.0 -0.0185880314
N  N303  1  0.34163000  0.40949000  0.41592000  1.0 -0.0185880314
N  N304  1  0.49357000  0.92571000  0.08408000  1.0 -0.0185880314
N  N305  1  0.57429000  0.06786000  0.15837000  1.0 -0.0185880314
N  N306  1  0.09051000  0.43214000  0.00643000  1.0 -0.0185880314
N  N307  1  0.40949000  0.41592000  0.34163000  1.0 -0.0185880314
N  N308  1  0.92571000  0.08408000  0.49357000  1.0 -0.0185880314
N  N309  1  0.06786000  0.15837000  0.57429000  1.0 -0.0185880314
N  N310  1  0.43214000  0.00643000  0.09051000  1.0 -0.0185880314
N  N311  1  0.41592000  0.34163000  0.40949000  1.0 -0.0185880314
N  N312  1  0.08408000  0.49357000  0.92571000  1.0 -0.0185880314
N  N313  1  0.22716000  0.68753000  0.80893000  1.0 -0.0297298501
N  N314  1  0.37860000  0.41823000  0.69107000  1.0 -0.0297298501
N  N315  1  0.12140000  0.81247000  0.03963000  1.0 -0.0297298501
N  N316  1  0.27284000  0.08177000  0.46037000  1.0 -0.0297298501
N  N317  1  0.80893000  0.22716000  0.68753000  1.0 -0.0297298501
N  N318  1  0.69107000  0.37860000  0.41823000  1.0 -0.0297298501
N  N319  1  0.03963000  0.12140000  0.81247000  1.0 -0.0297298501
N  N320  1  0.46037000  0.27284000  0.08177000  1.0 -0.0297298501
N  N321  1  0.68753000  0.80893000  0.22716000  1.0 -0.0297298501
N  N322  1  0.41823000  0.69107000  0.37860000  1.0 -0.0297298501
N  N323  1  0.81247000  0.03963000  0.12140000  1.0 -0.0297298501
N  N324  1  0.08177000  0.46037000  0.27284000  1.0 -0.0297298501
N  N325  1  0.18753000  0.72716000  0.30893000  1.0 -0.0297298501
N  N326  1  0.91823000  0.87860000  0.19107000  1.0 -0.0297298501
N  N327  1  0.31247000  0.62140000  0.53963000  1.0 -0.0297298501
N  N328  1  0.58177000  0.77284000  0.96037000  1.0 -0.0297298501
N  N329  1  0.72716000  0.30893000  0.18753000  1.0 -0.0297298501
N  N330  1  0.87860000  0.19107000  0.91823000  1.0 -0.0297298501
N  N331  1  0.62140000  0.53963000  0.31247000  1.0 -0.0297298501
N  N332  1  0.77284000  0.96037000  0.58177000  1.0 -0.0297298501
N  N333  1  0.30893000  0.18753000  0.72716000  1.0 -0.0297298501
N  N334  1  0.19107000  0.91823000  0.87860000  1.0 -0.0297298501
N  N335  1  0.53963000  0.31247000  0.62140000  1.0 -0.0297298501
N  N336  1  0.96037000  0.58177000  0.77284000  1.0 -0.0297298501
N  N337  1  0.05982000  0.58816000  0.76912000  1.0 -0.2689144673
N  N338  1  0.31904000  0.29070000  0.73088000  1.0 -0.2689144673
N  N339  1  0.18096000  0.91184000  0.97166000  1.0 -0.2689144673
N  N340  1  0.44018000  0.20930000  0.52834000  1.0 -0.2689144673
N  N341  1  0.76912000  0.05982000  0.58816000  1.0 -0.2689144673
N  N342  1  0.73088000  0.31904000  0.29070000  1.0 -0.2689144673
N  N343  1  0.97166000  0.18096000  0.91184000  1.0 -0.2689144673
N  N344  1  0.52834000  0.44018000  0.20930000  1.0 -0.2644831883
N  N345  1  0.58816000  0.76912000  0.05982000  1.0 -0.2644831883
N  N346  1  0.29070000  0.73088000  0.31904000  1.0 -0.2689144673
N  N347  1  0.91184000  0.97166000  0.18096000  1.0 -0.2689144673
N  N348  1  0.20930000  0.52834000  0.44018000  1.0 -0.2689144673
N  N349  1  0.08816000  0.55982000  0.26912000  1.0 -0.2689144673
N  N350  1  0.79070000  0.81904000  0.23088000  1.0 -0.2689144673
N  N351  1  0.41184000  0.68096000  0.47166000  1.0 -0.2689144673
N  N352  1  0.70930000  0.94018000  0.02834000  1.0 -0.2644831883
N  N353  1  0.55982000  0.26912000  0.08816000  1.0 -0.2689144673
N  N354  1  0.81904000  0.23088000  0.79070000  1.0 -0.2689144673
N  N355  1  0.68096000  0.47166000  0.41184000  1.0 -0.2644831883
N  N356  1  0.94018000  0.02834000  0.70930000  1.0 -0.2689144673
N  N357  1  0.26912000  0.08816000  0.55982000  1.0 -0.2689144673
N  N358  1  0.23088000  0.79070000  0.81904000  1.0 -0.2689144673
N  N359  1  0.47166000  0.41184000  0.68096000  1.0 -0.2689144673
N  N360  1  0.02834000  0.70930000  0.94018000  1.0 -0.2689144673
N  N361  1  0.33621000  0.69956000  0.85443000  1.0 -0.2165872231
N  N362  1  0.34513000  0.48178000  0.64557000  1.0 -0.2165872231
N  N363  1  0.15487000  0.80044000  0.13665000  1.0 -0.2165872231
N  N364  1  0.16379000  0.01822000  0.36335000  1.0 -0.2165872231
N  N365  1  0.85443000  0.33621000  0.69956000  1.0 -0.2165872231
N  N366  1  0.64557000  0.34513000  0.48178000  1.0 -0.2165872231
N  N367  1  0.13665000  0.15487000  0.80044000  1.0 -0.2165872231
N  N368  1  0.36335000  0.16379000  0.01822000  1.0 -0.2103845275
N  N369  1  0.69956000  0.85443000  0.33621000  1.0 -0.2165872231
N  N370  1  0.48178000  0.64557000  0.34513000  1.0 -0.2165872231
N  N371  1  0.80044000  0.13665000  0.15487000  1.0 -0.2103845275
N  N372  1  0.01822000  0.36335000  0.16379000  1.0 -0.2165872231
N  N373  1  0.19956000  0.83621000  0.35443000  1.0 -0.2165872231
N  N374  1  0.98178000  0.84513000  0.14557000  1.0 -0.2165872231
N  N375  1  0.30044000  0.65487000  0.63665000  1.0 -0.2165872231
N  N376  1  0.51822000  0.66379000  0.86335000  1.0 -0.2165872231
N  N377  1  0.83621000  0.35443000  0.19956000  1.0 -0.2165872231
N  N378  1  0.84513000  0.14557000  0.98178000  1.0 -0.2103845275
N  N379  1  0.65487000  0.63665000  0.30044000  1.0 -0.2165872231
N  N380  1  0.66379000  0.86335000  0.51822000  1.0 -0.2165872231
N  N381  1  0.35443000  0.19956000  0.83621000  1.0 -0.2165872231
N  N382  1  0.14557000  0.98178000  0.84513000  1.0 -0.2165872231
N  N383  1  0.63665000  0.30044000  0.65487000  1.0 -0.2165872231
N  N384  1  0.86335000  0.51822000  0.66379000  1.0 -0.2165872231
N  N385  1  0.05245000  0.65747000  0.58234000  1.0 -0.0135778602
N  N386  1  0.57513000  0.47011000  0.91766000  1.0 -0.0135778602
N  N387  1  0.92487000  0.84253000  0.89498000  1.0 -0.0135778602
N  N388  1  0.44755000  0.02989000  0.60502000  1.0 -0.0135778602
N  N389  1  0.58234000  0.05245000  0.65747000  1.0 -0.0135778602
N  N390  1  0.91766000  0.57513000  0.47011000  1.0 -0.0135778602
N  N391  1  0.89498000  0.92487000  0.84253000  1.0 -0.0135778602
N  N392  1  0.60502000  0.44755000  0.02989000  1.0 -0.0135778602
N  N393  1  0.65747000  0.58234000  0.05245000  1.0 -0.0135778602
N  N394  1  0.47011000  0.91766000  0.57513000  1.0 -0.0135778602
N  N395  1  0.84253000  0.89498000  0.92487000  1.0 -0.0135778602
N  N396  1  0.02989000  0.60502000  0.44755000  1.0 -0.0135778602
N  N397  1  0.15747000  0.55245000  0.08234000  1.0 -0.0135778602
N  N398  1  0.97011000  0.07513000  0.41766000  1.0 -0.0135778602
N  N399  1  0.34253000  0.42487000  0.39498000  1.0 -0.0135778602
N  N400  1  0.52989000  0.94755000  0.10502000  1.0 -0.0135778602
N  N401  1  0.55245000  0.08234000  0.15747000  1.0 -0.0135778602
N  N402  1  0.07513000  0.41766000  0.97011000  1.0 -0.0135778602
N  N403  1  0.42487000  0.39498000  0.34253000  1.0 -0.0135778602
N  N404  1  0.94755000  0.10502000  0.52989000  1.0 -0.0135778602
N  N405  1  0.08234000  0.15747000  0.55245000  1.0 -0.0135778602
N  N406  1  0.41766000  0.97011000  0.07513000  1.0 -0.0135778602
N  N407  1  0.39498000  0.34253000  0.42487000  1.0 -0.0135778602
N  N408  1  0.10502000  0.52989000  0.94755000  1.0 -0.0135778602
N  N409  1  0.98690000  0.60705000  0.58331000  1.0 -0.2411654366
N  N410  1  0.52374000  0.40359000  0.91669000  1.0 -0.2411654366
N  N411  1  0.97626000  0.89295000  0.87985000  1.0 -0.2411654366
N  N412  1  0.51310000  0.09641000  0.62015000  1.0 -0.2411654366
N  N413  1  0.58331000  0.98690000  0.60705000  1.0 -0.2411654366
N  N414  1  0.91669000  0.52374000  0.40359000  1.0 -0.2411654366
N  N415  1  0.87985000  0.97626000  0.89295000  1.0 -0.2411654366
N  N416  1  0.62015000  0.51310000  0.09641000  1.0 -0.2411654366
N  N417  1  0.60705000  0.58331000  0.98690000  1.0 -0.2411654366
N  N418  1  0.40359000  0.91669000  0.52374000  1.0 -0.2411654366
N  N419  1  0.89295000  0.87985000  0.97626000  1.0 -0.2411654366
N  N420  1  0.09641000  0.62015000  0.51310000  1.0 -0.2411654366
N  N421  1  0.10705000  0.48690000  0.08331000  1.0 -0.2411654366
N  N422  1  0.90359000  0.02374000  0.41669000  1.0 -0.2411654366
N  N423  1  0.39295000  0.47626000  0.37985000  1.0 -0.2411654366
N  N424  1  0.59641000  0.01310000  0.12015000  1.0 -0.2411654366
N  N425  1  0.48690000  0.08331000  0.10705000  1.0 -0.2411654366
N  N426  1  0.02374000  0.41669000  0.90359000  1.0 -0.2411654366
N  N427  1  0.47626000  0.37985000  0.39295000  1.0 -0.2411654366
N  N428  1  0.01310000  0.12015000  0.59641000  1.0 -0.2411654366
N  N429  1  0.08331000  0.10705000  0.48690000  1.0 -0.2411654366
N  N430  1  0.41669000  0.90359000  0.02374000  1.0 -0.2411654366
N  N431  1  0.37985000  0.39295000  0.47626000  1.0 -0.2411654366
N  N432  1  0.12015000  0.59641000  0.01310000  1.0 -0.2411654366
N  N433  1  0.07171000  0.67401000  0.61952000  1.0 -0.2103845275
N  N434  1  0.55449000  0.45219000  0.88048000  1.0 -0.2103845275
N  N435  1  0.94551000  0.82599000  0.89770000  1.0 -0.2103845275
N  N436  1  0.42829000  0.04781000  0.60230000  1.0 -0.2103845275
N  N437  1  0.61952000  0.07171000  0.67401000  1.0 -0.2103845275
N  N438  1  0.88048000  0.55449000  0.45219000  1.0 -0.2103845275
N  N439  1  0.89770000  0.94551000  0.82599000  1.0 -0.2103845275
N  N440  1  0.60230000  0.42829000  0.04781000  1.0 -0.2103845275
N  N441  1  0.67401000  0.61952000  0.07171000  1.0 -0.2103845275
N  N442  1  0.45219000  0.88048000  0.55449000  1.0 -0.2103845275
N  N443  1  0.82599000  0.89770000  0.94551000  1.0 -0.2103845275
N  N444  1  0.04781000  0.60230000  0.42829000  1.0 -0.2103845275
N  N445  1  0.17401000  0.57171000  0.11952000  1.0 -0.2103845275
N  N446  1  0.95219000  0.05449000  0.38048000  1.0 -0.2103845275
N  N447  1  0.32599000  0.44551000  0.39770000  1.0 -0.2103845275
N  N448  1  0.54781000  0.92829000  0.10230000  1.0 -0.2103845275
N  N449  1  0.57171000  0.11952000  0.17401000  1.0 -0.2103845275
N  N450  1  0.05449000  0.38048000  0.95219000  1.0 -0.2103845275
N  N451  1  0.44551000  0.39770000  0.32599000  1.0 -0.2103845275
N  N452  1  0.92829000  0.10230000  0.54781000  1.0 -0.2103845275
N  N453  1  0.11952000  0.17401000  0.57171000  1.0 -0.2103845275
N  N454  1  0.38048000  0.95219000  0.05449000  1.0 -0.2103845275
N  N455  1  0.39770000  0.32599000  0.44551000  1.0 -0.2103845275
N  N456  1  0.10230000  0.54781000  0.92829000  1.0 -0.2103845275
N  N457  1  0.10973000  0.67820000  0.59595000  1.0 -0.2103845275
N  N458  1  0.58225000  0.51378000  0.90405000  1.0 -0.2103845275
N  N459  1  0.91775000  0.82180000  0.93153000  1.0 -0.2103845275
N  N460  1  0.39027000  0.98622000  0.56847000  1.0 -0.2103845275
N  N461  1  0.59595000  0.10973000  0.67820000  1.0 -0.2103845275
N  N462  1  0.90405000  0.58225000  0.51378000  1.0 -0.2103845275
N  N463  1  0.93153000  0.91775000  0.82180000  1.0 -0.2103845275
N  N464  1  0.56847000  0.39027000  0.98622000  1.0 -0.2103845275
N  N465  1  0.67820000  0.59595000  0.10973000  1.0 -0.2103845275
N  N466  1  0.51378000  0.90405000  0.58225000  1.0 -0.2103845275
N  N467  1  0.82180000  0.93153000  0.91775000  1.0 -0.2103845275
N  N468  1  0.98622000  0.56847000  0.39027000  1.0 -0.2103845275
N  N469  1  0.17820000  0.60973000  0.09595000  1.0 -0.2103845275
N  N470  1  0.01378000  0.08225000  0.40405000  1.0 -0.2103845275
N  N471  1  0.32180000  0.41775000  0.43153000  1.0 -0.2103845275
N  N472  1  0.48622000  0.89027000  0.06847000  1.0 -0.2103845275
N  N473  1  0.60973000  0.09595000  0.17820000  1.0 -0.2103845275
N  N474  1  0.08225000  0.40405000  0.01378000  1.0 -0.2103845275
N  N475  1  0.41775000  0.43153000  0.32180000  1.0 -0.2103845275
N  N476  1  0.89027000  0.06847000  0.48622000  1.0 -0.2103845275
N  N477  1  0.09595000  0.17820000  0.60973000  1.0 -0.2103845275
N  N478  1  0.40405000  0.01378000  0.08225000  1.0 -0.2103845275
N  N479  1  0.43153000  0.32180000  0.41775000  1.0 -0.2103845275
N  N480  1  0.06847000  0.48622000  0.89027000  1.0 -0.2103845275
N  N481  1  0.31380000  0.81470000  0.79250000  1.0 0.6382329574
N  N482  1  0.52220000  0.52130000  0.70750000  1.0 0.6382329574
N  N483  1  0.97780000  0.68530000  0.99910000  1.0 0.6382329574
N  N484  1  0.18620000  0.97870000  0.50090000  1.0 0.6382329574
N  N485  1  0.79250000  0.31380000  0.81470000  1.0 0.6382329574
N  N486  1  0.70750000  0.52220000  0.52130000  1.0 0.6382329574
N  N487  1  0.99910000  0.97780000  0.68530000  1.0 0.6382329574
N  N488  1  0.50090000  0.18620000  0.97870000  1.0 0.6382329574
N  N489  1  0.81470000  0.79250000  0.31380000  1.0 0.6293309543
N  N490  1  0.52130000  0.70750000  0.52220000  1.0 0.6382329574
N  N491  1  0.68530000  0.99910000  0.97780000  1.0 0.6382329574
N  N492  1  0.97870000  0.50090000  0.18620000  1.0 0.6382329574
N  N493  1  0.31470000  0.81380000  0.29250000  1.0 0.6382329574
N  N494  1  0.02130000  0.02220000  0.20750000  1.0 0.6382329574
N  N495  1  0.18530000  0.47780000  0.49910000  1.0 0.6382329574
N  N496  1  0.47870000  0.68620000  0.00090000  1.0 0.6382329574
N  N497  1  0.81380000  0.29250000  0.31470000  1.0 0.6382329574
N  N498  1  0.02220000  0.20750000  0.02130000  1.0 0.6382329574
N  N499  1  0.47780000  0.49910000  0.18530000  1.0 0.6382329574
N  N500  1  0.68620000  0.00090000  0.47870000  1.0 0.6382329574
N  N501  1  0.29250000  0.31470000  0.81380000  1.0 0.6382329574
N  N502  1  0.20750000  0.02130000  0.02220000  1.0 0.6382329574
N  N503  1  0.49910000  0.18530000  0.47780000  1.0 0.6382329574
N  N504  1  0.00090000  0.47870000  0.68620000  1.0 0.6382329574
O  O1  1  0.28280000  0.79728000  0.78724000  1.0 -0.3108753539
O  O2  1  0.51004000  0.49556000  0.71276000  1.0 -0.3108753539
O  O3  1  0.98996000  0.70272000  0.98552000  1.0 -0.3108753539
O  O4  1  0.21720000  0.00444000  0.51448000  1.0 -0.3108753539
O  O5  1  0.78724000  0.28280000  0.79728000  1.0 -0.3108753539
O  O6  1  0.71276000  0.51004000  0.49556000  1.0 -0.3108753539
O  O7  1  0.98552000  0.98996000  0.70272000  1.0 -0.3108753539
O  O8  1  0.51448000  0.21720000  0.00444000  1.0 -0.3108753539
O  O9  1  0.79728000  0.78724000  0.28280000  1.0 -0.3108753539
O  O10  1  0.49556000  0.71276000  0.51004000  1.0 -0.3108753539
O  O11  1  0.70272000  0.98552000  0.98996000  1.0 -0.3108753539
O  O12  1  0.00444000  0.51448000  0.21720000  1.0 -0.3108753539
O  O13  1  0.29728000  0.78280000  0.28724000  1.0 -0.3108753539
O  O14  1  0.99556000  0.01004000  0.21276000  1.0 -0.3108753539
O  O15  1  0.20272000  0.48996000  0.48552000  1.0 -0.3108753539
O  O16  1  0.50444000  0.71720000  0.01448000  1.0 -0.3108753539
O  O17  1  0.78280000  0.28724000  0.29728000  1.0 -0.3108753539
O  O18  1  0.01004000  0.21276000  0.99556000  1.0 -0.3108753539
O  O19  1  0.48996000  0.48552000  0.20272000  1.0 -0.3108753539
O  O20  1  0.71720000  0.01448000  0.50444000  1.0 -0.3108753539
O  O21  1  0.28724000  0.29728000  0.78280000  1.0 -0.3108753539
O  O22  1  0.21276000  0.99556000  0.01004000  1.0 -0.3108753539
O  O23  1  0.48552000  0.20272000  0.48996000  1.0 -0.3108753539
O  O24  1  0.01448000  0.50444000  0.71720000  1.0 -0.3108753539
O  O25  1  0.27536000  0.68397000  0.87245000  1.0 -0.2761621486
O  O26  1  0.31152000  0.40291000  0.62755000  1.0 -0.2689144673
O  O27  1  0.18848000  0.81603000  0.09139000  1.0 -0.2689144673
O  O28  1  0.22464000  0.09709000  0.40861000  1.0 -0.2689144673
O  O29  1  0.87245000  0.27536000  0.68397000  1.0 -0.2689144673
O  O30  1  0.62755000  0.31152000  0.40291000  1.0 -0.2689144673
O  O31  1  0.09139000  0.18848000  0.81603000  1.0 -0.2761621486
O  O32  1  0.40861000  0.22464000  0.09709000  1.0 -0.2689144673
O  O33  1  0.68397000  0.87245000  0.27536000  1.0 -0.2689144673
O  O34  1  0.40291000  0.62755000  0.31152000  1.0 -0.2689144673
O  O35  1  0.81603000  0.09139000  0.18848000  1.0 -0.2689144673
O  O36  1  0.09709000  0.40861000  0.22464000  1.0 -0.2689144673
O  O37  1  0.18397000  0.77536000  0.37245000  1.0 -0.2689144673
O  O38  1  0.90291000  0.81152000  0.12755000  1.0 -0.2689144673
O  O39  1  0.31603000  0.68848000  0.59139000  1.0 -0.2761621486
O  O40  1  0.59709000  0.72464000  0.90861000  1.0 -0.2761621486
O  O41  1  0.77536000  0.37245000  0.18397000  1.0 -0.2689144673
O  O42  1  0.81152000  0.12755000  0.90291000  1.0 -0.2689144673
O  O43  1  0.68848000  0.59139000  0.31603000  1.0 -0.2761621486
O  O44  1  0.72464000  0.90861000  0.59709000  1.0 -0.2689144673
O  O45  1  0.37245000  0.18397000  0.77536000  1.0 -0.2761621486
O  O46  1  0.12755000  0.90291000  0.81152000  1.0 -0.2689144673
O  O47  1  0.59139000  0.31603000  0.68848000  1.0 -0.2689144673
O  O48  1  0.90861000  0.59709000  0.72464000  1.0 -0.2689144673
O  O49  1  0.00000000  0.62702000  0.50000000  1.0 -0.8397299683
O  O50  1  0.62702000  0.50000000  0.00000000  1.0 -0.8397299683
O  O51  1  0.87298000  0.87298000  0.87298000  1.0 -0.8397299683
O  O52  1  0.50000000  0.00000000  0.62702000  1.0 -0.8397299683
O  O53  1  0.12702000  0.50000000  0.00000000  1.0 -0.8397299683
O  O54  1  0.00000000  0.12702000  0.50000000  1.0 -0.8397299683
O  O55  1  0.37298000  0.37298000  0.37298000  1.0 -0.8397299683
O  O56  1  0.50000000  0.00000000  0.12702000  1.0 -0.8397299683
O  O57  1  0.25880000  0.63479000  0.79843000  1.0 -0.3178852311
O  O58  1  0.33636000  0.46037000  0.70157000  1.0 -0.3178852311
O  O59  1  0.16364000  0.86521000  0.12401000  1.0 -0.3178852311
O  O60  1  0.24120000  0.03963000  0.37599000  1.0 -0.3178852311
O  O61  1  0.79843000  0.25880000  0.63479000  1.0 -0.3108753539
O  O62  1  0.70157000  0.33636000  0.46037000  1.0 -0.3178852311
O  O63  1  0.12401000  0.16364000  0.86521000  1.0 -0.3178852311
O  O64  1  0.37599000  0.24120000  0.03963000  1.0 -0.3178852311
O  O65  1  0.63479000  0.79843000  0.25880000  1.0 -0.3178852311
O  O66  1  0.46037000  0.70157000  0.33636000  1.0 -0.3108753539
O  O67  1  0.86521000  0.12401000  0.16364000  1.0 -0.3178852311
O  O68  1  0.03963000  0.37599000  0.24120000  1.0 -0.3178852311
O  O69  1  0.13479000  0.75880000  0.29843000  1.0 -0.3108753539
O  O70  1  0.96037000  0.83636000  0.20157000  1.0 -0.3178852311
O  O71  1  0.36521000  0.66364000  0.62401000  1.0 -0.3178852311
O  O72  1  0.53963000  0.74120000  0.87599000  1.0 -0.3178852311
O  O73  1  0.75880000  0.29843000  0.13479000  1.0 -0.3178852311
O  O74  1  0.83636000  0.20157000  0.96037000  1.0 -0.3178852311
O  O75  1  0.66364000  0.62401000  0.36521000  1.0 -0.3178852311
O  O76  1  0.74120000  0.87599000  0.53963000  1.0 -0.3108753539
O  O77  1  0.29843000  0.13479000  0.75880000  1.0 -0.3178852311
O  O78  1  0.20157000  0.96037000  0.83636000  1.0 -0.3178852311
O  O79  1  0.62401000  0.36521000  0.66364000  1.0 -0.3178852311
O  O80  1  0.87599000  0.53963000  0.74120000  1.0 -0.3108753539
O  O81  1  0.33960000  0.79950000  0.80430000  1.0 -0.4669962612
O  O82  1  0.49520000  0.53530000  0.69570000  1.0 -0.4669962612
O  O83  1  0.00480000  0.70050000  0.04010000  1.0 -0.4669962612
O  O84  1  0.16040000  0.96470000  0.45990000  1.0 -0.4669962612
O  O85  1  0.80430000  0.33960000  0.79950000  1.0 -0.4669962612
O  O86  1  0.69570000  0.49520000  0.53530000  1.0 -0.4669962612
O  O87  1  0.04010000  0.00480000  0.70050000  1.0 -0.4625662914
O  O88  1  0.45990000  0.16040000  0.96470000  1.0 -0.4669962612
O  O89  1  0.79950000  0.80430000  0.33960000  1.0 -0.4669962612
O  O90  1  0.53530000  0.69570000  0.49520000  1.0 -0.4625662914
O  O91  1  0.70050000  0.04010000  0.00480000  1.0 -0.4625662914
O  O92  1  0.96470000  0.45990000  0.16040000  1.0 -0.4625662914
O  O93  1  0.29950000  0.83960000  0.30430000  1.0 -0.4669962612
O  O94  1  0.03530000  0.99520000  0.19570000  1.0 -0.4669962612
O  O95  1  0.20050000  0.50480000  0.54010000  1.0 -0.4669962612
O  O96  1  0.46470000  0.66040000  0.95990000  1.0 -0.4669962612
O  O97  1  0.83960000  0.30430000  0.29950000  1.0 -0.4625662914
O  O98  1  0.99520000  0.19570000  0.03530000  1.0 -0.4625662914
O  O99  1  0.50480000  0.54010000  0.20050000  1.0 -0.4669962612
O  O100  1  0.66040000  0.95990000  0.46470000  1.0 -0.4669962612
O  O101  1  0.30430000  0.29950000  0.83960000  1.0 -0.4669962612
O  O102  1  0.19570000  0.03530000  0.99520000  1.0 -0.4669962612
O  O103  1  0.54010000  0.20050000  0.50480000  1.0 -0.4669962612
O  O104  1  0.95990000  0.46470000  0.66040000  1.0 -0.4669962612
O  O105  1  0.98644000  0.66592000  0.56432000  1.0 -0.4669962612
O  O106  1  0.60160000  0.42212000  0.93568000  1.0 -0.4669962612
O  O107  1  0.89840000  0.83408000  0.82052000  1.0 -0.4669962612
O  O108  1  0.51356000  0.07788000  0.67948000  1.0 -0.4625662914
O  O109  1  0.56432000  0.98644000  0.66592000  1.0 -0.4669962612
O  O110  1  0.93568000  0.60160000  0.42212000  1.0 -0.4669962612
O  O111  1  0.82052000  0.89840000  0.83408000  1.0 -0.4669962612
O  O112  1  0.67948000  0.51356000  0.07788000  1.0 -0.4669962612
O  O113  1  0.66592000  0.56432000  0.98644000  1.0 -0.4669962612
O  O114  1  0.42212000  0.93568000  0.60160000  1.0 -0.4669962612
O  O115  1  0.83408000  0.82052000  0.89840000  1.0 -0.4669962612
O  O116  1  0.07788000  0.67948000  0.51356000  1.0 -0.4669962612
O  O117  1  0.16592000  0.48644000  0.06432000  1.0 -0.4669962612
O  O118  1  0.92212000  0.10160000  0.43568000  1.0 -0.4669962612
O  O119  1  0.33408000  0.39840000  0.32052000  1.0 -0.4669962612
O  O120  1  0.57788000  0.01356000  0.17948000  1.0 -0.4625662914
O  O121  1  0.48644000  0.06432000  0.16592000  1.0 -0.4625662914
O  O122  1  0.10160000  0.43568000  0.92212000  1.0 -0.4669962612
O  O123  1  0.39840000  0.32052000  0.33408000  1.0 -0.4669962612
O  O124  1  0.01356000  0.17948000  0.57788000  1.0 -0.4625662914
O  O125  1  0.06432000  0.16592000  0.48644000  1.0 -0.4669962612
O  O126  1  0.43568000  0.92212000  0.10160000  1.0 -0.4669962612
O  O127  1  0.32052000  0.33408000  0.39840000  1.0 -0.4669962612
O  O128  1  0.17948000  0.57788000  0.01356000  1.0 -0.4669962612
