# DDEC6 charges by PACMAN v1.1 (https://github.com/mtap-research/PACMAN-charge/)
data_NEXNIR_FSR_pacman
_symmetry_space_group_name_H-M   'P 1'
_cell_length_a   42.86830000
_cell_length_b   42.86830000
_cell_length_c   42.86830000
_cell_angle_alpha   109.47100000
_cell_angle_beta   109.47100000
_cell_angle_gamma   109.47100000
_symmetry_Int_Tables_number   1
_chemical_formula_structural   Co9H48C72Br3(N6O)10
_chemical_formula_sum   'Co72 H384 C576 Br24 N480 O80'
_cell_volume   60644.36330331
_cell_formula_units_Z   8
loop_
 _symmetry_equiv_pos_site_id
 _symmetry_equiv_pos_as_xyz
  1  'x, y, z'
loop_
 _atom_site_type_symbol
 _atom_site_label
 _atom_site_symmetry_multiplicity
 _atom_site_fract_x
 _atom_site_fract_y
 _atom_site_fract_z
 _atom_site_occupancy
 _atom_site_charge
Co  Co1  1  0.54509000  0.75048000  0.00371000  1.0 0.5675510569
Co  Co2  1  0.24677000  0.54138000  0.49629000  1.0 0.5675510569
Co  Co3  1  0.25323000  0.74952000  0.29461000  1.0 0.5675510569
Co  Co4  1  0.95491000  0.95862000  0.20539000  1.0 0.5641739457
Co  Co5  1  0.00371000  0.54509000  0.75048000  1.0 0.5675510569
Co  Co6  1  0.49629000  0.24677000  0.54138000  1.0 0.5641739457
Co  Co7  1  0.29461000  0.25323000  0.74952000  1.0 0.5675510569
Co  Co8  1  0.20539000  0.95491000  0.95862000  1.0 0.5641739457
Co  Co9  1  0.75048000  0.00371000  0.54509000  1.0 0.5675510569
Co  Co10  1  0.54138000  0.49629000  0.24677000  1.0 0.5675510569
Co  Co11  1  0.74952000  0.29461000  0.25323000  1.0 0.5675510569
Co  Co12  1  0.95862000  0.20539000  0.95491000  1.0 0.5675510569
Co  Co13  1  0.25048000  0.04509000  0.50371000  1.0 0.5675510569
Co  Co14  1  0.04138000  0.74677000  0.99629000  1.0 0.5675510569
Co  Co15  1  0.24952000  0.75323000  0.79461000  1.0 0.5675510569
Co  Co16  1  0.45862000  0.45491000  0.70539000  1.0 0.5675510569
Co  Co17  1  0.04509000  0.50371000  0.25048000  1.0 0.5675510569
Co  Co18  1  0.74677000  0.99629000  0.04138000  1.0 0.5675510569
Co  Co19  1  0.75323000  0.79461000  0.24952000  1.0 0.5675510569
Co  Co20  1  0.45491000  0.70539000  0.45862000  1.0 0.5675510569
Co  Co21  1  0.50371000  0.25048000  0.04509000  1.0 0.5675510569
Co  Co22  1  0.99629000  0.04138000  0.74677000  1.0 0.5675510569
Co  Co23  1  0.79461000  0.24952000  0.75323000  1.0 0.5675510569
Co  Co24  1  0.70539000  0.45862000  0.45491000  1.0 0.5675510569
Co  Co25  1  0.54875000  0.71938000  0.91035000  1.0 0.7465548657
Co  Co26  1  0.30903000  0.63840000  0.58965000  1.0 0.7465548657
Co  Co27  1  0.19097000  0.78062000  0.32937000  1.0 0.7465548657
Co  Co28  1  0.95125000  0.86160000  0.17063000  1.0 0.7465548657
Co  Co29  1  0.91035000  0.54875000  0.71938000  1.0 0.7442921409
Co  Co30  1  0.58965000  0.30903000  0.63840000  1.0 0.7465548657
Co  Co31  1  0.32937000  0.19097000  0.78062000  1.0 0.7442921409
Co  Co32  1  0.17063000  0.95125000  0.86160000  1.0 0.7465548657
Co  Co33  1  0.71938000  0.91035000  0.54875000  1.0 0.7465548657
Co  Co34  1  0.63840000  0.58965000  0.30903000  1.0 0.7442921409
Co  Co35  1  0.78062000  0.32937000  0.19097000  1.0 0.7465548657
Co  Co36  1  0.86160000  0.17063000  0.95125000  1.0 0.7442921409
Co  Co37  1  0.21938000  0.04875000  0.41035000  1.0 0.7465548657
Co  Co38  1  0.13840000  0.80903000  0.08965000  1.0 0.7465548657
Co  Co39  1  0.28062000  0.69097000  0.82937000  1.0 0.7465548657
Co  Co40  1  0.36160000  0.45125000  0.67063000  1.0 0.7465548657
Co  Co41  1  0.04875000  0.41035000  0.21938000  1.0 0.7465548657
Co  Co42  1  0.80903000  0.08965000  0.13840000  1.0 0.7465548657
Co  Co43  1  0.69097000  0.82937000  0.28062000  1.0 0.7465548657
Co  Co44  1  0.45125000  0.67063000  0.36160000  1.0 0.7465548657
Co  Co45  1  0.41035000  0.21938000  0.04875000  1.0 0.7465548657
Co  Co46  1  0.08965000  0.13840000  0.80903000  1.0 0.7442921409
Co  Co47  1  0.82937000  0.28062000  0.69097000  1.0 0.7465548657
Co  Co48  1  0.67063000  0.36160000  0.45125000  1.0 0.7465548657
Co  Co49  1  0.55252000  0.00783000  0.13085000  1.0 0.6471129016
Co  Co50  1  0.37698000  0.42167000  0.36915000  1.0 0.6471129016
Co  Co51  1  0.12302000  0.49217000  0.04469000  1.0 0.6471129016
Co  Co52  1  0.94748000  0.07833000  0.45531000  1.0 0.6425479143
Co  Co53  1  0.13085000  0.55252000  0.00783000  1.0 0.6471129016
Co  Co54  1  0.36915000  0.37698000  0.42167000  1.0 0.6471129016
Co  Co55  1  0.04469000  0.12302000  0.49217000  1.0 0.6425479143
Co  Co56  1  0.45531000  0.94748000  0.07833000  1.0 0.6471129016
Co  Co57  1  0.00783000  0.13085000  0.55252000  1.0 0.6425479143
Co  Co58  1  0.42167000  0.36915000  0.37698000  1.0 0.6471129016
Co  Co59  1  0.49217000  0.04469000  0.12302000  1.0 0.6471129016
Co  Co60  1  0.07833000  0.45531000  0.94748000  1.0 0.6471129016
Co  Co61  1  0.50783000  0.05252000  0.63085000  1.0 0.6471129016
Co  Co62  1  0.92167000  0.87698000  0.86915000  1.0 0.6471129016
Co  Co63  1  0.99217000  0.62302000  0.54469000  1.0 0.6425479143
Co  Co64  1  0.57833000  0.44748000  0.95531000  1.0 0.6471129016
Co  Co65  1  0.05252000  0.63085000  0.50783000  1.0 0.6425479143
Co  Co66  1  0.87698000  0.86915000  0.92167000  1.0 0.6471129016
Co  Co67  1  0.62302000  0.54469000  0.99217000  1.0 0.6471129016
Co  Co68  1  0.44748000  0.95531000  0.57833000  1.0 0.6471129016
Co  Co69  1  0.63085000  0.50783000  0.05252000  1.0 0.6471129016
Co  Co70  1  0.86915000  0.92167000  0.87698000  1.0 0.6471129016
Co  Co71  1  0.54469000  0.99217000  0.62302000  1.0 0.6471129016
Co  Co72  1  0.95531000  0.57833000  0.44748000  1.0 0.6425479143
H  H1  1  0.52700000  0.59160000  0.82220000  1.0 0.1416273336
H  H2  1  0.26940000  0.70480000  0.67780000  1.0 0.1416273336
H  H3  1  0.23060000  0.90840000  0.43540000  1.0 0.1416273336
H  H4  1  0.97300000  0.79520000  0.06460000  1.0 0.1416273336
H  H5  1  0.82220000  0.52700000  0.59160000  1.0 0.1416273336
H  H6  1  0.67780000  0.26940000  0.70480000  1.0 0.1416273336
H  H7  1  0.43540000  0.23060000  0.90840000  1.0 0.1416273336
H  H8  1  0.06460000  0.97300000  0.79520000  1.0 0.1416273336
H  H9  1  0.59160000  0.82220000  0.52700000  1.0 0.1416273336
H  H10  1  0.70480000  0.67780000  0.26940000  1.0 0.1416273336
H  H11  1  0.90840000  0.43540000  0.23060000  1.0 0.1416273336
H  H12  1  0.79520000  0.06460000  0.97300000  1.0 0.1416273336
H  H13  1  0.09160000  0.02700000  0.32220000  1.0 0.1416273336
H  H14  1  0.20480000  0.76940000  0.17780000  1.0 0.1416273336
H  H15  1  0.40840000  0.73060000  0.93540000  1.0 0.1416273336
H  H16  1  0.29520000  0.47300000  0.56460000  1.0 0.1416273336
H  H17  1  0.02700000  0.32220000  0.09160000  1.0 0.1416273336
H  H18  1  0.76940000  0.17780000  0.20480000  1.0 0.1416273336
H  H19  1  0.73060000  0.93540000  0.40840000  1.0 0.1416273336
H  H20  1  0.47300000  0.56460000  0.29520000  1.0 0.1416273336
H  H21  1  0.32220000  0.09160000  0.02700000  1.0 0.1416273336
H  H22  1  0.17780000  0.20480000  0.76940000  1.0 0.1416273336
H  H23  1  0.93540000  0.40840000  0.73060000  1.0 0.1416273336
H  H24  1  0.56460000  0.29520000  0.47300000  1.0 0.1416273336
H  H25  1  0.69010000  0.06390000  0.16240000  1.0 0.148383142
H  H26  1  0.40150000  0.52770000  0.33760000  1.0 0.148383142
H  H27  1  0.09850000  0.43610000  0.12620000  1.0 0.148383142
H  H28  1  0.80990000  0.97230000  0.37380000  1.0 0.148383142
H  H29  1  0.16240000  0.69010000  0.06390000  1.0 0.148383142
H  H30  1  0.33760000  0.40150000  0.52770000  1.0 0.148383142
H  H31  1  0.12620000  0.09850000  0.43610000  1.0 0.148383142
H  H32  1  0.37380000  0.80990000  0.97230000  1.0 0.148383142
H  H33  1  0.06390000  0.16240000  0.69010000  1.0 0.148383142
H  H34  1  0.52770000  0.33760000  0.40150000  1.0 0.148383142
H  H35  1  0.43610000  0.12620000  0.09850000  1.0 0.148383142
H  H36  1  0.97230000  0.37380000  0.80990000  1.0 0.148383142
H  H37  1  0.56390000  0.19010000  0.66240000  1.0 0.148383142
H  H38  1  0.02770000  0.90150000  0.83760000  1.0 0.148383142
H  H39  1  0.93610000  0.59850000  0.62620000  1.0 0.148383142
H  H40  1  0.47230000  0.30990000  0.87380000  1.0 0.148383142
H  H41  1  0.19010000  0.66240000  0.56390000  1.0 0.148383142
H  H42  1  0.90150000  0.83760000  0.02770000  1.0 0.148383142
H  H43  1  0.59850000  0.62620000  0.93610000  1.0 0.148383142
H  H44  1  0.30990000  0.87380000  0.47230000  1.0 0.148383142
H  H45  1  0.66240000  0.56390000  0.19010000  1.0 0.148383142
H  H46  1  0.83760000  0.02770000  0.90150000  1.0 0.148383142
H  H47  1  0.62620000  0.93610000  0.59850000  1.0 0.148383142
H  H48  1  0.87380000  0.47230000  0.30990000  1.0 0.148383142
H  H49  1  0.46950000  0.81620000  0.03490000  1.0 0.1416273336
H  H50  1  0.28130000  0.43460000  0.46510000  1.0 0.1416273336
H  H51  1  0.21870000  0.68380000  0.15330000  1.0 0.1416273336
H  H52  1  0.03050000  0.06540000  0.34670000  1.0 0.1416273336
H  H53  1  0.03490000  0.46950000  0.81620000  1.0 0.1416273336
H  H54  1  0.46510000  0.28130000  0.43460000  1.0 0.1416273336
H  H55  1  0.15330000  0.21870000  0.68380000  1.0 0.1416273336
H  H56  1  0.34670000  0.03050000  0.06540000  1.0 0.1416273336
H  H57  1  0.81620000  0.03490000  0.46950000  1.0 0.1416273336
H  H58  1  0.43460000  0.46510000  0.28130000  1.0 0.1416273336
H  H59  1  0.68380000  0.15330000  0.21870000  1.0 0.1416273336
H  H60  1  0.06540000  0.34670000  0.03050000  1.0 0.1416273336
H  H61  1  0.31620000  0.96950000  0.53490000  1.0 0.1416273336
H  H62  1  0.93460000  0.78130000  0.96510000  1.0 0.1416273336
H  H63  1  0.18380000  0.71870000  0.65330000  1.0 0.1416273336
H  H64  1  0.56540000  0.53050000  0.84670000  1.0 0.1416273336
H  H65  1  0.96950000  0.53490000  0.31620000  1.0 0.1416273336
H  H66  1  0.78130000  0.96510000  0.93460000  1.0 0.1416273336
H  H67  1  0.71870000  0.65330000  0.18380000  1.0 0.1416273336
H  H68  1  0.53050000  0.84670000  0.56540000  1.0 0.1416273336
H  H69  1  0.53490000  0.31620000  0.96950000  1.0 0.1416273336
H  H70  1  0.96510000  0.93460000  0.78130000  1.0 0.1416273336
H  H71  1  0.65330000  0.18380000  0.71870000  1.0 0.1416273336
H  H72  1  0.84670000  0.56540000  0.53050000  1.0 0.1416273336
H  H73  1  0.63920000  0.05160000  0.17380000  1.0 0.110299811
H  H74  1  0.37780000  0.46540000  0.32620000  1.0 0.110299811
H  H75  1  0.12220000  0.44840000  0.08760000  1.0 0.110299811
H  H76  1  0.86080000  0.03460000  0.41240000  1.0 0.110299811
H  H77  1  0.17380000  0.63920000  0.05160000  1.0 0.110299811
H  H78  1  0.32620000  0.37780000  0.46540000  1.0 0.110299811
H  H79  1  0.08760000  0.12220000  0.44840000  1.0 0.110299811
H  H80  1  0.41240000  0.86080000  0.03460000  1.0 0.110299811
H  H81  1  0.05160000  0.17380000  0.63920000  1.0 0.110299811
H  H82  1  0.46540000  0.32620000  0.37780000  1.0 0.110299811
H  H83  1  0.44840000  0.08760000  0.12220000  1.0 0.110299811
H  H84  1  0.03460000  0.41240000  0.86080000  1.0 0.110299811
H  H85  1  0.55160000  0.13920000  0.67380000  1.0 0.110299811
H  H86  1  0.96540000  0.87780000  0.82620000  1.0 0.110299811
H  H87  1  0.94840000  0.62220000  0.58760000  1.0 0.110299811
H  H88  1  0.53460000  0.36080000  0.91240000  1.0 0.110299811
H  H89  1  0.13920000  0.67380000  0.55160000  1.0 0.110299811
H  H90  1  0.87780000  0.82620000  0.96540000  1.0 0.110299811
H  H91  1  0.62220000  0.58760000  0.94840000  1.0 0.110299811
H  H92  1  0.36080000  0.91240000  0.53460000  1.0 0.110299811
H  H93  1  0.67380000  0.55160000  0.13920000  1.0 0.110299811
H  H94  1  0.82620000  0.96540000  0.87780000  1.0 0.110299811
H  H95  1  0.58760000  0.94840000  0.62220000  1.0 0.110299811
H  H96  1  0.91240000  0.53460000  0.36080000  1.0 0.110299811
H  H97  1  0.71610000  0.95270000  0.07940000  1.0 0.118112862
H  H98  1  0.37330000  0.63670000  0.42060000  1.0 0.118112862
H  H99  1  0.12670000  0.54730000  0.26340000  1.0 0.118112862
H  H100  1  0.78390000  0.86330000  0.23660000  1.0 0.118112862
H  H101  1  0.07940000  0.71610000  0.95270000  1.0 0.118112862
H  H102  1  0.42060000  0.37330000  0.63670000  1.0 0.118112862
H  H103  1  0.26340000  0.12670000  0.54730000  1.0 0.118112862
H  H104  1  0.23660000  0.78390000  0.86330000  1.0 0.118112862
H  H105  1  0.95270000  0.07940000  0.71610000  1.0 0.118112862
H  H106  1  0.63670000  0.42060000  0.37330000  1.0 0.118112862
H  H107  1  0.54730000  0.26340000  0.12670000  1.0 0.118112862
H  H108  1  0.86330000  0.23660000  0.78390000  1.0 0.118112862
H  H109  1  0.45270000  0.21610000  0.57940000  1.0 0.118112862
H  H110  1  0.13670000  0.87330000  0.92060000  1.0 0.118112862
H  H111  1  0.04730000  0.62670000  0.76340000  1.0 0.118112862
H  H112  1  0.36330000  0.28390000  0.73660000  1.0 0.118112862
H  H113  1  0.21610000  0.57940000  0.45270000  1.0 0.118112862
H  H114  1  0.87330000  0.92060000  0.13670000  1.0 0.118112862
H  H115  1  0.62670000  0.76340000  0.04730000  1.0 0.118112862
H  H116  1  0.28390000  0.73660000  0.36330000  1.0 0.118112862
H  H117  1  0.57940000  0.45270000  0.21610000  1.0 0.118112862
H  H118  1  0.92060000  0.13670000  0.87330000  1.0 0.118112862
H  H119  1  0.76340000  0.04730000  0.62670000  1.0 0.118112862
H  H120  1  0.73660000  0.36330000  0.28390000  1.0 0.118112862
H  H121  1  0.47050000  0.66460000  0.83630000  1.0 0.110299811
H  H122  1  0.32830000  0.63420000  0.66370000  1.0 0.110299811
H  H123  1  0.17170000  0.83540000  0.30590000  1.0 0.110299811
H  H124  1  0.02950000  0.86580000  0.19410000  1.0 0.110299811
H  H125  1  0.83630000  0.47050000  0.66460000  1.0 0.110299811
H  H126  1  0.66370000  0.32830000  0.63420000  1.0 0.110299811
H  H127  1  0.30590000  0.17170000  0.83540000  1.0 0.110299811
H  H128  1  0.19410000  0.02950000  0.86580000  1.0 0.110299811
H  H129  1  0.66460000  0.83630000  0.47050000  1.0 0.110299811
H  H130  1  0.63420000  0.66370000  0.32830000  1.0 0.110299811
H  H131  1  0.83540000  0.30590000  0.17170000  1.0 0.110299811
H  H132  1  0.86580000  0.19410000  0.02950000  1.0 0.110299811
H  H133  1  0.16460000  0.97050000  0.33630000  1.0 0.110299811
H  H134  1  0.13420000  0.82830000  0.16370000  1.0 0.110299811
H  H135  1  0.33540000  0.67170000  0.80590000  1.0 0.110299811
H  H136  1  0.36580000  0.52950000  0.69410000  1.0 0.110299811
H  H137  1  0.97050000  0.33630000  0.16460000  1.0 0.110299811
H  H138  1  0.82830000  0.16370000  0.13420000  1.0 0.110299811
H  H139  1  0.67170000  0.80590000  0.33540000  1.0 0.110299811
H  H140  1  0.52950000  0.69410000  0.36580000  1.0 0.118112862
H  H141  1  0.33630000  0.16460000  0.97050000  1.0 0.110299811
H  H142  1  0.16370000  0.13420000  0.82830000  1.0 0.110299811
H  H143  1  0.80590000  0.33540000  0.67170000  1.0 0.110299811
H  H144  1  0.69410000  0.36580000  0.52950000  1.0 0.110299811
H  H145  1  0.55780000  0.65090000  0.87490000  1.0 0.118112862
H  H146  1  0.27600000  0.68290000  0.62510000  1.0 0.118112862
H  H147  1  0.22400000  0.84910000  0.40690000  1.0 0.118112862
H  H148  1  0.94220000  0.81710000  0.09310000  1.0 0.118112862
H  H149  1  0.87490000  0.55780000  0.65090000  1.0 0.118112862
H  H150  1  0.62510000  0.27600000  0.68290000  1.0 0.118112862
H  H151  1  0.40690000  0.22400000  0.84910000  1.0 0.118112862
H  H152  1  0.09310000  0.94220000  0.81710000  1.0 0.118112862
H  H153  1  0.65090000  0.87490000  0.55780000  1.0 0.118112862
H  H154  1  0.68290000  0.62510000  0.27600000  1.0 0.118112862
H  H155  1  0.84910000  0.40690000  0.22400000  1.0 0.118112862
H  H156  1  0.81710000  0.09310000  0.94220000  1.0 0.118112862
H  H157  1  0.15090000  0.05780000  0.37490000  1.0 0.118112862
H  H158  1  0.18290000  0.77600000  0.12510000  1.0 0.118112862
H  H159  1  0.34910000  0.72400000  0.90690000  1.0 0.118112862
H  H160  1  0.31710000  0.44220000  0.59310000  1.0 0.118112862
H  H161  1  0.05780000  0.37490000  0.15090000  1.0 0.118112862
H  H162  1  0.77600000  0.12510000  0.18290000  1.0 0.118112862
H  H163  1  0.72400000  0.90690000  0.34910000  1.0 0.118112862
H  H164  1  0.44220000  0.59310000  0.31710000  1.0 0.118112862
H  H165  1  0.37490000  0.15090000  0.05780000  1.0 0.118112862
H  H166  1  0.12510000  0.18290000  0.77600000  1.0 0.118112862
H  H167  1  0.90690000  0.34910000  0.72400000  1.0 0.118112862
H  H168  1  0.59310000  0.31710000  0.44220000  1.0 0.118112862
H  H169  1  0.58300000  0.89080000  0.08760000  1.0 0.148383142
H  H170  1  0.30320000  0.49540000  0.41240000  1.0 0.148383142
H  H171  1  0.19680000  0.60920000  0.19220000  1.0 0.148383142
H  H172  1  0.91700000  0.00460000  0.30780000  1.0 0.148383142
H  H173  1  0.08760000  0.58300000  0.89080000  1.0 0.148383142
H  H174  1  0.41240000  0.30320000  0.49540000  1.0 0.148383142
H  H175  1  0.19220000  0.19680000  0.60920000  1.0 0.148383142
H  H176  1  0.30780000  0.91700000  0.00460000  1.0 0.148383142
H  H177  1  0.89080000  0.08760000  0.58300000  1.0 0.148383142
H  H178  1  0.49540000  0.41240000  0.30320000  1.0 0.148383142
H  H179  1  0.60920000  0.19220000  0.19680000  1.0 0.148383142
H  H180  1  0.00460000  0.30780000  0.91700000  1.0 0.148383142
H  H181  1  0.39080000  0.08300000  0.58760000  1.0 0.148383142
H  H182  1  0.99540000  0.80320000  0.91240000  1.0 0.148383142
H  H183  1  0.10920000  0.69680000  0.69220000  1.0 0.148383142
H  H184  1  0.50460000  0.41700000  0.80780000  1.0 0.148383142
H  H185  1  0.08300000  0.58760000  0.39080000  1.0 0.148383142
H  H186  1  0.80320000  0.91240000  0.99540000  1.0 0.148383142
H  H187  1  0.69680000  0.69220000  0.10920000  1.0 0.148383142
H  H188  1  0.41700000  0.80780000  0.50460000  1.0 0.148383142
H  H189  1  0.58760000  0.39080000  0.08300000  1.0 0.148383142
H  H190  1  0.91240000  0.99540000  0.80320000  1.0 0.148383142
H  H191  1  0.69220000  0.10920000  0.69680000  1.0 0.148383142
H  H192  1  0.80780000  0.50460000  0.41700000  1.0 0.148383142
H  H193  1  0.57040000  0.97870000  0.06570000  1.0 0.118112862
H  H194  1  0.41300000  0.50470000  0.43430000  1.0 0.1299753173
H  H195  1  0.08700000  0.52130000  0.09170000  1.0 0.118112862
H  H196  1  0.92960000  0.99530000  0.40830000  1.0 0.118112862
H  H197  1  0.06570000  0.57040000  0.97870000  1.0 0.1299753173
H  H198  1  0.43430000  0.41300000  0.50470000  1.0 0.1299753173
H  H199  1  0.09170000  0.08700000  0.52130000  1.0 0.1299753173
H  H200  1  0.40830000  0.92960000  0.99530000  1.0 0.1299753173
H  H201  1  0.97870000  0.06570000  0.57040000  1.0 0.118112862
H  H202  1  0.50470000  0.43430000  0.41300000  1.0 0.118112862
H  H203  1  0.52130000  0.09170000  0.08700000  1.0 0.118112862
H  H204  1  0.99530000  0.40830000  0.92960000  1.0 0.118112862
H  H205  1  0.47870000  0.07040000  0.56570000  1.0 0.1299753173
H  H206  1  0.00470000  0.91300000  0.93430000  1.0 0.1299753173
H  H207  1  0.02130000  0.58700000  0.59170000  1.0 0.1299753173
H  H208  1  0.49530000  0.42960000  0.90830000  1.0 0.118112862
H  H209  1  0.07040000  0.56570000  0.47870000  1.0 0.1299753173
H  H210  1  0.91300000  0.93430000  0.00470000  1.0 0.1299753173
H  H211  1  0.58700000  0.59170000  0.02130000  1.0 0.1299753173
H  H212  1  0.42960000  0.90830000  0.49530000  1.0 0.118112862
H  H213  1  0.56570000  0.47870000  0.07040000  1.0 0.118112862
H  H214  1  0.93430000  0.00470000  0.91300000  1.0 0.1299753173
H  H215  1  0.59170000  0.02130000  0.58700000  1.0 0.1299753173
H  H216  1  0.90830000  0.49530000  0.42960000  1.0 0.1299753173
H  H217  1  0.58900000  0.83660000  0.05760000  1.0 0.100995124
H  H218  1  0.27900000  0.53140000  0.44240000  1.0 0.100995124
H  H219  1  0.22100000  0.66340000  0.25240000  1.0 0.100995124
H  H220  1  0.91100000  0.96860000  0.24760000  1.0 0.100995124
H  H221  1  0.05760000  0.58900000  0.83660000  1.0 0.100995124
H  H222  1  0.44240000  0.27900000  0.53140000  1.0 0.100995124
H  H223  1  0.25240000  0.22100000  0.66340000  1.0 0.100995124
H  H224  1  0.24760000  0.91100000  0.96860000  1.0 0.100995124
H  H225  1  0.83660000  0.05760000  0.58900000  1.0 0.100995124
H  H226  1  0.53140000  0.44240000  0.27900000  1.0 0.100995124
H  H227  1  0.66340000  0.25240000  0.22100000  1.0 0.100995124
H  H228  1  0.96860000  0.24760000  0.91100000  1.0 0.100995124
H  H229  1  0.33660000  0.08900000  0.55760000  1.0 0.100995124
H  H230  1  0.03140000  0.77900000  0.94240000  1.0 0.100995124
H  H231  1  0.16340000  0.72100000  0.75240000  1.0 0.100995124
H  H232  1  0.46860000  0.41100000  0.74760000  1.0 0.100995124
H  H233  1  0.08900000  0.55760000  0.33660000  1.0 0.100995124
H  H234  1  0.77900000  0.94240000  0.03140000  1.0 0.100995124
H  H235  1  0.72100000  0.75240000  0.16340000  1.0 0.100995124
H  H236  1  0.41100000  0.74760000  0.46860000  1.0 0.100995124
H  H237  1  0.55760000  0.33660000  0.08900000  1.0 0.100995124
H  H238  1  0.94240000  0.03140000  0.77900000  1.0 0.100995124
H  H239  1  0.75240000  0.16340000  0.72100000  1.0 0.100995124
H  H240  1  0.74760000  0.46860000  0.41100000  1.0 0.100995124
H  H241  1  0.48030000  0.76840000  0.00530000  1.0 0.110299811
H  H242  1  0.26310000  0.47500000  0.49470000  1.0 0.110299811
H  H243  1  0.23690000  0.73160000  0.21190000  1.0 0.110299811
H  H244  1  0.01970000  0.02500000  0.28810000  1.0 0.110299811
H  H245  1  0.00530000  0.48030000  0.76840000  1.0 0.110299811
H  H246  1  0.49470000  0.26310000  0.47500000  1.0 0.110299811
H  H247  1  0.21190000  0.23690000  0.73160000  1.0 0.110299811
H  H248  1  0.28810000  0.01970000  0.02500000  1.0 0.110299811
H  H249  1  0.76840000  0.00530000  0.48030000  1.0 0.110299811
H  H250  1  0.47500000  0.49470000  0.26310000  1.0 0.110299811
H  H251  1  0.73160000  0.21190000  0.23690000  1.0 0.110299811
H  H252  1  0.02500000  0.28810000  0.01970000  1.0 0.110299811
H  H253  1  0.26840000  0.98030000  0.50530000  1.0 0.110299811
H  H254  1  0.97500000  0.76310000  0.99470000  1.0 0.110299811
H  H255  1  0.23160000  0.73690000  0.71190000  1.0 0.110299811
H  H256  1  0.52500000  0.51970000  0.78810000  1.0 0.110299811
H  H257  1  0.98030000  0.50530000  0.26840000  1.0 0.110299811
H  H258  1  0.76310000  0.99470000  0.97500000  1.0 0.110299811
H  H259  1  0.73690000  0.71190000  0.23160000  1.0 0.110299811
H  H260  1  0.51970000  0.78810000  0.52500000  1.0 0.110299811
H  H261  1  0.50530000  0.26840000  0.98030000  1.0 0.110299811
H  H262  1  0.99470000  0.97500000  0.76310000  1.0 0.110299811
H  H263  1  0.71190000  0.23160000  0.73690000  1.0 0.110299811
H  H264  1  0.78810000  0.52500000  0.51970000  1.0 0.110299811
H  H265  1  0.64680000  0.85620000  0.95420000  1.0 0.1299753173
H  H266  1  0.40200000  0.69260000  0.54580000  1.0 0.1299753173
H  H267  1  0.09800000  0.64380000  0.29060000  1.0 0.1299753173
H  H268  1  0.85320000  0.80740000  0.20940000  1.0 0.1299753173
H  H269  1  0.95420000  0.64680000  0.85620000  1.0 0.1299753173
H  H270  1  0.54580000  0.40200000  0.69260000  1.0 0.1299753173
H  H271  1  0.29060000  0.09800000  0.64380000  1.0 0.1299753173
H  H272  1  0.20940000  0.85320000  0.80740000  1.0 0.1299753173
H  H273  1  0.85620000  0.95420000  0.64680000  1.0 0.1299753173
H  H274  1  0.69260000  0.54580000  0.40200000  1.0 0.1299753173
H  H275  1  0.64380000  0.29060000  0.09800000  1.0 0.1299753173
H  H276  1  0.80740000  0.20940000  0.85320000  1.0 0.1299753173
H  H277  1  0.35620000  0.14680000  0.45420000  1.0 0.1299753173
H  H278  1  0.19260000  0.90200000  0.04580000  1.0 0.1299753173
H  H279  1  0.14380000  0.59800000  0.79060000  1.0 0.1299753173
H  H280  1  0.30740000  0.35320000  0.70940000  1.0 0.1299753173
H  H281  1  0.14680000  0.45420000  0.35620000  1.0 0.1299753173
H  H282  1  0.90200000  0.04580000  0.19260000  1.0 0.1299753173
H  H283  1  0.59800000  0.79060000  0.14380000  1.0 0.1299753173
H  H284  1  0.35320000  0.70940000  0.30740000  1.0 0.1299753173
H  H285  1  0.45420000  0.35620000  0.14680000  1.0 0.1299753173
H  H286  1  0.04580000  0.19260000  0.90200000  1.0 0.1299753173
H  H287  1  0.79060000  0.14380000  0.59800000  1.0 0.1299753173
H  H288  1  0.70940000  0.30740000  0.35320000  1.0 0.1299753173
H  H289  1  0.61690000  0.98100000  0.05470000  1.0 0.148383142
H  H290  1  0.42630000  0.56220000  0.44530000  1.0 0.148383142
H  H291  1  0.07370000  0.51900000  0.13590000  1.0 0.148383142
H  H292  1  0.88310000  0.93780000  0.36410000  1.0 0.148383142
H  H293  1  0.05470000  0.61690000  0.98100000  1.0 0.148383142
H  H294  1  0.44530000  0.42630000  0.56220000  1.0 0.148383142
H  H295  1  0.13590000  0.07370000  0.51900000  1.0 0.148383142
H  H296  1  0.36410000  0.88310000  0.93780000  1.0 0.148383142
H  H297  1  0.98100000  0.05470000  0.61690000  1.0 0.148383142
H  H298  1  0.56220000  0.44530000  0.42630000  1.0 0.148383142
H  H299  1  0.51900000  0.13590000  0.07370000  1.0 0.148383142
H  H300  1  0.93780000  0.36410000  0.88310000  1.0 0.148383142
H  H301  1  0.48100000  0.11690000  0.55470000  1.0 0.148383142
H  H302  1  0.06220000  0.92630000  0.94530000  1.0 0.148383142
H  H303  1  0.01900000  0.57370000  0.63590000  1.0 0.148383142
H  H304  1  0.43780000  0.38310000  0.86410000  1.0 0.148383142
H  H305  1  0.11690000  0.55470000  0.48100000  1.0 0.148383142
H  H306  1  0.92630000  0.94530000  0.06220000  1.0 0.148383142
H  H307  1  0.57370000  0.63590000  0.01900000  1.0 0.148383142
H  H308  1  0.38310000  0.86410000  0.43780000  1.0 0.148383142
H  H309  1  0.55470000  0.48100000  0.11690000  1.0 0.148383142
H  H310  1  0.94530000  0.06220000  0.92630000  1.0 0.148383142
H  H311  1  0.63590000  0.01900000  0.57370000  1.0 0.148383142
H  H312  1  0.86410000  0.43780000  0.38310000  1.0 0.148383142
H  H313  1  0.69290000  0.91870000  0.97500000  1.0 0.118112862
H  H314  1  0.44370000  0.71790000  0.52500000  1.0 0.118112862
H  H315  1  0.05630000  0.58130000  0.27420000  1.0 0.110299811
H  H316  1  0.80710000  0.78210000  0.22580000  1.0 0.118112862
H  H317  1  0.97500000  0.69290000  0.91870000  1.0 0.118112862
H  H318  1  0.52500000  0.44370000  0.71790000  1.0 0.118112862
H  H319  1  0.27420000  0.05630000  0.58130000  1.0 0.118112862
H  H320  1  0.22580000  0.80710000  0.78210000  1.0 0.118112862
H  H321  1  0.91870000  0.97500000  0.69290000  1.0 0.118112862
H  H322  1  0.71790000  0.52500000  0.44370000  1.0 0.118112862
H  H323  1  0.58130000  0.27420000  0.05630000  1.0 0.118112862
H  H324  1  0.78210000  0.22580000  0.80710000  1.0 0.118112862
H  H325  1  0.41870000  0.19290000  0.47500000  1.0 0.118112862
H  H326  1  0.21790000  0.94370000  0.02500000  1.0 0.118112862
H  H327  1  0.08130000  0.55630000  0.77420000  1.0 0.118112862
H  H328  1  0.28210000  0.30710000  0.72580000  1.0 0.118112862
H  H329  1  0.19290000  0.47500000  0.41870000  1.0 0.110299811
H  H330  1  0.94370000  0.02500000  0.21790000  1.0 0.118112862
H  H331  1  0.55630000  0.77420000  0.08130000  1.0 0.118112862
H  H332  1  0.30710000  0.72580000  0.28210000  1.0 0.118112862
H  H333  1  0.47500000  0.41870000  0.19290000  1.0 0.118112862
H  H334  1  0.02500000  0.21790000  0.94370000  1.0 0.118112862
H  H335  1  0.77420000  0.08130000  0.55630000  1.0 0.118112862
H  H336  1  0.72580000  0.28210000  0.30710000  1.0 0.110299811
H  H337  1  0.67570000  0.89530000  0.06520000  1.0 0.148383142
H  H338  1  0.33010000  0.61050000  0.43480000  1.0 0.148383142
H  H339  1  0.16990000  0.60470000  0.28040000  1.0 0.148383142
H  H340  1  0.82430000  0.88950000  0.21960000  1.0 0.148383142
H  H341  1  0.06520000  0.67570000  0.89530000  1.0 0.148383142
H  H342  1  0.43480000  0.33010000  0.61050000  1.0 0.148383142
H  H343  1  0.28040000  0.16990000  0.60470000  1.0 0.148383142
H  H344  1  0.21960000  0.82430000  0.88950000  1.0 0.148383142
H  H345  1  0.89530000  0.06520000  0.67570000  1.0 0.148383142
H  H346  1  0.61050000  0.43480000  0.33010000  1.0 0.148383142
H  H347  1  0.60470000  0.28040000  0.16990000  1.0 0.148383142
H  H348  1  0.88950000  0.21960000  0.82430000  1.0 0.148383142
H  H349  1  0.39530000  0.17570000  0.56520000  1.0 0.148383142
H  H350  1  0.11050000  0.83010000  0.93480000  1.0 0.148383142
H  H351  1  0.10470000  0.66990000  0.78040000  1.0 0.148383142
H  H352  1  0.38950000  0.32430000  0.71960000  1.0 0.148383142
H  H353  1  0.17570000  0.56520000  0.39530000  1.0 0.148383142
H  H354  1  0.83010000  0.93480000  0.11050000  1.0 0.148383142
H  H355  1  0.66990000  0.78040000  0.10470000  1.0 0.148383142
H  H356  1  0.32430000  0.71960000  0.38950000  1.0 0.148383142
H  H357  1  0.56520000  0.39530000  0.17570000  1.0 0.148383142
H  H358  1  0.93480000  0.11050000  0.83010000  1.0 0.148383142
H  H359  1  0.78040000  0.10470000  0.66990000  1.0 0.148383142
H  H360  1  0.71960000  0.38950000  0.32430000  1.0 0.148383142
H  H361  1  0.43810000  0.60520000  0.78430000  1.0 0.1416273336
H  H362  1  0.32090000  0.65380000  0.71570000  1.0 0.1416273336
H  H363  1  0.17910000  0.89480000  0.33290000  1.0 0.1416273336
H  H364  1  0.06190000  0.84620000  0.16710000  1.0 0.1416273336
H  H365  1  0.78430000  0.43810000  0.60520000  1.0 0.1416273336
H  H366  1  0.71570000  0.32090000  0.65380000  1.0 0.1416273336
H  H367  1  0.33290000  0.17910000  0.89480000  1.0 0.1416273336
H  H368  1  0.16710000  0.06190000  0.84620000  1.0 0.1416273336
H  H369  1  0.60520000  0.78430000  0.43810000  1.0 0.1416273336
H  H370  1  0.65380000  0.71570000  0.32090000  1.0 0.1416273336
H  H371  1  0.89480000  0.33290000  0.17910000  1.0 0.1416273336
H  H372  1  0.84620000  0.16710000  0.06190000  1.0 0.1416273336
H  H373  1  0.10520000  0.93810000  0.28430000  1.0 0.1416273336
H  H374  1  0.15380000  0.82090000  0.21570000  1.0 0.1416273336
H  H375  1  0.39480000  0.67910000  0.83290000  1.0 0.1416273336
H  H376  1  0.34620000  0.56190000  0.66710000  1.0 0.1416273336
H  H377  1  0.93810000  0.28430000  0.10520000  1.0 0.1416273336
H  H378  1  0.82090000  0.21570000  0.15380000  1.0 0.1416273336
H  H379  1  0.67910000  0.83290000  0.39480000  1.0 0.1416273336
H  H380  1  0.56190000  0.66710000  0.34620000  1.0 0.1416273336
H  H381  1  0.28430000  0.10520000  0.93810000  1.0 0.1416273336
H  H382  1  0.21570000  0.15380000  0.82090000  1.0 0.1416273336
H  H383  1  0.83290000  0.39480000  0.67910000  1.0 0.1416273336
H  H384  1  0.66710000  0.34620000  0.56190000  1.0 0.1416273336
C  C1  1  0.51454000  0.60564000  0.82488000  1.0 -0.1503004175
C  C2  1  0.28076000  0.68966000  0.67512000  1.0 -0.1503004175
C  C3  1  0.21924000  0.89436000  0.40890000  1.0 -0.1503004175
C  C4  1  0.98546000  0.81034000  0.09110000  1.0 -0.1503004175
C  C5  1  0.82488000  0.51454000  0.60564000  1.0 -0.1503004175
C  C6  1  0.67512000  0.28076000  0.68966000  1.0 -0.1503004175
C  C7  1  0.40890000  0.21924000  0.89436000  1.0 -0.1503004175
C  C8  1  0.09110000  0.98546000  0.81034000  1.0 -0.1503004175
C  C9  1  0.60564000  0.82488000  0.51454000  1.0 -0.1503004175
C  C10  1  0.68966000  0.67512000  0.28076000  1.0 -0.1503004175
C  C11  1  0.89436000  0.40890000  0.21924000  1.0 -0.1503004175
C  C12  1  0.81034000  0.09110000  0.98546000  1.0 -0.1503004175
C  C13  1  0.10564000  0.01454000  0.32488000  1.0 -0.1503004175
C  C14  1  0.18966000  0.78076000  0.17512000  1.0 -0.1503004175
C  C15  1  0.39436000  0.71924000  0.90890000  1.0 -0.1503004175
C  C16  1  0.31034000  0.48546000  0.59110000  1.0 -0.1503004175
C  C17  1  0.01454000  0.32488000  0.10564000  1.0 -0.1503004175
C  C18  1  0.78076000  0.17512000  0.18966000  1.0 -0.1503004175
C  C19  1  0.71924000  0.90890000  0.39436000  1.0 -0.1503004175
C  C20  1  0.48546000  0.59110000  0.31034000  1.0 -0.1503004175
C  C21  1  0.32488000  0.10564000  0.01454000  1.0 -0.1503004175
C  C22  1  0.17512000  0.18966000  0.78076000  1.0 -0.1503004175
C  C23  1  0.90890000  0.39436000  0.71924000  1.0 -0.1503004175
C  C24  1  0.59110000  0.31034000  0.48546000  1.0 -0.1503004175
C  C25  1  0.66564000  0.04449000  0.14271000  1.0 -0.1590161369
C  C26  1  0.40178000  0.52293000  0.35729000  1.0 -0.1590161369
C  C27  1  0.09822000  0.45551000  0.12115000  1.0 -0.1590161369
C  C28  1  0.83436000  0.97707000  0.37885000  1.0 -0.1590161369
C  C29  1  0.14271000  0.66564000  0.04449000  1.0 -0.1590161369
C  C30  1  0.35729000  0.40178000  0.52293000  1.0 -0.1590161369
C  C31  1  0.12115000  0.09822000  0.45551000  1.0 -0.1590161369
C  C32  1  0.37885000  0.83436000  0.97707000  1.0 -0.1590161369
C  C33  1  0.04449000  0.14271000  0.66564000  1.0 -0.1590161369
C  C34  1  0.52293000  0.35729000  0.40178000  1.0 -0.1590161369
C  C35  1  0.45551000  0.12115000  0.09822000  1.0 -0.1590161369
C  C36  1  0.97707000  0.37885000  0.83436000  1.0 -0.1590161369
C  C37  1  0.54449000  0.16564000  0.64271000  1.0 -0.1590161369
C  C38  1  0.02293000  0.90178000  0.85729000  1.0 -0.1590161369
C  C39  1  0.95551000  0.59822000  0.62115000  1.0 -0.1590161369
C  C40  1  0.47707000  0.33436000  0.87885000  1.0 -0.1590161369
C  C41  1  0.16564000  0.64271000  0.54449000  1.0 -0.1590161369
C  C42  1  0.90178000  0.85729000  0.02293000  1.0 -0.1590161369
C  C43  1  0.59822000  0.62115000  0.95551000  1.0 -0.1590161369
C  C44  1  0.33436000  0.87885000  0.47707000  1.0 -0.1590161369
C  C45  1  0.64271000  0.54449000  0.16564000  1.0 -0.1590161369
C  C46  1  0.85729000  0.02293000  0.90178000  1.0 -0.1590161369
C  C47  1  0.62115000  0.95551000  0.59822000  1.0 -0.1590161369
C  C48  1  0.87885000  0.47707000  0.33436000  1.0 -0.1590161369
C  C49  1  0.62697000  0.83028000  0.99707000  1.0 0.2181692336
C  C50  1  0.33321000  0.62990000  0.50293000  1.0 0.2181692336
C  C51  1  0.16679000  0.66972000  0.29669000  1.0 0.2181692336
C  C52  1  0.87303000  0.87010000  0.20331000  1.0 0.2181692336
C  C53  1  0.99707000  0.62697000  0.83028000  1.0 0.2181692336
C  C54  1  0.50293000  0.33321000  0.62990000  1.0 0.2181692336
C  C55  1  0.29669000  0.16679000  0.66972000  1.0 0.2181692336
C  C56  1  0.20331000  0.87303000  0.87010000  1.0 0.2181692336
C  C57  1  0.83028000  0.99707000  0.62697000  1.0 0.2181692336
C  C58  1  0.62990000  0.50293000  0.33321000  1.0 0.2181692336
C  C59  1  0.66972000  0.29669000  0.16679000  1.0 0.2181692336
C  C60  1  0.87010000  0.20331000  0.87303000  1.0 0.2181692336
C  C61  1  0.33028000  0.12697000  0.49707000  1.0 0.2181692336
C  C62  1  0.12990000  0.83321000  0.00293000  1.0 0.2181692336
C  C63  1  0.16972000  0.66679000  0.79669000  1.0 0.2181692336
C  C64  1  0.37010000  0.37303000  0.70331000  1.0 0.2181692336
C  C65  1  0.12697000  0.49707000  0.33028000  1.0 0.2181692336
C  C66  1  0.83321000  0.00293000  0.12990000  1.0 0.2181692336
C  C67  1  0.66679000  0.79669000  0.16972000  1.0 0.2181692336
C  C68  1  0.37303000  0.70331000  0.37010000  1.0 0.2181692336
C  C69  1  0.49707000  0.33028000  0.12697000  1.0 0.2181692336
C  C70  1  0.00293000  0.12990000  0.83321000  1.0 0.2181692336
C  C71  1  0.79669000  0.16972000  0.66679000  1.0 0.2181692336
C  C72  1  0.70331000  0.37010000  0.37303000  1.0 0.2181692336
C  C73  1  0.52518000  0.86009000  0.06279000  1.0 0.0779455506
C  C74  1  0.29730000  0.46239000  0.43721000  1.0 0.0779455506
C  C75  1  0.20270000  0.63991000  0.16509000  1.0 0.0779455506
C  C76  1  0.97482000  0.03761000  0.33491000  1.0 0.0779455506
C  C77  1  0.06279000  0.52518000  0.86009000  1.0 0.0779455506
C  C78  1  0.43721000  0.29730000  0.46239000  1.0 0.0779455506
C  C79  1  0.16509000  0.20270000  0.63991000  1.0 0.0779455506
C  C80  1  0.33491000  0.97482000  0.03761000  1.0 0.0779455506
C  C81  1  0.86009000  0.06279000  0.52518000  1.0 0.0779455506
C  C82  1  0.46239000  0.43721000  0.29730000  1.0 0.0779455506
C  C83  1  0.63991000  0.16509000  0.20270000  1.0 0.0779455506
C  C84  1  0.03761000  0.33491000  0.97482000  1.0 0.0779455506
C  C85  1  0.36009000  0.02518000  0.56279000  1.0 0.0779455506
C  C86  1  0.96239000  0.79730000  0.93721000  1.0 0.0779455506
C  C87  1  0.13991000  0.70270000  0.66509000  1.0 0.0779455506
C  C88  1  0.53761000  0.47482000  0.83491000  1.0 0.0779455506
C  C89  1  0.02518000  0.56279000  0.36009000  1.0 0.0779455506
C  C90  1  0.79730000  0.93721000  0.96239000  1.0 0.0779455506
C  C91  1  0.70270000  0.66509000  0.13991000  1.0 0.0779455506
C  C92  1  0.47482000  0.83491000  0.53761000  1.0 0.0779455506
C  C93  1  0.56279000  0.36009000  0.02518000  1.0 0.0779455506
C  C94  1  0.93721000  0.96239000  0.79730000  1.0 0.0779455506
C  C95  1  0.66509000  0.13991000  0.70270000  1.0 0.0779455506
C  C96  1  0.83491000  0.53761000  0.47482000  1.0 0.0779455506
C  C97  1  0.49397000  0.82170000  0.03929000  1.0 -0.1789845564
C  C98  1  0.28241000  0.45468000  0.46071000  1.0 -0.1789845564
C  C99  1  0.21759000  0.67830000  0.17227000  1.0 -0.1789845564
C  C100  1  0.00603000  0.04532000  0.32773000  1.0 -0.1789845564
C  C101  1  0.03929000  0.49397000  0.82170000  1.0 -0.1789845564
C  C102  1  0.46071000  0.28241000  0.45468000  1.0 -0.1789845564
C  C103  1  0.17227000  0.21759000  0.67830000  1.0 -0.1789845564
C  C104  1  0.32773000  0.00603000  0.04532000  1.0 -0.1789845564
C  C105  1  0.82170000  0.03929000  0.49397000  1.0 -0.1789845564
C  C106  1  0.45468000  0.46071000  0.28241000  1.0 -0.1789845564
C  C107  1  0.67830000  0.17227000  0.21759000  1.0 -0.1789845564
C  C108  1  0.04532000  0.32773000  0.00603000  1.0 -0.1789845564
C  C109  1  0.32170000  0.99397000  0.53929000  1.0 -0.1789845564
C  C110  1  0.95468000  0.78241000  0.96071000  1.0 -0.1789845564
C  C111  1  0.17830000  0.71759000  0.67227000  1.0 -0.1789845564
C  C112  1  0.54532000  0.50603000  0.82773000  1.0 -0.1789845564
C  C113  1  0.99397000  0.53929000  0.32170000  1.0 -0.1789845564
C  C114  1  0.78241000  0.96071000  0.95468000  1.0 -0.1789845564
C  C115  1  0.71759000  0.67227000  0.17830000  1.0 -0.1789845564
C  C116  1  0.50603000  0.82773000  0.54532000  1.0 -0.1789845564
C  C117  1  0.53929000  0.32170000  0.99397000  1.0 -0.1789845564
C  C118  1  0.96071000  0.95468000  0.78241000  1.0 -0.1789845564
C  C119  1  0.67227000  0.17830000  0.71759000  1.0 -0.1789845564
C  C120  1  0.82773000  0.54532000  0.50603000  1.0 -0.1789845564
C  C121  1  0.63439000  0.03833000  0.14910000  1.0 0.100995124
C  C122  1  0.38923000  0.48529000  0.35090000  1.0 0.100995124
C  C123  1  0.11077000  0.46167000  0.09606000  1.0 0.0912224397
C  C124  1  0.86561000  0.01471000  0.40394000  1.0 0.0912224397
C  C125  1  0.14910000  0.63439000  0.03833000  1.0 0.100995124
C  C126  1  0.35090000  0.38923000  0.48529000  1.0 0.100995124
C  C127  1  0.09606000  0.11077000  0.46167000  1.0 0.0912224397
C  C128  1  0.40394000  0.86561000  0.01471000  1.0 0.100995124
C  C129  1  0.03833000  0.14910000  0.63439000  1.0 0.100995124
C  C130  1  0.48529000  0.35090000  0.38923000  1.0 0.0912224397
C  C131  1  0.46167000  0.09606000  0.11077000  1.0 0.100995124
C  C132  1  0.01471000  0.40394000  0.86561000  1.0 0.100995124
C  C133  1  0.53833000  0.13439000  0.64910000  1.0 0.0912224397
C  C134  1  0.98529000  0.88923000  0.85090000  1.0 0.100995124
C  C135  1  0.96167000  0.61077000  0.59606000  1.0 0.100995124
C  C136  1  0.51471000  0.36561000  0.90394000  1.0 0.100995124
C  C137  1  0.13439000  0.64910000  0.53833000  1.0 0.0912224397
C  C138  1  0.88923000  0.85090000  0.98529000  1.0 0.100995124
C  C139  1  0.61077000  0.59606000  0.96167000  1.0 0.100995124
C  C140  1  0.36561000  0.90394000  0.51471000  1.0 0.100995124
C  C141  1  0.64910000  0.53833000  0.13439000  1.0 0.0912224397
C  C142  1  0.85090000  0.98529000  0.88923000  1.0 0.0912224397
C  C143  1  0.59606000  0.96167000  0.61077000  1.0 0.100995124
C  C144  1  0.90394000  0.51471000  0.36561000  1.0 0.100995124
C  C145  1  0.70305000  0.93291000  0.05438000  1.0 0.0620224077
C  C146  1  0.37853000  0.64867000  0.44562000  1.0 0.0620224077
C  C147  1  0.12147000  0.56709000  0.27014000  1.0 0.0620224077
C  C148  1  0.79695000  0.85133000  0.22986000  1.0 0.0620224077
C  C149  1  0.05438000  0.70305000  0.93291000  1.0 0.0620224077
C  C150  1  0.44562000  0.37853000  0.64867000  1.0 0.0620224077
C  C151  1  0.27014000  0.12147000  0.56709000  1.0 0.0620224077
C  C152  1  0.22986000  0.79695000  0.85133000  1.0 0.0620224077
C  C153  1  0.93291000  0.05438000  0.70305000  1.0 0.0620224077
C  C154  1  0.64867000  0.44562000  0.37853000  1.0 0.0620224077
C  C155  1  0.56709000  0.27014000  0.12147000  1.0 0.0620224077
C  C156  1  0.85133000  0.22986000  0.79695000  1.0 0.0620224077
C  C157  1  0.43291000  0.20305000  0.55438000  1.0 0.0620224077
C  C158  1  0.14867000  0.87853000  0.94562000  1.0 0.0620224077
C  C159  1  0.06709000  0.62147000  0.77014000  1.0 0.0620224077
C  C160  1  0.35133000  0.29695000  0.72986000  1.0 0.0620224077
C  C161  1  0.20305000  0.55438000  0.43291000  1.0 0.0620224077
C  C162  1  0.87853000  0.94562000  0.14867000  1.0 0.0620224077
C  C163  1  0.62147000  0.77014000  0.06709000  1.0 0.0620224077
C  C164  1  0.29695000  0.72986000  0.35133000  1.0 0.0620224077
C  C165  1  0.55438000  0.43291000  0.20305000  1.0 0.0620224077
C  C166  1  0.94562000  0.14867000  0.87853000  1.0 0.0620224077
C  C167  1  0.77014000  0.06709000  0.62147000  1.0 0.0620224077
C  C168  1  0.72986000  0.35133000  0.29695000  1.0 0.0620224077
C  C169  1  0.48244000  0.65008000  0.83406000  1.0 0.0912224397
C  C170  1  0.31602000  0.64838000  0.66594000  1.0 0.0912224397
C  C171  1  0.18398000  0.84992000  0.33236000  1.0 0.0912224397
C  C172  1  0.01756000  0.85162000  0.16764000  1.0 0.0912224397
C  C173  1  0.83406000  0.48244000  0.65008000  1.0 0.0912224397
C  C174  1  0.66594000  0.31602000  0.64838000  1.0 0.0912224397
C  C175  1  0.33236000  0.18398000  0.84992000  1.0 0.0912224397
C  C176  1  0.16764000  0.01756000  0.85162000  1.0 0.0912224397
C  C177  1  0.65008000  0.83406000  0.48244000  1.0 0.0912224397
C  C178  1  0.64838000  0.66594000  0.31602000  1.0 0.0912224397
C  C179  1  0.84992000  0.33236000  0.18398000  1.0 0.0912224397
C  C180  1  0.85162000  0.16764000  0.01756000  1.0 0.0912224397
C  C181  1  0.15008000  0.98244000  0.33406000  1.0 0.0912224397
C  C182  1  0.14838000  0.81602000  0.16594000  1.0 0.0912224397
C  C183  1  0.34992000  0.68398000  0.83236000  1.0 0.0912224397
C  C184  1  0.35162000  0.51756000  0.66764000  1.0 0.0912224397
C  C185  1  0.98244000  0.33406000  0.15008000  1.0 0.0912224397
C  C186  1  0.81602000  0.16594000  0.14838000  1.0 0.0912224397
C  C187  1  0.68398000  0.83236000  0.34992000  1.0 0.0912224397
C  C188  1  0.51756000  0.66764000  0.35162000  1.0 0.0912224397
C  C189  1  0.33406000  0.15008000  0.98244000  1.0 0.0912224397
C  C190  1  0.16594000  0.14838000  0.81602000  1.0 0.0912224397
C  C191  1  0.83236000  0.34992000  0.68398000  1.0 0.0912224397
C  C192  1  0.66764000  0.35162000  0.51756000  1.0 0.0912224397
C  C193  1  0.53316000  0.64170000  0.85604000  1.0 0.0667249811
C  C194  1  0.28566000  0.67712000  0.64396000  1.0 0.0667249811
C  C195  1  0.21434000  0.85830000  0.39146000  1.0 0.0667249811
C  C196  1  0.96684000  0.82288000  0.10854000  1.0 0.0667249811
C  C197  1  0.85604000  0.53316000  0.64170000  1.0 0.0667249811
C  C198  1  0.64396000  0.28566000  0.67712000  1.0 0.0667249811
C  C199  1  0.39146000  0.21434000  0.85830000  1.0 0.0667249811
C  C200  1  0.10854000  0.96684000  0.82288000  1.0 0.0667249811
C  C201  1  0.64170000  0.85604000  0.53316000  1.0 0.0667249811
C  C202  1  0.67712000  0.64396000  0.28566000  1.0 0.0667249811
C  C203  1  0.85830000  0.39146000  0.21434000  1.0 0.0667249811
C  C204  1  0.82288000  0.10854000  0.96684000  1.0 0.0667249811
C  C205  1  0.14170000  0.03316000  0.35604000  1.0 0.0667249811
C  C206  1  0.17712000  0.78566000  0.14396000  1.0 0.0667249811
C  C207  1  0.35830000  0.71434000  0.89146000  1.0 0.0667249811
C  C208  1  0.32288000  0.46684000  0.60854000  1.0 0.0667249811
C  C209  1  0.03316000  0.35604000  0.14170000  1.0 0.0667249811
C  C210  1  0.78566000  0.14396000  0.17712000  1.0 0.0667249811
C  C211  1  0.71434000  0.89146000  0.35830000  1.0 0.0667249811
C  C212  1  0.46684000  0.60854000  0.32288000  1.0 0.0667249811
C  C213  1  0.35604000  0.14170000  0.03316000  1.0 0.0667249811
C  C214  1  0.14396000  0.17712000  0.78566000  1.0 0.0667249811
C  C215  1  0.89146000  0.35830000  0.71434000  1.0 0.0667249811
C  C216  1  0.60854000  0.32288000  0.46684000  1.0 0.0667249811
C  C217  1  0.65719000  0.86954000  0.00881000  1.0 0.110299811
C  C218  1  0.36073000  0.64838000  0.49119000  1.0 0.110299811
C  C219  1  0.13927000  0.63046000  0.28765000  1.0 0.110299811
C  C220  1  0.84281000  0.85162000  0.21235000  1.0 0.110299811
C  C221  1  0.00881000  0.65719000  0.86954000  1.0 0.100995124
C  C222  1  0.49119000  0.36073000  0.64838000  1.0 0.110299811
C  C223  1  0.28765000  0.13927000  0.63046000  1.0 0.110299811
C  C224  1  0.21235000  0.84281000  0.85162000  1.0 0.110299811
C  C225  1  0.86954000  0.00881000  0.65719000  1.0 0.110299811
C  C226  1  0.64838000  0.49119000  0.36073000  1.0 0.110299811
C  C227  1  0.63046000  0.28765000  0.13927000  1.0 0.100995124
C  C228  1  0.85162000  0.21235000  0.84281000  1.0 0.110299811
C  C229  1  0.36954000  0.15719000  0.50881000  1.0 0.110299811
C  C230  1  0.14838000  0.86073000  0.99119000  1.0 0.100995124
C  C231  1  0.13046000  0.63927000  0.78765000  1.0 0.110299811
C  C232  1  0.35162000  0.34281000  0.71235000  1.0 0.110299811
C  C233  1  0.15719000  0.50881000  0.36954000  1.0 0.110299811
C  C234  1  0.86073000  0.99119000  0.14838000  1.0 0.110299811
C  C235  1  0.63927000  0.78765000  0.13046000  1.0 0.110299811
C  C236  1  0.34281000  0.71235000  0.35162000  1.0 0.110299811
C  C237  1  0.50881000  0.36954000  0.15719000  1.0 0.110299811
C  C238  1  0.99119000  0.14838000  0.86073000  1.0 0.110299811
C  C239  1  0.78765000  0.13046000  0.63927000  1.0 0.110299811
C  C240  1  0.71235000  0.35162000  0.34281000  1.0 0.110299811
C  C241  1  0.56165000  0.86643000  0.07128000  1.0 -0.1789845564
C  C242  1  0.29515000  0.49037000  0.42872000  1.0 -0.1789845564
C  C243  1  0.20485000  0.63357000  0.19522000  1.0 -0.1789845564
C  C244  1  0.93835000  0.00963000  0.30478000  1.0 -0.1789845564
C  C245  1  0.07128000  0.56165000  0.86643000  1.0 -0.1789845564
C  C246  1  0.42872000  0.29515000  0.49037000  1.0 -0.1789845564
C  C247  1  0.19522000  0.20485000  0.63357000  1.0 -0.1789845564
C  C248  1  0.30478000  0.93835000  0.00963000  1.0 -0.1789845564
C  C249  1  0.86643000  0.07128000  0.56165000  1.0 -0.1789845564
C  C250  1  0.49037000  0.42872000  0.29515000  1.0 -0.1789845564
C  C251  1  0.63357000  0.19522000  0.20485000  1.0 -0.1789845564
C  C252  1  0.00963000  0.30478000  0.93835000  1.0 -0.1789845564
C  C253  1  0.36643000  0.06165000  0.57128000  1.0 -0.1789845564
C  C254  1  0.99037000  0.79515000  0.92872000  1.0 -0.1789845564
C  C255  1  0.13357000  0.70485000  0.69522000  1.0 -0.1789845564
C  C256  1  0.50963000  0.43835000  0.80478000  1.0 -0.1789845564
C  C257  1  0.06165000  0.57128000  0.36643000  1.0 -0.1789845564
C  C258  1  0.79515000  0.92872000  0.99037000  1.0 -0.1789845564
C  C259  1  0.70485000  0.69522000  0.13357000  1.0 -0.1789845564
C  C260  1  0.43835000  0.80478000  0.50963000  1.0 -0.1789845564
C  C261  1  0.57128000  0.36643000  0.06165000  1.0 -0.1789845564
C  C262  1  0.92872000  0.99037000  0.79515000  1.0 -0.1789845564
C  C263  1  0.69522000  0.13357000  0.70485000  1.0 -0.1789845564
C  C264  1  0.80478000  0.50963000  0.43835000  1.0 -0.1789845564
C  C265  1  0.59502000  0.99497000  0.08649000  1.0 0.0417196074
C  C266  1  0.40848000  0.50853000  0.41351000  1.0 0.0417196074
C  C267  1  0.09152000  0.50503000  0.10005000  1.0 0.0417196074
C  C268  1  0.90498000  0.99147000  0.39995000  1.0 0.0417196074
C  C269  1  0.08649000  0.59502000  0.99497000  1.0 0.0417196074
C  C270  1  0.41351000  0.40848000  0.50853000  1.0 0.0417196074
C  C271  1  0.10005000  0.09152000  0.50503000  1.0 0.0417196074
C  C272  1  0.39995000  0.90498000  0.99147000  1.0 0.0417196074
C  C273  1  0.99497000  0.08649000  0.59502000  1.0 0.0417196074
C  C274  1  0.50853000  0.41351000  0.40848000  1.0 0.0417196074
C  C275  1  0.50503000  0.10005000  0.09152000  1.0 0.0417196074
C  C276  1  0.99147000  0.39995000  0.90498000  1.0 0.0417196074
C  C277  1  0.49497000  0.09502000  0.58649000  1.0 0.0417196074
C  C278  1  0.00853000  0.90848000  0.91351000  1.0 0.0417196074
C  C279  1  0.00503000  0.59152000  0.60005000  1.0 0.0417196074
C  C280  1  0.49147000  0.40498000  0.89995000  1.0 0.0417196074
C  C281  1  0.09502000  0.58649000  0.49497000  1.0 0.0417196074
C  C282  1  0.90848000  0.91351000  0.00853000  1.0 0.0417196074
C  C283  1  0.59152000  0.60005000  0.00503000  1.0 0.0417196074
C  C284  1  0.40498000  0.89995000  0.49147000  1.0 0.0417196074
C  C285  1  0.58649000  0.49497000  0.09502000  1.0 0.0417196074
C  C286  1  0.91351000  0.00853000  0.90848000  1.0 0.0417196074
C  C287  1  0.60005000  0.00503000  0.59152000  1.0 0.0417196074
C  C288  1  0.89995000  0.49147000  0.40498000  1.0 0.0417196074
C  C289  1  0.56493000  0.83274000  0.05327000  1.0 0.100995124
C  C290  1  0.27947000  0.51166000  0.44673000  1.0 0.100995124
C  C291  1  0.22053000  0.66726000  0.23219000  1.0 0.100995124
C  C292  1  0.93507000  0.98834000  0.26781000  1.0 0.100995124
C  C293  1  0.05327000  0.56493000  0.83274000  1.0 0.100995124
C  C294  1  0.44673000  0.27947000  0.51166000  1.0 0.100995124
C  C295  1  0.23219000  0.22053000  0.66726000  1.0 0.100995124
C  C296  1  0.26781000  0.93507000  0.98834000  1.0 0.100995124
C  C297  1  0.83274000  0.05327000  0.56493000  1.0 0.110299811
C  C298  1  0.51166000  0.44673000  0.27947000  1.0 0.100995124
C  C299  1  0.66726000  0.23219000  0.22053000  1.0 0.100995124
C  C300  1  0.98834000  0.26781000  0.93507000  1.0 0.110299811
C  C301  1  0.33274000  0.06493000  0.55327000  1.0 0.100995124
C  C302  1  0.01166000  0.77947000  0.94673000  1.0 0.100995124
C  C303  1  0.16726000  0.72053000  0.73219000  1.0 0.100995124
C  C304  1  0.48834000  0.43507000  0.76781000  1.0 0.100995124
C  C305  1  0.06493000  0.55327000  0.33274000  1.0 0.100995124
C  C306  1  0.77947000  0.94673000  0.01166000  1.0 0.100995124
C  C307  1  0.72053000  0.73219000  0.16726000  1.0 0.100995124
C  C308  1  0.43507000  0.76781000  0.48834000  1.0 0.100995124
C  C309  1  0.55327000  0.33274000  0.06493000  1.0 0.110299811
C  C310  1  0.94673000  0.01166000  0.77947000  1.0 0.110299811
C  C311  1  0.73219000  0.16726000  0.72053000  1.0 0.110299811
C  C312  1  0.76781000  0.48834000  0.43507000  1.0 0.100995124
C  C313  1  0.50116000  0.79281000  0.02311000  1.0 0.0912224397
C  C314  1  0.26970000  0.47805000  0.47689000  1.0 0.0912224397
C  C315  1  0.23030000  0.70719000  0.20835000  1.0 0.0912224397
C  C316  1  0.99884000  0.02195000  0.29165000  1.0 0.0912224397
C  C317  1  0.02311000  0.50116000  0.79281000  1.0 0.0912224397
C  C318  1  0.47689000  0.26970000  0.47805000  1.0 0.0912224397
C  C319  1  0.20835000  0.23030000  0.70719000  1.0 0.0912224397
C  C320  1  0.29165000  0.99884000  0.02195000  1.0 0.0912224397
C  C321  1  0.79281000  0.02311000  0.50116000  1.0 0.0912224397
C  C322  1  0.47805000  0.47689000  0.26970000  1.0 0.0912224397
C  C323  1  0.70719000  0.20835000  0.23030000  1.0 0.0912224397
C  C324  1  0.02195000  0.29165000  0.99884000  1.0 0.0912224397
C  C325  1  0.29281000  0.00116000  0.52311000  1.0 0.0912224397
C  C326  1  0.97805000  0.76970000  0.97689000  1.0 0.0912224397
C  C327  1  0.20719000  0.73030000  0.70835000  1.0 0.0912224397
C  C328  1  0.52195000  0.49884000  0.79165000  1.0 0.0912224397
C  C329  1  0.00116000  0.52311000  0.29281000  1.0 0.0912224397
C  C330  1  0.76970000  0.97689000  0.97805000  1.0 0.0912224397
C  C331  1  0.73030000  0.70835000  0.20719000  1.0 0.0912224397
C  C332  1  0.49884000  0.79165000  0.52195000  1.0 0.0912224397
C  C333  1  0.52311000  0.29281000  0.00116000  1.0 0.0912224397
C  C334  1  0.97689000  0.97805000  0.76970000  1.0 0.0912224397
C  C335  1  0.70835000  0.20719000  0.73030000  1.0 0.0912224397
C  C336  1  0.79165000  0.52195000  0.49884000  1.0 0.0912224397
C  C337  1  0.51994000  0.89239000  0.07827000  1.0 0.2298305058
C  C338  1  0.31412000  0.44167000  0.42173000  1.0 0.2298305058
C  C339  1  0.18588000  0.60761000  0.12755000  1.0 0.2298305058
C  C340  1  0.98006000  0.05833000  0.37245000  1.0 0.2352000663
C  C341  1  0.07827000  0.51994000  0.89239000  1.0 0.2298305058
C  C342  1  0.42173000  0.31412000  0.44167000  1.0 0.2298305058
C  C343  1  0.12755000  0.18588000  0.60761000  1.0 0.2298305058
C  C344  1  0.37245000  0.98006000  0.05833000  1.0 0.2352000663
C  C345  1  0.89239000  0.07827000  0.51994000  1.0 0.2352000663
C  C346  1  0.44167000  0.42173000  0.31412000  1.0 0.2298305058
C  C347  1  0.60761000  0.12755000  0.18588000  1.0 0.2352000663
C  C348  1  0.05833000  0.37245000  0.98006000  1.0 0.2298305058
C  C349  1  0.39239000  0.01994000  0.57827000  1.0 0.2298305058
C  C350  1  0.94167000  0.81412000  0.92173000  1.0 0.2352000663
C  C351  1  0.10761000  0.68588000  0.62755000  1.0 0.2298305058
C  C352  1  0.55833000  0.48006000  0.87245000  1.0 0.2298305058
C  C353  1  0.01994000  0.57827000  0.39239000  1.0 0.2298305058
C  C354  1  0.81412000  0.92173000  0.94167000  1.0 0.2352000663
C  C355  1  0.68588000  0.62755000  0.10761000  1.0 0.2352000663
C  C356  1  0.48006000  0.87245000  0.55833000  1.0 0.2352000663
C  C357  1  0.57827000  0.39239000  0.01994000  1.0 0.2352000663
C  C358  1  0.92173000  0.94167000  0.81412000  1.0 0.2352000663
C  C359  1  0.62755000  0.10761000  0.68588000  1.0 0.2298305058
C  C360  1  0.87245000  0.55833000  0.48006000  1.0 0.2352000663
C  C361  1  0.66113000  0.87527000  0.97980000  1.0 -0.1789845564
C  C362  1  0.39547000  0.68133000  0.52020000  1.0 -0.1789845564
C  C363  1  0.10453000  0.62473000  0.28586000  1.0 -0.1789845564
C  C364  1  0.83887000  0.81867000  0.21414000  1.0 -0.1789845564
C  C365  1  0.97980000  0.66113000  0.87527000  1.0 -0.1789845564
C  C366  1  0.52020000  0.39547000  0.68133000  1.0 -0.1789845564
C  C367  1  0.28586000  0.10453000  0.62473000  1.0 -0.1789845564
C  C368  1  0.21414000  0.83887000  0.81867000  1.0 -0.1789845564
C  C369  1  0.87527000  0.97980000  0.66113000  1.0 -0.1789845564
C  C370  1  0.68133000  0.52020000  0.39547000  1.0 -0.1789845564
C  C371  1  0.62473000  0.28586000  0.10453000  1.0 -0.1789845564
C  C372  1  0.81867000  0.21414000  0.83887000  1.0 -0.1789845564
C  C373  1  0.37527000  0.16113000  0.47980000  1.0 -0.1789845564
C  C374  1  0.18133000  0.89547000  0.02020000  1.0 -0.1789845564
C  C375  1  0.12473000  0.60453000  0.78586000  1.0 -0.1789845564
C  C376  1  0.31867000  0.33887000  0.71414000  1.0 -0.1789845564
C  C377  1  0.16113000  0.47980000  0.37527000  1.0 -0.1789845564
C  C378  1  0.89547000  0.02020000  0.18133000  1.0 -0.1789845564
C  C379  1  0.60453000  0.78586000  0.12473000  1.0 -0.1789845564
C  C380  1  0.33887000  0.71414000  0.31867000  1.0 -0.1789845564
C  C381  1  0.47980000  0.37527000  0.16113000  1.0 -0.1789845564
C  C382  1  0.02020000  0.18133000  0.89547000  1.0 -0.1789845564
C  C383  1  0.78586000  0.12473000  0.60453000  1.0 -0.1789845564
C  C384  1  0.71414000  0.31867000  0.33887000  1.0 -0.1789845564
C  C385  1  0.62246000  0.99674000  0.07916000  1.0 -0.1590161369
C  C386  1  0.41758000  0.54330000  0.42084000  1.0 -0.1590161369
C  C387  1  0.08242000  0.50326000  0.12572000  1.0 -0.1590161369
C  C388  1  0.87754000  0.95670000  0.37428000  1.0 -0.1590161369
C  C389  1  0.07916000  0.62246000  0.99674000  1.0 -0.1590161369
C  C390  1  0.42084000  0.41758000  0.54330000  1.0 -0.1590161369
C  C391  1  0.12572000  0.08242000  0.50326000  1.0 -0.1590161369
C  C392  1  0.37428000  0.87754000  0.95670000  1.0 -0.1590161369
C  C393  1  0.99674000  0.07916000  0.62246000  1.0 -0.1590161369
C  C394  1  0.54330000  0.42084000  0.41758000  1.0 -0.1590161369
C  C395  1  0.50326000  0.12572000  0.08242000  1.0 -0.1590161369
C  C396  1  0.95670000  0.37428000  0.87754000  1.0 -0.1590161369
C  C397  1  0.49674000  0.12246000  0.57916000  1.0 -0.1590161369
C  C398  1  0.04330000  0.91758000  0.92084000  1.0 -0.1590161369
C  C399  1  0.00326000  0.58242000  0.62572000  1.0 -0.1590161369
C  C400  1  0.45670000  0.37754000  0.87428000  1.0 -0.1590161369
C  C401  1  0.12246000  0.57916000  0.49674000  1.0 -0.1590161369
C  C402  1  0.91758000  0.92084000  0.04330000  1.0 -0.1590161369
C  C403  1  0.58242000  0.62572000  0.00326000  1.0 -0.1590161369
C  C404  1  0.37754000  0.87428000  0.45670000  1.0 -0.1590161369
C  C405  1  0.57916000  0.49674000  0.12246000  1.0 -0.1590161369
C  C406  1  0.92084000  0.04330000  0.91758000  1.0 -0.1590161369
C  C407  1  0.62572000  0.00326000  0.58242000  1.0 -0.1590161369
C  C408  1  0.87428000  0.45670000  0.37754000  1.0 -0.1590161369
C  C409  1  0.69116000  0.02692000  0.10016000  1.0 0.2298305058
C  C410  1  0.42676000  0.59100000  0.39984000  1.0 0.2298305058
C  C411  1  0.07324000  0.47308000  0.16424000  1.0 0.2298305058
C  C412  1  0.80884000  0.90900000  0.33576000  1.0 0.2298305058
C  C413  1  0.10016000  0.69116000  0.02692000  1.0 0.2298305058
C  C414  1  0.39984000  0.42676000  0.59100000  1.0 0.2298305058
C  C415  1  0.16424000  0.07324000  0.47308000  1.0 0.2298305058
C  C416  1  0.33576000  0.80884000  0.90900000  1.0 0.2298305058
C  C417  1  0.02692000  0.10016000  0.69116000  1.0 0.2298305058
C  C418  1  0.59100000  0.39984000  0.42676000  1.0 0.2298305058
C  C419  1  0.47308000  0.16424000  0.07324000  1.0 0.2298305058
C  C420  1  0.90900000  0.33576000  0.80884000  1.0 0.2298305058
C  C421  1  0.52692000  0.19116000  0.60016000  1.0 0.2298305058
C  C422  1  0.09100000  0.92676000  0.89984000  1.0 0.2298305058
C  C423  1  0.97308000  0.57324000  0.66424000  1.0 0.2298305058
C  C424  1  0.40900000  0.30884000  0.83576000  1.0 0.2298305058
C  C425  1  0.19116000  0.60016000  0.52692000  1.0 0.2298305058
C  C426  1  0.92676000  0.89984000  0.09100000  1.0 0.2298305058
C  C427  1  0.57324000  0.66424000  0.97308000  1.0 0.2298305058
C  C428  1  0.30884000  0.83576000  0.40900000  1.0 0.2298305058
C  C429  1  0.60016000  0.52692000  0.19116000  1.0 0.2298305058
C  C430  1  0.89984000  0.09100000  0.92676000  1.0 0.2298305058
C  C431  1  0.66424000  0.97308000  0.57324000  1.0 0.2298305058
C  C432  1  0.83576000  0.40900000  0.30884000  1.0 0.2298305058
C  C433  1  0.47715000  0.59065000  0.79764000  1.0 0.045526369
C  C434  1  0.29301000  0.67951000  0.70236000  1.0 0.045526369
C  C435  1  0.20699000  0.90935000  0.38650000  1.0 0.045526369
C  C436  1  0.02285000  0.82049000  0.11350000  1.0 0.0417196074
C  C437  1  0.79764000  0.47715000  0.59065000  1.0 0.0417196074
C  C438  1  0.70236000  0.29301000  0.67951000  1.0 0.045526369
C  C439  1  0.38650000  0.20699000  0.90935000  1.0 0.045526369
C  C440  1  0.11350000  0.02285000  0.82049000  1.0 0.045526369
C  C441  1  0.59065000  0.79764000  0.47715000  1.0 0.0417196074
C  C442  1  0.67951000  0.70236000  0.29301000  1.0 0.0417196074
C  C443  1  0.90935000  0.38650000  0.20699000  1.0 0.0417196074
C  C444  1  0.82049000  0.11350000  0.02285000  1.0 0.0417196074
C  C445  1  0.09065000  0.97715000  0.29764000  1.0 0.0417196074
C  C446  1  0.17951000  0.79301000  0.20236000  1.0 0.045526369
C  C447  1  0.40935000  0.70699000  0.88650000  1.0 0.045526369
C  C448  1  0.32049000  0.52285000  0.61350000  1.0 0.045526369
C  C449  1  0.97715000  0.29764000  0.09065000  1.0 0.0417196074
C  C450  1  0.79301000  0.20236000  0.17951000  1.0 0.0417196074
C  C451  1  0.70699000  0.88650000  0.40935000  1.0 0.045526369
C  C452  1  0.52285000  0.61350000  0.32049000  1.0 0.045526369
C  C453  1  0.29764000  0.09065000  0.97715000  1.0 0.045526369
C  C454  1  0.20236000  0.17951000  0.79301000  1.0 0.045526369
C  C455  1  0.88650000  0.40935000  0.70699000  1.0 0.0417196074
C  C456  1  0.61350000  0.32049000  0.52285000  1.0 0.045526369
C  C457  1  0.45822000  0.55299000  0.76711000  1.0 0.2057115359
C  C458  1  0.28588000  0.69111000  0.73289000  1.0 0.2047113219
C  C459  1  0.21412000  0.94701000  0.40523000  1.0 0.2057115359
C  C460  1  0.04178000  0.80889000  0.09477000  1.0 0.2057115359
C  C461  1  0.76711000  0.45822000  0.55299000  1.0 0.2057115359
C  C462  1  0.73289000  0.28588000  0.69111000  1.0 0.2057115359
C  C463  1  0.40523000  0.21412000  0.94701000  1.0 0.2057115359
C  C464  1  0.09477000  0.04178000  0.80889000  1.0 0.2057115359
C  C465  1  0.55299000  0.76711000  0.45822000  1.0 0.2057115359
C  C466  1  0.69111000  0.73289000  0.28588000  1.0 0.2057115359
C  C467  1  0.94701000  0.40523000  0.21412000  1.0 0.2047113219
C  C468  1  0.80889000  0.09477000  0.04178000  1.0 0.2057115359
C  C469  1  0.05299000  0.95822000  0.26711000  1.0 0.2057115359
C  C470  1  0.19111000  0.78588000  0.23289000  1.0 0.2057115359
C  C471  1  0.44701000  0.71412000  0.90523000  1.0 0.2057115359
C  C472  1  0.30889000  0.54178000  0.59477000  1.0 0.2057115359
C  C473  1  0.95822000  0.26711000  0.05299000  1.0 0.2057115359
C  C474  1  0.78588000  0.23289000  0.19111000  1.0 0.2057115359
C  C475  1  0.71412000  0.90523000  0.44701000  1.0 0.2057115359
C  C476  1  0.54178000  0.59477000  0.30889000  1.0 0.2057115359
C  C477  1  0.26711000  0.05299000  0.95822000  1.0 0.2057115359
C  C478  1  0.23289000  0.19111000  0.78588000  1.0 0.2057115359
C  C479  1  0.90523000  0.44701000  0.71412000  1.0 0.2057115359
C  C480  1  0.59477000  0.30889000  0.54178000  1.0 0.2057115359
C  C481  1  0.68932000  0.91315000  0.99317000  1.0 0.100995124
C  C482  1  0.41998000  0.69615000  0.50683000  1.0 0.100995124
C  C483  1  0.08002000  0.58685000  0.27617000  1.0 0.100995124
C  C484  1  0.81068000  0.80385000  0.22383000  1.0 0.100995124
C  C485  1  0.99317000  0.68932000  0.91315000  1.0 0.100995124
C  C486  1  0.50683000  0.41998000  0.69615000  1.0 0.100995124
C  C487  1  0.27617000  0.08002000  0.58685000  1.0 0.100995124
C  C488  1  0.22383000  0.81068000  0.80385000  1.0 0.100995124
C  C489  1  0.91315000  0.99317000  0.68932000  1.0 0.100995124
C  C490  1  0.69615000  0.50683000  0.41998000  1.0 0.100995124
C  C491  1  0.58685000  0.27617000  0.08002000  1.0 0.100995124
C  C492  1  0.80385000  0.22383000  0.81068000  1.0 0.100995124
C  C493  1  0.41315000  0.18932000  0.49317000  1.0 0.100995124
C  C494  1  0.19615000  0.91998000  0.00683000  1.0 0.100995124
C  C495  1  0.08685000  0.58002000  0.77617000  1.0 0.100995124
C  C496  1  0.30385000  0.31068000  0.72383000  1.0 0.100995124
C  C497  1  0.18932000  0.49317000  0.41315000  1.0 0.100995124
C  C498  1  0.91998000  0.00683000  0.19615000  1.0 0.100995124
C  C499  1  0.58002000  0.77617000  0.08685000  1.0 0.100995124
C  C500  1  0.31068000  0.72383000  0.30385000  1.0 0.100995124
C  C501  1  0.49317000  0.41315000  0.18932000  1.0 0.100995124
C  C502  1  0.00683000  0.19615000  0.91998000  1.0 0.100995124
C  C503  1  0.77617000  0.08685000  0.58002000  1.0 0.100995124
C  C504  1  0.72383000  0.30385000  0.31068000  1.0 0.100995124
C  C505  1  0.67857000  0.89922000  0.04605000  1.0 -0.1789845564
C  C506  1  0.35317000  0.63252000  0.45395000  1.0 -0.1789845564
C  C507  1  0.14683000  0.60078000  0.27935000  1.0 -0.1789845564
C  C508  1  0.82143000  0.86748000  0.22065000  1.0 -0.1789845564
C  C509  1  0.04605000  0.67857000  0.89922000  1.0 -0.1789845564
C  C510  1  0.45395000  0.35317000  0.63252000  1.0 -0.1789845564
C  C511  1  0.27935000  0.14683000  0.60078000  1.0 -0.1789845564
C  C512  1  0.22065000  0.82143000  0.86748000  1.0 -0.1789845564
C  C513  1  0.89922000  0.04605000  0.67857000  1.0 -0.1789845564
C  C514  1  0.63252000  0.45395000  0.35317000  1.0 -0.1789845564
C  C515  1  0.60078000  0.27935000  0.14683000  1.0 -0.1789845564
C  C516  1  0.86748000  0.22065000  0.82143000  1.0 -0.1789845564
C  C517  1  0.39922000  0.17857000  0.54605000  1.0 -0.1789845564
C  C518  1  0.13252000  0.85317000  0.95395000  1.0 -0.1789845564
C  C519  1  0.10078000  0.64683000  0.77935000  1.0 -0.1789845564
C  C520  1  0.36748000  0.32143000  0.72065000  1.0 -0.1789845564
C  C521  1  0.17857000  0.54605000  0.39922000  1.0 -0.1789845564
C  C522  1  0.85317000  0.95395000  0.13252000  1.0 -0.1789845564
C  C523  1  0.64683000  0.77935000  0.10078000  1.0 -0.1789845564
C  C524  1  0.32143000  0.72065000  0.36748000  1.0 -0.1789845564
C  C525  1  0.54605000  0.39922000  0.17857000  1.0 -0.1789845564
C  C526  1  0.95395000  0.13252000  0.85317000  1.0 -0.1789845564
C  C527  1  0.77935000  0.10078000  0.64683000  1.0 -0.1789845564
C  C528  1  0.72065000  0.36748000  0.32143000  1.0 -0.1789845564
C  C529  1  0.46273000  0.61385000  0.80272000  1.0 -0.1590161369
C  C530  1  0.31113000  0.66001000  0.69728000  1.0 -0.1590161369
C  C531  1  0.18887000  0.88615000  0.34888000  1.0 -0.1590161369
C  C532  1  0.03727000  0.83999000  0.15112000  1.0 -0.1590161369
C  C533  1  0.80272000  0.46273000  0.61385000  1.0 -0.1590161369
C  C534  1  0.69728000  0.31113000  0.66001000  1.0 -0.1590161369
C  C535  1  0.34888000  0.18887000  0.88615000  1.0 -0.1590161369
C  C536  1  0.15112000  0.03727000  0.83999000  1.0 -0.1590161369
C  C537  1  0.61385000  0.80272000  0.46273000  1.0 -0.1590161369
C  C538  1  0.66001000  0.69728000  0.31113000  1.0 -0.1590161369
C  C539  1  0.88615000  0.34888000  0.18887000  1.0 -0.1590161369
C  C540  1  0.83999000  0.15112000  0.03727000  1.0 -0.1590161369
C  C541  1  0.11385000  0.96273000  0.30272000  1.0 -0.1590161369
C  C542  1  0.16001000  0.81113000  0.19728000  1.0 -0.1590161369
C  C543  1  0.38615000  0.68887000  0.84888000  1.0 -0.1590161369
C  C544  1  0.33999000  0.53727000  0.65112000  1.0 -0.1590161369
C  C545  1  0.96273000  0.30272000  0.11385000  1.0 -0.1590161369
C  C546  1  0.81113000  0.19728000  0.16001000  1.0 -0.1590161369
C  C547  1  0.68887000  0.84888000  0.38615000  1.0 -0.1590161369
C  C548  1  0.53727000  0.65112000  0.33999000  1.0 -0.1590161369
C  C549  1  0.30272000  0.11385000  0.96273000  1.0 -0.1590161369
C  C550  1  0.19728000  0.16001000  0.81113000  1.0 -0.1590161369
C  C551  1  0.84888000  0.38615000  0.68887000  1.0 -0.1590161369
C  C552  1  0.65112000  0.33999000  0.53727000  1.0 -0.1590161369
C  C553  1  0.66036000  0.02257000  0.10851000  1.0 0.0779455506
C  C554  1  0.41406000  0.55185000  0.39149000  1.0 0.0779455506
C  C555  1  0.08594000  0.47743000  0.13779000  1.0 0.0779455506
C  C556  1  0.83964000  0.94815000  0.36221000  1.0 0.0779455506
C  C557  1  0.10851000  0.66036000  0.02257000  1.0 0.0779455506
C  C558  1  0.39149000  0.41406000  0.55185000  1.0 0.0779455506
C  C559  1  0.13779000  0.08594000  0.47743000  1.0 0.0779455506
C  C560  1  0.36221000  0.83964000  0.94815000  1.0 0.0779455506
C  C561  1  0.02257000  0.10851000  0.66036000  1.0 0.0779455506
C  C562  1  0.55185000  0.39149000  0.41406000  1.0 0.0779455506
C  C563  1  0.47743000  0.13779000  0.08594000  1.0 0.0779455506
C  C564  1  0.94815000  0.36221000  0.83964000  1.0 0.0779455506
C  C565  1  0.52257000  0.16036000  0.60851000  1.0 0.0779455506
C  C566  1  0.05185000  0.91406000  0.89149000  1.0 0.0779455506
C  C567  1  0.97743000  0.58594000  0.63779000  1.0 0.0779455506
C  C568  1  0.44815000  0.33964000  0.86221000  1.0 0.0779455506
C  C569  1  0.16036000  0.60851000  0.52257000  1.0 0.0779455506
C  C570  1  0.91406000  0.89149000  0.05185000  1.0 0.0779455506
C  C571  1  0.58594000  0.63779000  0.97743000  1.0 0.0779455506
C  C572  1  0.33964000  0.86221000  0.44815000  1.0 0.0779455506
C  C573  1  0.60851000  0.52257000  0.16036000  1.0 0.0779455506
C  C574  1  0.89149000  0.05185000  0.91406000  1.0 0.0779455506
C  C575  1  0.63779000  0.97743000  0.58594000  1.0 0.0779455506
C  C576  1  0.86221000  0.44815000  0.33964000  1.0 0.0779455506
Br  Br1  1  0.58235000  0.01125000  0.19448000  1.0 -0.3930481335
Br  Br2  1  0.31677000  0.38787000  0.30552000  1.0 -0.3930481335
Br  Br3  1  0.18323000  0.48875000  0.07110000  1.0 -0.3930481335
Br  Br4  1  0.91765000  0.11213000  0.42890000  1.0 -0.3930481335
Br  Br5  1  0.19448000  0.58235000  0.01125000  1.0 -0.3930481335
Br  Br6  1  0.30552000  0.31677000  0.38787000  1.0 -0.395856913
Br  Br7  1  0.07110000  0.18323000  0.48875000  1.0 -0.3930481335
Br  Br8  1  0.42890000  0.91765000  0.11213000  1.0 -0.3930481335
Br  Br9  1  0.01125000  0.19448000  0.58235000  1.0 -0.3930481335
Br  Br10  1  0.38787000  0.30552000  0.31677000  1.0 -0.3930481335
Br  Br11  1  0.48875000  0.07110000  0.18323000  1.0 -0.395856913
Br  Br12  1  0.11213000  0.42890000  0.91765000  1.0 -0.3930481335
Br  Br13  1  0.51125000  0.08235000  0.69448000  1.0 -0.395856913
Br  Br14  1  0.88787000  0.81677000  0.80552000  1.0 -0.3930481335
Br  Br15  1  0.98875000  0.68323000  0.57110000  1.0 -0.3930481335
Br  Br16  1  0.61213000  0.41765000  0.92890000  1.0 -0.3930481335
Br  Br17  1  0.08235000  0.69448000  0.51125000  1.0 -0.3930481335
Br  Br18  1  0.81677000  0.80552000  0.88787000  1.0 -0.3930481335
Br  Br19  1  0.68323000  0.57110000  0.98875000  1.0 -0.3930481335
Br  Br20  1  0.41765000  0.92890000  0.61213000  1.0 -0.3930481335
Br  Br21  1  0.69448000  0.51125000  0.08235000  1.0 -0.395856913
Br  Br22  1  0.80552000  0.88787000  0.81677000  1.0 -0.3930481335
Br  Br23  1  0.57110000  0.98875000  0.68323000  1.0 -0.3930481335
Br  Br24  1  0.92890000  0.61213000  0.41765000  1.0 -0.3930481335
N  N1  1  0.44792000  0.49792000  0.72946000  1.0 -0.0190624852
N  N2  1  0.26846000  0.71846000  0.77054000  1.0 -0.0190624852
N  N3  1  0.23154000  0.00208000  0.45000000  1.0 -0.0190624852
N  N4  1  0.05208000  0.78154000  0.05000000  1.0 -0.0190624852
N  N5  1  0.72946000  0.44792000  0.49792000  1.0 -0.0190624852
N  N6  1  0.77054000  0.26846000  0.71846000  1.0 -0.0190624852
N  N7  1  0.45000000  0.23154000  0.00208000  1.0 -0.0190624852
N  N8  1  0.05000000  0.05208000  0.78154000  1.0 -0.0190624852
N  N9  1  0.49792000  0.72946000  0.44792000  1.0 -0.0190624852
N  N10  1  0.71846000  0.77054000  0.26846000  1.0 -0.0190624852
N  N11  1  0.00208000  0.45000000  0.23154000  1.0 -0.0190624852
N  N12  1  0.78154000  0.05000000  0.05208000  1.0 -0.0190624852
N  N13  1  0.99792000  0.94792000  0.22946000  1.0 -0.0190624852
N  N14  1  0.21846000  0.76846000  0.27054000  1.0 -0.0190624852
N  N15  1  0.50208000  0.73154000  0.95000000  1.0 -0.0190624852
N  N16  1  0.28154000  0.55208000  0.55000000  1.0 -0.0190624852
N  N17  1  0.94792000  0.22946000  0.99792000  1.0 -0.0190624852
N  N18  1  0.76846000  0.27054000  0.21846000  1.0 -0.0190624852
N  N19  1  0.73154000  0.95000000  0.50208000  1.0 -0.0190624852
N  N20  1  0.55208000  0.55000000  0.28154000  1.0 -0.0190624852
N  N21  1  0.22946000  0.99792000  0.94792000  1.0 -0.0190624852
N  N22  1  0.27054000  0.21846000  0.76846000  1.0 -0.0190624852
N  N23  1  0.95000000  0.50208000  0.73154000  1.0 -0.0190624852
N  N24  1  0.55000000  0.28154000  0.55208000  1.0 -0.0190624852
N  N25  1  0.58677000  0.78558000  0.99471000  1.0 -0.0402911856
N  N26  1  0.29087000  0.59206000  0.50529000  1.0 -0.0402911856
N  N27  1  0.20913000  0.71442000  0.30119000  1.0 -0.0402911856
N  N28  1  0.91323000  0.90794000  0.19881000  1.0 -0.0402911856
N  N29  1  0.99471000  0.58677000  0.78558000  1.0 -0.0402911856
N  N30  1  0.50529000  0.29087000  0.59206000  1.0 -0.0402911856
N  N31  1  0.30119000  0.20913000  0.71442000  1.0 -0.0402911856
N  N32  1  0.19881000  0.91323000  0.90794000  1.0 -0.0402911856
N  N33  1  0.78558000  0.99471000  0.58677000  1.0 -0.0402911856
N  N34  1  0.59206000  0.50529000  0.29087000  1.0 -0.0402911856
N  N35  1  0.71442000  0.30119000  0.20913000  1.0 -0.0402911856
N  N36  1  0.90794000  0.19881000  0.91323000  1.0 -0.0402911856
N  N37  1  0.28558000  0.08677000  0.49471000  1.0 -0.0402911856
N  N38  1  0.09206000  0.79087000  0.00529000  1.0 -0.0402911856
N  N39  1  0.21442000  0.70913000  0.80119000  1.0 -0.0402911856
N  N40  1  0.40794000  0.41323000  0.69881000  1.0 -0.0402911856
N  N41  1  0.08677000  0.49471000  0.28558000  1.0 -0.0402911856
N  N42  1  0.79087000  0.00529000  0.09206000  1.0 -0.0402911856
N  N43  1  0.70913000  0.80119000  0.21442000  1.0 -0.0402911856
N  N44  1  0.41323000  0.69881000  0.40794000  1.0 -0.0402911856
N  N45  1  0.49471000  0.28558000  0.08677000  1.0 -0.0402911856
N  N46  1  0.00529000  0.09206000  0.79087000  1.0 -0.0402911856
N  N47  1  0.80119000  0.21442000  0.70913000  1.0 -0.0402911856
N  N48  1  0.69881000  0.40794000  0.41323000  1.0 -0.0402911856
N  N49  1  0.41433000  0.49892000  0.71829000  1.0 -0.0529009233
N  N50  1  0.28063000  0.69604000  0.78171000  1.0 -0.0529009233
N  N51  1  0.21937000  0.00108000  0.41541000  1.0 -0.0529009233
N  N52  1  0.08567000  0.80396000  0.08459000  1.0 -0.0529009233
N  N53  1  0.71829000  0.41433000  0.49892000  1.0 -0.0529009233
N  N54  1  0.78171000  0.28063000  0.69604000  1.0 -0.0529009233
N  N55  1  0.41541000  0.21937000  0.00108000  1.0 -0.0529009233
N  N56  1  0.08459000  0.08567000  0.80396000  1.0 -0.0529009233
N  N57  1  0.49892000  0.71829000  0.41433000  1.0 -0.0529009233
N  N58  1  0.69604000  0.78171000  0.28063000  1.0 -0.0529009233
N  N59  1  0.00108000  0.41541000  0.21937000  1.0 -0.0529009233
N  N60  1  0.80396000  0.08459000  0.08567000  1.0 -0.0529009233
N  N61  1  0.99892000  0.91433000  0.21829000  1.0 -0.0529009233
N  N62  1  0.19604000  0.78063000  0.28171000  1.0 -0.0529009233
N  N63  1  0.50108000  0.71937000  0.91541000  1.0 -0.0529009233
N  N64  1  0.30396000  0.58567000  0.58459000  1.0 -0.0529009233
N  N65  1  0.91433000  0.21829000  0.99892000  1.0 -0.0529009233
N  N66  1  0.78063000  0.28171000  0.19604000  1.0 -0.0529009233
N  N67  1  0.71937000  0.91541000  0.50108000  1.0 -0.0529009233
N  N68  1  0.58567000  0.58459000  0.30396000  1.0 -0.0529009233
N  N69  1  0.21829000  0.99892000  0.91433000  1.0 -0.0529009233
N  N70  1  0.28171000  0.19604000  0.78063000  1.0 -0.0529009233
N  N71  1  0.91541000  0.50108000  0.71937000  1.0 -0.0529009233
N  N72  1  0.58459000  0.30396000  0.58567000  1.0 -0.0529009233
N  N73  1  0.61464000  0.82083000  0.01829000  1.0 -0.2389818664
N  N74  1  0.30254000  0.59635000  0.48171000  1.0 -0.2389818664
N  N75  1  0.19746000  0.67917000  0.29381000  1.0 -0.2389818664
N  N76  1  0.88536000  0.90365000  0.20619000  1.0 -0.2389818664
N  N77  1  0.01829000  0.61464000  0.82083000  1.0 -0.2389818664
N  N78  1  0.48171000  0.30254000  0.59635000  1.0 -0.2389818664
N  N79  1  0.29381000  0.19746000  0.67917000  1.0 -0.2389818664
N  N80  1  0.20619000  0.88536000  0.90365000  1.0 -0.2389818664
N  N81  1  0.82083000  0.01829000  0.61464000  1.0 -0.2389818664
N  N82  1  0.59635000  0.48171000  0.30254000  1.0 -0.2389818664
N  N83  1  0.67917000  0.29381000  0.19746000  1.0 -0.2389818664
N  N84  1  0.90365000  0.20619000  0.88536000  1.0 -0.2389818664
N  N85  1  0.32083000  0.11464000  0.51829000  1.0 -0.2389818664
N  N86  1  0.09635000  0.80254000  0.98171000  1.0 -0.2389818664
N  N87  1  0.17917000  0.69746000  0.79381000  1.0 -0.2389818664
N  N88  1  0.40365000  0.38536000  0.70619000  1.0 -0.2389818664
N  N89  1  0.11464000  0.51829000  0.32083000  1.0 -0.2389818664
N  N90  1  0.80254000  0.98171000  0.09635000  1.0 -0.2389818664
N  N91  1  0.69746000  0.79381000  0.17917000  1.0 -0.2389818664
N  N92  1  0.38536000  0.70619000  0.40365000  1.0 -0.2389818664
N  N93  1  0.51829000  0.32083000  0.11464000  1.0 -0.2389818664
N  N94  1  0.98171000  0.09635000  0.80254000  1.0 -0.2389818664
N  N95  1  0.79381000  0.17917000  0.69746000  1.0 -0.2389818664
N  N96  1  0.70619000  0.40365000  0.38536000  1.0 -0.2389818664
N  N97  1  0.53601000  0.79762000  0.03143000  1.0 -0.2281536145
N  N98  1  0.26619000  0.50458000  0.46857000  1.0 -0.2281536145
N  N99  1  0.23381000  0.70238000  0.23839000  1.0 -0.2281536145
N  N100  1  0.96399000  0.99542000  0.26161000  1.0 -0.2281536145
N  N101  1  0.03143000  0.53601000  0.79762000  1.0 -0.2281536145
N  N102  1  0.46857000  0.26619000  0.50458000  1.0 -0.2281536145
N  N103  1  0.23839000  0.23381000  0.70238000  1.0 -0.2281536145
N  N104  1  0.26161000  0.96399000  0.99542000  1.0 -0.2281536145
N  N105  1  0.79762000  0.03143000  0.53601000  1.0 -0.2281536145
N  N106  1  0.50458000  0.46857000  0.26619000  1.0 -0.2281536145
N  N107  1  0.70238000  0.23839000  0.23381000  1.0 -0.2281536145
N  N108  1  0.99542000  0.26161000  0.96399000  1.0 -0.2281536145
N  N109  1  0.29762000  0.03601000  0.53143000  1.0 -0.2281536145
N  N110  1  0.00458000  0.76619000  0.96857000  1.0 -0.2281536145
N  N111  1  0.20238000  0.73381000  0.73839000  1.0 -0.2281536145
N  N112  1  0.49542000  0.46399000  0.76161000  1.0 -0.2281536145
N  N113  1  0.03601000  0.53143000  0.29762000  1.0 -0.2281536145
N  N114  1  0.76619000  0.96857000  0.00458000  1.0 -0.2281536145
N  N115  1  0.73381000  0.73839000  0.20238000  1.0 -0.2281536145
N  N116  1  0.46399000  0.76161000  0.49542000  1.0 -0.2281536145
N  N117  1  0.53143000  0.29762000  0.03601000  1.0 -0.2281536145
N  N118  1  0.96857000  0.00458000  0.76619000  1.0 -0.2281536145
N  N119  1  0.73839000  0.20238000  0.73381000  1.0 -0.2281536145
N  N120  1  0.76161000  0.49542000  0.46399000  1.0 -0.2281536145
N  N121  1  0.53009000  0.94866000  0.10305000  1.0 -0.0088937457
N  N122  1  0.34561000  0.42704000  0.39695000  1.0 -0.0088937457
N  N123  1  0.15439000  0.55134000  0.08143000  1.0 -0.0088937457
N  N124  1  0.96991000  0.07296000  0.41857000  1.0 -0.0088937457
N  N125  1  0.10305000  0.53009000  0.94866000  1.0 -0.0088937457
N  N126  1  0.39695000  0.34561000  0.42704000  1.0 -0.0088937457
N  N127  1  0.08143000  0.15439000  0.55134000  1.0 -0.0088937457
N  N128  1  0.41857000  0.96991000  0.07296000  1.0 -0.0088937457
N  N129  1  0.94866000  0.10305000  0.53009000  1.0 -0.0088937457
N  N130  1  0.42704000  0.39695000  0.34561000  1.0 -0.0088937457
N  N131  1  0.55134000  0.08143000  0.15439000  1.0 -0.0088937457
N  N132  1  0.07296000  0.41857000  0.96991000  1.0 -0.0088937457
N  N133  1  0.44866000  0.03009000  0.60305000  1.0 -0.0088937457
N  N134  1  0.92704000  0.84561000  0.89695000  1.0 -0.0088937457
N  N135  1  0.05134000  0.65439000  0.58143000  1.0 -0.0088937457
N  N136  1  0.57296000  0.46991000  0.91857000  1.0 -0.0088937457
N  N137  1  0.03009000  0.60305000  0.44866000  1.0 -0.0088937457
N  N138  1  0.84561000  0.89695000  0.92704000  1.0 -0.0088937457
N  N139  1  0.65439000  0.58143000  0.05134000  1.0 -0.0088937457
N  N140  1  0.46991000  0.91857000  0.57296000  1.0 -0.0088937457
N  N141  1  0.60305000  0.44866000  0.03009000  1.0 -0.0088937457
N  N142  1  0.89695000  0.92704000  0.84561000  1.0 -0.0088937457
N  N143  1  0.58143000  0.05134000  0.65439000  1.0 -0.0088937457
N  N144  1  0.91857000  0.57296000  0.46991000  1.0 -0.0088937457
N  N145  1  0.74929000  0.05304000  0.11103000  1.0 -0.0635218035
N  N146  1  0.44201000  0.63826000  0.38897000  1.0 -0.0635218035
N  N147  1  0.05799000  0.44696000  0.19625000  1.0 -0.0635218035
N  N148  1  0.75071000  0.86174000  0.30375000  1.0 -0.0635218035
N  N149  1  0.11103000  0.74929000  0.05304000  1.0 -0.0635218035
N  N150  1  0.38897000  0.44201000  0.63826000  1.0 -0.0635218035
N  N151  1  0.19625000  0.05799000  0.44696000  1.0 -0.0635218035
N  N152  1  0.30375000  0.75071000  0.86174000  1.0 -0.0635218035
N  N153  1  0.05304000  0.11103000  0.74929000  1.0 -0.0635218035
N  N154  1  0.63826000  0.38897000  0.44201000  1.0 -0.0635218035
N  N155  1  0.44696000  0.19625000  0.05799000  1.0 -0.0635218035
N  N156  1  0.86174000  0.30375000  0.75071000  1.0 -0.0635218035
N  N157  1  0.55304000  0.24929000  0.61103000  1.0 -0.0635218035
N  N158  1  0.13826000  0.94201000  0.88897000  1.0 -0.0635218035
N  N159  1  0.94696000  0.55799000  0.69625000  1.0 -0.0635218035
N  N160  1  0.36174000  0.25071000  0.80375000  1.0 -0.0635218035
N  N161  1  0.24929000  0.61103000  0.55304000  1.0 -0.0635218035
N  N162  1  0.94201000  0.88897000  0.13826000  1.0 -0.0635218035
N  N163  1  0.55799000  0.69625000  0.94696000  1.0 -0.0635218035
N  N164  1  0.25071000  0.80375000  0.36174000  1.0 -0.0635218035
N  N165  1  0.61103000  0.55304000  0.24929000  1.0 -0.0635218035
N  N166  1  0.88897000  0.13826000  0.94201000  1.0 -0.0635218035
N  N167  1  0.69625000  0.94696000  0.55799000  1.0 -0.0635218035
N  N168  1  0.80375000  0.36174000  0.25071000  1.0 -0.0635218035
N  N169  1  0.47410000  0.53116000  0.76024000  1.0 -0.1679415045
N  N170  1  0.27092000  0.71386000  0.73976000  1.0 -0.1590161369
N  N171  1  0.22908000  0.96884000  0.44294000  1.0 -0.1679415045
N  N172  1  0.02590000  0.78614000  0.05706000  1.0 -0.1679415045
N  N173  1  0.76024000  0.47410000  0.53116000  1.0 -0.1679415045
N  N174  1  0.73976000  0.27092000  0.71386000  1.0 -0.1679415045
N  N175  1  0.44294000  0.22908000  0.96884000  1.0 -0.1679415045
N  N176  1  0.05706000  0.02590000  0.78614000  1.0 -0.1679415045
N  N177  1  0.53116000  0.76024000  0.47410000  1.0 -0.1679415045
N  N178  1  0.71386000  0.73976000  0.27092000  1.0 -0.1679415045
N  N179  1  0.96884000  0.44294000  0.22908000  1.0 -0.1679415045
N  N180  1  0.78614000  0.05706000  0.02590000  1.0 -0.1679415045
N  N181  1  0.03116000  0.97410000  0.26024000  1.0 -0.1590161369
N  N182  1  0.21386000  0.77092000  0.23976000  1.0 -0.1679415045
N  N183  1  0.46884000  0.72908000  0.94294000  1.0 -0.1679415045
N  N184  1  0.28614000  0.52590000  0.55706000  1.0 -0.1679415045
N  N185  1  0.97410000  0.26024000  0.03116000  1.0 -0.1590161369
N  N186  1  0.77092000  0.23976000  0.21386000  1.0 -0.1679415045
N  N187  1  0.72908000  0.94294000  0.46884000  1.0 -0.1679415045
N  N188  1  0.52590000  0.55706000  0.28614000  1.0 -0.1679415045
N  N189  1  0.26024000  0.03116000  0.97410000  1.0 -0.1679415045
N  N190  1  0.23976000  0.21386000  0.77092000  1.0 -0.1679415045
N  N191  1  0.94294000  0.46884000  0.72908000  1.0 -0.1590161369
N  N192  1  0.55706000  0.28614000  0.52590000  1.0 -0.1679415045
N  N193  1  0.72626000  0.02173000  0.07739000  1.0 -0.0088937457
N  N194  1  0.44434000  0.64887000  0.42261000  1.0 -0.0190624852
N  N195  1  0.05566000  0.47827000  0.20453000  1.0 -0.0190624852
N  N196  1  0.77374000  0.85113000  0.29547000  1.0 -0.0190624852
N  N197  1  0.07739000  0.72626000  0.02173000  1.0 -0.0190624852
N  N198  1  0.42261000  0.44434000  0.64887000  1.0 -0.0190624852
N  N199  1  0.20453000  0.05566000  0.47827000  1.0 -0.0190624852
N  N200  1  0.29547000  0.77374000  0.85113000  1.0 -0.0190624852
N  N201  1  0.02173000  0.07739000  0.72626000  1.0 -0.0190624852
N  N202  1  0.64887000  0.42261000  0.44434000  1.0 -0.0190624852
N  N203  1  0.47827000  0.20453000  0.05566000  1.0 -0.0088937457
N  N204  1  0.85113000  0.29547000  0.77374000  1.0 -0.0088937457
N  N205  1  0.52173000  0.22626000  0.57739000  1.0 -0.0190624852
N  N206  1  0.14887000  0.94434000  0.92261000  1.0 -0.0088937457
N  N207  1  0.97827000  0.55566000  0.70453000  1.0 -0.0190624852
N  N208  1  0.35113000  0.27374000  0.79547000  1.0 -0.0190624852
N  N209  1  0.22626000  0.57739000  0.52173000  1.0 -0.0190624852
N  N210  1  0.94434000  0.92261000  0.14887000  1.0 -0.0190624852
N  N211  1  0.55566000  0.70453000  0.97827000  1.0 -0.0190624852
N  N212  1  0.27374000  0.79547000  0.35113000  1.0 -0.0088937457
N  N213  1  0.57739000  0.52173000  0.22626000  1.0 -0.0190624852
N  N214  1  0.92261000  0.14887000  0.94434000  1.0 -0.0088937457
N  N215  1  0.70453000  0.97827000  0.55566000  1.0 -0.0088937457
N  N216  1  0.79547000  0.35113000  0.27374000  1.0 -0.0190624852
N  N217  1  0.42001000  0.53273000  0.73952000  1.0 -0.1789845564
N  N218  1  0.29321000  0.68049000  0.76048000  1.0 -0.1789845564
N  N219  1  0.20679000  0.96727000  0.38728000  1.0 -0.1789845564
N  N220  1  0.07999000  0.81951000  0.11272000  1.0 -0.1789845564
N  N221  1  0.73952000  0.42001000  0.53273000  1.0 -0.1789845564
N  N222  1  0.76048000  0.29321000  0.68049000  1.0 -0.1789845564
N  N223  1  0.38728000  0.20679000  0.96727000  1.0 -0.1789845564
N  N224  1  0.11272000  0.07999000  0.81951000  1.0 -0.1789845564
N  N225  1  0.53273000  0.73952000  0.42001000  1.0 -0.1789845564
N  N226  1  0.68049000  0.76048000  0.29321000  1.0 -0.1789845564
N  N227  1  0.96727000  0.38728000  0.20679000  1.0 -0.1789845564
N  N228  1  0.81951000  0.11272000  0.07999000  1.0 -0.1789845564
N  N229  1  0.03273000  0.92001000  0.23952000  1.0 -0.1789845564
N  N230  1  0.18049000  0.79321000  0.26048000  1.0 -0.1789845564
N  N231  1  0.46727000  0.70679000  0.88728000  1.0 -0.1789845564
N  N232  1  0.31951000  0.57999000  0.61272000  1.0 -0.1789845564
N  N233  1  0.92001000  0.23952000  0.03273000  1.0 -0.1789845564
N  N234  1  0.79321000  0.26048000  0.18049000  1.0 -0.1789845564
N  N235  1  0.70679000  0.88728000  0.46727000  1.0 -0.1789845564
N  N236  1  0.57999000  0.61272000  0.31951000  1.0 -0.1789845564
N  N237  1  0.23952000  0.03273000  0.92001000  1.0 -0.1789845564
N  N238  1  0.26048000  0.18049000  0.79321000  1.0 -0.1789845564
N  N239  1  0.88728000  0.46727000  0.70679000  1.0 -0.1789845564
N  N240  1  0.61272000  0.31951000  0.57999000  1.0 -0.1789845564
N  N241  1  0.49196000  0.92549000  0.08243000  1.0 -0.0402911856
N  N242  1  0.34306000  0.40953000  0.41757000  1.0 -0.0402911856
N  N243  1  0.15694000  0.57451000  0.06647000  1.0 -0.0402911856
N  N244  1  0.00804000  0.09047000  0.43353000  1.0 -0.0402911856
N  N245  1  0.08243000  0.49196000  0.92549000  1.0 -0.0402911856
N  N246  1  0.41757000  0.34306000  0.40953000  1.0 -0.0402911856
N  N247  1  0.06647000  0.15694000  0.57451000  1.0 -0.0402911856
N  N248  1  0.43353000  0.00804000  0.09047000  1.0 -0.0402911856
N  N249  1  0.92549000  0.08243000  0.49196000  1.0 -0.0402911856
N  N250  1  0.40953000  0.41757000  0.34306000  1.0 -0.0402911856
N  N251  1  0.57451000  0.06647000  0.15694000  1.0 -0.0402911856
N  N252  1  0.09047000  0.43353000  0.00804000  1.0 -0.0402911856
N  N253  1  0.42549000  0.99196000  0.58243000  1.0 -0.0402911856
N  N254  1  0.90953000  0.84306000  0.91757000  1.0 -0.0402911856
N  N255  1  0.07451000  0.65694000  0.56647000  1.0 -0.0402911856
N  N256  1  0.59047000  0.50804000  0.93353000  1.0 -0.0402911856
N  N257  1  0.99196000  0.58243000  0.42549000  1.0 -0.0402911856
N  N258  1  0.84306000  0.91757000  0.90953000  1.0 -0.0402911856
N  N259  1  0.65694000  0.56647000  0.07451000  1.0 -0.0402911856
N  N260  1  0.50804000  0.93353000  0.59047000  1.0 -0.0402911856
N  N261  1  0.58243000  0.42549000  0.99196000  1.0 -0.0402911856
N  N262  1  0.91757000  0.90953000  0.84306000  1.0 -0.0402911856
N  N263  1  0.56647000  0.07451000  0.65694000  1.0 -0.0402911856
N  N264  1  0.93353000  0.59047000  0.50804000  1.0 -0.0402911856
N  N265  1  0.72802000  0.05740000  0.12824000  1.0 -0.2118027877
N  N266  1  0.42916000  0.59978000  0.37176000  1.0 -0.2040260723
N  N267  1  0.07084000  0.44260000  0.17062000  1.0 -0.2040260723
N  N268  1  0.77198000  0.90022000  0.32938000  1.0 -0.2118027877
N  N269  1  0.12824000  0.72802000  0.05740000  1.0 -0.2040260723
N  N270  1  0.37176000  0.42916000  0.59978000  1.0 -0.2118027877
N  N271  1  0.17062000  0.07084000  0.44260000  1.0 -0.2040260723
N  N272  1  0.32938000  0.77198000  0.90022000  1.0 -0.2118027877
N  N273  1  0.05740000  0.12824000  0.72802000  1.0 -0.2118027877
N  N274  1  0.59978000  0.37176000  0.42916000  1.0 -0.2040260723
N  N275  1  0.44260000  0.17062000  0.07084000  1.0 -0.2118027877
N  N276  1  0.90022000  0.32938000  0.77198000  1.0 -0.2040260723
N  N277  1  0.55740000  0.22802000  0.62824000  1.0 -0.2040260723
N  N278  1  0.09978000  0.92916000  0.87176000  1.0 -0.2118027877
N  N279  1  0.94260000  0.57084000  0.67062000  1.0 -0.2040260723
N  N280  1  0.40022000  0.27198000  0.82938000  1.0 -0.2118027877
N  N281  1  0.22802000  0.62824000  0.55740000  1.0 -0.2040260723
N  N282  1  0.92916000  0.87176000  0.09978000  1.0 -0.2040260723
N  N283  1  0.57084000  0.67062000  0.94260000  1.0 -0.2118027877
N  N284  1  0.27198000  0.82938000  0.40022000  1.0 -0.2040260723
N  N285  1  0.62824000  0.55740000  0.22802000  1.0 -0.2040260723
N  N286  1  0.87176000  0.09978000  0.92916000  1.0 -0.2040260723
N  N287  1  0.67062000  0.94260000  0.57084000  1.0 -0.2040260723
N  N288  1  0.82938000  0.40022000  0.27198000  1.0 -0.2040260723
N  N289  1  0.54720000  0.92834000  0.10040000  1.0 -0.2389818664
N  N290  1  0.32794000  0.44680000  0.39960000  1.0 -0.2389818664
N  N291  1  0.17206000  0.57166000  0.11886000  1.0 -0.2389818664
N  N292  1  0.95280000  0.05320000  0.38114000  1.0 -0.2389818664
N  N293  1  0.10040000  0.54720000  0.92834000  1.0 -0.2389818664
N  N294  1  0.39960000  0.32794000  0.44680000  1.0 -0.2389818664
N  N295  1  0.11886000  0.17206000  0.57166000  1.0 -0.2389818664
N  N296  1  0.38114000  0.95280000  0.05320000  1.0 -0.2389818664
N  N297  1  0.92834000  0.10040000  0.54720000  1.0 -0.2389818664
N  N298  1  0.44680000  0.39960000  0.32794000  1.0 -0.2389818664
N  N299  1  0.57166000  0.11886000  0.17206000  1.0 -0.2389818664
N  N300  1  0.05320000  0.38114000  0.95280000  1.0 -0.2389818664
N  N301  1  0.42834000  0.04720000  0.60040000  1.0 -0.2389818664
N  N302  1  0.94680000  0.82794000  0.89960000  1.0 -0.2389818664
N  N303  1  0.07166000  0.67206000  0.61886000  1.0 -0.2389818664
N  N304  1  0.55320000  0.45280000  0.88114000  1.0 -0.2389818664
N  N305  1  0.04720000  0.60040000  0.42834000  1.0 -0.2389818664
N  N306  1  0.82794000  0.89960000  0.94680000  1.0 -0.2389818664
N  N307  1  0.67206000  0.61886000  0.07166000  1.0 -0.2389818664
N  N308  1  0.45280000  0.88114000  0.55320000  1.0 -0.2389818664
N  N309  1  0.60040000  0.42834000  0.04720000  1.0 -0.2389818664
N  N310  1  0.89960000  0.94680000  0.82794000  1.0 -0.2389818664
N  N311  1  0.61886000  0.07166000  0.67206000  1.0 -0.2389818664
N  N312  1  0.88114000  0.55320000  0.45280000  1.0 -0.2389818664
N  N313  1  0.68980000  0.00456000  0.06934000  1.0 -0.2511228023
N  N314  1  0.43522000  0.62046000  0.43066000  1.0 -0.2511228023
N  N315  1  0.06478000  0.49544000  0.18524000  1.0 -0.2511228023
N  N316  1  0.81020000  0.87954000  0.31476000  1.0 -0.2511228023
N  N317  1  0.06934000  0.68980000  0.00456000  1.0 -0.2511228023
N  N318  1  0.43066000  0.43522000  0.62046000  1.0 -0.2511228023
N  N319  1  0.18524000  0.06478000  0.49544000  1.0 -0.2511228023
N  N320  1  0.31476000  0.81020000  0.87954000  1.0 -0.2511228023
N  N321  1  0.00456000  0.06934000  0.68980000  1.0 -0.2511228023
N  N322  1  0.62046000  0.43066000  0.43522000  1.0 -0.2511228023
N  N323  1  0.49544000  0.18524000  0.06478000  1.0 -0.2511228023
N  N324  1  0.87954000  0.31476000  0.81020000  1.0 -0.2511228023
N  N325  1  0.50456000  0.18980000  0.56934000  1.0 -0.2511228023
N  N326  1  0.12046000  0.93522000  0.93066000  1.0 -0.2511228023
N  N327  1  0.99544000  0.56478000  0.68524000  1.0 -0.2511228023
N  N328  1  0.37954000  0.31020000  0.81476000  1.0 -0.2511228023
N  N329  1  0.18980000  0.56934000  0.50456000  1.0 -0.2511228023
N  N330  1  0.93522000  0.93066000  0.12046000  1.0 -0.2511228023
N  N331  1  0.56478000  0.68524000  0.99544000  1.0 -0.2511228023
N  N332  1  0.31020000  0.81476000  0.37954000  1.0 -0.2511228023
N  N333  1  0.56934000  0.50456000  0.18980000  1.0 -0.2511228023
N  N334  1  0.93066000  0.12046000  0.93522000  1.0 -0.2511228023
N  N335  1  0.68524000  0.99544000  0.56478000  1.0 -0.2511228023
N  N336  1  0.81476000  0.37954000  0.31020000  1.0 -0.2511228023
N  N337  1  0.71043000  0.94064000  0.02841000  1.0 -0.2118027877
N  N338  1  0.41223000  0.68202000  0.47159000  1.0 -0.2118027877
N  N339  1  0.08777000  0.55936000  0.26979000  1.0 -0.2118027877
N  N340  1  0.78957000  0.81798000  0.23021000  1.0 -0.2118027877
N  N341  1  0.02841000  0.71043000  0.94064000  1.0 -0.2118027877
N  N342  1  0.47159000  0.41223000  0.68202000  1.0 -0.2118027877
N  N343  1  0.26979000  0.08777000  0.55936000  1.0 -0.2118027877
N  N344  1  0.23021000  0.78957000  0.81798000  1.0 -0.2118027877
N  N345  1  0.94064000  0.02841000  0.71043000  1.0 -0.2118027877
N  N346  1  0.68202000  0.47159000  0.41223000  1.0 -0.2118027877
N  N347  1  0.55936000  0.26979000  0.08777000  1.0 -0.2118027877
N  N348  1  0.81798000  0.23021000  0.78957000  1.0 -0.2118027877
N  N349  1  0.44064000  0.21043000  0.52841000  1.0 -0.2118027877
N  N350  1  0.18202000  0.91223000  0.97159000  1.0 -0.2118027877
N  N351  1  0.05936000  0.58777000  0.76979000  1.0 -0.2118027877
N  N352  1  0.31798000  0.28957000  0.73021000  1.0 -0.2118027877
N  N353  1  0.21043000  0.52841000  0.44064000  1.0 -0.2118027877
N  N354  1  0.91223000  0.97159000  0.18202000  1.0 -0.2118027877
N  N355  1  0.58777000  0.76979000  0.05936000  1.0 -0.2118027877
N  N356  1  0.28957000  0.73021000  0.31798000  1.0 -0.2118027877
N  N357  1  0.52841000  0.44064000  0.21043000  1.0 -0.2118027877
N  N358  1  0.97159000  0.18202000  0.91223000  1.0 -0.2118027877
N  N359  1  0.76979000  0.05936000  0.58777000  1.0 -0.2118027877
N  N360  1  0.73021000  0.31798000  0.28957000  1.0 -0.2118027877
N  N361  1  0.60807000  0.80143000  0.95922000  1.0 -0.1293070923
N  N362  1  0.34221000  0.64885000  0.54078000  1.0 -0.1293070923
N  N363  1  0.15779000  0.69857000  0.30664000  1.0 -0.1293070923
N  N364  1  0.89193000  0.85115000  0.19336000  1.0 -0.1293070923
N  N365  1  0.95922000  0.60807000  0.80143000  1.0 -0.1293070923
N  N366  1  0.54078000  0.34221000  0.64885000  1.0 -0.1293070923
N  N367  1  0.30664000  0.15779000  0.69857000  1.0 -0.1293070923
N  N368  1  0.19336000  0.89193000  0.85115000  1.0 -0.1293070923
N  N369  1  0.80143000  0.95922000  0.60807000  1.0 -0.1293070923
N  N370  1  0.64885000  0.54078000  0.34221000  1.0 -0.1293070923
N  N371  1  0.69857000  0.30664000  0.15779000  1.0 -0.1293070923
N  N372  1  0.85115000  0.19336000  0.89193000  1.0 -0.1293070923
N  N373  1  0.30143000  0.10807000  0.45922000  1.0 -0.1293070923
N  N374  1  0.14885000  0.84221000  0.04078000  1.0 -0.1293070923
N  N375  1  0.19857000  0.65779000  0.80664000  1.0 -0.1293070923
N  N376  1  0.35115000  0.39193000  0.69336000  1.0 -0.1293070923
N  N377  1  0.10807000  0.45922000  0.30143000  1.0 -0.1293070923
N  N378  1  0.84221000  0.04078000  0.14885000  1.0 -0.1293070923
N  N379  1  0.65779000  0.80664000  0.19857000  1.0 -0.1293070923
N  N380  1  0.39193000  0.69336000  0.35115000  1.0 -0.1293070923
N  N381  1  0.45922000  0.30143000  0.10807000  1.0 -0.1293070923
N  N382  1  0.04078000  0.14885000  0.84221000  1.0 -0.1293070923
N  N383  1  0.80664000  0.19857000  0.65779000  1.0 -0.1293070923
N  N384  1  0.69336000  0.35115000  0.39193000  1.0 -0.1293070923
N  N385  1  0.51747000  0.66455000  0.86070000  1.0 -0.2118027877
N  N386  1  0.30385000  0.65677000  0.63930000  1.0 -0.2118027877
N  N387  1  0.19615000  0.83545000  0.35292000  1.0 -0.2118027877
N  N388  1  0.98253000  0.84323000  0.14708000  1.0 -0.2118027877
N  N389  1  0.86070000  0.51747000  0.66455000  1.0 -0.2118027877
N  N390  1  0.63930000  0.30385000  0.65677000  1.0 -0.2118027877
N  N391  1  0.35292000  0.19615000  0.83545000  1.0 -0.2118027877
N  N392  1  0.14708000  0.98253000  0.84323000  1.0 -0.2118027877
N  N393  1  0.66455000  0.86070000  0.51747000  1.0 -0.2118027877
N  N394  1  0.65677000  0.63930000  0.30385000  1.0 -0.2118027877
N  N395  1  0.83545000  0.35292000  0.19615000  1.0 -0.2118027877
N  N396  1  0.84323000  0.14708000  0.98253000  1.0 -0.2118027877
N  N397  1  0.16455000  0.01747000  0.36070000  1.0 -0.2118027877
N  N398  1  0.15677000  0.80385000  0.13930000  1.0 -0.2118027877
N  N399  1  0.33545000  0.69615000  0.85292000  1.0 -0.2118027877
N  N400  1  0.34323000  0.48253000  0.64708000  1.0 -0.2118027877
N  N401  1  0.01747000  0.36070000  0.16455000  1.0 -0.2118027877
N  N402  1  0.80385000  0.13930000  0.15677000  1.0 -0.2118027877
N  N403  1  0.69615000  0.85292000  0.33545000  1.0 -0.2118027877
N  N404  1  0.48253000  0.64708000  0.34323000  1.0 -0.2118027877
N  N405  1  0.36070000  0.16455000  0.01747000  1.0 -0.2118027877
N  N406  1  0.13930000  0.15677000  0.80385000  1.0 -0.2118027877
N  N407  1  0.85292000  0.33545000  0.69615000  1.0 -0.2118027877
N  N408  1  0.64708000  0.34323000  0.48253000  1.0 -0.2118027877
N  N409  1  0.58210000  0.77405000  0.95973000  1.0 -0.0286953534
N  N410  1  0.31432000  0.62237000  0.54027000  1.0 -0.0286953534
N  N411  1  0.18568000  0.72595000  0.30805000  1.0 -0.0286953534
N  N412  1  0.91790000  0.87763000  0.19195000  1.0 -0.0286953534
N  N413  1  0.95973000  0.58210000  0.77405000  1.0 -0.0286953534
N  N414  1  0.54027000  0.31432000  0.62237000  1.0 -0.0286953534
N  N415  1  0.30805000  0.18568000  0.72595000  1.0 -0.0286953534
N  N416  1  0.19195000  0.91790000  0.87763000  1.0 -0.0286953534
N  N417  1  0.77405000  0.95973000  0.58210000  1.0 -0.0286953534
N  N418  1  0.62237000  0.54027000  0.31432000  1.0 -0.0286953534
N  N419  1  0.72595000  0.30805000  0.18568000  1.0 -0.0286953534
N  N420  1  0.87763000  0.19195000  0.91790000  1.0 -0.0286953534
N  N421  1  0.27405000  0.08210000  0.45973000  1.0 -0.0286953534
N  N422  1  0.12237000  0.81432000  0.04027000  1.0 -0.0286953534
N  N423  1  0.22595000  0.68568000  0.80805000  1.0 -0.0286953534
N  N424  1  0.37763000  0.41790000  0.69195000  1.0 -0.0286953534
N  N425  1  0.08210000  0.45973000  0.27405000  1.0 -0.0286953534
N  N426  1  0.81432000  0.04027000  0.12237000  1.0 -0.0286953534
N  N427  1  0.68568000  0.80805000  0.22595000  1.0 -0.0286953534
N  N428  1  0.41790000  0.69195000  0.37763000  1.0 -0.0286953534
N  N429  1  0.45973000  0.27405000  0.08210000  1.0 -0.0286953534
N  N430  1  0.04027000  0.12237000  0.81432000  1.0 -0.0286953534
N  N431  1  0.80805000  0.22595000  0.68568000  1.0 -0.0286953534
N  N432  1  0.69195000  0.37763000  0.41790000  1.0 -0.0286953534
N  N433  1  0.59766000  0.01386000  0.12072000  1.0 -0.2281536145
N  N434  1  0.39314000  0.47694000  0.37928000  1.0 -0.2281536145
N  N435  1  0.10686000  0.48614000  0.08380000  1.0 -0.2281536145
N  N436  1  0.90234000  0.02306000  0.41620000  1.0 -0.2281536145
N  N437  1  0.12072000  0.59766000  0.01386000  1.0 -0.2281536145
N  N438  1  0.37928000  0.39314000  0.47694000  1.0 -0.2281536145
N  N439  1  0.08380000  0.10686000  0.48614000  1.0 -0.2281536145
N  N440  1  0.41620000  0.90234000  0.02306000  1.0 -0.2281536145
N  N441  1  0.01386000  0.12072000  0.59766000  1.0 -0.2281536145
N  N442  1  0.47694000  0.37928000  0.39314000  1.0 -0.2281536145
N  N443  1  0.48614000  0.08380000  0.10686000  1.0 -0.2281536145
N  N444  1  0.02306000  0.41620000  0.90234000  1.0 -0.2281536145
N  N445  1  0.51386000  0.09766000  0.62072000  1.0 -0.2281536145
N  N446  1  0.97694000  0.89314000  0.87928000  1.0 -0.2281536145
N  N447  1  0.98614000  0.60686000  0.58380000  1.0 -0.2281536145
N  N448  1  0.52306000  0.40234000  0.91620000  1.0 -0.2281536145
N  N449  1  0.09766000  0.62072000  0.51386000  1.0 -0.2281536145
N  N450  1  0.89314000  0.87928000  0.97694000  1.0 -0.2281536145
N  N451  1  0.60686000  0.58380000  0.98614000  1.0 -0.2281536145
N  N452  1  0.40234000  0.91620000  0.52306000  1.0 -0.2281536145
N  N453  1  0.62072000  0.51386000  0.09766000  1.0 -0.2281536145
N  N454  1  0.87928000  0.97694000  0.89314000  1.0 -0.2281536145
N  N455  1  0.58380000  0.98614000  0.60686000  1.0 -0.2281536145
N  N456  1  0.91620000  0.52306000  0.40234000  1.0 -0.2281536145
N  N457  1  0.48545000  0.88889000  0.06678000  1.0 -0.2389818664
N  N458  1  0.32211000  0.41867000  0.43322000  1.0 -0.2389818664
N  N459  1  0.17789000  0.61111000  0.09656000  1.0 -0.2389818664
N  N460  1  0.01455000  0.08133000  0.40344000  1.0 -0.2389818664
N  N461  1  0.06678000  0.48545000  0.88889000  1.0 -0.2389818664
N  N462  1  0.43322000  0.32211000  0.41867000  1.0 -0.2389818664
N  N463  1  0.09656000  0.17789000  0.61111000  1.0 -0.2389818664
N  N464  1  0.40344000  0.01455000  0.08133000  1.0 -0.2389818664
N  N465  1  0.88889000  0.06678000  0.48545000  1.0 -0.2389818664
N  N466  1  0.41867000  0.43322000  0.32211000  1.0 -0.2389818664
N  N467  1  0.61111000  0.09656000  0.17789000  1.0 -0.2389818664
N  N468  1  0.08133000  0.40344000  0.01455000  1.0 -0.2389818664
N  N469  1  0.38889000  0.98545000  0.56678000  1.0 -0.2389818664
N  N470  1  0.91867000  0.82211000  0.93322000  1.0 -0.2389818664
N  N471  1  0.11111000  0.67789000  0.59656000  1.0 -0.2389818664
N  N472  1  0.58133000  0.51455000  0.90344000  1.0 -0.2389818664
N  N473  1  0.98545000  0.56678000  0.38889000  1.0 -0.2389818664
N  N474  1  0.82211000  0.93322000  0.91867000  1.0 -0.2389818664
N  N475  1  0.67789000  0.59656000  0.11111000  1.0 -0.2389818664
N  N476  1  0.51455000  0.90344000  0.58133000  1.0 -0.2389818664
N  N477  1  0.56678000  0.38889000  0.98545000  1.0 -0.2389818664
N  N478  1  0.93322000  0.91867000  0.82211000  1.0 -0.2389818664
N  N479  1  0.59656000  0.11111000  0.67789000  1.0 -0.2389818664
N  N480  1  0.90344000  0.58133000  0.51455000  1.0 -0.2389818664
O  O1  1  0.50304000  0.71470000  0.01028000  1.0 -0.3411806659
O  O2  1  0.20442000  0.49276000  0.48972000  1.0 -0.3411806659
O  O3  1  0.29558000  0.78530000  0.28834000  1.0 -0.3411806659
O  O4  1  0.99696000  0.00724000  0.21166000  1.0 -0.3411806659
O  O5  1  0.01028000  0.50304000  0.71470000  1.0 -0.3460525086
O  O6  1  0.48972000  0.20442000  0.49276000  1.0 -0.3411806659
O  O7  1  0.28834000  0.29558000  0.78530000  1.0 -0.3411806659
O  O8  1  0.21166000  0.99696000  0.00724000  1.0 -0.3411806659
O  O9  1  0.71470000  0.01028000  0.50304000  1.0 -0.3411806659
O  O10  1  0.49276000  0.48972000  0.20442000  1.0 -0.3411806659
O  O11  1  0.78530000  0.28834000  0.29558000  1.0 -0.3411806659
O  O12  1  0.00724000  0.21166000  0.99696000  1.0 -0.3411806659
O  O13  1  0.21470000  0.00304000  0.51028000  1.0 -0.3411806659
O  O14  1  0.99276000  0.70442000  0.98972000  1.0 -0.3411806659
O  O15  1  0.28530000  0.79558000  0.78834000  1.0 -0.3411806659
O  O16  1  0.50724000  0.49696000  0.71166000  1.0 -0.3411806659
O  O17  1  0.00304000  0.51028000  0.21470000  1.0 -0.3411806659
O  O18  1  0.70442000  0.98972000  0.99276000  1.0 -0.3411806659
O  O19  1  0.79558000  0.78834000  0.28530000  1.0 -0.3411806659
O  O20  1  0.49696000  0.71166000  0.50724000  1.0 -0.3411806659
O  O21  1  0.51028000  0.21470000  0.00304000  1.0 -0.3411806659
O  O22  1  0.98972000  0.99276000  0.70442000  1.0 -0.3411806659
O  O23  1  0.78834000  0.28530000  0.79558000  1.0 -0.3411806659
O  O24  1  0.71166000  0.50724000  0.49696000  1.0 -0.3411806659
O  O25  1  0.59875000  0.72472000  0.91005000  1.0 -0.3411806659
O  O26  1  0.31467000  0.68870000  0.58995000  1.0 -0.3411806659
O  O27  1  0.18533000  0.77528000  0.37403000  1.0 -0.3411806659
O  O28  1  0.90125000  0.81130000  0.12597000  1.0 -0.3411806659
O  O29  1  0.91005000  0.59875000  0.72472000  1.0 -0.3411806659
O  O30  1  0.58995000  0.31467000  0.68870000  1.0 -0.3411806659
O  O31  1  0.37403000  0.18533000  0.77528000  1.0 -0.3411806659
O  O32  1  0.12597000  0.90125000  0.81130000  1.0 -0.3411806659
O  O33  1  0.72472000  0.91005000  0.59875000  1.0 -0.3411806659
O  O34  1  0.68870000  0.58995000  0.31467000  1.0 -0.3411806659
O  O35  1  0.77528000  0.37403000  0.18533000  1.0 -0.3411806659
O  O36  1  0.81130000  0.12597000  0.90125000  1.0 -0.3411806659
O  O37  1  0.22472000  0.09875000  0.41005000  1.0 -0.3411806659
O  O38  1  0.18870000  0.81467000  0.08995000  1.0 -0.3411806659
O  O39  1  0.27528000  0.68533000  0.87403000  1.0 -0.3411806659
O  O40  1  0.31130000  0.40125000  0.62597000  1.0 -0.3411806659
O  O41  1  0.09875000  0.41005000  0.22472000  1.0 -0.3411806659
O  O42  1  0.81467000  0.08995000  0.18870000  1.0 -0.3411806659
O  O43  1  0.68533000  0.87403000  0.27528000  1.0 -0.3411806659
O  O44  1  0.40125000  0.62597000  0.31130000  1.0 -0.3411806659
O  O45  1  0.41005000  0.22472000  0.09875000  1.0 -0.3411806659
O  O46  1  0.08995000  0.18870000  0.81467000  1.0 -0.3411806659
O  O47  1  0.87403000  0.27528000  0.68533000  1.0 -0.3411806659
O  O48  1  0.62597000  0.31130000  0.40125000  1.0 -0.3411806659
O  O49  1  0.50000000  0.00000000  0.12662000  1.0 -0.8288641881
O  O50  1  0.37338000  0.37338000  0.37338000  1.0 -0.8288641881
O  O51  1  0.12662000  0.50000000  0.00000000  1.0 -0.8288641881
O  O52  1  0.00000000  0.12662000  0.50000000  1.0 -0.8179731479
O  O53  1  0.50000000  0.00000000  0.62662000  1.0 -0.8288641881
O  O54  1  0.87338000  0.87338000  0.87338000  1.0 -0.8288641881
O  O55  1  0.00000000  0.62662000  0.50000000  1.0 -0.8179731479
O  O56  1  0.62662000  0.50000000  0.00000000  1.0 -0.8288641881
O  O57  1  0.54002000  0.74264000  0.87518000  1.0 -0.3729091248
O  O58  1  0.36746000  0.66484000  0.62482000  1.0 -0.3729091248
O  O59  1  0.13254000  0.75736000  0.29738000  1.0 -0.3763568809
O  O60  1  0.95998000  0.83516000  0.20262000  1.0 -0.3729091248
O  O61  1  0.87518000  0.54002000  0.74264000  1.0 -0.3729091248
O  O62  1  0.62482000  0.36746000  0.66484000  1.0 -0.3729091248
O  O63  1  0.29738000  0.13254000  0.75736000  1.0 -0.3729091248
O  O64  1  0.20262000  0.95998000  0.83516000  1.0 -0.3729091248
O  O65  1  0.74264000  0.87518000  0.54002000  1.0 -0.3729091248
O  O66  1  0.66484000  0.62482000  0.36746000  1.0 -0.3729091248
O  O67  1  0.75736000  0.29738000  0.13254000  1.0 -0.3729091248
O  O68  1  0.83516000  0.20262000  0.95998000  1.0 -0.3729091248
O  O69  1  0.24264000  0.04002000  0.37518000  1.0 -0.3763568809
O  O70  1  0.16484000  0.86746000  0.12482000  1.0 -0.3729091248
O  O71  1  0.25736000  0.63254000  0.79738000  1.0 -0.3729091248
O  O72  1  0.33516000  0.45998000  0.70262000  1.0 -0.3729091248
O  O73  1  0.04002000  0.37518000  0.24264000  1.0 -0.3729091248
O  O74  1  0.86746000  0.12482000  0.16484000  1.0 -0.3729091248
O  O75  1  0.63254000  0.79738000  0.25736000  1.0 -0.3729091248
O  O76  1  0.45998000  0.70262000  0.33516000  1.0 -0.3729091248
O  O77  1  0.37518000  0.24264000  0.04002000  1.0 -0.3763568809
O  O78  1  0.12482000  0.16484000  0.86746000  1.0 -0.3729091248
O  O79  1  0.79738000  0.25736000  0.63254000  1.0 -0.3763568809
O  O80  1  0.70262000  0.33516000  0.45998000  1.0 -0.3729091248
