# DDEC6 charges by PACMAN v1.1 (https://github.com/mtap-research/PACMAN-charge/)
data_NEXNEN_ASR_pacman
_symmetry_space_group_name_H-M   'P 1'
_cell_length_a   43.02760000
_cell_length_b   43.02760000
_cell_length_c   43.02760000
_cell_angle_alpha   109.47100000
_cell_angle_beta   109.47100000
_cell_angle_gamma   109.47100000
_symmetry_Int_Tables_number   1
_chemical_formula_structural   Co9H48C72N60O
_chemical_formula_sum   'Co72 H384 C576 N480 O8'
_cell_volume   61322.94800258
_cell_formula_units_Z   8
loop_
 _symmetry_equiv_pos_site_id
 _symmetry_equiv_pos_as_xyz
  1  'x, y, z'
loop_
 _atom_site_type_symbol
 _atom_site_label
 _atom_site_symmetry_multiplicity
 _atom_site_fract_x
 _atom_site_fract_y
 _atom_site_fract_z
 _atom_site_occupancy
 _atom_site_charge
Co  Co1  1  0.63684000  0.54840000  0.33030000  1.0 0.3827039799
Co  Co2  1  0.71810000  0.30654000  0.16970000  1.0 0.3827039799
Co  Co3  1  0.78190000  0.95160000  0.58844000  1.0 0.3827039799
Co  Co4  1  0.86316000  0.19346000  0.91156000  1.0 0.3827039799
Co  Co5  1  0.33030000  0.63684000  0.54840000  1.0 0.3827039799
Co  Co6  1  0.16970000  0.71810000  0.30654000  1.0 0.3827039799
Co  Co7  1  0.58844000  0.78190000  0.95160000  1.0 0.3827039799
Co  Co8  1  0.91156000  0.86316000  0.19346000  1.0 0.386636884
Co  Co9  1  0.54840000  0.33030000  0.63684000  1.0 0.3827039799
Co  Co10  1  0.30654000  0.16970000  0.71810000  1.0 0.3827039799
Co  Co11  1  0.95160000  0.58844000  0.78190000  1.0 0.386636884
Co  Co12  1  0.19346000  0.91156000  0.86316000  1.0 0.3827039799
Co  Co13  1  0.04840000  0.13684000  0.83030000  1.0 0.3827039799
Co  Co14  1  0.80654000  0.21810000  0.66970000  1.0 0.3827039799
Co  Co15  1  0.45160000  0.28190000  0.08844000  1.0 0.3827039799
Co  Co16  1  0.69346000  0.36316000  0.41156000  1.0 0.3827039799
Co  Co17  1  0.13684000  0.83030000  0.04840000  1.0 0.3827039799
Co  Co18  1  0.21810000  0.66970000  0.80654000  1.0 0.3827039799
Co  Co19  1  0.28190000  0.08844000  0.45160000  1.0 0.3827039799
Co  Co20  1  0.36316000  0.41156000  0.69346000  1.0 0.3827039799
Co  Co21  1  0.83030000  0.04840000  0.13684000  1.0 0.3827039799
Co  Co22  1  0.66970000  0.80654000  0.21810000  1.0 0.3827039799
Co  Co23  1  0.08844000  0.45160000  0.28190000  1.0 0.3827039799
Co  Co24  1  0.41156000  0.69346000  0.36316000  1.0 0.3827039799
Co  Co25  1  0.54009000  0.54507000  0.29486000  1.0 0.4736612705
Co  Co26  1  0.75021000  0.24523000  0.20514000  1.0 0.4777931669
Co  Co27  1  0.74979000  0.95493000  0.49502000  1.0 0.4777931669
Co  Co28  1  0.95991000  0.25477000  0.00498000  1.0 0.4777931669
Co  Co29  1  0.29486000  0.54009000  0.54507000  1.0 0.4736612705
Co  Co30  1  0.20514000  0.75021000  0.24523000  1.0 0.4777931669
Co  Co31  1  0.49502000  0.74979000  0.95493000  1.0 0.4777931669
Co  Co32  1  0.00498000  0.95991000  0.25477000  1.0 0.4736612705
Co  Co33  1  0.54507000  0.29486000  0.54009000  1.0 0.4777931669
Co  Co34  1  0.24523000  0.20514000  0.75021000  1.0 0.4777931669
Co  Co35  1  0.95493000  0.49502000  0.74979000  1.0 0.4777931669
Co  Co36  1  0.25477000  0.00498000  0.95991000  1.0 0.4736612705
Co  Co37  1  0.04507000  0.04009000  0.79486000  1.0 0.4736612705
Co  Co38  1  0.74523000  0.25021000  0.70514000  1.0 0.4777931669
Co  Co39  1  0.45493000  0.24979000  0.99502000  1.0 0.4736612705
Co  Co40  1  0.75477000  0.45991000  0.50498000  1.0 0.4777931669
Co  Co41  1  0.04009000  0.79486000  0.04507000  1.0 0.4777931669
Co  Co42  1  0.25021000  0.70514000  0.74523000  1.0 0.4777931669
Co  Co43  1  0.24979000  0.99502000  0.45493000  1.0 0.4736612705
Co  Co44  1  0.45991000  0.50498000  0.75477000  1.0 0.4777931669
Co  Co45  1  0.79486000  0.04507000  0.04009000  1.0 0.4777931669
Co  Co46  1  0.70514000  0.74523000  0.25021000  1.0 0.4777931669
Co  Co47  1  0.99502000  0.45493000  0.24979000  1.0 0.4777931669
Co  Co48  1  0.50498000  0.75477000  0.45991000  1.0 0.4777931669
Co  Co49  1  0.37496000  0.45508000  0.00740000  1.0 0.5988978916
Co  Co50  1  0.94768000  0.36756000  0.49260000  1.0 0.6076190482
Co  Co51  1  0.55232000  0.04492000  0.41988000  1.0 0.5988978916
Co  Co52  1  0.12504000  0.13244000  0.08012000  1.0 0.5988978916
Co  Co53  1  0.00740000  0.37496000  0.45508000  1.0 0.5988978916
Co  Co54  1  0.49260000  0.94768000  0.36756000  1.0 0.5988978916
Co  Co55  1  0.41988000  0.55232000  0.04492000  1.0 0.5988978916
Co  Co56  1  0.08012000  0.12504000  0.13244000  1.0 0.5988978916
Co  Co57  1  0.45508000  0.00740000  0.37496000  1.0 0.5988978916
Co  Co58  1  0.36756000  0.49260000  0.94768000  1.0 0.5988978916
Co  Co59  1  0.04492000  0.41988000  0.55232000  1.0 0.5988978916
Co  Co60  1  0.13244000  0.08012000  0.12504000  1.0 0.5988978916
Co  Co61  1  0.95508000  0.87496000  0.50740000  1.0 0.5988978916
Co  Co62  1  0.86756000  0.44768000  0.99260000  1.0 0.5988978916
Co  Co63  1  0.54492000  0.05232000  0.91988000  1.0 0.5988978916
Co  Co64  1  0.63244000  0.62504000  0.58012000  1.0 0.5988978916
Co  Co65  1  0.87496000  0.50740000  0.95508000  1.0 0.5988978916
Co  Co66  1  0.44768000  0.99260000  0.86756000  1.0 0.5988978916
Co  Co67  1  0.05232000  0.91988000  0.54492000  1.0 0.6076190482
Co  Co68  1  0.62504000  0.58012000  0.63244000  1.0 0.5988978916
Co  Co69  1  0.50740000  0.95508000  0.87496000  1.0 0.5988978916
Co  Co70  1  0.99260000  0.86756000  0.44768000  1.0 0.5988978916
Co  Co71  1  0.91988000  0.54492000  0.05232000  1.0 0.5988978916
Co  Co72  1  0.58012000  0.63244000  0.62504000  1.0 0.5988978916
H  H1  1  0.39730000  0.37110000  0.06020000  1.0 0.1389135052
H  H2  1  0.81090000  0.33710000  0.43980000  1.0 0.1389135052
H  H3  1  0.68910000  0.12890000  0.52620000  1.0 0.1389135052
H  H4  1  0.10270000  0.16290000  0.97380000  1.0 0.1389135052
H  H5  1  0.06020000  0.39730000  0.37110000  1.0 0.1389135052
H  H6  1  0.43980000  0.81090000  0.33710000  1.0 0.1389135052
H  H7  1  0.52620000  0.68910000  0.12890000  1.0 0.1314709503
H  H8  1  0.97380000  0.10270000  0.16290000  1.0 0.1389135052
H  H9  1  0.37110000  0.06020000  0.39730000  1.0 0.1389135052
H  H10  1  0.33710000  0.43980000  0.81090000  1.0 0.1389135052
H  H11  1  0.12890000  0.52620000  0.68910000  1.0 0.1389135052
H  H12  1  0.16290000  0.97380000  0.10270000  1.0 0.1389135052
H  H13  1  0.87110000  0.89730000  0.56020000  1.0 0.1314709503
H  H14  1  0.83710000  0.31090000  0.93980000  1.0 0.1389135052
H  H15  1  0.62890000  0.18910000  0.02620000  1.0 0.1389135052
H  H16  1  0.66290000  0.60270000  0.47380000  1.0 0.1389135052
H  H17  1  0.89730000  0.56020000  0.87110000  1.0 0.1389135052
H  H18  1  0.31090000  0.93980000  0.83710000  1.0 0.1389135052
H  H19  1  0.18910000  0.02620000  0.62890000  1.0 0.1389135052
H  H20  1  0.60270000  0.47380000  0.66290000  1.0 0.1389135052
H  H21  1  0.56020000  0.87110000  0.89730000  1.0 0.1389135052
H  H22  1  0.93980000  0.83710000  0.31090000  1.0 0.1389135052
H  H23  1  0.02620000  0.62890000  0.18910000  1.0 0.1389135052
H  H24  1  0.47380000  0.66290000  0.60270000  1.0 0.1389135052
H  H25  1  0.63400000  0.46950000  0.30750000  1.0 0.109430027
H  H26  1  0.66200000  0.32650000  0.19250000  1.0 0.109430027
H  H27  1  0.83800000  0.03050000  0.66450000  1.0 0.109430027
H  H28  1  0.86600000  0.17350000  0.83550000  1.0 0.109430027
H  H29  1  0.30750000  0.63400000  0.46950000  1.0 0.109430027
H  H30  1  0.19250000  0.66200000  0.32650000  1.0 0.109430027
H  H31  1  0.66450000  0.83800000  0.03050000  1.0 0.109430027
H  H32  1  0.83550000  0.86600000  0.17350000  1.0 0.109430027
H  H33  1  0.46950000  0.30750000  0.63400000  1.0 0.109430027
H  H34  1  0.32650000  0.19250000  0.66200000  1.0 0.109430027
H  H35  1  0.03050000  0.66450000  0.83800000  1.0 0.109430027
H  H36  1  0.17350000  0.83550000  0.86600000  1.0 0.109430027
H  H37  1  0.96950000  0.13400000  0.80750000  1.0 0.109430027
H  H38  1  0.82650000  0.16200000  0.69250000  1.0 0.109430027
H  H39  1  0.53050000  0.33800000  0.16450000  1.0 0.109430027
H  H40  1  0.67350000  0.36600000  0.33550000  1.0 0.109430027
H  H41  1  0.13400000  0.80750000  0.96950000  1.0 0.109430027
H  H42  1  0.16200000  0.69250000  0.82650000  1.0 0.109430027
H  H43  1  0.33800000  0.16450000  0.53050000  1.0 0.109430027
H  H44  1  0.36600000  0.33550000  0.67350000  1.0 0.109430027
H  H45  1  0.80750000  0.96950000  0.13400000  1.0 0.109430027
H  H46  1  0.69250000  0.82650000  0.16200000  1.0 0.109430027
H  H47  1  0.16450000  0.53050000  0.33800000  1.0 0.109430027
H  H48  1  0.33550000  0.67350000  0.36600000  1.0 0.109430027
H  H49  1  0.37920000  0.41370000  0.05250000  1.0 0.0992612749
H  H50  1  0.86120000  0.32670000  0.44750000  1.0 0.0992612749
H  H51  1  0.63880000  0.08630000  0.46550000  1.0 0.0992612749
H  H52  1  0.12080000  0.17330000  0.03450000  1.0 0.0992612749
H  H53  1  0.05250000  0.37920000  0.41370000  1.0 0.0992612749
H  H54  1  0.44750000  0.86120000  0.32670000  1.0 0.0992612749
H  H55  1  0.46550000  0.63880000  0.08630000  1.0 0.0992612749
H  H56  1  0.03450000  0.12080000  0.17330000  1.0 0.0992612749
H  H57  1  0.41370000  0.05250000  0.37920000  1.0 0.0992612749
H  H58  1  0.32670000  0.44750000  0.86120000  1.0 0.0992612749
H  H59  1  0.08630000  0.46550000  0.63880000  1.0 0.0992612749
H  H60  1  0.17330000  0.03450000  0.12080000  1.0 0.0992612749
H  H61  1  0.91370000  0.87920000  0.55250000  1.0 0.0992612749
H  H62  1  0.82670000  0.36120000  0.94750000  1.0 0.0992612749
H  H63  1  0.58630000  0.13880000  0.96550000  1.0 0.0992612749
H  H64  1  0.67330000  0.62080000  0.53450000  1.0 0.0992612749
H  H65  1  0.87920000  0.55250000  0.91370000  1.0 0.0992612749
H  H66  1  0.36120000  0.94750000  0.82670000  1.0 0.0992612749
H  H67  1  0.13880000  0.96550000  0.58630000  1.0 0.0992612749
H  H68  1  0.62080000  0.53450000  0.67330000  1.0 0.0992612749
H  H69  1  0.55250000  0.91370000  0.87920000  1.0 0.0992612749
H  H70  1  0.94750000  0.82670000  0.36120000  1.0 0.0992612749
H  H71  1  0.96550000  0.58630000  0.13880000  1.0 0.0992612749
H  H72  1  0.53450000  0.67330000  0.62080000  1.0 0.0992612749
H  H73  1  0.49640000  0.58100000  0.19220000  1.0 0.1389135052
H  H74  1  0.88880000  0.30420000  0.30780000  1.0 0.1389135052
H  H75  1  0.61120000  0.91900000  0.41540000  1.0 0.1389135052
H  H76  1  0.00360000  0.19580000  0.08460000  1.0 0.1389135052
H  H77  1  0.19220000  0.49640000  0.58100000  1.0 0.1389135052
H  H78  1  0.30780000  0.88880000  0.30420000  1.0 0.1389135052
H  H79  1  0.41540000  0.61120000  0.91900000  1.0 0.1389135052
H  H80  1  0.08460000  0.00360000  0.19580000  1.0 0.1389135052
H  H81  1  0.58100000  0.19220000  0.49640000  1.0 0.1389135052
H  H82  1  0.30420000  0.30780000  0.88880000  1.0 0.1389135052
H  H83  1  0.91900000  0.41540000  0.61120000  1.0 0.1389135052
H  H84  1  0.19580000  0.08460000  0.00360000  1.0 0.1389135052
H  H85  1  0.08100000  0.99640000  0.69220000  1.0 0.1389135052
H  H86  1  0.80420000  0.38880000  0.80780000  1.0 0.1389135052
H  H87  1  0.41900000  0.11120000  0.91540000  1.0 0.1389135052
H  H88  1  0.69580000  0.50360000  0.58460000  1.0 0.1389135052
H  H89  1  0.99640000  0.69220000  0.08100000  1.0 0.1389135052
H  H90  1  0.38880000  0.80780000  0.80420000  1.0 0.1389135052
H  H91  1  0.11120000  0.91540000  0.41900000  1.0 0.1389135052
H  H92  1  0.50360000  0.58460000  0.69580000  1.0 0.1389135052
H  H93  1  0.69220000  0.08100000  0.99640000  1.0 0.1389135052
H  H94  1  0.80780000  0.80420000  0.38880000  1.0 0.1389135052
H  H95  1  0.91540000  0.41900000  0.11120000  1.0 0.1389135052
H  H96  1  0.58460000  0.69580000  0.50360000  1.0 0.1389135052
H  H97  1  0.70290000  0.52690000  0.43760000  1.0 0.1314709503
H  H98  1  0.58930000  0.26530000  0.06240000  1.0 0.1314709503
H  H99  1  0.91070000  0.97310000  0.67600000  1.0 0.1314709503
H  H100  1  0.79710000  0.23470000  0.82400000  1.0 0.1314709503
H  H101  1  0.43760000  0.70290000  0.52690000  1.0 0.1314709503
H  H102  1  0.06240000  0.58930000  0.26530000  1.0 0.1314709503
H  H103  1  0.67600000  0.91070000  0.97310000  1.0 0.1314709503
H  H104  1  0.82400000  0.79710000  0.23470000  1.0 0.1314709503
H  H105  1  0.52690000  0.43760000  0.70290000  1.0 0.1314709503
H  H106  1  0.26530000  0.06240000  0.58930000  1.0 0.1314709503
H  H107  1  0.97310000  0.67600000  0.91070000  1.0 0.1314709503
H  H108  1  0.23470000  0.82400000  0.79710000  1.0 0.1314709503
H  H109  1  0.02690000  0.20290000  0.93760000  1.0 0.1314709503
H  H110  1  0.76530000  0.08930000  0.56240000  1.0 0.1314709503
H  H111  1  0.47310000  0.41070000  0.17600000  1.0 0.1314709503
H  H112  1  0.73470000  0.29710000  0.32400000  1.0 0.1314709503
H  H113  1  0.20290000  0.93760000  0.02690000  1.0 0.1314709503
H  H114  1  0.08930000  0.56240000  0.76530000  1.0 0.1314709503
H  H115  1  0.41070000  0.17600000  0.47310000  1.0 0.1314709503
H  H116  1  0.29710000  0.32400000  0.73470000  1.0 0.1314709503
H  H117  1  0.93760000  0.02690000  0.20290000  1.0 0.1314709503
H  H118  1  0.56240000  0.76530000  0.08930000  1.0 0.1314709503
H  H119  1  0.17600000  0.47310000  0.41070000  1.0 0.1314709503
H  H120  1  0.32400000  0.73470000  0.29710000  1.0 0.1314709503
H  H121  1  0.63760000  0.71710000  0.26590000  1.0 0.0992612749
H  H122  1  0.95120000  0.37170000  0.23410000  1.0 0.0992612749
H  H123  1  0.54880000  0.78290000  0.42050000  1.0 0.0992612749
H  H124  1  0.86240000  0.12830000  0.07950000  1.0 0.0992612749
H  H125  1  0.26590000  0.63760000  0.71710000  1.0 0.0992612749
H  H126  1  0.23410000  0.95120000  0.37170000  1.0 0.0992612749
H  H127  1  0.42050000  0.54880000  0.78290000  1.0 0.0992612749
H  H128  1  0.07950000  0.86240000  0.12830000  1.0 0.0992612749
H  H129  1  0.71710000  0.26590000  0.63760000  1.0 0.0992612749
H  H130  1  0.37170000  0.23410000  0.95120000  1.0 0.0992612749
H  H131  1  0.78290000  0.42050000  0.54880000  1.0 0.0992612749
H  H132  1  0.12830000  0.07950000  0.86240000  1.0 0.0992612749
H  H133  1  0.21710000  0.13760000  0.76590000  1.0 0.0992612749
H  H134  1  0.87170000  0.45120000  0.73410000  1.0 0.0992612749
H  H135  1  0.28290000  0.04880000  0.92050000  1.0 0.0992612749
H  H136  1  0.62830000  0.36240000  0.57950000  1.0 0.0992612749
H  H137  1  0.13760000  0.76590000  0.21710000  1.0 0.0992612749
H  H138  1  0.45120000  0.73410000  0.87170000  1.0 0.0992612749
H  H139  1  0.04880000  0.92050000  0.28290000  1.0 0.0992612749
H  H140  1  0.36240000  0.57950000  0.62830000  1.0 0.0992612749
H  H141  1  0.76590000  0.21710000  0.13760000  1.0 0.0992612749
H  H142  1  0.73410000  0.87170000  0.45120000  1.0 0.0992612749
H  H143  1  0.92050000  0.28290000  0.04880000  1.0 0.0992612749
H  H144  1  0.57950000  0.62830000  0.36240000  1.0 0.0992612749
H  H145  1  0.42350000  0.36250000  0.97840000  1.0 0.1389135052
H  H146  1  0.88410000  0.44510000  0.52160000  1.0 0.1389135052
H  H147  1  0.61590000  0.13750000  0.56100000  1.0 0.1389135052
H  H148  1  0.07650000  0.05490000  0.93900000  1.0 0.1389135052
H  H149  1  0.97840000  0.42350000  0.36250000  1.0 0.1389135052
H  H150  1  0.52160000  0.88410000  0.44510000  1.0 0.1389135052
H  H151  1  0.56100000  0.61590000  0.13750000  1.0 0.1389135052
H  H152  1  0.93900000  0.07650000  0.05490000  1.0 0.1389135052
H  H153  1  0.36250000  0.97840000  0.42350000  1.0 0.1389135052
H  H154  1  0.44510000  0.52160000  0.88410000  1.0 0.1389135052
H  H155  1  0.13750000  0.56100000  0.61590000  1.0 0.1389135052
H  H156  1  0.05490000  0.93900000  0.07650000  1.0 0.1389135052
H  H157  1  0.86250000  0.92350000  0.47840000  1.0 0.1389135052
H  H158  1  0.94510000  0.38410000  0.02160000  1.0 0.1389135052
H  H159  1  0.63750000  0.11590000  0.06100000  1.0 0.1389135052
H  H160  1  0.55490000  0.57650000  0.43900000  1.0 0.1389135052
H  H161  1  0.92350000  0.47840000  0.86250000  1.0 0.1389135052
H  H162  1  0.38410000  0.02160000  0.94510000  1.0 0.1389135052
H  H163  1  0.11590000  0.06100000  0.63750000  1.0 0.1389135052
H  H164  1  0.57650000  0.43900000  0.55490000  1.0 0.1389135052
H  H165  1  0.47840000  0.86250000  0.92350000  1.0 0.1389135052
H  H166  1  0.02160000  0.94510000  0.38410000  1.0 0.1389135052
H  H167  1  0.06100000  0.63750000  0.11590000  1.0 0.1389135052
H  H168  1  0.43900000  0.55490000  0.57650000  1.0 0.1389135052
H  H169  1  0.40970000  0.40940000  0.97770000  1.0 0.0992612749
H  H170  1  0.93170000  0.43200000  0.52230000  1.0 0.0992612749
H  H171  1  0.56830000  0.09060000  0.50030000  1.0 0.0992612749
H  H172  1  0.09030000  0.06800000  0.99970000  1.0 0.0992612749
H  H173  1  0.97770000  0.40970000  0.40940000  1.0 0.0992612749
H  H174  1  0.52230000  0.93170000  0.43200000  1.0 0.0992612749
H  H175  1  0.50030000  0.56830000  0.09060000  1.0 0.0992612749
H  H176  1  0.99970000  0.09030000  0.06800000  1.0 0.0992612749
H  H177  1  0.40940000  0.97770000  0.40970000  1.0 0.0992612749
H  H178  1  0.43200000  0.52230000  0.93170000  1.0 0.0992612749
H  H179  1  0.09060000  0.50030000  0.56830000  1.0 0.0992612749
H  H180  1  0.06800000  0.99970000  0.09030000  1.0 0.0992612749
H  H181  1  0.90940000  0.90970000  0.47770000  1.0 0.0992612749
H  H182  1  0.93200000  0.43170000  0.02230000  1.0 0.0992612749
H  H183  1  0.59060000  0.06830000  0.00030000  1.0 0.0992612749
H  H184  1  0.56800000  0.59030000  0.49970000  1.0 0.0992612749
H  H185  1  0.90970000  0.47770000  0.90940000  1.0 0.0992612749
H  H186  1  0.43170000  0.02230000  0.93200000  1.0 0.0992612749
H  H187  1  0.06830000  0.00030000  0.59060000  1.0 0.0992612749
H  H188  1  0.59030000  0.49970000  0.56800000  1.0 0.0992612749
H  H189  1  0.47770000  0.90940000  0.90970000  1.0 0.0992612749
H  H190  1  0.02230000  0.93200000  0.43170000  1.0 0.0992612749
H  H191  1  0.00030000  0.59060000  0.06830000  1.0 0.0992612749
H  H192  1  0.49970000  0.56800000  0.59030000  1.0 0.0992612749
H  H193  1  0.69130000  0.64390000  0.28860000  1.0 0.1314709503
H  H194  1  0.85530000  0.40270000  0.21140000  1.0 0.1314709503
H  H195  1  0.64470000  0.85610000  0.54740000  1.0 0.1314709503
H  H196  1  0.80870000  0.09730000  0.95260000  1.0 0.1314709503
H  H197  1  0.28860000  0.69130000  0.64390000  1.0 0.1314709503
H  H198  1  0.21140000  0.85530000  0.40270000  1.0 0.1314709503
H  H199  1  0.54740000  0.64470000  0.85610000  1.0 0.1314709503
H  H200  1  0.95260000  0.80870000  0.09730000  1.0 0.1314709503
H  H201  1  0.64390000  0.28860000  0.69130000  1.0 0.1314709503
H  H202  1  0.40270000  0.21140000  0.85530000  1.0 0.1314709503
H  H203  1  0.85610000  0.54740000  0.64470000  1.0 0.1314709503
H  H204  1  0.09730000  0.95260000  0.80870000  1.0 0.1314709503
H  H205  1  0.14390000  0.19130000  0.78860000  1.0 0.1314709503
H  H206  1  0.90270000  0.35530000  0.71140000  1.0 0.1314709503
H  H207  1  0.35610000  0.14470000  0.04740000  1.0 0.1314709503
H  H208  1  0.59730000  0.30870000  0.45260000  1.0 0.1314709503
H  H209  1  0.19130000  0.78860000  0.14390000  1.0 0.1314709503
H  H210  1  0.35530000  0.71140000  0.90270000  1.0 0.1314709503
H  H211  1  0.14470000  0.04740000  0.35610000  1.0 0.1314709503
H  H212  1  0.30870000  0.45260000  0.59730000  1.0 0.1314709503
H  H213  1  0.78860000  0.14390000  0.19130000  1.0 0.1314709503
H  H214  1  0.71140000  0.90270000  0.35530000  1.0 0.1314709503
H  H215  1  0.04740000  0.35610000  0.14470000  1.0 0.1314709503
H  H216  1  0.45260000  0.59730000  0.30870000  1.0 0.1314709503
H  H217  1  0.71890000  0.69220000  0.27690000  1.0 0.0992612749
H  H218  1  0.91530000  0.44200000  0.22310000  1.0 0.0992612749
H  H219  1  0.58470000  0.80780000  0.52670000  1.0 0.0992612749
H  H220  1  0.78110000  0.05800000  0.97330000  1.0 0.0992612749
H  H221  1  0.27690000  0.71890000  0.69220000  1.0 0.0992612749
H  H222  1  0.22310000  0.91530000  0.44200000  1.0 0.0992612749
H  H223  1  0.52670000  0.58470000  0.80780000  1.0 0.0992612749
H  H224  1  0.97330000  0.78110000  0.05800000  1.0 0.0992612749
H  H225  1  0.69220000  0.27690000  0.71890000  1.0 0.0992612749
H  H226  1  0.44200000  0.22310000  0.91530000  1.0 0.0992612749
H  H227  1  0.80780000  0.52670000  0.58470000  1.0 0.0992612749
H  H228  1  0.05800000  0.97330000  0.78110000  1.0 0.0992612749
H  H229  1  0.19220000  0.21890000  0.77690000  1.0 0.0992612749
H  H230  1  0.94200000  0.41530000  0.72310000  1.0 0.0992612749
H  H231  1  0.30780000  0.08470000  0.02670000  1.0 0.0992612749
H  H232  1  0.55800000  0.28110000  0.47330000  1.0 0.0992612749
H  H233  1  0.21890000  0.77690000  0.19220000  1.0 0.0992612749
H  H234  1  0.41530000  0.72310000  0.94200000  1.0 0.0992612749
H  H235  1  0.08470000  0.02670000  0.30780000  1.0 0.0992612749
H  H236  1  0.28110000  0.47330000  0.55800000  1.0 0.0992612749
H  H237  1  0.77690000  0.19220000  0.21890000  1.0 0.0992612749
H  H238  1  0.72310000  0.94200000  0.41530000  1.0 0.0992612749
H  H239  1  0.02670000  0.30780000  0.08470000  1.0 0.0992612749
H  H240  1  0.47330000  0.55800000  0.28110000  1.0 0.0992612749
H  H241  1  0.68050000  0.55860000  0.40810000  1.0 0.0992612749
H  H242  1  0.65050000  0.27240000  0.09190000  1.0 0.0992612749
H  H243  1  0.84950000  0.94140000  0.62190000  1.0 0.0992612749
H  H244  1  0.81950000  0.22760000  0.87810000  1.0 0.0992612749
H  H245  1  0.40810000  0.68050000  0.55860000  1.0 0.0992612749
H  H246  1  0.09190000  0.65050000  0.27240000  1.0 0.0992612749
H  H247  1  0.62190000  0.84950000  0.94140000  1.0 0.0992612749
H  H248  1  0.87810000  0.81950000  0.22760000  1.0 0.0992612749
H  H249  1  0.55860000  0.40810000  0.68050000  1.0 0.0992612749
H  H250  1  0.27240000  0.09190000  0.65050000  1.0 0.0992612749
H  H251  1  0.94140000  0.62190000  0.84950000  1.0 0.0992612749
H  H252  1  0.22760000  0.87810000  0.81950000  1.0 0.0992612749
H  H253  1  0.05860000  0.18050000  0.90810000  1.0 0.0992612749
H  H254  1  0.77240000  0.15050000  0.59190000  1.0 0.0992612749
H  H255  1  0.44140000  0.34950000  0.12190000  1.0 0.0992612749
H  H256  1  0.72760000  0.31950000  0.37810000  1.0 0.0992612749
H  H257  1  0.18050000  0.90810000  0.05860000  1.0 0.0992612749
H  H258  1  0.15050000  0.59190000  0.77240000  1.0 0.0992612749
H  H259  1  0.34950000  0.12190000  0.44140000  1.0 0.0992612749
H  H260  1  0.31950000  0.37810000  0.72760000  1.0 0.0992612749
H  H261  1  0.90810000  0.05860000  0.18050000  1.0 0.0992612749
H  H262  1  0.59190000  0.77240000  0.15050000  1.0 0.0992612749
H  H263  1  0.12190000  0.44140000  0.34950000  1.0 0.0992612749
H  H264  1  0.37810000  0.72760000  0.31950000  1.0 0.0992612749
H  H265  1  0.52890000  0.58810000  0.25060000  1.0 0.0992612749
H  H266  1  0.83750000  0.27830000  0.24940000  1.0 0.0992612749
H  H267  1  0.66250000  0.91190000  0.44080000  1.0 0.0992612749
H  H268  1  0.97110000  0.22170000  0.05920000  1.0 0.0992612749
H  H269  1  0.25060000  0.52890000  0.58810000  1.0 0.0992612749
H  H270  1  0.24940000  0.83750000  0.27830000  1.0 0.0992612749
H  H271  1  0.44080000  0.66250000  0.91190000  1.0 0.0992612749
H  H272  1  0.05920000  0.97110000  0.22170000  1.0 0.0992612749
H  H273  1  0.58810000  0.25060000  0.52890000  1.0 0.0992612749
H  H274  1  0.27830000  0.24940000  0.83750000  1.0 0.0992612749
H  H275  1  0.91190000  0.44080000  0.66250000  1.0 0.0992612749
H  H276  1  0.22170000  0.05920000  0.97110000  1.0 0.0992612749
H  H277  1  0.08810000  0.02890000  0.75060000  1.0 0.0992612749
H  H278  1  0.77830000  0.33750000  0.74940000  1.0 0.0992612749
H  H279  1  0.41190000  0.16250000  0.94080000  1.0 0.0992612749
H  H280  1  0.72170000  0.47110000  0.55920000  1.0 0.0992612749
H  H281  1  0.02890000  0.75060000  0.08810000  1.0 0.0992612749
H  H282  1  0.33750000  0.74940000  0.77830000  1.0 0.0992612749
H  H283  1  0.16250000  0.94080000  0.41190000  1.0 0.0992612749
H  H284  1  0.47110000  0.55920000  0.72170000  1.0 0.0992612749
H  H285  1  0.75060000  0.08810000  0.02890000  1.0 0.0992612749
H  H286  1  0.74940000  0.77830000  0.33750000  1.0 0.0992612749
H  H287  1  0.94080000  0.41190000  0.16250000  1.0 0.0992612749
H  H288  1  0.55920000  0.72170000  0.47110000  1.0 0.0992612749
H  H289  1  0.43200000  0.47100000  0.15420000  1.0 0.1314709503
H  H290  1  0.81680000  0.27780000  0.34580000  1.0 0.1314709503
H  H291  1  0.68320000  0.02900000  0.46100000  1.0 0.1314709503
H  H292  1  0.06800000  0.22220000  0.03900000  1.0 0.1314709503
H  H293  1  0.15420000  0.43200000  0.47100000  1.0 0.1314709503
H  H294  1  0.34580000  0.81680000  0.27780000  1.0 0.1314709503
H  H295  1  0.46100000  0.68320000  0.02900000  1.0 0.1314709503
H  H296  1  0.03900000  0.06800000  0.22220000  1.0 0.1314709503
H  H297  1  0.47100000  0.15420000  0.43200000  1.0 0.1314709503
H  H298  1  0.27780000  0.34580000  0.81680000  1.0 0.1314709503
H  H299  1  0.02900000  0.46100000  0.68320000  1.0 0.1314709503
H  H300  1  0.22220000  0.03900000  0.06800000  1.0 0.1314709503
H  H301  1  0.97100000  0.93200000  0.65420000  1.0 0.1314709503
H  H302  1  0.77780000  0.31680000  0.84580000  1.0 0.1314709503
H  H303  1  0.52900000  0.18320000  0.96100000  1.0 0.1314709503
H  H304  1  0.72220000  0.56800000  0.53900000  1.0 0.1314709503
H  H305  1  0.93200000  0.65420000  0.97100000  1.0 0.1314709503
H  H306  1  0.31680000  0.84580000  0.77780000  1.0 0.1314709503
H  H307  1  0.18320000  0.96100000  0.52900000  1.0 0.1314709503
H  H308  1  0.56800000  0.53900000  0.72220000  1.0 0.1314709503
H  H309  1  0.65420000  0.97100000  0.93200000  1.0 0.1314709503
H  H310  1  0.84580000  0.77780000  0.31680000  1.0 0.1314709503
H  H311  1  0.96100000  0.52900000  0.18320000  1.0 0.1314709503
H  H312  1  0.53900000  0.72220000  0.56800000  1.0 0.1314709503
H  H313  1  0.65030000  0.43760000  0.33370000  1.0 0.1389135052
H  H314  1  0.60390000  0.31660000  0.16630000  1.0 0.1389135052
H  H315  1  0.89610000  0.06240000  0.71270000  1.0 0.1389135052
H  H316  1  0.84970000  0.18340000  0.78730000  1.0 0.1389135052
H  H317  1  0.33370000  0.65030000  0.43760000  1.0 0.1389135052
H  H318  1  0.16630000  0.60390000  0.31660000  1.0 0.1389135052
H  H319  1  0.71270000  0.89610000  0.06240000  1.0 0.1389135052
H  H320  1  0.78730000  0.84970000  0.18340000  1.0 0.1389135052
H  H321  1  0.43760000  0.33370000  0.65030000  1.0 0.1389135052
H  H322  1  0.31660000  0.16630000  0.60390000  1.0 0.1389135052
H  H323  1  0.06240000  0.71270000  0.89610000  1.0 0.1389135052
H  H324  1  0.18340000  0.78730000  0.84970000  1.0 0.1389135052
H  H325  1  0.93760000  0.15030000  0.83370000  1.0 0.1389135052
H  H326  1  0.81660000  0.10390000  0.66630000  1.0 0.1389135052
H  H327  1  0.56240000  0.39610000  0.21270000  1.0 0.1389135052
H  H328  1  0.68340000  0.34970000  0.28730000  1.0 0.1389135052
H  H329  1  0.15030000  0.83370000  0.93760000  1.0 0.1389135052
H  H330  1  0.10390000  0.66630000  0.81660000  1.0 0.1389135052
H  H331  1  0.39610000  0.21270000  0.56240000  1.0 0.1389135052
H  H332  1  0.34970000  0.28730000  0.68340000  1.0 0.1389135052
H  H333  1  0.83370000  0.93760000  0.15030000  1.0 0.1389135052
H  H334  1  0.66630000  0.81660000  0.10390000  1.0 0.1389135052
H  H335  1  0.21270000  0.56240000  0.39610000  1.0 0.1389135052
H  H336  1  0.28730000  0.68340000  0.34970000  1.0 0.1389135052
H  H337  1  0.61130000  0.67670000  0.28280000  1.0 0.1389135052
H  H338  1  0.89390000  0.32850000  0.21720000  1.0 0.1389135052
H  H339  1  0.60610000  0.82330000  0.43460000  1.0 0.1389135052
H  H340  1  0.88870000  0.17150000  0.06540000  1.0 0.1389135052
H  H341  1  0.28280000  0.61130000  0.67670000  1.0 0.1389135052
H  H342  1  0.21720000  0.89390000  0.32850000  1.0 0.1389135052
H  H343  1  0.43460000  0.60610000  0.82330000  1.0 0.1389135052
H  H344  1  0.06540000  0.88870000  0.17150000  1.0 0.1389135052
H  H345  1  0.67670000  0.28280000  0.61130000  1.0 0.1389135052
H  H346  1  0.32850000  0.21720000  0.89390000  1.0 0.1389135052
H  H347  1  0.82330000  0.43460000  0.60610000  1.0 0.1389135052
H  H348  1  0.17150000  0.06540000  0.88870000  1.0 0.1389135052
H  H349  1  0.17670000  0.11130000  0.78280000  1.0 0.1389135052
H  H350  1  0.82850000  0.39390000  0.71720000  1.0 0.1389135052
H  H351  1  0.32330000  0.10610000  0.93460000  1.0 0.1389135052
H  H352  1  0.67150000  0.38870000  0.56540000  1.0 0.1389135052
H  H353  1  0.11130000  0.78280000  0.17670000  1.0 0.1389135052
H  H354  1  0.39390000  0.71720000  0.82850000  1.0 0.1389135052
H  H355  1  0.10610000  0.93460000  0.32330000  1.0 0.1389135052
H  H356  1  0.38870000  0.56540000  0.67150000  1.0 0.1389135052
H  H357  1  0.78280000  0.17670000  0.11130000  1.0 0.1389135052
H  H358  1  0.71720000  0.82850000  0.39390000  1.0 0.1389135052
H  H359  1  0.93460000  0.32330000  0.10610000  1.0 0.1389135052
H  H360  1  0.56540000  0.67150000  0.38870000  1.0 0.1389135052
H  H361  1  0.47260000  0.48000000  0.21200000  1.0 0.0992612749
H  H362  1  0.76800000  0.26060000  0.28800000  1.0 0.0992612749
H  H363  1  0.73200000  0.02000000  0.49260000  1.0 0.0992612749
H  H364  1  0.02740000  0.23940000  0.00740000  1.0 0.0992612749
H  H365  1  0.21200000  0.47260000  0.48000000  1.0 0.0992612749
H  H366  1  0.28800000  0.76800000  0.26060000  1.0 0.0992612749
H  H367  1  0.49260000  0.73200000  0.02000000  1.0 0.0992612749
H  H368  1  0.00740000  0.02740000  0.23940000  1.0 0.0992612749
H  H369  1  0.48000000  0.21200000  0.47260000  1.0 0.0992612749
H  H370  1  0.26060000  0.28800000  0.76800000  1.0 0.0992612749
H  H371  1  0.02000000  0.49260000  0.73200000  1.0 0.0992612749
H  H372  1  0.23940000  0.00740000  0.02740000  1.0 0.0992612749
H  H373  1  0.98000000  0.97260000  0.71200000  1.0 0.0992612749
H  H374  1  0.76060000  0.26800000  0.78800000  1.0 0.0992612749
H  H375  1  0.52000000  0.23200000  0.99260000  1.0 0.0992612749
H  H376  1  0.73940000  0.52740000  0.50740000  1.0 0.0992612749
H  H377  1  0.97260000  0.71200000  0.98000000  1.0 0.0992612749
H  H378  1  0.26800000  0.78800000  0.76060000  1.0 0.0992612749
H  H379  1  0.23200000  0.99260000  0.52000000  1.0 0.0992612749
H  H380  1  0.52740000  0.50740000  0.73940000  1.0 0.0992612749
H  H381  1  0.71200000  0.98000000  0.97260000  1.0 0.0992612749
H  H382  1  0.78800000  0.76060000  0.26800000  1.0 0.0992612749
H  H383  1  0.99260000  0.52000000  0.23200000  1.0 0.0992612749
H  H384  1  0.50740000  0.73940000  0.52740000  1.0 0.0992612749
C  C1  1  0.39944000  0.37781000  0.04229000  1.0 -0.1863796856
C  C2  1  0.83552000  0.35715000  0.45771000  1.0 -0.1863796856
C  C3  1  0.66448000  0.12219000  0.52163000  1.0 -0.1863796856
C  C4  1  0.10056000  0.14285000  0.97837000  1.0 -0.1863796856
C  C5  1  0.04229000  0.39944000  0.37781000  1.0 -0.1863796856
C  C6  1  0.45771000  0.83552000  0.35715000  1.0 -0.1863796856
C  C7  1  0.52163000  0.66448000  0.12219000  1.0 -0.1863796856
C  C8  1  0.97837000  0.10056000  0.14285000  1.0 -0.1863796856
C  C9  1  0.37781000  0.04229000  0.39944000  1.0 -0.1863796856
C  C10  1  0.35715000  0.45771000  0.83552000  1.0 -0.1863796856
C  C11  1  0.12219000  0.52163000  0.66448000  1.0 -0.1863796856
C  C12  1  0.14285000  0.97837000  0.10056000  1.0 -0.1863796856
C  C13  1  0.87781000  0.89944000  0.54229000  1.0 -0.1863796856
C  C14  1  0.85715000  0.33552000  0.95771000  1.0 -0.1863796856
C  C15  1  0.62219000  0.16448000  0.02163000  1.0 -0.1863796856
C  C16  1  0.64285000  0.60056000  0.47837000  1.0 -0.1863796856
C  C17  1  0.89944000  0.54229000  0.87781000  1.0 -0.1863796856
C  C18  1  0.33552000  0.95771000  0.85715000  1.0 -0.1863796856
C  C19  1  0.16448000  0.02163000  0.62219000  1.0 -0.1863796856
C  C20  1  0.60056000  0.47837000  0.64285000  1.0 -0.1863796856
C  C21  1  0.54229000  0.87781000  0.89944000  1.0 -0.1863796856
C  C22  1  0.95771000  0.85715000  0.33552000  1.0 -0.1863796856
C  C23  1  0.02163000  0.62219000  0.16448000  1.0 -0.1863796856
C  C24  1  0.47837000  0.64285000  0.60056000  1.0 -0.1863796856
C  C25  1  0.64744000  0.48137000  0.33395000  1.0 0.0409568565
C  C26  1  0.64742000  0.31349000  0.16605000  1.0 0.0409568565
C  C27  1  0.85258000  0.01863000  0.66607000  1.0 0.0409568565
C  C28  1  0.85256000  0.18651000  0.83393000  1.0 0.0409568565
C  C29  1  0.33395000  0.64744000  0.48137000  1.0 0.0409568565
C  C30  1  0.16605000  0.64742000  0.31349000  1.0 0.0409568565
C  C31  1  0.66607000  0.85258000  0.01863000  1.0 0.0409568565
C  C32  1  0.83393000  0.85256000  0.18651000  1.0 0.0409568565
C  C33  1  0.48137000  0.33395000  0.64744000  1.0 0.0409568565
C  C34  1  0.31349000  0.16605000  0.64742000  1.0 0.0409568565
C  C35  1  0.01863000  0.66607000  0.85258000  1.0 0.0409568565
C  C36  1  0.18651000  0.83393000  0.85256000  1.0 0.0409568565
C  C37  1  0.98137000  0.14744000  0.83395000  1.0 0.0409568565
C  C38  1  0.81349000  0.14742000  0.66605000  1.0 0.0409568565
C  C39  1  0.51863000  0.35258000  0.16607000  1.0 0.0409568565
C  C40  1  0.68651000  0.35256000  0.33393000  1.0 0.0409568565
C  C41  1  0.14744000  0.83395000  0.98137000  1.0 0.0409568565
C  C42  1  0.14742000  0.66605000  0.81349000  1.0 0.0409568565
C  C43  1  0.35258000  0.16607000  0.51863000  1.0 0.0409568565
C  C44  1  0.35256000  0.33393000  0.68651000  1.0 0.0409568565
C  C45  1  0.83395000  0.98137000  0.14744000  1.0 0.0409568565
C  C46  1  0.66605000  0.81349000  0.14742000  1.0 0.0409568565
C  C47  1  0.16607000  0.51863000  0.35258000  1.0 0.0409568565
C  C48  1  0.33393000  0.68651000  0.35256000  1.0 0.0409568565
C  C49  1  0.38860000  0.40373000  0.03751000  1.0 0.0596750606
C  C50  1  0.86622000  0.35109000  0.46249000  1.0 0.0596750606
C  C51  1  0.63378000  0.09627000  0.48487000  1.0 0.0596750606
C  C52  1  0.11140000  0.14891000  0.01513000  1.0 0.0596750606
C  C53  1  0.03751000  0.38860000  0.40373000  1.0 0.0596750606
C  C54  1  0.46249000  0.86622000  0.35109000  1.0 0.0596750606
C  C55  1  0.48487000  0.63378000  0.09627000  1.0 0.0596750606
C  C56  1  0.01513000  0.11140000  0.14891000  1.0 0.0596750606
C  C57  1  0.40373000  0.03751000  0.38860000  1.0 0.0596750606
C  C58  1  0.35109000  0.46249000  0.86622000  1.0 0.0596750606
C  C59  1  0.09627000  0.48487000  0.63378000  1.0 0.0596750606
C  C60  1  0.14891000  0.01513000  0.11140000  1.0 0.0596750606
C  C61  1  0.90373000  0.88860000  0.53751000  1.0 0.0596750606
C  C62  1  0.85109000  0.36622000  0.96249000  1.0 0.0596750606
C  C63  1  0.59627000  0.13378000  0.98487000  1.0 0.0596750606
C  C64  1  0.64891000  0.61140000  0.51513000  1.0 0.0596750606
C  C65  1  0.88860000  0.53751000  0.90373000  1.0 0.0596750606
C  C66  1  0.36622000  0.96249000  0.85109000  1.0 0.0596750606
C  C67  1  0.13378000  0.98487000  0.59627000  1.0 0.0596750606
C  C68  1  0.61140000  0.51513000  0.64891000  1.0 0.0596750606
C  C69  1  0.53751000  0.90373000  0.88860000  1.0 0.0596750606
C  C70  1  0.96249000  0.85109000  0.36622000  1.0 0.0596750606
C  C71  1  0.98487000  0.59627000  0.13378000  1.0 0.0596750606
C  C72  1  0.51513000  0.64891000  0.61140000  1.0 0.0596750606
C  C73  1  0.64765000  0.65545000  0.28744000  1.0 0.0992612749
C  C74  1  0.86801000  0.36021000  0.21256000  1.0 0.0992612749
C  C75  1  0.63199000  0.84455000  0.49220000  1.0 0.0992612749
C  C76  1  0.85235000  0.13979000  0.00780000  1.0 0.0992612749
C  C77  1  0.28744000  0.64765000  0.65545000  1.0 0.0992612749
C  C78  1  0.21256000  0.86801000  0.36021000  1.0 0.0992612749
C  C79  1  0.49220000  0.63199000  0.84455000  1.0 0.0992612749
C  C80  1  0.00780000  0.85235000  0.13979000  1.0 0.0992612749
C  C81  1  0.65545000  0.28744000  0.64765000  1.0 0.0992612749
C  C82  1  0.36021000  0.21256000  0.86801000  1.0 0.0992612749
C  C83  1  0.84455000  0.49220000  0.63199000  1.0 0.0992612749
C  C84  1  0.13979000  0.00780000  0.85235000  1.0 0.0992612749
C  C85  1  0.15545000  0.14765000  0.78744000  1.0 0.0992612749
C  C86  1  0.86021000  0.36801000  0.71256000  1.0 0.0992612749
C  C87  1  0.34455000  0.13199000  0.99220000  1.0 0.0992612749
C  C88  1  0.63979000  0.35235000  0.50780000  1.0 0.0992612749
C  C89  1  0.14765000  0.78744000  0.15545000  1.0 0.0992612749
C  C90  1  0.36801000  0.71256000  0.86021000  1.0 0.0992612749
C  C91  1  0.13199000  0.99220000  0.34455000  1.0 0.0992612749
C  C92  1  0.35235000  0.50780000  0.63979000  1.0 0.0992612749
C  C93  1  0.78744000  0.15545000  0.14765000  1.0 0.0992612749
C  C94  1  0.71256000  0.86021000  0.36801000  1.0 0.0992612749
C  C95  1  0.99220000  0.34455000  0.13199000  1.0 0.0992612749
C  C96  1  0.50780000  0.63979000  0.35235000  1.0 0.0992612749
C  C97  1  0.48985000  0.56003000  0.19562000  1.0 -0.1990746688
C  C98  1  0.86441000  0.29423000  0.30438000  1.0 -0.1990746688
C  C99  1  0.63559000  0.93997000  0.42982000  1.0 -0.1990746688
C  C100  1  0.01015000  0.20577000  0.07018000  1.0 -0.1990746688
C  C101  1  0.19562000  0.48985000  0.56003000  1.0 -0.1990746688
C  C102  1  0.30438000  0.86441000  0.29423000  1.0 -0.1990746688
C  C103  1  0.42982000  0.63559000  0.93997000  1.0 -0.1990746688
C  C104  1  0.07018000  0.01015000  0.20577000  1.0 -0.1990746688
C  C105  1  0.56003000  0.19562000  0.48985000  1.0 -0.1990746688
C  C106  1  0.29423000  0.30438000  0.86441000  1.0 -0.1990746688
C  C107  1  0.93997000  0.42982000  0.63559000  1.0 -0.1990746688
C  C108  1  0.20577000  0.07018000  0.01015000  1.0 -0.1990746688
C  C109  1  0.06003000  0.98985000  0.69562000  1.0 -0.1990746688
C  C110  1  0.79423000  0.36441000  0.80438000  1.0 -0.1990746688
C  C111  1  0.43997000  0.13559000  0.92982000  1.0 -0.1990746688
C  C112  1  0.70577000  0.51015000  0.57018000  1.0 -0.1990746688
C  C113  1  0.98985000  0.69562000  0.06003000  1.0 -0.1990746688
C  C114  1  0.36441000  0.80438000  0.79423000  1.0 -0.1990746688
C  C115  1  0.13559000  0.92982000  0.43997000  1.0 -0.1990746688
C  C116  1  0.51015000  0.57018000  0.70577000  1.0 -0.1990746688
C  C117  1  0.69562000  0.06003000  0.98985000  1.0 -0.1990746688
C  C118  1  0.80438000  0.79423000  0.36441000  1.0 -0.1990746688
C  C119  1  0.92982000  0.43997000  0.13559000  1.0 -0.1990746688
C  C120  1  0.57018000  0.70577000  0.51015000  1.0 -0.1990746688
C  C121  1  0.68873000  0.51483000  0.41118000  1.0 -0.1794982296
C  C122  1  0.60365000  0.27755000  0.08882000  1.0 -0.1794982296
C  C123  1  0.89635000  0.98517000  0.67390000  1.0 -0.1794982296
C  C124  1  0.81127000  0.22245000  0.82610000  1.0 -0.1794982296
C  C125  1  0.41118000  0.68873000  0.51483000  1.0 -0.1794982296
C  C126  1  0.08882000  0.60365000  0.27755000  1.0 -0.1794982296
C  C127  1  0.67390000  0.89635000  0.98517000  1.0 -0.1794982296
C  C128  1  0.82610000  0.81127000  0.22245000  1.0 -0.1794982296
C  C129  1  0.51483000  0.41118000  0.68873000  1.0 -0.1794982296
C  C130  1  0.27755000  0.08882000  0.60365000  1.0 -0.1794982296
C  C131  1  0.98517000  0.67390000  0.89635000  1.0 -0.1794982296
C  C132  1  0.22245000  0.82610000  0.81127000  1.0 -0.1794982296
C  C133  1  0.01483000  0.18873000  0.91118000  1.0 -0.1794982296
C  C134  1  0.77755000  0.10365000  0.58882000  1.0 -0.1794982296
C  C135  1  0.48517000  0.39635000  0.17390000  1.0 -0.1794982296
C  C136  1  0.72245000  0.31127000  0.32610000  1.0 -0.1794982296
C  C137  1  0.18873000  0.91118000  0.01483000  1.0 -0.1794982296
C  C138  1  0.10365000  0.58882000  0.77755000  1.0 -0.1794982296
C  C139  1  0.39635000  0.17390000  0.48517000  1.0 -0.1794982296
C  C140  1  0.31127000  0.32610000  0.72245000  1.0 -0.1794982296
C  C141  1  0.91118000  0.01483000  0.18873000  1.0 -0.1794982296
C  C142  1  0.58882000  0.77755000  0.10365000  1.0 -0.1794982296
C  C143  1  0.17390000  0.48517000  0.39635000  1.0 -0.1794982296
C  C144  1  0.32610000  0.72245000  0.31127000  1.0 -0.1794982296
C  C145  1  0.46000000  0.52424000  0.16558000  1.0 0.0814159746
C  C146  1  0.85866000  0.29442000  0.33442000  1.0 0.0814159746
C  C147  1  0.64134000  0.97576000  0.43576000  1.0 0.0814159746
C  C148  1  0.04000000  0.20558000  0.06424000  1.0 0.0814159746
C  C149  1  0.16558000  0.46000000  0.52424000  1.0 0.0814159746
C  C150  1  0.33442000  0.85866000  0.29442000  1.0 0.0814159746
C  C151  1  0.43576000  0.64134000  0.97576000  1.0 0.0814159746
C  C152  1  0.06424000  0.04000000  0.20558000  1.0 0.0814159746
C  C153  1  0.52424000  0.16558000  0.46000000  1.0 0.0814159746
C  C154  1  0.29442000  0.33442000  0.85866000  1.0 0.0814159746
C  C155  1  0.97576000  0.43576000  0.64134000  1.0 0.0814159746
C  C156  1  0.20558000  0.06424000  0.04000000  1.0 0.0814159746
C  C157  1  0.02424000  0.96000000  0.66558000  1.0 0.0814159746
C  C158  1  0.79442000  0.35866000  0.83442000  1.0 0.0814159746
C  C159  1  0.47576000  0.14134000  0.93576000  1.0 0.0814159746
C  C160  1  0.70558000  0.54000000  0.56424000  1.0 0.0814159746
C  C161  1  0.96000000  0.66558000  0.02424000  1.0 0.0814159746
C  C162  1  0.35866000  0.83442000  0.79442000  1.0 0.0814159746
C  C163  1  0.14134000  0.93576000  0.47576000  1.0 0.0814159746
C  C164  1  0.54000000  0.56424000  0.70558000  1.0 0.0814159746
C  C165  1  0.66558000  0.02424000  0.96000000  1.0 0.0814159746
C  C166  1  0.83442000  0.79442000  0.35866000  1.0 0.0814159746
C  C167  1  0.93576000  0.47576000  0.14134000  1.0 0.0814159746
C  C168  1  0.56424000  0.70558000  0.54000000  1.0 0.0814159746
C  C169  1  0.62971000  0.62658000  0.29639000  1.0 0.2214352107
C  C170  1  0.83019000  0.33333333  0.20361000  1.0 0.2214352107
C  C171  1  0.66981000  0.87342000  0.50313000  1.0 0.2214352107
C  C172  1  0.87029000  0.16668000  0.99687000  1.0 0.2214352107
C  C173  1  0.29639000  0.62971000  0.62658000  1.0 0.2214352107
C  C174  1  0.20361000  0.83019000  0.33333333  1.0 0.2214352107
C  C175  1  0.50313000  0.66981000  0.87342000  1.0 0.2214352107
C  C176  1  0.99687000  0.87029000  0.16668000  1.0 0.2214352107
C  C177  1  0.62658000  0.29639000  0.62971000  1.0 0.2214352107
C  C178  1  0.33333333  0.20361000  0.83019000  1.0 0.2214352107
C  C179  1  0.87342000  0.50313000  0.66981000  1.0 0.2214352107
C  C180  1  0.16668000  0.99687000  0.87029000  1.0 0.2214352107
C  C181  1  0.12658000  0.12971000  0.79639000  1.0 0.2214352107
C  C182  1  0.83332000  0.33019000  0.70361000  1.0 0.2214352107
C  C183  1  0.37342000  0.16981000  0.00313000  1.0 0.2214352107
C  C184  1  0.66666667  0.37029000  0.49687000  1.0 0.2214352107
C  C185  1  0.12971000  0.79639000  0.12658000  1.0 0.2214352107
C  C186  1  0.33019000  0.70361000  0.83332000  1.0 0.2214352107
C  C187  1  0.16981000  0.00313000  0.37342000  1.0 0.2214352107
C  C188  1  0.37029000  0.49687000  0.66666667  1.0 0.2214352107
C  C189  1  0.79639000  0.12658000  0.12971000  1.0 0.2214352107
C  C190  1  0.70361000  0.83332000  0.33019000  1.0 0.2214352107
C  C191  1  0.00313000  0.37342000  0.16981000  1.0 0.2214352107
C  C192  1  0.49687000  0.66666667  0.37029000  1.0 0.2214352107
C  C193  1  0.64891000  0.70325000  0.27156000  1.0 0.0666072969
C  C194  1  0.93169000  0.37735000  0.22844000  1.0 0.0666072969
C  C195  1  0.56831000  0.79675000  0.44566000  1.0 0.0666072969
C  C196  1  0.85109000  0.12265000  0.05434000  1.0 0.0666072969
C  C197  1  0.27156000  0.64891000  0.70325000  1.0 0.0666072969
C  C198  1  0.22844000  0.93169000  0.37735000  1.0 0.0666072969
C  C199  1  0.44566000  0.56831000  0.79675000  1.0 0.0666072969
C  C200  1  0.05434000  0.85109000  0.12265000  1.0 0.0666072969
C  C201  1  0.70325000  0.27156000  0.64891000  1.0 0.0666072969
C  C202  1  0.37735000  0.22844000  0.93169000  1.0 0.0666072969
C  C203  1  0.79675000  0.44566000  0.56831000  1.0 0.0666072969
C  C204  1  0.12265000  0.05434000  0.85109000  1.0 0.0666072969
C  C205  1  0.20325000  0.14891000  0.77156000  1.0 0.0666072969
C  C206  1  0.87735000  0.43169000  0.72844000  1.0 0.0666072969
C  C207  1  0.29675000  0.06831000  0.94566000  1.0 0.0666072969
C  C208  1  0.62265000  0.35109000  0.55434000  1.0 0.0666072969
C  C209  1  0.14891000  0.77156000  0.20325000  1.0 0.0666072969
C  C210  1  0.43169000  0.72844000  0.87735000  1.0 0.0666072969
C  C211  1  0.06831000  0.94566000  0.29675000  1.0 0.0666072969
C  C212  1  0.35109000  0.55434000  0.62265000  1.0 0.0666072969
C  C213  1  0.77156000  0.20325000  0.14891000  1.0 0.0666072969
C  C214  1  0.72844000  0.87735000  0.43169000  1.0 0.0666072969
C  C215  1  0.94566000  0.29675000  0.06831000  1.0 0.0666072969
C  C216  1  0.55434000  0.62265000  0.35109000  1.0 0.0666072969
C  C217  1  0.41557000  0.37302000  0.99467000  1.0 -0.1990746688
C  C218  1  0.87835000  0.42090000  0.50533000  1.0 -0.1990746688
C  C219  1  0.62165000  0.12698000  0.54255000  1.0 -0.1990746688
C  C220  1  0.08443000  0.07910000  0.95745000  1.0 -0.1990746688
C  C221  1  0.99467000  0.41557000  0.37302000  1.0 -0.1990746688
C  C222  1  0.50533000  0.87835000  0.42090000  1.0 -0.1990746688
C  C223  1  0.54255000  0.62165000  0.12698000  1.0 -0.1990746688
C  C224  1  0.95745000  0.08443000  0.07910000  1.0 -0.1990746688
C  C225  1  0.37302000  0.99467000  0.41557000  1.0 -0.1990746688
C  C226  1  0.42090000  0.50533000  0.87835000  1.0 -0.1990746688
C  C227  1  0.12698000  0.54255000  0.62165000  1.0 -0.1990746688
C  C228  1  0.07910000  0.95745000  0.08443000  1.0 -0.1990746688
C  C229  1  0.87302000  0.91557000  0.49467000  1.0 -0.1990746688
C  C230  1  0.92090000  0.37835000  0.00533000  1.0 -0.1990746688
C  C231  1  0.62698000  0.12165000  0.04255000  1.0 -0.1990746688
C  C232  1  0.57910000  0.58443000  0.45745000  1.0 -0.1990746688
C  C233  1  0.91557000  0.49467000  0.87302000  1.0 -0.1990746688
C  C234  1  0.37835000  0.00533000  0.92090000  1.0 -0.1990746688
C  C235  1  0.12165000  0.04255000  0.62698000  1.0 -0.1990746688
C  C236  1  0.58443000  0.45745000  0.57910000  1.0 -0.1990746688
C  C237  1  0.49467000  0.87302000  0.91557000  1.0 -0.1990746688
C  C238  1  0.00533000  0.92090000  0.37835000  1.0 -0.1990746688
C  C239  1  0.04255000  0.62698000  0.12165000  1.0 -0.1990746688
C  C240  1  0.45745000  0.57910000  0.58443000  1.0 -0.1990746688
C  C241  1  0.40546000  0.40053000  0.99371000  1.0 0.0992612749
C  C242  1  0.90682000  0.41175000  0.50629000  1.0 0.0992612749
C  C243  1  0.59318000  0.09947000  0.50493000  1.0 0.0992612749
C  C244  1  0.09454000  0.08825000  0.99507000  1.0 0.0912570022
C  C245  1  0.99371000  0.40546000  0.40053000  1.0 0.0992612749
C  C246  1  0.50629000  0.90682000  0.41175000  1.0 0.0992612749
C  C247  1  0.50493000  0.59318000  0.09947000  1.0 0.0992612749
C  C248  1  0.99507000  0.09454000  0.08825000  1.0 0.0992612749
C  C249  1  0.40053000  0.99371000  0.40546000  1.0 0.0992612749
C  C250  1  0.41175000  0.50629000  0.90682000  1.0 0.0992612749
C  C251  1  0.09947000  0.50493000  0.59318000  1.0 0.0992612749
C  C252  1  0.08825000  0.99507000  0.09454000  1.0 0.0992612749
C  C253  1  0.90053000  0.90546000  0.49371000  1.0 0.0992612749
C  C254  1  0.91175000  0.40682000  0.00629000  1.0 0.0992612749
C  C255  1  0.59947000  0.09318000  0.00493000  1.0 0.0992612749
C  C256  1  0.58825000  0.59454000  0.49507000  1.0 0.0992612749
C  C257  1  0.90546000  0.49371000  0.90053000  1.0 0.0992612749
C  C258  1  0.40682000  0.00629000  0.91175000  1.0 0.0992612749
C  C259  1  0.09318000  0.00493000  0.59947000  1.0 0.0992612749
C  C260  1  0.59454000  0.49507000  0.58825000  1.0 0.0992612749
C  C261  1  0.49371000  0.90053000  0.90546000  1.0 0.0992612749
C  C262  1  0.00629000  0.91175000  0.40682000  1.0 0.0992612749
C  C263  1  0.00493000  0.59947000  0.09318000  1.0 0.0912570022
C  C264  1  0.49507000  0.58825000  0.59454000  1.0 0.0912570022
C  C265  1  0.68094000  0.65908000  0.28512000  1.0 -0.1794982296
C  C266  1  0.87396000  0.39582000  0.21488000  1.0 -0.1794982296
C  C267  1  0.62604000  0.84092000  0.52186000  1.0 -0.1794982296
C  C268  1  0.81906000  0.10418000  0.97814000  1.0 -0.1794982296
C  C269  1  0.28512000  0.68094000  0.65908000  1.0 -0.1794982296
C  C270  1  0.21488000  0.87396000  0.39582000  1.0 -0.1794982296
C  C271  1  0.52186000  0.62604000  0.84092000  1.0 -0.1794982296
C  C272  1  0.97814000  0.81906000  0.10418000  1.0 -0.1794982296
C  C273  1  0.65908000  0.28512000  0.68094000  1.0 -0.1794982296
C  C274  1  0.39582000  0.21488000  0.87396000  1.0 -0.1794982296
C  C275  1  0.84092000  0.52186000  0.62604000  1.0 -0.1687364035
C  C276  1  0.10418000  0.97814000  0.81906000  1.0 -0.1794982296
C  C277  1  0.15908000  0.18094000  0.78512000  1.0 -0.1794982296
C  C278  1  0.89582000  0.37396000  0.71488000  1.0 -0.1794982296
C  C279  1  0.34092000  0.12604000  0.02186000  1.0 -0.1794982296
C  C280  1  0.60418000  0.31906000  0.47814000  1.0 -0.1794982296
C  C281  1  0.18094000  0.78512000  0.15908000  1.0 -0.1794982296
C  C282  1  0.37396000  0.71488000  0.89582000  1.0 -0.1794982296
C  C283  1  0.12604000  0.02186000  0.34092000  1.0 -0.1794982296
C  C284  1  0.31906000  0.47814000  0.60418000  1.0 -0.1794982296
C  C285  1  0.78512000  0.15908000  0.18094000  1.0 -0.1794982296
C  C286  1  0.71488000  0.89582000  0.37396000  1.0 -0.1794982296
C  C287  1  0.02186000  0.34092000  0.12604000  1.0 -0.1794982296
C  C288  1  0.47814000  0.60418000  0.31906000  1.0 -0.1687364035
C  C289  1  0.69637000  0.68765000  0.27718000  1.0 0.0596750606
C  C290  1  0.91047000  0.41919000  0.22282000  1.0 0.0596750606
C  C291  1  0.58953000  0.81235000  0.50872000  1.0 0.0596750606
C  C292  1  0.80363000  0.08081000  0.99128000  1.0 0.0596750606
C  C293  1  0.27718000  0.69637000  0.68765000  1.0 0.0596750606
C  C294  1  0.22282000  0.91047000  0.41919000  1.0 0.0596750606
C  C295  1  0.50872000  0.58953000  0.81235000  1.0 0.0596750606
C  C296  1  0.99128000  0.80363000  0.08081000  1.0 0.0596750606
C  C297  1  0.68765000  0.27718000  0.69637000  1.0 0.0596750606
C  C298  1  0.41919000  0.22282000  0.91047000  1.0 0.0596750606
C  C299  1  0.81235000  0.50872000  0.58953000  1.0 0.0596750606
C  C300  1  0.08081000  0.99128000  0.80363000  1.0 0.0596750606
C  C301  1  0.18765000  0.19637000  0.77718000  1.0 0.0596750606
C  C302  1  0.91919000  0.41047000  0.72282000  1.0 0.0596750606
C  C303  1  0.31235000  0.08953000  0.00872000  1.0 0.0544560003
C  C304  1  0.58081000  0.30363000  0.49128000  1.0 0.0596750606
C  C305  1  0.19637000  0.77718000  0.18765000  1.0 0.0544560003
C  C306  1  0.41047000  0.72282000  0.91919000  1.0 0.0596750606
C  C307  1  0.08953000  0.00872000  0.31235000  1.0 0.0544560003
C  C308  1  0.30363000  0.49128000  0.58081000  1.0 0.0596750606
C  C309  1  0.77718000  0.18765000  0.19637000  1.0 0.0596750606
C  C310  1  0.72282000  0.91919000  0.41047000  1.0 0.0596750606
C  C311  1  0.00872000  0.31235000  0.08953000  1.0 0.0544560003
C  C312  1  0.49128000  0.58081000  0.30363000  1.0 0.0596750606
C  C313  1  0.67525000  0.53418000  0.39299000  1.0 0.0912570022
C  C314  1  0.64119000  0.28226000  0.10701000  1.0 0.0912570022
C  C315  1  0.85881000  0.96582000  0.64107000  1.0 0.0912570022
C  C316  1  0.82475000  0.21774000  0.85893000  1.0 0.0912570022
C  C317  1  0.39299000  0.67525000  0.53418000  1.0 0.0912570022
C  C318  1  0.10701000  0.64119000  0.28226000  1.0 0.0912570022
C  C319  1  0.64107000  0.85881000  0.96582000  1.0 0.0912570022
C  C320  1  0.85893000  0.82475000  0.21774000  1.0 0.0912570022
C  C321  1  0.53418000  0.39299000  0.67525000  1.0 0.0912570022
C  C322  1  0.28226000  0.10701000  0.64119000  1.0 0.0912570022
C  C323  1  0.96582000  0.64107000  0.85881000  1.0 0.0912570022
C  C324  1  0.21774000  0.85893000  0.82475000  1.0 0.0912570022
C  C325  1  0.03418000  0.17525000  0.89299000  1.0 0.0912570022
C  C326  1  0.78226000  0.14119000  0.60701000  1.0 0.0912570022
C  C327  1  0.46582000  0.35881000  0.14107000  1.0 0.0912570022
C  C328  1  0.71774000  0.32475000  0.35893000  1.0 0.0912570022
C  C329  1  0.17525000  0.89299000  0.03418000  1.0 0.0912570022
C  C330  1  0.14119000  0.60701000  0.78226000  1.0 0.0912570022
C  C331  1  0.35881000  0.14107000  0.46582000  1.0 0.0912570022
C  C332  1  0.32475000  0.35893000  0.71774000  1.0 0.0912570022
C  C333  1  0.89299000  0.03418000  0.17525000  1.0 0.0912570022
C  C334  1  0.60701000  0.78226000  0.14119000  1.0 0.0912570022
C  C335  1  0.14107000  0.46582000  0.35881000  1.0 0.0912570022
C  C336  1  0.35893000  0.71774000  0.32475000  1.0 0.0912570022
C  C337  1  0.50966000  0.56375000  0.23087000  1.0 0.0992612749
C  C338  1  0.83288000  0.27879000  0.26913000  1.0 0.0992612749
C  C339  1  0.66712000  0.93625000  0.44591000  1.0 0.0992612749
C  C340  1  0.99034000  0.22121000  0.05409000  1.0 0.0992612749
C  C341  1  0.23087000  0.50966000  0.56375000  1.0 0.0912570022
C  C342  1  0.26913000  0.83288000  0.27879000  1.0 0.0912570022
C  C343  1  0.44591000  0.66712000  0.93625000  1.0 0.0912570022
C  C344  1  0.05409000  0.99034000  0.22121000  1.0 0.0912570022
C  C345  1  0.56375000  0.23087000  0.50966000  1.0 0.0992612749
C  C346  1  0.27879000  0.26913000  0.83288000  1.0 0.0912570022
C  C347  1  0.93625000  0.44591000  0.66712000  1.0 0.0992612749
C  C348  1  0.22121000  0.05409000  0.99034000  1.0 0.0992612749
C  C349  1  0.06375000  0.00966000  0.73087000  1.0 0.0992612749
C  C350  1  0.77879000  0.33288000  0.76913000  1.0 0.0992612749
C  C351  1  0.43625000  0.16712000  0.94591000  1.0 0.0992612749
C  C352  1  0.72121000  0.49034000  0.55409000  1.0 0.0992612749
C  C353  1  0.00966000  0.73087000  0.06375000  1.0 0.0912570022
C  C354  1  0.33288000  0.76913000  0.77879000  1.0 0.0912570022
C  C355  1  0.16712000  0.94591000  0.43625000  1.0 0.0912570022
C  C356  1  0.49034000  0.55409000  0.72121000  1.0 0.0992612749
C  C357  1  0.73087000  0.06375000  0.00966000  1.0 0.0992612749
C  C358  1  0.76913000  0.77879000  0.33288000  1.0 0.0912570022
C  C359  1  0.94591000  0.43625000  0.16712000  1.0 0.0992612749
C  C360  1  0.55409000  0.72121000  0.49034000  1.0 0.0992612749
C  C361  1  0.41316000  0.36218000  0.02108000  1.0 0.0912570022
C  C362  1  0.84110000  0.39208000  0.47892000  1.0 0.0912570022
C  C363  1  0.65890000  0.13782000  0.55098000  1.0 0.0912570022
C  C364  1  0.08684000  0.10792000  0.94902000  1.0 0.0912570022
C  C365  1  0.02108000  0.41316000  0.36218000  1.0 0.0912570022
C  C366  1  0.47892000  0.84110000  0.39208000  1.0 0.0912570022
C  C367  1  0.55098000  0.65890000  0.13782000  1.0 0.0912570022
C  C368  1  0.94902000  0.08684000  0.10792000  1.0 0.0912570022
C  C369  1  0.36218000  0.02108000  0.41316000  1.0 0.0912570022
C  C370  1  0.39208000  0.47892000  0.84110000  1.0 0.0912570022
C  C371  1  0.13782000  0.55098000  0.65890000  1.0 0.0912570022
C  C372  1  0.10792000  0.94902000  0.08684000  1.0 0.0912570022
C  C373  1  0.86218000  0.91316000  0.52108000  1.0 0.0912570022
C  C374  1  0.89208000  0.34110000  0.97892000  1.0 0.0912570022
C  C375  1  0.63782000  0.15890000  0.05098000  1.0 0.0912570022
C  C376  1  0.60792000  0.58684000  0.44902000  1.0 0.0912570022
C  C377  1  0.91316000  0.52108000  0.86218000  1.0 0.0912570022
C  C378  1  0.34110000  0.97892000  0.89208000  1.0 0.0912570022
C  C379  1  0.15890000  0.05098000  0.63782000  1.0 0.0912570022
C  C380  1  0.58684000  0.44902000  0.60792000  1.0 0.0912570022
C  C381  1  0.52108000  0.86218000  0.91316000  1.0 0.0912570022
C  C382  1  0.97892000  0.89208000  0.34110000  1.0 0.0912570022
C  C383  1  0.05098000  0.63782000  0.15890000  1.0 0.0912570022
C  C384  1  0.44902000  0.60792000  0.58684000  1.0 0.0912570022
C  C385  1  0.45263000  0.49504000  0.17293000  1.0 -0.1794982296
C  C386  1  0.82211000  0.27970000  0.32707000  1.0 -0.1794982296
C  C387  1  0.67789000  0.00496000  0.45759000  1.0 -0.1794982296
C  C388  1  0.04737000  0.22030000  0.04241000  1.0 -0.1794982296
C  C389  1  0.17293000  0.45263000  0.49504000  1.0 -0.1794982296
C  C390  1  0.32707000  0.82211000  0.27970000  1.0 -0.1794982296
C  C391  1  0.45759000  0.67789000  0.00496000  1.0 -0.1794982296
C  C392  1  0.04241000  0.04737000  0.22030000  1.0 -0.1794982296
C  C393  1  0.49504000  0.17293000  0.45263000  1.0 -0.1794982296
C  C394  1  0.27970000  0.32707000  0.82211000  1.0 -0.1794982296
C  C395  1  0.00496000  0.45759000  0.67789000  1.0 -0.1794982296
C  C396  1  0.22030000  0.04241000  0.04737000  1.0 -0.1794982296
C  C397  1  0.99504000  0.95263000  0.67293000  1.0 -0.1794982296
C  C398  1  0.77970000  0.32211000  0.82707000  1.0 -0.1794982296
C  C399  1  0.50496000  0.17789000  0.95759000  1.0 -0.1794982296
C  C400  1  0.72030000  0.54737000  0.54241000  1.0 -0.1794982296
C  C401  1  0.95263000  0.67293000  0.99504000  1.0 -0.1794982296
C  C402  1  0.32211000  0.82707000  0.77970000  1.0 -0.1794982296
C  C403  1  0.17789000  0.95759000  0.50496000  1.0 -0.1794982296
C  C404  1  0.54737000  0.54241000  0.72030000  1.0 -0.1794982296
C  C405  1  0.67293000  0.99504000  0.95263000  1.0 -0.1794982296
C  C406  1  0.82707000  0.77970000  0.32211000  1.0 -0.1794982296
C  C407  1  0.95759000  0.50496000  0.17789000  1.0 -0.1794982296
C  C408  1  0.54241000  0.72030000  0.54737000  1.0 -0.1794982296
C  C409  1  0.43906000  0.51839000  0.12761000  1.0 0.2214352107
C  C410  1  0.89078000  0.31145000  0.37239000  1.0 0.2214352107
C  C411  1  0.60922000  0.98161000  0.42067000  1.0 0.2214352107
C  C412  1  0.06094000  0.18855000  0.07933000  1.0 0.2214352107
C  C413  1  0.12761000  0.43906000  0.51839000  1.0 0.2214352107
C  C414  1  0.37239000  0.89078000  0.31145000  1.0 0.2214352107
C  C415  1  0.42067000  0.60922000  0.98161000  1.0 0.2214352107
C  C416  1  0.07933000  0.06094000  0.18855000  1.0 0.2214352107
C  C417  1  0.51839000  0.12761000  0.43906000  1.0 0.2214352107
C  C418  1  0.31145000  0.37239000  0.89078000  1.0 0.2214352107
C  C419  1  0.98161000  0.42067000  0.60922000  1.0 0.2214352107
C  C420  1  0.18855000  0.07933000  0.06094000  1.0 0.2214352107
C  C421  1  0.01839000  0.93906000  0.62761000  1.0 0.2214352107
C  C422  1  0.81145000  0.39078000  0.87239000  1.0 0.2214352107
C  C423  1  0.48161000  0.10922000  0.92067000  1.0 0.2214352107
C  C424  1  0.68855000  0.56094000  0.57933000  1.0 0.2214352107
C  C425  1  0.93906000  0.62761000  0.01839000  1.0 0.2214352107
C  C426  1  0.39078000  0.87239000  0.81145000  1.0 0.2214352107
C  C427  1  0.10922000  0.92067000  0.48161000  1.0 0.2214352107
C  C428  1  0.56094000  0.57933000  0.68855000  1.0 0.2214352107
C  C429  1  0.62761000  0.01839000  0.93906000  1.0 0.2214352107
C  C430  1  0.87239000  0.81145000  0.39078000  1.0 0.2214352107
C  C431  1  0.92067000  0.48161000  0.10922000  1.0 0.2214352107
C  C432  1  0.57933000  0.68855000  0.56094000  1.0 0.2214352107
C  C433  1  0.42611000  0.33463000  0.02458000  1.0 0.2214352107
C  C434  1  0.81005000  0.40153000  0.47542000  1.0 0.2214352107
C  C435  1  0.68995000  0.16537000  0.59148000  1.0 0.2214352107
C  C436  1  0.07389000  0.09847000  0.90852000  1.0 0.2214352107
C  C437  1  0.02458000  0.42611000  0.33463000  1.0 0.2214352107
C  C438  1  0.47542000  0.81005000  0.40153000  1.0 0.2214352107
C  C439  1  0.59148000  0.68995000  0.16537000  1.0 0.2214352107
C  C440  1  0.90852000  0.07389000  0.09847000  1.0 0.2214352107
C  C441  1  0.33463000  0.02458000  0.42611000  1.0 0.2214352107
C  C442  1  0.40153000  0.47542000  0.81005000  1.0 0.2214352107
C  C443  1  0.16537000  0.59148000  0.68995000  1.0 0.2214352107
C  C444  1  0.09847000  0.90852000  0.07389000  1.0 0.2214352107
C  C445  1  0.83463000  0.92611000  0.52458000  1.0 0.2214352107
C  C446  1  0.90153000  0.31005000  0.97542000  1.0 0.2214352107
C  C447  1  0.66537000  0.18995000  0.09148000  1.0 0.2214352107
C  C448  1  0.59847000  0.57389000  0.40852000  1.0 0.2214352107
C  C449  1  0.92611000  0.52458000  0.83463000  1.0 0.2214352107
C  C450  1  0.31005000  0.97542000  0.90153000  1.0 0.2214352107
C  C451  1  0.18995000  0.09148000  0.66537000  1.0 0.2214352107
C  C452  1  0.57389000  0.40852000  0.59847000  1.0 0.2214352107
C  C453  1  0.52458000  0.83463000  0.92611000  1.0 0.2214352107
C  C454  1  0.97542000  0.90153000  0.31005000  1.0 0.2214352107
C  C455  1  0.09148000  0.66537000  0.18995000  1.0 0.2214352107
C  C456  1  0.40852000  0.59847000  0.57389000  1.0 0.2214352107
C  C457  1  0.65792000  0.46277000  0.34947000  1.0 -0.1687364035
C  C458  1  0.61330000  0.30845000  0.15053000  1.0 -0.1687364035
C  C459  1  0.88670000  0.03723000  0.69515000  1.0 -0.1687364035
C  C460  1  0.84208000  0.19155000  0.80485000  1.0 -0.1687364035
C  C461  1  0.34947000  0.65792000  0.46277000  1.0 -0.1687364035
C  C462  1  0.15053000  0.61330000  0.30845000  1.0 -0.1687364035
C  C463  1  0.69515000  0.88670000  0.03723000  1.0 -0.1687364035
C  C464  1  0.80485000  0.84208000  0.19155000  1.0 -0.1687364035
C  C465  1  0.46277000  0.34947000  0.65792000  1.0 -0.1687364035
C  C466  1  0.30845000  0.15053000  0.61330000  1.0 -0.1687364035
C  C467  1  0.03723000  0.69515000  0.88670000  1.0 -0.1687364035
C  C468  1  0.19155000  0.80485000  0.84208000  1.0 -0.1687364035
C  C469  1  0.96277000  0.15792000  0.84947000  1.0 -0.1687364035
C  C470  1  0.80845000  0.11330000  0.65053000  1.0 -0.1687364035
C  C471  1  0.53723000  0.38670000  0.19515000  1.0 -0.1687364035
C  C472  1  0.69155000  0.34208000  0.30485000  1.0 -0.1687364035
C  C473  1  0.15792000  0.84947000  0.96277000  1.0 -0.1687364035
C  C474  1  0.11330000  0.65053000  0.80845000  1.0 -0.1687364035
C  C475  1  0.38670000  0.19515000  0.53723000  1.0 -0.1687364035
C  C476  1  0.34208000  0.30485000  0.69155000  1.0 -0.1687364035
C  C477  1  0.84947000  0.96277000  0.15792000  1.0 -0.1687364035
C  C478  1  0.65053000  0.80845000  0.11330000  1.0 -0.1687364035
C  C479  1  0.19515000  0.53723000  0.38670000  1.0 -0.1687364035
C  C480  1  0.30485000  0.69155000  0.34208000  1.0 -0.1687364035
C  C481  1  0.69258000  0.45927000  0.40641000  1.0 0.207572915
C  C482  1  0.55286000  0.28617000  0.09359000  1.0 0.207572915
C  C483  1  0.94714000  0.04073000  0.73331000  1.0 0.207572915
C  C484  1  0.80742000  0.21383000  0.76669000  1.0 0.207572915
C  C485  1  0.40641000  0.69258000  0.45927000  1.0 0.207572915
C  C486  1  0.09359000  0.55286000  0.28617000  1.0 0.207572915
C  C487  1  0.73331000  0.94714000  0.04073000  1.0 0.207572915
C  C488  1  0.76669000  0.80742000  0.21383000  1.0 0.207572915
C  C489  1  0.45927000  0.40641000  0.69258000  1.0 0.207572915
C  C490  1  0.28617000  0.09359000  0.55286000  1.0 0.207572915
C  C491  1  0.04073000  0.73331000  0.94714000  1.0 0.207572915
C  C492  1  0.21383000  0.76669000  0.80742000  1.0 0.207572915
C  C493  1  0.95927000  0.19258000  0.90641000  1.0 0.207572915
C  C494  1  0.78617000  0.05286000  0.59359000  1.0 0.207572915
C  C495  1  0.54073000  0.44714000  0.23331000  1.0 0.207572915
C  C496  1  0.71383000  0.30742000  0.26669000  1.0 0.207572915
C  C497  1  0.19258000  0.90641000  0.95927000  1.0 0.207572915
C  C498  1  0.05286000  0.59359000  0.78617000  1.0 0.207572915
C  C499  1  0.44714000  0.23331000  0.54073000  1.0 0.207572915
C  C500  1  0.30742000  0.26669000  0.71383000  1.0 0.207572915
C  C501  1  0.90641000  0.95927000  0.19258000  1.0 0.207572915
C  C502  1  0.59359000  0.78617000  0.05286000  1.0 0.207572915
C  C503  1  0.23331000  0.54073000  0.44714000  1.0 0.207572915
C  C504  1  0.26669000  0.71383000  0.30742000  1.0 0.207572915
C  C505  1  0.63262000  0.67873000  0.28077000  1.0 -0.1990746688
C  C506  1  0.89796000  0.35185000  0.21923000  1.0 -0.1990746688
C  C507  1  0.60204000  0.82127000  0.45389000  1.0 -0.1990746688
C  C508  1  0.86738000  0.14815000  0.04611000  1.0 -0.1990746688
C  C509  1  0.28077000  0.63262000  0.67873000  1.0 -0.1990746688
C  C510  1  0.21923000  0.89796000  0.35185000  1.0 -0.1990746688
C  C511  1  0.45389000  0.60204000  0.82127000  1.0 -0.1990746688
C  C512  1  0.04611000  0.86738000  0.14815000  1.0 -0.1990746688
C  C513  1  0.67873000  0.28077000  0.63262000  1.0 -0.1990746688
C  C514  1  0.35185000  0.21923000  0.89796000  1.0 -0.1990746688
C  C515  1  0.82127000  0.45389000  0.60204000  1.0 -0.1990746688
C  C516  1  0.14815000  0.04611000  0.86738000  1.0 -0.1990746688
C  C517  1  0.17873000  0.13262000  0.78077000  1.0 -0.1990746688
C  C518  1  0.85185000  0.39796000  0.71923000  1.0 -0.1990746688
C  C519  1  0.32127000  0.10204000  0.95389000  1.0 -0.1990746688
C  C520  1  0.64815000  0.36738000  0.54611000  1.0 -0.1990746688
C  C521  1  0.13262000  0.78077000  0.17873000  1.0 -0.1990746688
C  C522  1  0.39796000  0.71923000  0.85185000  1.0 -0.1990746688
C  C523  1  0.10204000  0.95389000  0.32127000  1.0 -0.1990746688
C  C524  1  0.36738000  0.54611000  0.64815000  1.0 -0.1990746688
C  C525  1  0.78077000  0.17873000  0.13262000  1.0 -0.1990746688
C  C526  1  0.71923000  0.85185000  0.39796000  1.0 -0.1990746688
C  C527  1  0.95389000  0.32127000  0.10204000  1.0 -0.1990746688
C  C528  1  0.54611000  0.64815000  0.36738000  1.0 -0.1990746688
C  C529  1  0.47608000  0.50094000  0.20876000  1.0 0.0544560003
C  C530  1  0.79218000  0.26732000  0.29124000  1.0 0.0544560003
C  C531  1  0.70782000  0.99906000  0.47514000  1.0 0.0544560003
C  C532  1  0.02392000  0.23268000  0.02486000  1.0 0.0544560003
C  C533  1  0.20876000  0.47608000  0.50094000  1.0 0.0544560003
C  C534  1  0.29124000  0.79218000  0.26732000  1.0 0.0544560003
C  C535  1  0.47514000  0.70782000  0.99906000  1.0 0.0544560003
C  C536  1  0.02486000  0.02392000  0.23268000  1.0 0.0544560003
C  C537  1  0.50094000  0.20876000  0.47608000  1.0 0.0544560003
C  C538  1  0.26732000  0.29124000  0.79218000  1.0 0.0544560003
C  C539  1  0.99906000  0.47514000  0.70782000  1.0 0.0596750606
C  C540  1  0.23268000  0.02486000  0.02392000  1.0 0.0596750606
C  C541  1  0.00094000  0.97608000  0.70876000  1.0 0.0544560003
C  C542  1  0.76732000  0.29218000  0.79124000  1.0 0.0544560003
C  C543  1  0.49906000  0.20782000  0.97514000  1.0 0.0596750606
C  C544  1  0.73268000  0.52392000  0.52486000  1.0 0.0544560003
C  C545  1  0.97608000  0.70876000  0.00094000  1.0 0.0544560003
C  C546  1  0.29218000  0.79124000  0.76732000  1.0 0.0544560003
C  C547  1  0.20782000  0.97514000  0.49906000  1.0 0.0544560003
C  C548  1  0.52392000  0.52486000  0.73268000  1.0 0.0596750606
C  C549  1  0.70876000  0.00094000  0.97608000  1.0 0.0544560003
C  C550  1  0.79124000  0.76732000  0.29218000  1.0 0.0544560003
C  C551  1  0.97514000  0.49906000  0.20782000  1.0 0.0544560003
C  C552  1  0.52486000  0.73268000  0.52392000  1.0 0.0544560003
C  C553  1  0.68056000  0.47912000  0.38938000  1.0 0.0666072969
C  C554  1  0.58974000  0.29118000  0.11062000  1.0 0.0596750606
C  C555  1  0.91026000  0.02088000  0.70144000  1.0 0.0666072969
C  C556  1  0.81944000  0.20882000  0.79856000  1.0 0.0666072969
C  C557  1  0.38938000  0.68056000  0.47912000  1.0 0.0666072969
C  C558  1  0.11062000  0.58974000  0.29118000  1.0 0.0596750606
C  C559  1  0.70144000  0.91026000  0.02088000  1.0 0.0596750606
C  C560  1  0.79856000  0.81944000  0.20882000  1.0 0.0596750606
C  C561  1  0.47912000  0.38938000  0.68056000  1.0 0.0666072969
C  C562  1  0.29118000  0.11062000  0.58974000  1.0 0.0666072969
C  C563  1  0.02088000  0.70144000  0.91026000  1.0 0.0666072969
C  C564  1  0.20882000  0.79856000  0.81944000  1.0 0.0666072969
C  C565  1  0.97912000  0.18056000  0.88938000  1.0 0.0666072969
C  C566  1  0.79118000  0.08974000  0.61062000  1.0 0.0666072969
C  C567  1  0.52088000  0.41026000  0.20144000  1.0 0.0596750606
C  C568  1  0.70882000  0.31944000  0.29856000  1.0 0.0596750606
C  C569  1  0.18056000  0.88938000  0.97912000  1.0 0.0666072969
C  C570  1  0.08974000  0.61062000  0.79118000  1.0 0.0596750606
C  C571  1  0.41026000  0.20144000  0.52088000  1.0 0.0666072969
C  C572  1  0.31944000  0.29856000  0.70882000  1.0 0.0666072969
C  C573  1  0.88938000  0.97912000  0.18056000  1.0 0.0596750606
C  C574  1  0.61062000  0.79118000  0.08974000  1.0 0.0596750606
C  C575  1  0.20144000  0.52088000  0.41026000  1.0 0.0596750606
C  C576  1  0.29856000  0.70882000  0.31944000  1.0 0.0596750606
N  N1  1  0.59106000  0.58582000  0.30100000  1.0 -0.0482799278
N  N2  1  0.78482000  0.29006000  0.19900000  1.0 -0.0482799278
N  N3  1  0.71518000  0.91418000  0.50524000  1.0 -0.0482799278
N  N4  1  0.90894000  0.20994000  0.99476000  1.0 -0.0482799278
N  N5  1  0.30100000  0.59106000  0.58582000  1.0 -0.0482799278
N  N6  1  0.19900000  0.78482000  0.29006000  1.0 -0.0482799278
N  N7  1  0.50524000  0.71518000  0.91418000  1.0 -0.0482799278
N  N8  1  0.99476000  0.90894000  0.20994000  1.0 -0.0482799278
N  N9  1  0.58582000  0.30100000  0.59106000  1.0 -0.0482799278
N  N10  1  0.29006000  0.19900000  0.78482000  1.0 -0.0482799278
N  N11  1  0.91418000  0.50524000  0.71518000  1.0 -0.0482799278
N  N12  1  0.20994000  0.99476000  0.90894000  1.0 -0.0482799278
N  N13  1  0.08582000  0.09106000  0.80100000  1.0 -0.0482799278
N  N14  1  0.79006000  0.28482000  0.69900000  1.0 -0.0482799278
N  N15  1  0.41418000  0.21518000  0.00524000  1.0 -0.0482799278
N  N16  1  0.70994000  0.40894000  0.49476000  1.0 -0.0482799278
N  N17  1  0.09106000  0.80100000  0.08582000  1.0 -0.0482799278
N  N18  1  0.28482000  0.69900000  0.79006000  1.0 -0.0482799278
N  N19  1  0.21518000  0.00524000  0.41418000  1.0 -0.0482799278
N  N20  1  0.40894000  0.49476000  0.70994000  1.0 -0.0482799278
N  N21  1  0.80100000  0.08582000  0.09106000  1.0 -0.0482799278
N  N22  1  0.69900000  0.79006000  0.28482000  1.0 -0.0482799278
N  N23  1  0.00524000  0.41418000  0.21518000  1.0 -0.0482799278
N  N24  1  0.49476000  0.70994000  0.40894000  1.0 -0.0482799278
N  N25  1  0.72078000  0.44987000  0.45191000  1.0 -0.0573269029
N  N26  1  0.49796000  0.26887000  0.04809000  1.0 -0.0573269029
N  N27  1  0.00204000  0.05013000  0.77091000  1.0 -0.0482799278
N  N28  1  0.77922000  0.23113000  0.72909000  1.0 -0.0573269029
N  N29  1  0.45191000  0.72078000  0.44987000  1.0 -0.0573269029
N  N30  1  0.04809000  0.49796000  0.26887000  1.0 -0.0573269029
N  N31  1  0.77091000  0.00204000  0.05013000  1.0 -0.0482799278
N  N32  1  0.72909000  0.77922000  0.23113000  1.0 -0.0573269029
N  N33  1  0.44987000  0.45191000  0.72078000  1.0 -0.0573269029
N  N34  1  0.26887000  0.04809000  0.49796000  1.0 -0.0573269029
N  N35  1  0.05013000  0.77091000  0.00204000  1.0 -0.0573269029
N  N36  1  0.23113000  0.72909000  0.77922000  1.0 -0.0573269029
N  N37  1  0.94987000  0.22078000  0.95191000  1.0 -0.0573269029
N  N38  1  0.76887000  0.99796000  0.54809000  1.0 -0.0482799278
N  N39  1  0.55013000  0.50204000  0.27091000  1.0 -0.0573269029
N  N40  1  0.73113000  0.27922000  0.22909000  1.0 -0.0573269029
N  N41  1  0.22078000  0.95191000  0.94987000  1.0 -0.0573269029
N  N42  1  0.99796000  0.54809000  0.76887000  1.0 -0.0573269029
N  N43  1  0.50204000  0.27091000  0.55013000  1.0 -0.0573269029
N  N44  1  0.27922000  0.22909000  0.73113000  1.0 -0.0573269029
N  N45  1  0.95191000  0.94987000  0.22078000  1.0 -0.0573269029
N  N46  1  0.54809000  0.76887000  0.99796000  1.0 -0.0573269029
N  N47  1  0.27091000  0.55013000  0.50204000  1.0 -0.0573269029
N  N48  1  0.22909000  0.73113000  0.27922000  1.0 -0.0573269029
N  N49  1  0.50374000  0.53647000  0.23875000  1.0 -0.210909437
N  N50  1  0.79772000  0.26499000  0.26125000  1.0 -0.210909437
N  N51  1  0.70228000  0.96353000  0.46727000  1.0 -0.210909437
N  N52  1  0.99626000  0.23501000  0.03273000  1.0 -0.210909437
N  N53  1  0.23875000  0.50374000  0.53647000  1.0 -0.210909437
N  N54  1  0.26125000  0.79772000  0.26499000  1.0 -0.210909437
N  N55  1  0.46727000  0.70228000  0.96353000  1.0 -0.210909437
N  N56  1  0.03273000  0.99626000  0.23501000  1.0 -0.210909437
N  N57  1  0.53647000  0.23875000  0.50374000  1.0 -0.210909437
N  N58  1  0.26499000  0.26125000  0.79772000  1.0 -0.210909437
N  N59  1  0.96353000  0.46727000  0.70228000  1.0 -0.210909437
N  N60  1  0.23501000  0.03273000  0.99626000  1.0 -0.210909437
N  N61  1  0.03647000  0.00374000  0.73875000  1.0 -0.210909437
N  N62  1  0.76499000  0.29772000  0.76125000  1.0 -0.210909437
N  N63  1  0.46353000  0.20228000  0.96727000  1.0 -0.210909437
N  N64  1  0.73501000  0.49626000  0.53273000  1.0 -0.210909437
N  N65  1  0.00374000  0.73875000  0.03647000  1.0 -0.210909437
N  N66  1  0.29772000  0.76125000  0.76499000  1.0 -0.210909437
N  N67  1  0.20228000  0.96727000  0.46353000  1.0 -0.210909437
N  N68  1  0.49626000  0.53273000  0.73501000  1.0 -0.210909437
N  N69  1  0.73875000  0.03647000  0.00374000  1.0 -0.210909437
N  N70  1  0.76125000  0.76499000  0.29772000  1.0 -0.210909437
N  N71  1  0.96727000  0.46353000  0.20228000  1.0 -0.210909437
N  N72  1  0.53273000  0.73501000  0.49626000  1.0 -0.210909437
N  N73  1  0.59533000  0.61414000  0.29343000  1.0 -0.2710643413
N  N74  1  0.82071000  0.30190000  0.20657000  1.0 -0.2710643413
N  N75  1  0.67929000  0.88586000  0.48119000  1.0 -0.2710643413
N  N76  1  0.90467000  0.19810000  0.01881000  1.0 -0.2710643413
N  N77  1  0.29343000  0.59533000  0.61414000  1.0 -0.2710643413
N  N78  1  0.20657000  0.82071000  0.30190000  1.0 -0.2710643413
N  N79  1  0.48119000  0.67929000  0.88586000  1.0 -0.2710643413
N  N80  1  0.01881000  0.90467000  0.19810000  1.0 -0.2710643413
N  N81  1  0.61414000  0.29343000  0.59533000  1.0 -0.2710643413
N  N82  1  0.30190000  0.20657000  0.82071000  1.0 -0.2710643413
N  N83  1  0.88586000  0.48119000  0.67929000  1.0 -0.2710643413
N  N84  1  0.19810000  0.01881000  0.90467000  1.0 -0.2710643413
N  N85  1  0.11414000  0.09533000  0.79343000  1.0 -0.2710643413
N  N86  1  0.80190000  0.32071000  0.70657000  1.0 -0.2710643413
N  N87  1  0.38586000  0.17929000  0.98119000  1.0 -0.2710643413
N  N88  1  0.69810000  0.40467000  0.51881000  1.0 -0.2710643413
N  N89  1  0.09533000  0.79343000  0.11414000  1.0 -0.2710643413
N  N90  1  0.32071000  0.70657000  0.80190000  1.0 -0.2710643413
N  N91  1  0.17929000  0.98119000  0.38586000  1.0 -0.2710643413
N  N92  1  0.40467000  0.51881000  0.69810000  1.0 -0.2710643413
N  N93  1  0.79343000  0.11414000  0.09533000  1.0 -0.2710643413
N  N94  1  0.70657000  0.80190000  0.32071000  1.0 -0.2710643413
N  N95  1  0.98119000  0.38586000  0.17929000  1.0 -0.2710643413
N  N96  1  0.51881000  0.69810000  0.40467000  1.0 -0.2710643413
N  N97  1  0.71604000  0.47647000  0.44503000  1.0 -0.2429934872
N  N98  1  0.53144000  0.27101000  0.05497000  1.0 -0.2429934872
N  N99  1  0.96856000  0.02353000  0.73957000  1.0 -0.2508554568
N  N100  1  0.78396000  0.22899000  0.76043000  1.0 -0.2429934872
N  N101  1  0.44503000  0.71604000  0.47647000  1.0 -0.2429934872
N  N102  1  0.05497000  0.53144000  0.27101000  1.0 -0.2429934872
N  N103  1  0.73957000  0.96856000  0.02353000  1.0 -0.2429934872
N  N104  1  0.76043000  0.78396000  0.22899000  1.0 -0.2429934872
N  N105  1  0.47647000  0.44503000  0.71604000  1.0 -0.2429934872
N  N106  1  0.27101000  0.05497000  0.53144000  1.0 -0.2429934872
N  N107  1  0.02353000  0.73957000  0.96856000  1.0 -0.2429934872
N  N108  1  0.22899000  0.76043000  0.78396000  1.0 -0.2429934872
N  N109  1  0.97647000  0.21604000  0.94503000  1.0 -0.2508554568
N  N110  1  0.77101000  0.03144000  0.55497000  1.0 -0.2508554568
N  N111  1  0.52353000  0.46856000  0.23957000  1.0 -0.2429934872
N  N112  1  0.72899000  0.28396000  0.26043000  1.0 -0.2429934872
N  N113  1  0.21604000  0.94503000  0.97647000  1.0 -0.2508554568
N  N114  1  0.03144000  0.55497000  0.77101000  1.0 -0.2508554568
N  N115  1  0.46856000  0.23957000  0.52353000  1.0 -0.2429934872
N  N116  1  0.28396000  0.26043000  0.72899000  1.0 -0.2429934872
N  N117  1  0.94503000  0.97647000  0.21604000  1.0 -0.2429934872
N  N118  1  0.55497000  0.77101000  0.03144000  1.0 -0.2429934872
N  N119  1  0.23957000  0.52353000  0.46856000  1.0 -0.2508554568
N  N120  1  0.26043000  0.72899000  0.28396000  1.0 -0.2429934872
N  N121  1  0.43436000  0.31330000  0.00212000  1.0 -0.2429934872
N  N122  1  0.81118000  0.43224000  0.49788000  1.0 -0.2429934872
N  N123  1  0.68882000  0.18670000  0.62106000  1.0 -0.2429934872
N  N124  1  0.06564000  0.06776000  0.87894000  1.0 -0.2429934872
N  N125  1  0.00212000  0.43436000  0.31330000  1.0 -0.2429934872
N  N126  1  0.49788000  0.81118000  0.43224000  1.0 -0.2429934872
N  N127  1  0.62106000  0.68882000  0.18670000  1.0 -0.2429934872
N  N128  1  0.87894000  0.06564000  0.06776000  1.0 -0.2429934872
N  N129  1  0.31330000  0.00212000  0.43436000  1.0 -0.2429934872
N  N130  1  0.43224000  0.49788000  0.81118000  1.0 -0.2429934872
N  N131  1  0.18670000  0.62106000  0.68882000  1.0 -0.2429934872
N  N132  1  0.06776000  0.87894000  0.06564000  1.0 -0.2429934872
N  N133  1  0.81330000  0.93436000  0.50212000  1.0 -0.2429934872
N  N134  1  0.93224000  0.31118000  0.99788000  1.0 -0.2429934872
N  N135  1  0.68670000  0.18882000  0.12106000  1.0 -0.2429934872
N  N136  1  0.56776000  0.56564000  0.37894000  1.0 -0.2429934872
N  N137  1  0.93436000  0.50212000  0.81330000  1.0 -0.2429934872
N  N138  1  0.31118000  0.99788000  0.93224000  1.0 -0.2429934872
N  N139  1  0.18882000  0.12106000  0.68670000  1.0 -0.2429934872
N  N140  1  0.56564000  0.37894000  0.56776000  1.0 -0.2429934872
N  N141  1  0.50212000  0.81330000  0.93436000  1.0 -0.2429934872
N  N142  1  0.99788000  0.93224000  0.31118000  1.0 -0.2429934872
N  N143  1  0.12106000  0.68670000  0.18882000  1.0 -0.2429934872
N  N144  1  0.37894000  0.56776000  0.56564000  1.0 -0.2429934872
N  N145  1  0.40739000  0.49180000  0.06699000  1.0 -0.0573269029
N  N146  1  0.92481000  0.34040000  0.43301000  1.0 -0.0573269029
N  N147  1  0.57519000  0.00820000  0.41559000  1.0 -0.0573269029
N  N148  1  0.09261000  0.15960000  0.08441000  1.0 -0.0573269029
N  N149  1  0.06699000  0.40739000  0.49180000  1.0 -0.0573269029
N  N150  1  0.43301000  0.92481000  0.34040000  1.0 -0.0573269029
N  N151  1  0.41559000  0.57519000  0.00820000  1.0 -0.0573269029
N  N152  1  0.08441000  0.09261000  0.15960000  1.0 -0.0573269029
N  N153  1  0.49180000  0.06699000  0.40739000  1.0 -0.0573269029
N  N154  1  0.34040000  0.43301000  0.92481000  1.0 -0.0573269029
N  N155  1  0.00820000  0.41559000  0.57519000  1.0 -0.0573269029
N  N156  1  0.15960000  0.08441000  0.09261000  1.0 -0.0573269029
N  N157  1  0.99180000  0.90739000  0.56699000  1.0 -0.0573269029
N  N158  1  0.84040000  0.42481000  0.93301000  1.0 -0.0573269029
N  N159  1  0.50820000  0.07519000  0.91559000  1.0 -0.0573269029
N  N160  1  0.65960000  0.59261000  0.58441000  1.0 -0.0573269029
N  N161  1  0.90739000  0.56699000  0.99180000  1.0 -0.0573269029
N  N162  1  0.42481000  0.93301000  0.84040000  1.0 -0.0573269029
N  N163  1  0.07519000  0.91559000  0.50820000  1.0 -0.0573269029
N  N164  1  0.59261000  0.58441000  0.65960000  1.0 -0.0573269029
N  N165  1  0.56699000  0.99180000  0.90739000  1.0 -0.0573269029
N  N166  1  0.93301000  0.84040000  0.42481000  1.0 -0.0573269029
N  N167  1  0.91559000  0.50820000  0.07519000  1.0 -0.0573269029
N  N168  1  0.58441000  0.65960000  0.59261000  1.0 -0.0573269029
N  N169  1  0.64681000  0.60753000  0.30610000  1.0 -0.2572017728
N  N170  1  0.80143000  0.34071000  0.19390000  1.0 -0.2572017728
N  N171  1  0.69857000  0.89247000  0.53928000  1.0 -0.2572017728
N  N172  1  0.85319000  0.15929000  0.96072000  1.0 -0.2572017728
N  N173  1  0.30610000  0.64681000  0.60753000  1.0 -0.2572017728
N  N174  1  0.19390000  0.80143000  0.34071000  1.0 -0.2572017728
N  N175  1  0.53928000  0.69857000  0.89247000  1.0 -0.2572017728
N  N176  1  0.96072000  0.85319000  0.15929000  1.0 -0.2572017728
N  N177  1  0.60753000  0.30610000  0.64681000  1.0 -0.2572017728
N  N178  1  0.34071000  0.19390000  0.80143000  1.0 -0.2572017728
N  N179  1  0.89247000  0.53928000  0.69857000  1.0 -0.2572017728
N  N180  1  0.15929000  0.96072000  0.85319000  1.0 -0.2572017728
N  N181  1  0.10753000  0.14681000  0.80610000  1.0 -0.2572017728
N  N182  1  0.84071000  0.30143000  0.69390000  1.0 -0.2572017728
N  N183  1  0.39247000  0.19857000  0.03928000  1.0 -0.2572017728
N  N184  1  0.65929000  0.35319000  0.46072000  1.0 -0.2572017728
N  N185  1  0.14681000  0.80610000  0.10753000  1.0 -0.2572017728
N  N186  1  0.30143000  0.69390000  0.84071000  1.0 -0.2572017728
N  N187  1  0.19857000  0.03928000  0.39247000  1.0 -0.2572017728
N  N188  1  0.35319000  0.46072000  0.65929000  1.0 -0.2572017728
N  N189  1  0.80610000  0.10753000  0.14681000  1.0 -0.2572017728
N  N190  1  0.69390000  0.84071000  0.30143000  1.0 -0.2572017728
N  N191  1  0.03928000  0.39247000  0.19857000  1.0 -0.2572017728
N  N192  1  0.46072000  0.65929000  0.35319000  1.0 -0.2572017728
N  N193  1  0.42951000  0.32996000  0.05649000  1.0 -0.284311377
N  N194  1  0.77347000  0.37302000  0.44351000  1.0 -0.284311377
N  N195  1  0.72653000  0.17004000  0.59955000  1.0 -0.284311377
N  N196  1  0.07049000  0.12698000  0.90045000  1.0 -0.284311377
N  N197  1  0.05649000  0.42951000  0.32996000  1.0 -0.2853553881
N  N198  1  0.44351000  0.77347000  0.37302000  1.0 -0.284311377
N  N199  1  0.59955000  0.72653000  0.17004000  1.0 -0.2853553881
N  N200  1  0.90045000  0.07049000  0.12698000  1.0 -0.2853553881
N  N201  1  0.32996000  0.05649000  0.42951000  1.0 -0.284311377
N  N202  1  0.37302000  0.44351000  0.77347000  1.0 -0.284311377
N  N203  1  0.17004000  0.59955000  0.72653000  1.0 -0.284311377
N  N204  1  0.12698000  0.90045000  0.07049000  1.0 -0.284311377
N  N205  1  0.82996000  0.92951000  0.55649000  1.0 -0.284311377
N  N206  1  0.87302000  0.27347000  0.94351000  1.0 -0.2853553881
N  N207  1  0.67004000  0.22653000  0.09955000  1.0 -0.284311377
N  N208  1  0.62698000  0.57049000  0.40045000  1.0 -0.284311377
N  N209  1  0.92951000  0.55649000  0.82996000  1.0 -0.284311377
N  N210  1  0.27347000  0.94351000  0.87302000  1.0 -0.284311377
N  N211  1  0.22653000  0.09955000  0.67004000  1.0 -0.284311377
N  N212  1  0.57049000  0.40045000  0.62698000  1.0 -0.284311377
N  N213  1  0.55649000  0.82996000  0.92951000  1.0 -0.284311377
N  N214  1  0.94351000  0.87302000  0.27347000  1.0 -0.284311377
N  N215  1  0.09955000  0.67004000  0.22653000  1.0 -0.284311377
N  N216  1  0.40045000  0.62698000  0.57049000  1.0 -0.284311377
N  N217  1  0.69905000  0.41625000  0.41586000  1.0 -0.0301560281
N  N218  1  0.50039000  0.28319000  0.08414000  1.0 -0.0301560281
N  N219  1  0.99961000  0.08375000  0.78280000  1.0 -0.0301560281
N  N220  1  0.80095000  0.21681000  0.71720000  1.0 -0.0301560281
N  N221  1  0.41586000  0.69905000  0.41625000  1.0 -0.0301560281
N  N222  1  0.08414000  0.50039000  0.28319000  1.0 -0.0301560281
N  N223  1  0.78280000  0.99961000  0.08375000  1.0 -0.0301560281
N  N224  1  0.71720000  0.80095000  0.21681000  1.0 -0.0301560281
N  N225  1  0.41625000  0.41586000  0.69905000  1.0 -0.0301560281
N  N226  1  0.28319000  0.08414000  0.50039000  1.0 -0.0301560281
N  N227  1  0.08375000  0.78280000  0.99961000  1.0 -0.0301560281
N  N228  1  0.21681000  0.71720000  0.80095000  1.0 -0.0301560281
N  N229  1  0.91625000  0.19905000  0.91586000  1.0 -0.0301560281
N  N230  1  0.78319000  0.00039000  0.58414000  1.0 -0.0301560281
N  N231  1  0.58375000  0.49961000  0.28280000  1.0 -0.0301560281
N  N232  1  0.71681000  0.30095000  0.21720000  1.0 -0.0301560281
N  N233  1  0.19905000  0.91586000  0.91625000  1.0 -0.0301560281
N  N234  1  0.00039000  0.58414000  0.78319000  1.0 -0.0301560281
N  N235  1  0.49961000  0.28280000  0.58375000  1.0 -0.0301560281
N  N236  1  0.30095000  0.21720000  0.71681000  1.0 -0.0301560281
N  N237  1  0.91586000  0.91625000  0.19905000  1.0 -0.0301560281
N  N238  1  0.58414000  0.78319000  0.00039000  1.0 -0.0301560281
N  N239  1  0.28280000  0.58375000  0.49961000  1.0 -0.0301560281
N  N240  1  0.21720000  0.71681000  0.30095000  1.0 -0.0301560281
N  N241  1  0.62170000  0.58159000  0.30805000  1.0 -0.0416216735
N  N242  1  0.77354000  0.31365000  0.19195000  1.0 -0.0301560281
N  N243  1  0.72646000  0.91841000  0.54011000  1.0 -0.0416216735
N  N244  1  0.87830000  0.18635000  0.95989000  1.0 -0.0301560281
N  N245  1  0.30805000  0.62170000  0.58159000  1.0 -0.0416216735
N  N246  1  0.19195000  0.77354000  0.31365000  1.0 -0.0416216735
N  N247  1  0.54011000  0.72646000  0.91841000  1.0 -0.0301560281
N  N248  1  0.95989000  0.87830000  0.18635000  1.0 -0.0416216735
N  N249  1  0.58159000  0.30805000  0.62170000  1.0 -0.0301560281
N  N250  1  0.31365000  0.19195000  0.77354000  1.0 -0.0301560281
N  N251  1  0.91841000  0.54011000  0.72646000  1.0 -0.0301560281
N  N252  1  0.18635000  0.95989000  0.87830000  1.0 -0.0301560281
N  N253  1  0.08159000  0.12170000  0.80805000  1.0 -0.0301560281
N  N254  1  0.81365000  0.27354000  0.69195000  1.0 -0.0301560281
N  N255  1  0.41841000  0.22646000  0.04011000  1.0 -0.0301560281
N  N256  1  0.68635000  0.37830000  0.45989000  1.0 -0.0301560281
N  N257  1  0.12170000  0.80805000  0.08159000  1.0 -0.0416216735
N  N258  1  0.27354000  0.69195000  0.81365000  1.0 -0.0416216735
N  N259  1  0.22646000  0.04011000  0.41841000  1.0 -0.0416216735
N  N260  1  0.37830000  0.45989000  0.68635000  1.0 -0.0301560281
N  N261  1  0.80805000  0.08159000  0.12170000  1.0 -0.0301560281
N  N262  1  0.69195000  0.81365000  0.27354000  1.0 -0.0301560281
N  N263  1  0.04011000  0.41841000  0.22646000  1.0 -0.0416216735
N  N264  1  0.45989000  0.68635000  0.37830000  1.0 -0.0301560281
N  N265  1  0.42437000  0.52915000  0.08162000  1.0 -0.0482799278
N  N266  1  0.94753000  0.34275000  0.41838000  1.0 -0.0416216735
N  N267  1  0.55247000  0.97085000  0.39522000  1.0 -0.0416216735
N  N268  1  0.07563000  0.15725000  0.10478000  1.0 -0.0416216735
N  N269  1  0.08162000  0.42437000  0.52915000  1.0 -0.0482799278
N  N270  1  0.41838000  0.94753000  0.34275000  1.0 -0.0416216735
N  N271  1  0.39522000  0.55247000  0.97085000  1.0 -0.0416216735
N  N272  1  0.10478000  0.07563000  0.15725000  1.0 -0.0416216735
N  N273  1  0.52915000  0.08162000  0.42437000  1.0 -0.0416216735
N  N274  1  0.34275000  0.41838000  0.94753000  1.0 -0.0416216735
N  N275  1  0.97085000  0.39522000  0.55247000  1.0 -0.0482799278
N  N276  1  0.15725000  0.10478000  0.07563000  1.0 -0.0416216735
N  N277  1  0.02915000  0.92437000  0.58162000  1.0 -0.0416216735
N  N278  1  0.84275000  0.44753000  0.91838000  1.0 -0.0416216735
N  N279  1  0.47085000  0.05247000  0.89522000  1.0 -0.0416216735
N  N280  1  0.65725000  0.57563000  0.60478000  1.0 -0.0482799278
N  N281  1  0.92437000  0.58162000  0.02915000  1.0 -0.0416216735
N  N282  1  0.44753000  0.91838000  0.84275000  1.0 -0.0416216735
N  N283  1  0.05247000  0.89522000  0.47085000  1.0 -0.0416216735
N  N284  1  0.57563000  0.60478000  0.65725000  1.0 -0.0482799278
N  N285  1  0.58162000  0.02915000  0.92437000  1.0 -0.0416216735
N  N286  1  0.91838000  0.84275000  0.44753000  1.0 -0.0416216735
N  N287  1  0.89522000  0.47085000  0.05247000  1.0 -0.0416216735
N  N288  1  0.60478000  0.65725000  0.57563000  1.0 -0.0416216735
N  N289  1  0.44207000  0.30453000  0.05080000  1.0 -0.0482799278
N  N290  1  0.75373000  0.39127000  0.44920000  1.0 -0.0482799278
N  N291  1  0.74627000  0.19547000  0.63754000  1.0 -0.0482799278
N  N292  1  0.05793000  0.10873000  0.86246000  1.0 -0.0482799278
N  N293  1  0.05080000  0.44207000  0.30453000  1.0 -0.0482799278
N  N294  1  0.44920000  0.75373000  0.39127000  1.0 -0.0482799278
N  N295  1  0.63754000  0.74627000  0.19547000  1.0 -0.0482799278
N  N296  1  0.86246000  0.05793000  0.10873000  1.0 -0.0482799278
N  N297  1  0.30453000  0.05080000  0.44207000  1.0 -0.0482799278
N  N298  1  0.39127000  0.44920000  0.75373000  1.0 -0.0482799278
N  N299  1  0.19547000  0.63754000  0.74627000  1.0 -0.0482799278
N  N300  1  0.10873000  0.86246000  0.05793000  1.0 -0.0482799278
N  N301  1  0.80453000  0.94207000  0.55080000  1.0 -0.0482799278
N  N302  1  0.89127000  0.25373000  0.94920000  1.0 -0.0482799278
N  N303  1  0.69547000  0.24627000  0.13754000  1.0 -0.0482799278
N  N304  1  0.60873000  0.55793000  0.36246000  1.0 -0.0482799278
N  N305  1  0.94207000  0.55080000  0.80453000  1.0 -0.0482799278
N  N306  1  0.25373000  0.94920000  0.89127000  1.0 -0.0482799278
N  N307  1  0.24627000  0.13754000  0.69547000  1.0 -0.0482799278
N  N308  1  0.55793000  0.36246000  0.60873000  1.0 -0.0482799278
N  N309  1  0.55080000  0.80453000  0.94207000  1.0 -0.0482799278
N  N310  1  0.94920000  0.89127000  0.25373000  1.0 -0.0482799278
N  N311  1  0.13754000  0.69547000  0.24627000  1.0 -0.0482799278
N  N312  1  0.36246000  0.60873000  0.55793000  1.0 -0.0482799278
N  N313  1  0.68199000  0.42214000  0.38923000  1.0 -0.2572017728
N  N314  1  0.53291000  0.29276000  0.11077000  1.0 -0.2572017728
N  N315  1  0.96709000  0.07786000  0.75985000  1.0 -0.2572017728
N  N316  1  0.81801000  0.20724000  0.74015000  1.0 -0.2572017728
N  N317  1  0.38923000  0.68199000  0.42214000  1.0 -0.2572017728
N  N318  1  0.11077000  0.53291000  0.29276000  1.0 -0.2572017728
N  N319  1  0.75985000  0.96709000  0.07786000  1.0 -0.2572017728
N  N320  1  0.74015000  0.81801000  0.20724000  1.0 -0.2572017728
N  N321  1  0.42214000  0.38923000  0.68199000  1.0 -0.2572017728
N  N322  1  0.29276000  0.11077000  0.53291000  1.0 -0.2572017728
N  N323  1  0.07786000  0.75985000  0.96709000  1.0 -0.2572017728
N  N324  1  0.20724000  0.74015000  0.81801000  1.0 -0.2572017728
N  N325  1  0.92214000  0.18199000  0.88923000  1.0 -0.2572017728
N  N326  1  0.79276000  0.03291000  0.61077000  1.0 -0.2572017728
N  N327  1  0.57786000  0.46709000  0.25985000  1.0 -0.2572017728
N  N328  1  0.70724000  0.31801000  0.24015000  1.0 -0.2572017728
N  N329  1  0.18199000  0.88923000  0.92214000  1.0 -0.2572017728
N  N330  1  0.03291000  0.61077000  0.79276000  1.0 -0.2572017728
N  N331  1  0.46709000  0.25985000  0.57786000  1.0 -0.2572017728
N  N332  1  0.31801000  0.24015000  0.70724000  1.0 -0.2572017728
N  N333  1  0.88923000  0.92214000  0.18199000  1.0 -0.2572017728
N  N334  1  0.61077000  0.79276000  0.03291000  1.0 -0.2572017728
N  N335  1  0.25985000  0.57786000  0.46709000  1.0 -0.2572017728
N  N336  1  0.24015000  0.70724000  0.31801000  1.0 -0.2572017728
N  N337  1  0.44406000  0.29570000  0.01894000  1.0 -0.0301560281
N  N338  1  0.77676000  0.42512000  0.48106000  1.0 -0.0301560281
N  N339  1  0.72324000  0.20430000  0.64836000  1.0 -0.0301560281
N  N340  1  0.05594000  0.07488000  0.85164000  1.0 -0.0301560281
N  N341  1  0.01894000  0.44406000  0.29570000  1.0 -0.0301560281
N  N342  1  0.48106000  0.77676000  0.42512000  1.0 -0.0301560281
N  N343  1  0.64836000  0.72324000  0.20430000  1.0 -0.0301560281
N  N344  1  0.85164000  0.05594000  0.07488000  1.0 -0.0301560281
N  N345  1  0.29570000  0.01894000  0.44406000  1.0 -0.0301560281
N  N346  1  0.42512000  0.48106000  0.77676000  1.0 -0.0301560281
N  N347  1  0.20430000  0.64836000  0.72324000  1.0 -0.0301560281
N  N348  1  0.07488000  0.85164000  0.05594000  1.0 -0.0301560281
N  N349  1  0.79570000  0.94406000  0.51894000  1.0 -0.0301560281
N  N350  1  0.92512000  0.27676000  0.98106000  1.0 -0.0301560281
N  N351  1  0.70430000  0.22324000  0.14836000  1.0 -0.0301560281
N  N352  1  0.57488000  0.55594000  0.35164000  1.0 -0.0301560281
N  N353  1  0.94406000  0.51894000  0.79570000  1.0 -0.0301560281
N  N354  1  0.27676000  0.98106000  0.92512000  1.0 -0.0301560281
N  N355  1  0.22324000  0.14836000  0.70430000  1.0 -0.0301560281
N  N356  1  0.55594000  0.35164000  0.57488000  1.0 -0.0301560281
N  N357  1  0.51894000  0.79570000  0.94406000  1.0 -0.0301560281
N  N358  1  0.98106000  0.92512000  0.27676000  1.0 -0.0301560281
N  N359  1  0.14836000  0.70430000  0.22324000  1.0 -0.0301560281
N  N360  1  0.35164000  0.57488000  0.55594000  1.0 -0.0301560281
N  N361  1  0.39093000  0.41526000  0.01213000  1.0 -0.2508554568
N  N362  1  0.90313000  0.37880000  0.48787000  1.0 -0.2508554568
N  N363  1  0.59687000  0.08474000  0.47567000  1.0 -0.2508554568
N  N364  1  0.10907000  0.12120000  0.02433000  1.0 -0.2508554568
N  N365  1  0.01213000  0.39093000  0.41526000  1.0 -0.2508554568
N  N366  1  0.48787000  0.90313000  0.37880000  1.0 -0.2508554568
N  N367  1  0.47567000  0.59687000  0.08474000  1.0 -0.2508554568
N  N368  1  0.02433000  0.10907000  0.12120000  1.0 -0.2508554568
N  N369  1  0.41526000  0.01213000  0.39093000  1.0 -0.2508554568
N  N370  1  0.37880000  0.48787000  0.90313000  1.0 -0.2508554568
N  N371  1  0.08474000  0.47567000  0.59687000  1.0 -0.2508554568
N  N372  1  0.12120000  0.02433000  0.10907000  1.0 -0.2508554568
N  N373  1  0.91526000  0.89093000  0.51213000  1.0 -0.2508554568
N  N374  1  0.87880000  0.40313000  0.98787000  1.0 -0.2508554568
N  N375  1  0.58474000  0.09687000  0.97567000  1.0 -0.2508554568
N  N376  1  0.62120000  0.60907000  0.52433000  1.0 -0.2508554568
N  N377  1  0.89093000  0.51213000  0.91526000  1.0 -0.2508554568
N  N378  1  0.40313000  0.98787000  0.87880000  1.0 -0.2508554568
N  N379  1  0.09687000  0.97567000  0.58474000  1.0 -0.2508554568
N  N380  1  0.60907000  0.52433000  0.62120000  1.0 -0.2508554568
N  N381  1  0.51213000  0.91526000  0.89093000  1.0 -0.2508554568
N  N382  1  0.98787000  0.87880000  0.40313000  1.0 -0.2508554568
N  N383  1  0.97567000  0.58474000  0.09687000  1.0 -0.2508554568
N  N384  1  0.52433000  0.62120000  0.60907000  1.0 -0.2508554568
N  N385  1  0.41549000  0.48416000  0.09583000  1.0 -0.2710643413
N  N386  1  0.88833000  0.31966000  0.40417000  1.0 -0.2710643413
N  N387  1  0.61167000  0.01584000  0.43133000  1.0 -0.2710643413
N  N388  1  0.08451000  0.18034000  0.06867000  1.0 -0.2710643413
N  N389  1  0.09583000  0.41549000  0.48416000  1.0 -0.2710643413
N  N390  1  0.40417000  0.88833000  0.31966000  1.0 -0.2710643413
N  N391  1  0.43133000  0.61167000  0.01584000  1.0 -0.2710643413
N  N392  1  0.06867000  0.08451000  0.18034000  1.0 -0.2710643413
N  N393  1  0.48416000  0.09583000  0.41549000  1.0 -0.2710643413
N  N394  1  0.31966000  0.40417000  0.88833000  1.0 -0.2710643413
N  N395  1  0.01584000  0.43133000  0.61167000  1.0 -0.2710643413
N  N396  1  0.18034000  0.06867000  0.08451000  1.0 -0.2710643413
N  N397  1  0.98416000  0.91549000  0.59583000  1.0 -0.2710643413
N  N398  1  0.81966000  0.38833000  0.90417000  1.0 -0.2710643413
N  N399  1  0.51584000  0.11167000  0.93133000  1.0 -0.2710643413
N  N400  1  0.68034000  0.58451000  0.56867000  1.0 -0.2710643413
N  N401  1  0.91549000  0.59583000  0.98416000  1.0 -0.2710643413
N  N402  1  0.38833000  0.90417000  0.81966000  1.0 -0.2710643413
N  N403  1  0.11167000  0.93133000  0.51584000  1.0 -0.2710643413
N  N404  1  0.58451000  0.56867000  0.68034000  1.0 -0.2710643413
N  N405  1  0.59583000  0.98416000  0.91549000  1.0 -0.2710643413
N  N406  1  0.90417000  0.81966000  0.38833000  1.0 -0.2710643413
N  N407  1  0.93133000  0.51584000  0.11167000  1.0 -0.2710643413
N  N408  1  0.56867000  0.68034000  0.58451000  1.0 -0.2710643413
N  N409  1  0.44558000  0.54625000  0.11889000  1.0 -0.2572017728
N  N410  1  0.92736000  0.32669000  0.38111000  1.0 -0.2572017728
N  N411  1  0.57264000  0.95375000  0.39933000  1.0 -0.2572017728
N  N412  1  0.05442000  0.17331000  0.10067000  1.0 -0.2572017728
N  N413  1  0.11889000  0.44558000  0.54625000  1.0 -0.2572017728
N  N414  1  0.38111000  0.92736000  0.32669000  1.0 -0.2572017728
N  N415  1  0.39933000  0.57264000  0.95375000  1.0 -0.2572017728
N  N416  1  0.10067000  0.05442000  0.17331000  1.0 -0.2572017728
N  N417  1  0.54625000  0.11889000  0.44558000  1.0 -0.2572017728
N  N418  1  0.32669000  0.38111000  0.92736000  1.0 -0.2572017728
N  N419  1  0.95375000  0.39933000  0.57264000  1.0 -0.2572017728
N  N420  1  0.17331000  0.10067000  0.05442000  1.0 -0.2572017728
N  N421  1  0.04625000  0.94558000  0.61889000  1.0 -0.2572017728
N  N422  1  0.82669000  0.42736000  0.88111000  1.0 -0.2572017728
N  N423  1  0.45375000  0.07264000  0.89933000  1.0 -0.2572017728
N  N424  1  0.67331000  0.55442000  0.60067000  1.0 -0.2572017728
N  N425  1  0.94558000  0.61889000  0.04625000  1.0 -0.2572017728
N  N426  1  0.42736000  0.88111000  0.82669000  1.0 -0.2572017728
N  N427  1  0.07264000  0.89933000  0.45375000  1.0 -0.2572017728
N  N428  1  0.55442000  0.60067000  0.67331000  1.0 -0.2572017728
N  N429  1  0.61889000  0.04625000  0.94558000  1.0 -0.2572017728
N  N430  1  0.88111000  0.82669000  0.42736000  1.0 -0.2572017728
N  N431  1  0.89933000  0.45375000  0.07264000  1.0 -0.2572017728
N  N432  1  0.60067000  0.67331000  0.55442000  1.0 -0.2572017728
N  N433  1  0.68132000  0.70963000  0.26977000  1.0 -0.2313668885
N  N434  1  0.93986000  0.41155000  0.23023000  1.0 -0.2313668885
N  N435  1  0.56014000  0.79037000  0.47169000  1.0 -0.2313668885
N  N436  1  0.81868000  0.08845000  0.02831000  1.0 -0.2313668885
N  N437  1  0.26977000  0.68132000  0.70963000  1.0 -0.2313668885
N  N438  1  0.23023000  0.93986000  0.41155000  1.0 -0.2313668885
N  N439  1  0.47169000  0.56014000  0.79037000  1.0 -0.2313668885
N  N440  1  0.02831000  0.81868000  0.08845000  1.0 -0.2313668885
N  N441  1  0.70963000  0.26977000  0.68132000  1.0 -0.2313668885
N  N442  1  0.41155000  0.23023000  0.93986000  1.0 -0.2313668885
N  N443  1  0.79037000  0.47169000  0.56014000  1.0 -0.2313668885
N  N444  1  0.08845000  0.02831000  0.81868000  1.0 -0.2313668885
N  N445  1  0.20963000  0.18132000  0.76977000  1.0 -0.2313668885
N  N446  1  0.91155000  0.43986000  0.73023000  1.0 -0.2313668885
N  N447  1  0.29037000  0.06014000  0.97169000  1.0 -0.2313668885
N  N448  1  0.58845000  0.31868000  0.52831000  1.0 -0.2313668885
N  N449  1  0.18132000  0.76977000  0.20963000  1.0 -0.2313668885
N  N450  1  0.43986000  0.73023000  0.91155000  1.0 -0.2313668885
N  N451  1  0.06014000  0.97169000  0.29037000  1.0 -0.2313668885
N  N452  1  0.31868000  0.52831000  0.58845000  1.0 -0.2313668885
N  N453  1  0.76977000  0.20963000  0.18132000  1.0 -0.2313668885
N  N454  1  0.73023000  0.91155000  0.43986000  1.0 -0.2313668885
N  N455  1  0.97169000  0.29037000  0.06014000  1.0 -0.2313668885
N  N456  1  0.52831000  0.58845000  0.31868000  1.0 -0.2313668885
N  N457  1  0.65532000  0.51792000  0.35496000  1.0 -0.210909437
N  N458  1  0.66296000  0.30036000  0.14504000  1.0 -0.210909437
N  N459  1  0.83704000  0.98208000  0.63740000  1.0 -0.210909437
N  N460  1  0.84468000  0.19964000  0.86260000  1.0 -0.210909437
N  N461  1  0.35496000  0.65532000  0.51792000  1.0 -0.210909437
N  N462  1  0.14504000  0.66296000  0.30036000  1.0 -0.210909437
N  N463  1  0.63740000  0.83704000  0.98208000  1.0 -0.210909437
N  N464  1  0.86260000  0.84468000  0.19964000  1.0 -0.210909437
N  N465  1  0.51792000  0.35496000  0.65532000  1.0 -0.210909437
N  N466  1  0.30036000  0.14504000  0.66296000  1.0 -0.210909437
N  N467  1  0.98208000  0.63740000  0.83704000  1.0 -0.210909437
N  N468  1  0.19964000  0.86260000  0.84468000  1.0 -0.210909437
N  N469  1  0.01792000  0.15532000  0.85496000  1.0 -0.210909437
N  N470  1  0.80036000  0.16296000  0.64504000  1.0 -0.210909437
N  N471  1  0.48208000  0.33704000  0.13740000  1.0 -0.210909437
N  N472  1  0.69964000  0.34468000  0.36260000  1.0 -0.210909437
N  N473  1  0.15532000  0.85496000  0.01792000  1.0 -0.210909437
N  N474  1  0.16296000  0.64504000  0.80036000  1.0 -0.210909437
N  N475  1  0.33704000  0.13740000  0.48208000  1.0 -0.210909437
N  N476  1  0.34468000  0.36260000  0.69964000  1.0 -0.210909437
N  N477  1  0.85496000  0.01792000  0.15532000  1.0 -0.210909437
N  N478  1  0.64504000  0.80036000  0.16296000  1.0 -0.210909437
N  N479  1  0.13740000  0.48208000  0.33704000  1.0 -0.210909437
N  N480  1  0.36260000  0.69964000  0.34468000  1.0 -0.210909437
O  O1  1  0.37122000  0.50000000  0.00000000  1.0 -0.8923464705
O  O2  1  0.00000000  0.37122000  0.50000000  1.0 -0.8923464705
O  O3  1  0.50000000  0.00000000  0.37122000  1.0 -0.8971157362
O  O4  1  0.12878000  0.12878000  0.12878000  1.0 -0.8971157362
O  O5  1  0.00000000  0.87122000  0.50000000  1.0 -0.8923464705
O  O6  1  0.87122000  0.50000000  0.00000000  1.0 -0.8923464705
O  O7  1  0.50000000  0.00000000  0.87122000  1.0 -0.8971157362
O  O8  1  0.62878000  0.62878000  0.62878000  1.0 -0.8971157362
