# DDEC6 charges by PACMAN v1.1 (https://github.com/mtap-research/PACMAN-charge/)
data_NEXVUI_ASR_pacman
_symmetry_space_group_name_H-M   'P 1'
_cell_length_a   29.56150000
_cell_length_b   29.56150000
_cell_length_c   29.56150000
_cell_angle_alpha   92.99890000
_cell_angle_beta   92.99890000
_cell_angle_gamma   153.55600000
_symmetry_Int_Tables_number   1
_chemical_formula_structural   Cd2H10C21NO8
_chemical_formula_sum   'Cd32 H160 C336 N16 O128'
_cell_volume   11199.16430125
_cell_formula_units_Z   16
loop_
 _symmetry_equiv_pos_site_id
 _symmetry_equiv_pos_as_xyz
  1  'x, y, z'
loop_
 _atom_site_type_symbol
 _atom_site_label
 _atom_site_symmetry_multiplicity
 _atom_site_fract_x
 _atom_site_fract_y
 _atom_site_fract_z
 _atom_site_occupancy
 _atom_site_charge
Cd  Cd1  1  0.64153000  0.00720000  0.30045000  1.0 0.9397935825
Cd  Cd2  1  0.59108000  0.39153000  0.13433000  1.0 0.9397935825
Cd  Cd3  1  0.25720000  0.45675000  0.86567000  1.0 0.9397935825
Cd  Cd4  1  0.70675000  0.34108000  0.69955000  1.0 0.9397935825
Cd  Cd5  1  0.60847000  0.74280000  0.19955000  1.0 0.9397935825
Cd  Cd6  1  0.65892000  0.35847000  0.36567000  1.0 0.9397935825
Cd  Cd7  1  0.99280000  0.29325000  0.63433000  1.0 0.9397935825
Cd  Cd8  1  0.54325000  0.40892000  0.80045000  1.0 0.9397935825
Cd  Cd9  1  0.36662000  0.86549000  0.23959000  1.0 0.992002021
Cd  Cd10  1  0.37703000  0.11662000  0.00113000  1.0 0.992002021
Cd  Cd11  1  0.11549000  0.37590000  0.99887000  1.0 0.992002021
Cd  Cd12  1  0.62590000  0.12703000  0.76041000  1.0 0.992002021
Cd  Cd13  1  0.88338000  0.88451000  0.26041000  1.0 0.992002021
Cd  Cd14  1  0.87297000  0.63338000  0.49887000  1.0 0.992002021
Cd  Cd15  1  0.13451000  0.37410000  0.50113000  1.0 0.992002021
Cd  Cd16  1  0.62410000  0.62297000  0.73959000  1.0 0.992002021
Cd  Cd17  1  0.39701000  0.07879000  0.21630000  1.0 1.0198054122
Cd  Cd18  1  0.43071000  0.14701000  0.81822000  1.0 1.0198054122
Cd  Cd19  1  0.32879000  0.61249000  0.18178000  1.0 1.0198054122
Cd  Cd20  1  0.86249000  0.18071000  0.78370000  1.0 1.0198054122
Cd  Cd21  1  0.85299000  0.67121000  0.28370000  1.0 1.0198054122
Cd  Cd22  1  0.81929000  0.60299000  0.68178000  1.0 1.0198054122
Cd  Cd23  1  0.92121000  0.13751000  0.31822000  1.0 1.0198054122
Cd  Cd24  1  0.38751000  0.56929000  0.71630000  1.0 1.0198054122
Cd  Cd25  1  0.15042000  0.78941000  0.30831000  1.0 0.9397935825
Cd  Cd26  1  0.09211000  0.90042000  0.86101000  1.0 0.9397935825
Cd  Cd27  1  0.03941000  0.23110000  0.13899000  1.0 0.9397935825
Cd  Cd28  1  0.48110000  0.84211000  0.69169000  1.0 0.9397935825
Cd  Cd29  1  0.09958000  0.96059000  0.19169000  1.0 0.9397935825
Cd  Cd30  1  0.15789000  0.84958000  0.63899000  1.0 0.9397935825
Cd  Cd31  1  0.21059000  0.51890000  0.36101000  1.0 0.9397935825
Cd  Cd32  1  0.76890000  0.90789000  0.80831000  1.0 0.9397935825
H  H1  1  0.18780000  0.64470000  0.39170000  1.0 0.1138004767
H  H2  1  0.04610000  0.93780000  0.04310000  1.0 0.1138004767
H  H3  1  0.89470000  0.00300000  0.95690000  1.0 0.1138004767
H  H4  1  0.25300000  0.79610000  0.60830000  1.0 0.1138004767
H  H5  1  0.06220000  0.10530000  0.10830000  1.0 0.1138004767
H  H6  1  0.20390000  0.81220000  0.45690000  1.0 0.1138004767
H  H7  1  0.35530000  0.74700000  0.54310000  1.0 0.1138004767
H  H8  1  0.99700000  0.95390000  0.89170000  1.0 0.1138004767
H  H9  1  0.22230000  0.74340000  0.43030000  1.0 0.1186952804
H  H10  1  0.04200000  0.97230000  0.97890000  1.0 0.1186952804
H  H11  1  0.99340000  0.06310000  0.02110000  1.0 0.1186952804
H  H12  1  0.31310000  0.79200000  0.56970000  1.0 0.1186952804
H  H13  1  0.02770000  0.00660000  0.06970000  1.0 0.1186952804
H  H14  1  0.20800000  0.77770000  0.52110000  1.0 0.1186952804
H  H15  1  0.25660000  0.68690000  0.47890000  1.0 0.1186952804
H  H16  1  0.93690000  0.95800000  0.93030000  1.0 0.1186952804
H  H17  1  0.36070000  0.91040000  0.41810000  1.0 0.1186952804
H  H18  1  0.19260000  0.11070000  0.95030000  1.0 0.1186952804
H  H19  1  0.16040000  0.24230000  0.04970000  1.0 0.1186952804
H  H20  1  0.49230000  0.94260000  0.58190000  1.0 0.1186952804
H  H21  1  0.88930000  0.83960000  0.08190000  1.0 0.1186952804
H  H22  1  0.05740000  0.63930000  0.54970000  1.0 0.1186952804
H  H23  1  0.08960000  0.50770000  0.45030000  1.0 0.1186952804
H  H24  1  0.75770000  0.80740000  0.91810000  1.0 0.1186952804
H  H25  1  0.69920000  0.28330000  0.36030000  1.0 0.1138004767
H  H26  1  0.58890000  0.44920000  0.91590000  1.0 0.1138004767
H  H27  1  0.53330000  0.67300000  0.08410000  1.0 0.1138004767
H  H28  1  0.92300000  0.33890000  0.63970000  1.0 0.1138004767
H  H29  1  0.55080000  0.46670000  0.13970000  1.0 0.1138004767
H  H30  1  0.66110000  0.30080000  0.58410000  1.0 0.1138004767
H  H31  1  0.71670000  0.07700000  0.41590000  1.0 0.1138004767
H  H32  1  0.32700000  0.41110000  0.86030000  1.0 0.1138004767
H  H33  1  0.74590000  0.26660000  0.41070000  1.0 0.1138004767
H  H34  1  0.58520000  0.49590000  0.97930000  1.0 0.1138004767
H  H35  1  0.51660000  0.60590000  0.02070000  1.0 0.1138004767
H  H36  1  0.85590000  0.33520000  0.58930000  1.0 0.1138004767
H  H37  1  0.50410000  0.48340000  0.08930000  1.0 0.1138004767
H  H38  1  0.66480000  0.25410000  0.52070000  1.0 0.1138004767
H  H39  1  0.73340000  0.14410000  0.47930000  1.0 0.1138004767
H  H40  1  0.39410000  0.41480000  0.91070000  1.0 0.1138004767
H  H41  1  0.62310000  0.10080000  0.41390000  1.0 0.1186952804
H  H42  1  0.45920000  0.37310000  0.02230000  1.0 0.1186952804
H  H43  1  0.35080000  0.43690000  0.97770000  1.0 0.1186952804
H  H44  1  0.68690000  0.20920000  0.58610000  1.0 0.1186952804
H  H45  1  0.62690000  0.64920000  0.08610000  1.0 0.1186952804
H  H46  1  0.79080000  0.37690000  0.47770000  1.0 0.1186952804
H  H47  1  0.89920000  0.31310000  0.52230000  1.0 0.1186952804
H  H48  1  0.56310000  0.54080000  0.91390000  1.0 0.1186952804
H  H49  1  0.05010000  0.46850000  0.20240000  1.0 0.1186952804
H  H50  1  0.09770000  0.80010000  0.08160000  1.0 0.1186952804
H  H51  1  0.71850000  0.01610000  0.91840000  1.0 0.1186952804
H  H52  1  0.26610000  0.84770000  0.79760000  1.0 0.1186952804
H  H53  1  0.19990000  0.28150000  0.29760000  1.0 0.1186952804
H  H54  1  0.15230000  0.94990000  0.41840000  1.0 0.1186952804
H  H55  1  0.53150000  0.73390000  0.58160000  1.0 0.1186952804
H  H56  1  0.98390000  0.90230000  0.70240000  1.0 0.1186952804
H  H57  1  0.74320000  0.16160000  0.18140000  1.0 0.1138004767
H  H58  1  0.81180000  0.49320000  0.08160000  1.0 0.1138004767
H  H59  1  0.41160000  0.73020000  0.91840000  1.0 0.1138004767
H  H60  1  0.98020000  0.56180000  0.81860000  1.0 0.1138004767
H  H61  1  0.50680000  0.58840000  0.31860000  1.0 0.1138004767
H  H62  1  0.43820000  0.25680000  0.41840000  1.0 0.1138004767
H  H63  1  0.83840000  0.01980000  0.58160000  1.0 0.1138004767
H  H64  1  0.26980000  0.18820000  0.68140000  1.0 0.1138004767
H  H65  1  0.88480000  0.34070000  0.21190000  1.0 0.0999887638
H  H66  1  0.92290000  0.63480000  0.04410000  1.0 0.0999887638
H  H67  1  0.59070000  0.87880000  0.95590000  1.0 0.0999887638
H  H68  1  0.12880000  0.67290000  0.78810000  1.0 0.0999887638
H  H69  1  0.36520000  0.40930000  0.28810000  1.0 0.0999887638
H  H70  1  0.32710000  0.11520000  0.45590000  1.0 0.0999887638
H  H71  1  0.65930000  0.87120000  0.54410000  1.0 0.0999887638
H  H72  1  0.12120000  0.07710000  0.71190000  1.0 0.0999887638
H  H73  1  0.79960000  0.12580000  0.08500000  1.0 0.1186952804
H  H74  1  0.96460000  0.54960000  0.17380000  1.0 0.1186952804
H  H75  1  0.37580000  0.79080000  0.82620000  1.0 0.1186952804
H  H76  1  0.04080000  0.71460000  0.91500000  1.0 0.1186952804
H  H77  1  0.45040000  0.62420000  0.41500000  1.0 0.1186952804
H  H78  1  0.28540000  0.20040000  0.32620000  1.0 0.1138004767
H  H79  1  0.87420000  0.95920000  0.67380000  1.0 0.1186952804
H  H80  1  0.20920000  0.03540000  0.58500000  1.0 0.1186952804
H  H81  1  0.65893000  0.96123000  0.03690000  1.0 0.0999887638
H  H82  1  0.87203000  0.40893000  0.19770000  1.0 0.0999887638
H  H83  1  0.21123000  0.67433000  0.80230000  1.0 0.0999887638
H  H84  1  0.92433000  0.62203000  0.96310000  1.0 0.0999887638
H  H85  1  0.59107000  0.78877000  0.46310000  1.0 0.0999887638
H  H86  1  0.37797000  0.34107000  0.30230000  1.0 0.0999887638
H  H87  1  0.03877000  0.07567000  0.69770000  1.0 0.0999887638
H  H88  1  0.32567000  0.12797000  0.53690000  1.0 0.0999887638
H  H89  1  0.51430000  0.81150000  0.06660000  1.0 0.1186952804
H  H90  1  0.69770000  0.26430000  0.20280000  1.0 0.1186952804
H  H91  1  0.06150000  0.49490000  0.79720000  1.0 0.1186952804
H  H92  1  0.74490000  0.44770000  0.93340000  1.0 0.1186952804
H  H93  1  0.73570000  0.93850000  0.43340000  1.0 0.1186952804
H  H94  1  0.55230000  0.48570000  0.29720000  1.0 0.1186952804
H  H95  1  0.18850000  0.25510000  0.70280000  1.0 0.1186952804
H  H96  1  0.50510000  0.30230000  0.56660000  1.0 0.1186952804
H  H97  1  0.63350000  0.10150000  0.27820000  1.0 0.0999887638
H  H98  1  0.60530000  0.38350000  0.03200000  1.0 0.0999887638
H  H99  1  0.35150000  0.57330000  0.96800000  1.0 0.0999887638
H  H100  1  0.82330000  0.35530000  0.72180000  1.0 0.0999887638
H  H101  1  0.61650000  0.64850000  0.22180000  1.0 0.0999887638
H  H102  1  0.64470000  0.36650000  0.46800000  1.0 0.0999887638
H  H103  1  0.89850000  0.17670000  0.53200000  1.0 0.0999887638
H  H104  1  0.42670000  0.39470000  0.77820000  1.0 0.0999887638
H  H105  1  0.72910000  0.25380000  0.28050000  1.0 0.138795605
H  H106  1  0.69860000  0.47910000  0.97530000  1.0 0.138795605
H  H107  1  0.50380000  0.72330000  0.02470000  1.0 0.138795605
H  H108  1  0.97330000  0.44860000  0.71950000  1.0 0.138795605
H  H109  1  0.52090000  0.49620000  0.21950000  1.0 0.138795605
H  H110  1  0.55140000  0.27090000  0.52470000  1.0 0.138795605
H  H111  1  0.74620000  0.02670000  0.47530000  1.0 0.138795605
H  H112  1  0.27670000  0.30140000  0.78050000  1.0 0.138795605
H  H113  1  0.98920000  0.41370000  0.33250000  1.0 0.1533178346
H  H114  1  0.90670000  0.73920000  0.07550000  1.0 0.1533178346
H  H115  1  0.66370000  0.83120000  0.92450000  1.0 0.1533178346
H  H116  1  0.08120000  0.65670000  0.66750000  1.0 0.1533178346
H  H117  1  0.26080000  0.33630000  0.16750000  1.0 0.1533178346
H  H118  1  0.34330000  0.01080000  0.42450000  1.0 0.1533178346
H  H119  1  0.58630000  0.91880000  0.57550000  1.0 0.1533178346
H  H120  1  0.16880000  0.09330000  0.83250000  1.0 0.1533178346
H  H121  1  0.88070000  0.25590000  0.32820000  1.0 0.1186952804
H  H122  1  0.80250000  0.63070000  0.12480000  1.0 0.1186952804
H  H123  1  0.50590000  0.67770000  0.87520000  1.0 0.1186952804
H  H124  1  0.92770000  0.55250000  0.67180000  1.0 0.1186952804
H  H125  1  0.36930000  0.49410000  0.17180000  1.0 0.1186952804
H  H126  1  0.44750000  0.11930000  0.37520000  1.0 0.1186952804
H  H127  1  0.74410000  0.07230000  0.62480000  1.0 0.1186952804
H  H128  1  0.32230000  0.19750000  0.82820000  1.0 0.1186952804
H  H129  1  0.82730000  0.40270000  0.31840000  1.0 0.138795605
H  H130  1  0.75890000  0.57730000  0.92460000  1.0 0.138795605
H  H131  1  0.65270000  0.83430000  0.07540000  1.0 0.138795605
H  H132  1  0.08430000  0.50890000  0.68160000  1.0 0.138795605
H  H133  1  0.42270000  0.34730000  0.18160000  1.0 0.138795605
H  H134  1  0.49110000  0.17270000  0.57540000  1.0 0.138795605
H  H135  1  0.59730000  0.91570000  0.42460000  1.0 0.138795605
H  H136  1  0.16570000  0.24110000  0.81840000  1.0 0.138795605
H  H137  1  0.93280000  0.55970000  0.31950000  1.0 0.1186952804
H  H138  1  0.86330000  0.68280000  0.87310000  1.0 0.1186952804
H  H139  1  0.80970000  0.99020000  0.12690000  1.0 0.1186952804
H  H140  1  0.24020000  0.61330000  0.68050000  1.0 0.1186952804
H  H141  1  0.31720000  0.19030000  0.18050000  1.0 0.1186952804
H  H142  1  0.38670000  0.06720000  0.62690000  1.0 0.1186952804
H  H143  1  0.44030000  0.75980000  0.37310000  1.0 0.1186952804
H  H144  1  0.00980000  0.13670000  0.81950000  1.0 0.1186952804
H  H145  1  0.15530000  0.68450000  0.28960000  1.0 0.0999887638
H  H146  1  0.11570000  0.90530000  0.97080000  1.0 0.0999887638
H  H147  1  0.93450000  0.14490000  0.02920000  1.0 0.0999887638
H  H148  1  0.39490000  0.86570000  0.71040000  1.0 0.0999887638
H  H149  1  0.09470000  0.06550000  0.21040000  1.0 0.0999887638
H  H150  1  0.13430000  0.84470000  0.52920000  1.0 0.0999887638
H  H151  1  0.31550000  0.60510000  0.47080000  1.0 0.0999887638
H  H152  1  0.85510000  0.88430000  0.78960000  1.0 0.0999887638
H  H153  1  0.06000000  0.53320000  0.29060000  1.0 0.138795605
H  H154  1  0.01940000  0.81000000  0.02680000  1.0 0.138795605
H  H155  1  0.78320000  0.99260000  0.97320000  1.0 0.138795605
H  H156  1  0.24260000  0.76940000  0.70940000  1.0 0.138795605
H  H157  1  0.19000000  0.21680000  0.20940000  1.0 0.138795605
H  H158  1  0.23060000  0.94000000  0.47320000  1.0 0.138795605
H  H159  1  0.46680000  0.75740000  0.52680000  1.0 0.138795605
H  H160  1  0.00740000  0.98060000  0.79060000  1.0 0.138795605
C  C1  1  0.41482000  0.91347000  0.37809000  1.0 0.0292340679
C  C2  1  0.28673000  0.16482000  0.00135000  1.0 0.0292340679
C  C3  1  0.16347000  0.28538000  0.99865000  1.0 0.0292340679
C  C4  1  0.53538000  0.03673000  0.62191000  1.0 0.0292340679
C  C5  1  0.83518000  0.83653000  0.12191000  1.0 0.0292340679
C  C6  1  0.96327000  0.58518000  0.49865000  1.0 0.0292340679
C  C7  1  0.08653000  0.46462000  0.50135000  1.0 0.0292340679
C  C8  1  0.71462000  0.71327000  0.87809000  1.0 0.0292340679
C  C9  1  0.39825000  0.85484000  0.35689000  1.0 -0.0889363238
C  C10  1  0.29136000  0.14825000  0.04341000  1.0 -0.0889363238
C  C11  1  0.10484000  0.24795000  0.95659000  1.0 -0.0889363238
C  C12  1  0.49795000  0.04136000  0.64311000  1.0 -0.0889363238
C  C13  1  0.85175000  0.89516000  0.14311000  1.0 -0.0889363238
C  C14  1  0.95864000  0.60175000  0.45659000  1.0 -0.0889363238
C  C15  1  0.14516000  0.50205000  0.54341000  1.0 -0.0889363238
C  C16  1  0.75205000  0.70864000  0.85689000  1.0 -0.0889363238
C  C17  1  0.30990000  0.75159000  0.36129000  1.0 -0.0592164792
C  C18  1  0.19861000  0.05990000  0.05831000  1.0 -0.0592164792
C  C19  1  0.00159000  0.14030000  0.94169000  1.0 -0.0592164792
C  C20  1  0.39030000  0.94861000  0.63871000  1.0 -0.0592164792
C  C21  1  0.94010000  0.99841000  0.13871000  1.0 -0.0592164792
C  C22  1  0.05139000  0.69010000  0.44169000  1.0 -0.0592164792
C  C23  1  0.24841000  0.60970000  0.55831000  1.0 -0.0592164792
C  C24  1  0.85970000  0.80139000  0.86129000  1.0 -0.0592164792
C  C25  1  0.24608000  0.71327000  0.38875000  1.0 -0.1245225413
C  C26  1  0.10733000  0.99608000  0.03281000  1.0 -0.1245225413
C  C27  1  0.96327000  0.07452000  0.96719000  1.0 -0.1245225413
C  C28  1  0.32452000  0.85733000  0.61125000  1.0 -0.1245225413
C  C29  1  0.00392000  0.03673000  0.11125000  1.0 -0.1245225413
C  C30  1  0.14267000  0.75392000  0.46719000  1.0 -0.1245225413
C  C31  1  0.28673000  0.67548000  0.53281000  1.0 -0.1245225413
C  C32  1  0.92548000  0.89267000  0.88875000  1.0 -0.1245225413
C  C33  1  0.26437000  0.76993000  0.41090000  1.0 -0.0889363238
C  C34  1  0.10347000  0.01437000  0.99444000  1.0 -0.0889363238
C  C35  1  0.01993000  0.10903000  0.00556000  1.0 -0.0889363238
C  C36  1  0.35903000  0.85347000  0.58910000  1.0 -0.0889363238
C  C37  1  0.98563000  0.98007000  0.08910000  1.0 -0.0889363238
C  C38  1  0.14653000  0.73563000  0.50556000  1.0 -0.0889363238
C  C39  1  0.23007000  0.64097000  0.49444000  1.0 -0.0889363238
C  C40  1  0.89097000  0.89653000  0.91090000  1.0 -0.0889363238
C  C41  1  0.34904000  0.87096000  0.40420000  1.0 -0.1313219586
C  C42  1  0.19484000  0.09904000  0.97808000  1.0 -0.1313219586
C  C43  1  0.12096000  0.21676000  0.02192000  1.0 -0.1313219586
C  C44  1  0.46676000  0.94484000  0.59580000  1.0 -0.1313219586
C  C45  1  0.90096000  0.87904000  0.09580000  1.0 -0.1313219586
C  C46  1  0.05516000  0.65096000  0.52192000  1.0 -0.1313219586
C  C47  1  0.12904000  0.53324000  0.47808000  1.0 -0.1313219586
C  C48  1  0.78324000  0.80516000  0.90420000  1.0 -0.1313219586
C  C49  1  0.50124000  0.02044000  0.37128000  1.0 0.0398507299
C  C50  1  0.37996000  0.25124000  0.98080000  1.0 0.0398507299
C  C51  1  0.27044000  0.39916000  0.01920000  1.0 0.0398507299
C  C52  1  0.64916000  0.12996000  0.62872000  1.0 0.0398507299
C  C53  1  0.74876000  0.72956000  0.12872000  1.0 0.0398507299
C  C54  1  0.87004000  0.49876000  0.51920000  1.0 0.0398507299
C  C55  1  0.97956000  0.35084000  0.48080000  1.0 0.0398507299
C  C56  1  0.60084000  0.62004000  0.87128000  1.0 0.0398507299
C  C57  1  0.47292000  0.03138000  0.34210000  1.0 -0.0990225784
C  C58  1  0.38082000  0.22292000  0.94154000  1.0 -0.0990225784
C  C59  1  0.28138000  0.43928000  0.05846000  1.0 -0.0990225784
C  C60  1  0.68928000  0.13082000  0.65790000  1.0 -0.0990225784
C  C61  1  0.77708000  0.71862000  0.15790000  1.0 -0.0990225784
C  C62  1  0.86918000  0.52708000  0.55846000  1.0 -0.0990225784
C  C63  1  0.96862000  0.31072000  0.44154000  1.0 -0.0990225784
C  C64  1  0.56072000  0.61918000  0.84210000  1.0 -0.0990225784
C  C65  1  0.55044000  0.13392000  0.33736000  1.0 -0.1095985307
C  C66  1  0.46308000  0.30044000  0.91652000  1.0 -0.1095985307
C  C67  1  0.38392000  0.54656000  0.08348000  1.0 -0.1095985307
C  C68  1  0.79656000  0.21308000  0.66264000  1.0 -0.1095985307
C  C69  1  0.69956000  0.61608000  0.16264000  1.0 -0.1095985307
C  C70  1  0.78692000  0.44956000  0.58348000  1.0 -0.1095985307
C  C71  1  0.86608000  0.20344000  0.41652000  1.0 -0.1095985307
C  C72  1  0.45344000  0.53692000  0.83736000  1.0 -0.1095985307
C  C73  1  0.64869000  0.21693000  0.36282000  1.0 -0.1095985307
C  C74  1  0.53587000  0.39869000  0.93176000  1.0 -0.1095985307
C  C75  1  0.46693000  0.60411000  0.06824000  1.0 -0.1095985307
C  C76  1  0.85411000  0.28587000  0.63718000  1.0 -0.1095985307
C  C77  1  0.60131000  0.53307000  0.13718000  1.0 -0.1095985307
C  C78  1  0.71413000  0.35131000  0.56824000  1.0 -0.1095985307
C  C79  1  0.78307000  0.14589000  0.43176000  1.0 -0.1095985307
C  C80  1  0.39589000  0.46413000  0.86282000  1.0 -0.1095985307
C  C81  1  0.67821000  0.20762000  0.39303000  1.0 -0.0990225784
C  C82  1  0.53518000  0.42821000  0.97059000  1.0 -0.0990225784
C  C83  1  0.45762000  0.56459000  0.02941000  1.0 -0.0990225784
C  C84  1  0.81459000  0.28518000  0.60697000  1.0 -0.0990225784
C  C85  1  0.57179000  0.54238000  0.10697000  1.0 -0.0990225784
C  C86  1  0.71482000  0.32179000  0.52941000  1.0 -0.0990225784
C  C87  1  0.79238000  0.18541000  0.47059000  1.0 -0.0990225784
C  C88  1  0.43541000  0.46482000  0.89303000  1.0 -0.0990225784
C  C89  1  0.60399000  0.10837000  0.39576000  1.0 -0.1313219586
C  C90  1  0.45823000  0.35399000  0.99562000  1.0 -0.1313219586
C  C91  1  0.35837000  0.46261000  0.00438000  1.0 -0.1313219586
C  C92  1  0.71261000  0.20823000  0.60424000  1.0 -0.1313219586
C  C93  1  0.64601000  0.64163000  0.10424000  1.0 -0.1313219586
C  C94  1  0.79177000  0.39601000  0.50438000  1.0 -0.1313219586
C  C95  1  0.89163000  0.28739000  0.49562000  1.0 -0.1313219586
C  C96  1  0.53739000  0.54177000  0.89576000  1.0 -0.1313219586
C  C97  1  0.28026000  0.68057000  0.33663000  1.0 0.5508808828
C  C98  1  0.19363000  0.03026000  0.09969000  1.0 0.5508808828
C  C99  1  0.93057000  0.09394000  0.90031000  1.0 0.5508808828
C  C100  1  0.34394000  0.94363000  0.66337000  1.0 0.5508808828
C  C101  1  0.96974000  0.06943000  0.16337000  1.0 0.5508808828
C  C102  1  0.05637000  0.71974000  0.40031000  1.0 0.5508808828
C  C103  1  0.31943000  0.65606000  0.59969000  1.0 0.5508808828
C  C104  1  0.90606000  0.80637000  0.83663000  1.0 0.5508808828
C  C105  1  0.47404000  0.90419000  0.32983000  1.0 0.5913304495
C  C106  1  0.39421000  0.22404000  0.06985000  1.0 0.5913304495
C  C107  1  0.15419000  0.32436000  0.93015000  1.0 0.5913304495
C  C108  1  0.57436000  0.14421000  0.67017000  1.0 0.5913304495
C  C109  1  0.77596000  0.84581000  0.17017000  1.0 0.5913304495
C  C110  1  0.85579000  0.52596000  0.43015000  1.0 0.5913304495
C  C111  1  0.09581000  0.42564000  0.56985000  1.0 0.5913304495
C  C112  1  0.67564000  0.60579000  0.82983000  1.0 0.5913304495
C  C113  1  0.36223000  0.93838000  0.31901000  1.0 0.5913304495
C  C114  1  0.29322000  0.11223000  0.92385000  1.0 0.5913304495
C  C115  1  0.18838000  0.36937000  0.07615000  1.0 0.5913304495
C  C116  1  0.61937000  0.04322000  0.68099000  1.0 0.5913304495
C  C117  1  0.88777000  0.81162000  0.18099000  1.0 0.5913304495
C  C118  1  0.95678000  0.63777000  0.57615000  1.0 0.5913304495
C  C119  1  0.06162000  0.38063000  0.42385000  1.0 0.5913304495
C  C120  1  0.63063000  0.70678000  0.81901000  1.0 0.5913304495
C  C121  1  0.52421000  0.14578000  0.30579000  1.0 0.5684413718
C  C122  1  0.46842000  0.27421000  0.87843000  1.0 0.5684413718
C  C123  1  0.39578000  0.58999000  0.12157000  1.0 0.5684413718
C  C124  1  0.83999000  0.21842000  0.69421000  1.0 0.5684413718
C  C125  1  0.72579000  0.60422000  0.19421000  1.0 0.5684413718
C  C126  1  0.78158000  0.47579000  0.62157000  1.0 0.5684413718
C  C127  1  0.85422000  0.16001000  0.37843000  1.0 0.5684413718
C  C128  1  0.41001000  0.53158000  0.80579000  1.0 0.5684413718
C  C129  1  0.99538000  0.39851000  0.19549000  1.0 -0.1401933742
C  C130  1  0.04989000  0.74538000  0.09687000  1.0 -0.1313219586
C  C131  1  0.64851000  0.95302000  0.90313000  1.0 -0.1401933742
C  C132  1  0.20302000  0.79989000  0.80451000  1.0 -0.1401933742
C  C133  1  0.25462000  0.35149000  0.30451000  1.0 -0.1401933742
C  C134  1  0.20011000  0.00462000  0.40313000  1.0 -0.1401933742
C  C135  1  0.60149000  0.79698000  0.59687000  1.0 -0.1401933742
C  C136  1  0.04698000  0.95011000  0.69549000  1.0 -0.1401933742
C  C137  1  0.01326000  0.36896000  0.18122000  1.0 -0.0018052251
C  C138  1  0.08204000  0.76326000  0.14430000  1.0 -0.0018052251
C  C139  1  0.61896000  0.93774000  0.85570000  1.0 -0.0018052251
C  C140  1  0.18774000  0.83204000  0.81878000  1.0 -0.0018052251
C  C141  1  0.23674000  0.38104000  0.31878000  1.0 -0.0018052251
C  C142  1  0.16796000  0.98674000  0.35570000  1.0 -0.0018052251
C  C143  1  0.63104000  0.81226000  0.64430000  1.0 -0.0018052251
C  C144  1  0.06226000  0.91796000  0.68122000  1.0 -0.0018052251
C  C145  1  0.93435000  0.26857000  0.16852000  1.0 -0.0592164792
C  C146  1  0.01583000  0.68435000  0.16578000  1.0 -0.0592164792
C  C147  1  0.51857000  0.85005000  0.83422000  1.0 -0.0592164792
C  C148  1  0.10005000  0.76583000  0.83148000  1.0 -0.0592164792
C  C149  1  0.31565000  0.48143000  0.33148000  1.0 -0.0592164792
C  C150  1  0.23417000  0.06565000  0.33422000  1.0 -0.0592164792
C  C151  1  0.73143000  0.89995000  0.66578000  1.0 -0.0592164792
C  C152  1  0.14995000  0.98417000  0.66852000  1.0 -0.0592164792
C  C153  1  0.82979000  0.18801000  0.16580000  1.0 0.0655628046
C  C154  1  0.91399000  0.57979000  0.14178000  1.0 0.0655628046
C  C155  1  0.43801000  0.77221000  0.85822000  1.0 0.0655628046
C  C156  1  0.02221000  0.66399000  0.83420000  1.0 0.0655628046
C  C157  1  0.42021000  0.56199000  0.33420000  1.0 0.0655628046
C  C158  1  0.33601000  0.17021000  0.35822000  1.0 0.0655628046
C  C159  1  0.81199000  0.97779000  0.64178000  1.0 0.0655628046
C  C160  1  0.22779000  0.08601000  0.66580000  1.0 0.0655628046
C  C161  1  0.81127000  0.21397000  0.18164000  1.0 -0.1489500632
C  C162  1  0.87963000  0.56127000  0.09730000  1.0 -0.1489500632
C  C163  1  0.46397000  0.78233000  0.90270000  1.0 -0.1489500632
C  C164  1  0.03233000  0.62963000  0.81836000  1.0 -0.1489500632
C  C165  1  0.43873000  0.53603000  0.31836000  1.0 -0.1489500632
C  C166  1  0.37037000  0.18873000  0.40270000  1.0 -0.1489500632
C  C167  1  0.78603000  0.96767000  0.59730000  1.0 -0.1489500632
C  C168  1  0.21767000  0.12037000  0.68164000  1.0 -0.1489500632
C  C169  1  0.89673000  0.32306000  0.19899000  1.0 -0.1095985307
C  C170  1  0.94774000  0.64673000  0.07367000  1.0 -0.1095985307
C  C171  1  0.57306000  0.87407000  0.92633000  1.0 -0.1095985307
C  C172  1  0.12407000  0.69774000  0.80101000  1.0 -0.1095985307
C  C173  1  0.35327000  0.42694000  0.30101000  1.0 -0.1095985307
C  C174  1  0.30226000  0.10327000  0.42633000  1.0 -0.1095985307
C  C175  1  0.67694000  0.87593000  0.57367000  1.0 -0.1095985307
C  C176  1  0.12593000  0.05226000  0.69899000  1.0 -0.1095985307
C  C177  1  0.57176000  0.89037000  0.13153000  1.0 0.0085222527
C  C178  1  0.69023000  0.32176000  0.18139000  1.0 0.0085222527
C  C179  1  0.14037000  0.50884000  0.81861000  1.0 0.0085222527
C  C180  1  0.75884000  0.44023000  0.86847000  1.0 0.0085222527
C  C181  1  0.67824000  0.85963000  0.36847000  1.0 0.0085222527
C  C182  1  0.55977000  0.42824000  0.31861000  1.0 0.0085222527
C  C183  1  0.10963000  0.24116000  0.68139000  1.0 0.0085222527
C  C184  1  0.49116000  0.30977000  0.63153000  1.0 0.0085222527
C  C185  1  0.65874000  0.99414000  0.16008000  1.0 -0.0732494663
C  C186  1  0.74866000  0.40874000  0.16460000  1.0 -0.0732494663
C  C187  1  0.24414000  0.58406000  0.83540000  1.0 -0.0732494663
C  C188  1  0.83406000  0.49866000  0.83992000  1.0 -0.0732494663
C  C189  1  0.59126000  0.75586000  0.33992000  1.0 -0.0732494663
C  C190  1  0.50134000  0.34126000  0.33540000  1.0 -0.0732494663
C  C191  1  0.00586000  0.16594000  0.66460000  1.0 -0.0732494663
C  C192  1  0.41594000  0.25134000  0.66008000  1.0 -0.0732494663
C  C193  1  0.73985000  0.07725000  0.14150000  1.0 0.0582093219
C  C194  1  0.84835000  0.48985000  0.16260000  1.0 0.0582093219
C  C195  1  0.32725000  0.68575000  0.83740000  1.0 0.0582093219
C  C196  1  0.93575000  0.59835000  0.85850000  1.0 0.0582093219
C  C197  1  0.51015000  0.67275000  0.35850000  1.0 0.0582093219
C  C198  1  0.40165000  0.26015000  0.33740000  1.0 0.0582093219
C  C199  1  0.92275000  0.06425000  0.66260000  1.0 0.0582093219
C  C200  1  0.31425000  0.15165000  0.64150000  1.0 0.0582093219
C  C201  1  0.74183000  0.06670000  0.09653000  1.0 -0.1489500632
C  C202  1  0.89530000  0.49183000  0.17513000  1.0 -0.1489500632
C  C203  1  0.31670000  0.72017000  0.82487000  1.0 -0.1489500632
C  C204  1  0.97017000  0.64530000  0.90347000  1.0 -0.1489500632
C  C205  1  0.50817000  0.68330000  0.40347000  1.0 -0.1489500632
C  C206  1  0.35470000  0.25817000  0.32487000  1.0 -0.1489500632
C  C207  1  0.93330000  0.02983000  0.67513000  1.0 -0.1489500632
C  C208  1  0.27983000  0.10470000  0.59653000  1.0 -0.1489500632
C  C209  1  0.65770000  0.96775000  0.06765000  1.0 -0.0990225784
C  C210  1  0.84005000  0.40770000  0.18995000  1.0 -0.0990225784
C  C211  1  0.21775000  0.65010000  0.81005000  1.0 -0.0990225784
C  C212  1  0.90010000  0.59005000  0.93235000  1.0 -0.0990225784
C  C213  1  0.59230000  0.78225000  0.43235000  1.0 -0.0990225784
C  C214  1  0.40995000  0.34230000  0.31005000  1.0 -0.0990225784
C  C215  1  0.03225000  0.09990000  0.68995000  1.0 -0.0990225784
C  C216  1  0.34990000  0.15995000  0.56765000  1.0 -0.0990225784
C  C217  1  0.57089000  0.87780000  0.08549000  1.0 -0.1401933742
C  C218  1  0.73540000  0.32089000  0.19309000  1.0 -0.1401933742
C  C219  1  0.12780000  0.54231000  0.80691000  1.0 -0.1401933742
C  C220  1  0.79231000  0.48540000  0.91451000  1.0 -0.1401933742
C  C221  1  0.67911000  0.87220000  0.41451000  1.0 -0.1401933742
C  C222  1  0.51460000  0.42911000  0.30691000  1.0 -0.1401933742
C  C223  1  0.12220000  0.20769000  0.69309000  1.0 -0.1401933742
C  C224  1  0.45769000  0.26460000  0.58549000  1.0 -0.1401933742
C  C225  1  0.12345000  0.45440000  0.18105000  1.0 0.5684413718
C  C226  1  0.19240000  0.87345000  0.16905000  1.0 0.5684413718
C  C227  1  0.70440000  0.02335000  0.83095000  1.0 0.5684413718
C  C228  1  0.27335000  0.94240000  0.81895000  1.0 0.5684413718
C  C229  1  0.12655000  0.29560000  0.31895000  1.0 0.5684413718
C  C230  1  0.05760000  0.87655000  0.33095000  1.0 0.5684413718
C  C231  1  0.54560000  0.72665000  0.66905000  1.0 0.5684413718
C  C232  1  0.97665000  0.80760000  0.68105000  1.0 0.5684413718
C  C233  1  0.95994000  0.24335000  0.15549000  1.0 0.5508808828
C  C234  1  0.05445000  0.70994000  0.21659000  1.0 0.5508808828
C  C235  1  0.49335000  0.83786000  0.78341000  1.0 0.5508808828
C  C236  1  0.08786000  0.80445000  0.84451000  1.0 0.5508808828
C  C237  1  0.29006000  0.50665000  0.34451000  1.0 0.5508808828
C  C238  1  0.19555000  0.04006000  0.28341000  1.0 0.5508808828
C  C239  1  0.75665000  0.91214000  0.71659000  1.0 0.5508808828
C  C240  1  0.16214000  0.94555000  0.65549000  1.0 0.5508808828
C  C241  1  0.65035000  0.99900000  0.20895000  1.0 0.55565248
C  C242  1  0.69140000  0.40035000  0.15135000  1.0 0.55565248
C  C243  1  0.24900000  0.54005000  0.84865000  1.0 0.55565248
C  C244  1  0.79005000  0.44140000  0.79105000  1.0 0.55565248
C  C245  1  0.59965000  0.75100000  0.29105000  1.0 0.55565248
C  C246  1  0.55860000  0.34965000  0.34865000  1.0 0.5508808828
C  C247  1  0.00100000  0.20995000  0.65135000  1.0 0.55565248
C  C248  1  0.45995000  0.30860000  0.70895000  1.0 0.55565248
C  C249  1  0.48786000  0.79616000  0.15242000  1.0 0.538863148
C  C250  1  0.58544000  0.23786000  0.19170000  1.0 0.538863148
C  C251  1  0.04616000  0.39374000  0.80830000  1.0 0.538863148
C  C252  1  0.64374000  0.33544000  0.84758000  1.0 0.538863148
C  C253  1  0.76214000  0.95384000  0.34758000  1.0 0.538863148
C  C254  1  0.66456000  0.51214000  0.30830000  1.0 0.538863148
C  C255  1  0.20384000  0.35626000  0.69170000  1.0 0.538863148
C  C256  1  0.60626000  0.41456000  0.65242000  1.0 0.538863148
C  C257  1  0.70524000  0.16540000  0.28984000  1.0 0.1186952804
C  C258  1  0.66540000  0.45524000  0.03984000  1.0 0.1186952804
C  C259  1  0.41540000  0.62556000  0.96016000  1.0 0.1186952804
C  C260  1  0.87556000  0.41540000  0.71016000  1.0 0.1186952804
C  C261  1  0.54476000  0.58460000  0.21016000  1.0 0.1186952804
C  C262  1  0.58460000  0.29476000  0.46016000  1.0 0.1186952804
C  C263  1  0.83460000  0.12444000  0.53984000  1.0 0.1186952804
C  C264  1  0.37444000  0.33460000  0.78984000  1.0 0.1186952804
C  C265  1  0.76248000  0.25682000  0.28990000  1.0 -0.2035556329
C  C266  1  0.72258000  0.51248000  0.00566000  1.0 -0.2035556329
C  C267  1  0.50682000  0.71692000  0.99434000  1.0 -0.2035556329
C  C268  1  0.96692000  0.47258000  0.71010000  1.0 -0.2035556329
C  C269  1  0.48752000  0.49318000  0.21010000  1.0 -0.2035556329
C  C270  1  0.52742000  0.23752000  0.49434000  1.0 -0.2035556329
C  C271  1  0.74318000  0.03308000  0.50566000  1.0 -0.2035556329
C  C272  1  0.28308000  0.27742000  0.78990000  1.0 -0.2035556329
C  C273  1  0.87039000  0.35186000  0.30445000  1.0 0.1186952804
C  C274  1  0.81594000  0.62039000  0.01853000  1.0 0.1186952804
C  C275  1  0.60186000  0.79741000  0.98147000  1.0 0.1186952804
C  C276  1  0.04741000  0.56594000  0.69555000  1.0 0.1186952804
C  C277  1  0.37961000  0.39814000  0.19555000  1.0 0.1186952804
C  C278  1  0.43406000  0.12961000  0.48147000  1.0 0.1186952804
C  C279  1  0.64814000  0.95259000  0.51853000  1.0 0.1186952804
C  C280  1  0.20259000  0.18406000  0.80445000  1.0 0.1186952804
C  C281  1  0.91774000  0.35219000  0.32113000  1.0 -0.1808505704
C  C282  1  0.84661000  0.66774000  0.06555000  1.0 -0.1808505704
C  C283  1  0.60219000  0.78106000  0.93445000  1.0 -0.1808505704
C  C284  1  0.03106000  0.59661000  0.67887000  1.0 -0.1808505704
C  C285  1  0.33226000  0.39781000  0.17887000  1.0 -0.1808505704
C  C286  1  0.40339000  0.08226000  0.43445000  1.0 -0.1808505704
C  C287  1  0.64781000  0.96894000  0.56555000  1.0 -0.1808505704
C  C288  1  0.21894000  0.15339000  0.82113000  1.0 -0.1808505704
C  C289  1  0.85190000  0.25787000  0.31917000  1.0 0.0794368567
C  C290  1  0.78273000  0.60190000  0.09403000  1.0 0.0794368567
C  C291  1  0.50787000  0.68870000  0.90597000  1.0 0.0794368567
C  C292  1  0.93870000  0.53273000  0.68083000  1.0 0.0794368567
C  C293  1  0.39810000  0.49213000  0.18083000  1.0 0.0794368567
C  C294  1  0.46727000  0.14810000  0.40597000  1.0 0.0794368567
C  C295  1  0.74213000  0.06130000  0.59403000  1.0 0.0794368567
C  C296  1  0.31130000  0.21727000  0.81917000  1.0 0.0794368567
C  C297  1  0.93603000  0.45312000  0.30615000  1.0 0.0999887638
C  C298  1  0.87988000  0.68603000  0.98291000  1.0 0.0999887638
C  C299  1  0.70312000  0.89697000  0.01709000  1.0 0.0999887638
C  C300  1  0.14697000  0.62988000  0.69385000  1.0 0.0999887638
C  C301  1  0.31397000  0.29688000  0.19385000  1.0 0.0999887638
C  C302  1  0.37012000  0.06397000  0.51709000  1.0 0.0999887638
C  C303  1  0.54688000  0.85303000  0.48291000  1.0 0.0999887638
C  C304  1  0.10303000  0.12012000  0.80615000  1.0 0.0999887638
C  C305  1  0.89450000  0.45957000  0.31367000  1.0 -0.1808505704
C  C306  1  0.83083000  0.64450000  0.93493000  1.0 -0.1808505704
C  C307  1  0.70957000  0.89590000  0.06507000  1.0 -0.1808505704
C  C308  1  0.14590000  0.58083000  0.68633000  1.0 -0.1808505704
C  C309  1  0.35550000  0.29043000  0.18633000  1.0 -0.1808505704
C  C310  1  0.41917000  0.10550000  0.56507000  1.0 -0.1808505704
C  C311  1  0.54043000  0.85410000  0.43493000  1.0 -0.1808505704
C  C312  1  0.10410000  0.16917000  0.81367000  1.0 -0.1808505704
C  C313  1  0.95823000  0.55392000  0.31355000  1.0 0.1138004767
C  C314  1  0.89468000  0.70823000  0.90431000  1.0 0.1138004767
C  C315  1  0.80392000  0.99037000  0.09569000  1.0 0.1138004767
C  C316  1  0.24037000  0.64468000  0.68645000  1.0 0.1138004767
C  C317  1  0.29177000  0.19608000  0.18645000  1.0 0.1138004767
C  C318  1  0.35532000  0.04177000  0.59569000  1.0 0.1138004767
C  C319  1  0.44608000  0.75963000  0.40431000  1.0 0.1138004767
C  C320  1  0.00963000  0.10532000  0.81355000  1.0 0.1138004767
C  C321  1  0.08967000  0.62789000  0.29636000  1.0 0.0999887638
C  C322  1  0.04331000  0.83967000  0.96178000  1.0 0.0999887638
C  C323  1  0.87789000  0.08153000  0.03822000  1.0 0.0999887638
C  C324  1  0.33153000  0.79331000  0.70364000  1.0 0.0999887638
C  C325  1  0.16033000  0.12211000  0.20364000  1.0 0.0999887638
C  C326  1  0.20669000  0.91033000  0.53822000  1.0 0.0999887638
C  C327  1  0.37211000  0.66847000  0.46178000  1.0 0.0999887638
C  C328  1  0.91847000  0.95669000  0.79636000  1.0 0.0999887638
C  C329  1  0.03236000  0.53656000  0.29672000  1.0 -0.1808505704
C  C330  1  0.98564000  0.78236000  0.99580000  1.0 -0.1808505704
C  C331  1  0.78656000  0.98984000  0.00420000  1.0 -0.1808505704
C  C332  1  0.23984000  0.73564000  0.70328000  1.0 -0.1808505704
C  C333  1  0.21764000  0.21344000  0.20328000  1.0 -0.1808505704
C  C334  1  0.26436000  0.96764000  0.50420000  1.0 -0.1808505704
C  C335  1  0.46344000  0.76016000  0.49580000  1.0 -0.1808505704
C  C336  1  0.01016000  0.01436000  0.79672000  1.0 -0.1808505704
N  N1  1  0.74699000  0.16581000  0.30500000  1.0 -0.2339099334
N  N2  1  0.69199000  0.49699000  0.08118000  1.0 -0.2339099334
N  N3  1  0.41581000  0.61081000  0.91882000  1.0 -0.2339099334
N  N4  1  0.86081000  0.44199000  0.69500000  1.0 -0.2339099334
N  N5  1  0.50301000  0.58419000  0.19500000  1.0 -0.2339099334
N  N6  1  0.55801000  0.25301000  0.41882000  1.0 -0.2339099334
N  N7  1  0.83419000  0.13919000  0.58118000  1.0 -0.2339099334
N  N8  1  0.38919000  0.30801000  0.80500000  1.0 -0.2339099334
N  N9  1  0.05330000  0.63648000  0.30538000  1.0 -0.2386060102
N  N10  1  0.99792000  0.80330000  0.91682000  1.0 -0.2386060102
N  N11  1  0.88648000  0.08110000  0.08318000  1.0 -0.2386060102
N  N12  1  0.33110000  0.74792000  0.69462000  1.0 -0.2386060102
N  N13  1  0.19670000  0.11352000  0.19462000  1.0 -0.2386060102
N  N14  1  0.25208000  0.94670000  0.58318000  1.0 -0.2386060102
N  N15  1  0.36352000  0.66890000  0.41682000  1.0 -0.2386060102
N  N16  1  0.91890000  0.00208000  0.80538000  1.0 -0.2386060102
O  O1  1  0.47616000  0.92143000  0.29019000  1.0 -0.6129837973
O  O2  1  0.43597000  0.22616000  0.05473000  1.0 -0.6129837973
O  O3  1  0.17143000  0.38124000  0.94527000  1.0 -0.6129837973
O  O4  1  0.63124000  0.18597000  0.70981000  1.0 -0.6129837973
O  O5  1  0.77384000  0.82857000  0.20981000  1.0 -0.6129837973
O  O6  1  0.81403000  0.52384000  0.44527000  1.0 -0.6129837973
O  O7  1  0.07857000  0.36876000  0.55473000  1.0 -0.6129837973
O  O8  1  0.61876000  0.56403000  0.79019000  1.0 -0.6129837973
O  O9  1  0.53957000  0.93582000  0.34839000  1.0 -0.5120703872
O  O10  1  0.44118000  0.28957000  0.10375000  1.0 -0.5120703872
O  O11  1  0.18582000  0.33743000  0.89625000  1.0 -0.5120703872
O  O12  1  0.58743000  0.19118000  0.65161000  1.0 -0.5120703872
O  O13  1  0.71043000  0.81418000  0.15161000  1.0 -0.5120703872
O  O14  1  0.80882000  0.46043000  0.39625000  1.0 -0.5120703872
O  O15  1  0.06418000  0.41257000  0.60375000  1.0 -0.5120703872
O  O16  1  0.66257000  0.55882000  0.84839000  1.0 -0.5120703872
O  O17  1  0.31011000  0.69754000  0.29965000  1.0 -0.5120703872
O  O18  1  0.26046000  0.06011000  0.11257000  1.0 -0.5120703872
O  O19  1  0.94754000  0.14789000  0.88743000  1.0 -0.5120703872
O  O20  1  0.39789000  0.01046000  0.70035000  1.0 -0.5120703872
O  O21  1  0.93989000  0.05246000  0.20035000  1.0 -0.5120703872
O  O22  1  0.98954000  0.68989000  0.38743000  1.0 -0.5120703872
O  O23  1  0.30246000  0.60211000  0.61257000  1.0 -0.5120703872
O  O24  1  0.85211000  0.73954000  0.79965000  1.0 -0.5120703872
O  O25  1  0.22306000  0.60357000  0.35183000  1.0 -0.5567642791
O  O26  1  0.12123000  0.97306000  0.11949000  1.0 -0.5567642791
O  O27  1  0.85357000  0.00174000  0.88051000  1.0 -0.5567642791
O  O28  1  0.25174000  0.87123000  0.64817000  1.0 -0.5567642791
O  O29  1  0.02694000  0.14643000  0.14817000  1.0 -0.5567642791
O  O30  1  0.12877000  0.77694000  0.38051000  1.0 -0.5567642791
O  O31  1  0.39643000  0.74826000  0.61949000  1.0 -0.5567642791
O  O32  1  0.99826000  0.87877000  0.85183000  1.0 -0.5567642791
O  O33  1  0.31493000  0.86867000  0.28940000  1.0 -0.5490451982
O  O34  1  0.27553000  0.06493000  0.94626000  1.0 -0.5490451982
O  O35  1  0.11867000  0.32927000  0.05374000  1.0 -0.5490451982
O  O36  1  0.57927000  0.02553000  0.71060000  1.0 -0.5490451982
O  O37  1  0.93507000  0.88133000  0.21060000  1.0 -0.5490451982
O  O38  1  0.97447000  0.68507000  0.55374000  1.0 -0.5490451982
O  O39  1  0.13133000  0.42073000  0.44626000  1.0 -0.5490451982
O  O40  1  0.67073000  0.72447000  0.78940000  1.0 -0.5490451982
O  O41  1  0.31957000  0.93277000  0.33634000  1.0 -0.5120703872
O  O42  1  0.23323000  0.06957000  0.88680000  1.0 -0.5120703872
O  O43  1  0.18277000  0.34643000  0.11320000  1.0 -0.5120703872
O  O44  1  0.59643000  0.98323000  0.66366000  1.0 -0.5120703872
O  O45  1  0.93043000  0.81723000  0.16366000  1.0 -0.5120703872
O  O46  1  0.01677000  0.68043000  0.61320000  1.0 -0.5120703872
O  O47  1  0.06723000  0.40357000  0.38680000  1.0 -0.5120703872
O  O48  1  0.65357000  0.76677000  0.83634000  1.0 -0.5120703872
O  O49  1  0.45417000  0.07587000  0.26824000  1.0 -0.5214284753
O  O50  1  0.43593000  0.20417000  0.87830000  1.0 -0.5214284753
O  O51  1  0.32587000  0.55763000  0.12170000  1.0 -0.5214284753
O  O52  1  0.80763000  0.18593000  0.73176000  1.0 -0.5214284753
O  O53  1  0.79583000  0.67413000  0.23176000  1.0 -0.5214284753
O  O54  1  0.81407000  0.54583000  0.62170000  1.0 -0.5214284753
O  O55  1  0.92413000  0.19237000  0.37830000  1.0 -0.5214284753
O  O56  1  0.44237000  0.56407000  0.76824000  1.0 -0.5214284753
O  O57  1  0.56820000  0.22254000  0.31514000  1.0 -0.5380845858
O  O58  1  0.50306000  0.31820000  0.84566000  1.0 -0.5380845858
O  O59  1  0.47254000  0.65740000  0.15434000  1.0 -0.5380845858
O  O60  1  0.90740000  0.25306000  0.68486000  1.0 -0.5380845858
O  O61  1  0.68180000  0.52746000  0.18486000  1.0 -0.5380845858
O  O62  1  0.74694000  0.43180000  0.65434000  1.0 -0.5380845858
O  O63  1  0.77746000  0.09260000  0.34566000  1.0 -0.5380845858
O  O64  1  0.34260000  0.49694000  0.81514000  1.0 -0.5380845858
O  O65  1  0.93417000  0.18865000  0.17642000  1.0 -0.495276036
O  O66  1  0.00775000  0.68417000  0.24552000  1.0 -0.495276036
O  O67  1  0.43865000  0.76223000  0.75448000  1.0 -0.495276036
O  O68  1  0.01223000  0.75775000  0.82358000  1.0 -0.495276036
O  O69  1  0.31583000  0.56135000  0.32358000  1.0 -0.495276036
O  O70  1  0.24225000  0.06583000  0.25448000  1.0 -0.4946585191
O  O71  1  0.81135000  0.98777000  0.74552000  1.0 -0.495276036
O  O72  1  0.23777000  0.99225000  0.67642000  1.0 -0.495276036
O  O73  1  0.01267000  0.28487000  0.12414000  1.0 -0.5490451982
O  O74  1  0.13853000  0.76267000  0.22780000  1.0 -0.5490451982
O  O75  1  0.53487000  0.91073000  0.77220000  1.0 -0.5490451982
O  O76  1  0.16073000  0.88853000  0.87586000  1.0 -0.5490451982
O  O77  1  0.23733000  0.46513000  0.37586000  1.0 -0.5490451982
O  O78  1  0.11147000  0.98733000  0.27220000  1.0 -0.5490451982
O  O79  1  0.71513000  0.83927000  0.72780000  1.0 -0.5490451982
O  O80  1  0.08927000  0.86147000  0.62414000  1.0 -0.5490451982
O  O81  1  0.16734000  0.46536000  0.20930000  1.0 -0.5214284753
O  O82  1  0.20804000  0.91734000  0.20198000  1.0 -0.5214284753
O  O83  1  0.71536000  0.00606000  0.79802000  1.0 -0.5214284753
O  O84  1  0.25606000  0.95804000  0.79070000  1.0 -0.5214284753
O  O85  1  0.08266000  0.28464000  0.29070000  1.0 -0.5214284753
O  O86  1  0.04196000  0.83266000  0.29802000  1.0 -0.5214284753
O  O87  1  0.53464000  0.74394000  0.70198000  1.0 -0.5214284753
O  O88  1  0.99394000  0.79196000  0.70930000  1.0 -0.5214284753
O  O89  1  0.17039000  0.51263000  0.15242000  1.0 -0.5214284753
O  O90  1  0.26797000  0.92039000  0.15776000  1.0 -0.5214284753
O  O91  1  0.76263000  0.11021000  0.84224000  1.0 -0.5214284753
O  O92  1  0.36021000  0.01797000  0.84758000  1.0 -0.5120703872
O  O93  1  0.07961000  0.23737000  0.34758000  1.0 -0.5120703872
O  O94  1  0.98203000  0.82961000  0.34224000  1.0 -0.5120703872
O  O95  1  0.48737000  0.63979000  0.65776000  1.0 -0.5214284753
O  O96  1  0.88979000  0.73203000  0.65242000  1.0 -0.5214284753
O  O97  1  0.57069000  0.94395000  0.21704000  1.0 -0.5214284753
O  O98  1  0.60365000  0.32069000  0.12674000  1.0 -0.5214284753
O  O99  1  0.19395000  0.47691000  0.87326000  1.0 -0.5214284753
O  O100  1  0.72691000  0.35365000  0.78296000  1.0 -0.5214284753
O  O101  1  0.67931000  0.80605000  0.28296000  1.0 -0.5214284753
O  O102  1  0.64635000  0.42931000  0.37326000  1.0 -0.5214284753
O  O103  1  0.05605000  0.27309000  0.62674000  1.0 -0.5214284753
O  O104  1  0.52309000  0.39635000  0.71704000  1.0 -0.5214284753
O  O105  1  0.72837000  0.06017000  0.24074000  1.0 -0.5214284753
O  O106  1  0.73763000  0.47837000  0.16820000  1.0 -0.5214284753
O  O107  1  0.31017000  0.56943000  0.83180000  1.0 -0.5214284753
O  O108  1  0.81943000  0.48763000  0.75926000  1.0 -0.5214284753
O  O109  1  0.52163000  0.68983000  0.25926000  1.0 -0.5214284753
O  O110  1  0.51237000  0.27163000  0.33180000  1.0 -0.5214284753
O  O111  1  0.93983000  0.18057000  0.66820000  1.0 -0.5214284753
O  O112  1  0.43057000  0.26237000  0.74074000  1.0 -0.5214284753
O  O113  1  0.39485000  0.72083000  0.13148000  1.0 -0.5120703872
O  O114  1  0.51337000  0.14485000  0.17402000  1.0 -0.5120703872
O  O115  1  0.97083000  0.33935000  0.82598000  1.0 -0.5120703872
O  O116  1  0.58935000  0.26337000  0.86852000  1.0 -0.5120703872
O  O117  1  0.85515000  0.02917000  0.36852000  1.0 -0.5120703872
O  O118  1  0.73663000  0.60515000  0.32598000  1.0 -0.5120703872
O  O119  1  0.27917000  0.41065000  0.67402000  1.0 -0.5120703872
O  O120  1  0.66065000  0.48663000  0.63148000  1.0 -0.5120703872
O  O121  1  0.50859000  0.79096000  0.18475000  1.0 -0.4791879212
O  O122  1  0.57384000  0.25859000  0.21763000  1.0 -0.4791879212
O  O123  1  0.04096000  0.35621000  0.78237000  1.0 -0.4791879212
O  O124  1  0.60621000  0.32384000  0.81525000  1.0 -0.4791879212
O  O125  1  0.74141000  0.95904000  0.31525000  1.0 -0.4791879212
O  O126  1  0.67616000  0.49141000  0.28237000  1.0 -0.4791879212
O  O127  1  0.20904000  0.39379000  0.71763000  1.0 -0.4791879212
O  O128  1  0.64379000  0.42616000  0.68475000  1.0 -0.4791879212
