# DDEC6 charges by PACMAN v1.1 (https://github.com/mtap-research/PACMAN-charge/)
data_NEXXEV_FSR_pacman
_symmetry_space_group_name_H-M   'P 1'
_cell_length_a   21.26420000
_cell_length_b   21.26420000
_cell_length_c   21.26420000
_cell_angle_alpha   144.64300000
_cell_angle_beta   95.32420000
_cell_angle_gamma   95.25860000
_symmetry_Int_Tables_number   1
_chemical_formula_structural   Li4H21C36(NO4)3
_chemical_formula_sum   'Li16 H84 C144 N12 O48'
_cell_volume   5301.11186976
_cell_formula_units_Z   4
loop_
 _symmetry_equiv_pos_site_id
 _symmetry_equiv_pos_as_xyz
  1  'x, y, z'
loop_
 _atom_site_type_symbol
 _atom_site_label
 _atom_site_symmetry_multiplicity
 _atom_site_fract_x
 _atom_site_fract_y
 _atom_site_fract_z
 _atom_site_occupancy
 _atom_site_charge
Li  Li1  1  0.99595000  0.51900000  0.08075000  1.0 0.8063435151
Li  Li2  1  0.00405000  0.08480000  0.52305000  1.0 0.8063435151
Li  Li3  1  0.43825000  0.01900000  0.02305000  1.0 0.8063435151
Li  Li4  1  0.56175000  0.58480000  0.58075000  1.0 0.8063435151
Li  Li5  1  0.48245000  0.67135000  0.72050000  1.0 0.8063435151
Li  Li6  1  0.51755000  0.23805000  0.18890000  1.0 0.8063435151
Li  Li7  1  0.95085000  0.17135000  0.68890000  1.0 0.8063435151
Li  Li8  1  0.04915000  0.73805000  0.22050000  1.0 0.8063435151
Li  Li9  1  0.52217000  0.88977000  0.93420000  1.0 0.8163053735
Li  Li10  1  0.47783000  0.41203000  0.36760000  1.0 0.8163053735
Li  Li11  1  0.95557000  0.38977000  0.86760000  1.0 0.8163053735
Li  Li12  1  0.04443000  0.91203000  0.43420000  1.0 0.8163053735
Li  Li13  1  0.69410000  0.65340000  0.64390000  1.0 0.8800923968
Li  Li14  1  0.30590000  0.94980000  0.95930000  1.0 0.8800923968
Li  Li15  1  0.00950000  0.15340000  0.45930000  1.0 0.8800923968
Li  Li16  1  0.99050000  0.44980000  0.14390000  1.0 0.8886978372
H  H1  1  0.61020000  0.85010000  0.00290000  1.0 0.1301092048
H  H2  1  0.38980000  0.39270000  0.23990000  1.0 0.1301092048
H  H3  1  0.84720000  0.35010000  0.73990000  1.0 0.1301092048
H  H4  1  0.15280000  0.89270000  0.50290000  1.0 0.1301092048
H  H5  1  0.68120000  0.90310000  0.13990000  1.0 0.1371717422
H  H6  1  0.31880000  0.45870000  0.22190000  1.0 0.1371717422
H  H7  1  0.76320000  0.40310000  0.72190000  1.0 0.1301092048
H  H8  1  0.23680000  0.95870000  0.63990000  1.0 0.1301092048
H  H9  1  0.82020000  0.80390000  0.97590000  1.0 0.1301092048
H  H10  1  0.17980000  0.15570000  0.98370000  1.0 0.1301092048
H  H11  1  0.82800000  0.30390000  0.48370000  1.0 0.1301092048
H  H12  1  0.17200000  0.65570000  0.47590000  1.0 0.1301092048
H  H13  1  0.74810000  0.74610000  0.83640000  1.0 0.1301092048
H  H14  1  0.25190000  0.08830000  0.99800000  1.0 0.1301092048
H  H15  1  0.90970000  0.24610000  0.49800000  1.0 0.1301092048
H  H16  1  0.09030000  0.58830000  0.33640000  1.0 0.1301092048
H  H17  1  0.93540000  0.81470000  0.24390000  1.0 0.1301092048
H  H18  1  0.06460000  0.30850000  0.87930000  1.0 0.1301092048
H  H19  1  0.57080000  0.31470000  0.37930000  1.0 0.1301092048
H  H20  1  0.42920000  0.80850000  0.74390000  1.0 0.1301092048
H  H21  1  0.89060000  0.93840000  0.28740000  1.0 0.1483572579
H  H22  1  0.10940000  0.39680000  0.04780000  1.0 0.1483572579
H  H23  1  0.65100000  0.43840000  0.54780000  1.0 0.1483572579
H  H24  1  0.34900000  0.89680000  0.78740000  1.0 0.1483572579
H  H25  1  0.77940000  0.67280000  0.95780000  1.0 0.1301092048
H  H26  1  0.22060000  0.17840000  0.89340000  1.0 0.1301092048
H  H27  1  0.71500000  0.17280000  0.39340000  1.0 0.1301092048
H  H28  1  0.28500000  0.67840000  0.45780000  1.0 0.1301092048
H  H29  1  0.82860000  0.55410000  0.91590000  1.0 0.1207997028
H  H30  1  0.17140000  0.08730000  0.72550000  1.0 0.1207997028
H  H31  1  0.63820000  0.05410000  0.22550000  1.0 0.1207997028
H  H32  1  0.36180000  0.58730000  0.41590000  1.0 0.1207997028
H  H33  1  0.19620000  0.68090000  0.07710000  1.0 0.1207997028
H  H34  1  0.80380000  0.88090000  0.48470000  1.0 0.1207997028
H  H35  1  0.60380000  0.18090000  0.98470000  1.0 0.1207997028
H  H36  1  0.39620000  0.38090000  0.57710000  1.0 0.1207997028
H  H37  1  0.25040000  0.63940000  0.95880000  1.0 0.1207997028
H  H38  1  0.74960000  0.70840000  0.38900000  1.0 0.1207997028
H  H39  1  0.68060000  0.13940000  0.88900000  1.0 0.1207997028
H  H40  1  0.31940000  0.20840000  0.45880000  1.0 0.1207997028
H  H41  1  0.13310000  0.31580000  0.68810000  1.0 0.1483572579
H  H42  1  0.86690000  0.55500000  0.18270000  1.0 0.1483572579
H  H43  1  0.62770000  0.81580000  0.68270000  1.0 0.1483572579
H  H44  1  0.37230000  0.05500000  0.18810000  1.0 0.1483572579
H  H45  1  0.07200000  0.36070000  0.80070000  1.0 0.1301092048
H  H46  1  0.92800000  0.72870000  0.28870000  1.0 0.1301092048
H  H47  1  0.56000000  0.86070000  0.78870000  1.0 0.1301092048
H  H48  1  0.44000000  0.22870000  0.30070000  1.0 0.1301092048
H  H49  1  0.41130000  0.60420000  0.77510000  1.0 0.1301092048
H  H50  1  0.58870000  0.36380000  0.19290000  1.0 0.1301092048
H  H51  1  0.82910000  0.10420000  0.69290000  1.0 0.1301092048
H  H52  1  0.17090000  0.86380000  0.27510000  1.0 0.1301092048
H  H53  1  0.34710000  0.46730000  0.72320000  1.0 0.1301092048
H  H54  1  0.65290000  0.37610000  0.12020000  1.0 0.1301092048
H  H55  1  0.74410000  0.96730000  0.62020000  1.0 0.1301092048
H  H56  1  0.25590000  0.87610000  0.22320000  1.0 0.1301092048
H  H57  1  0.20500000  0.62290000  0.83650000  1.0 0.1301092048
H  H58  1  0.79500000  0.63150000  0.41790000  1.0 0.1301092048
H  H59  1  0.78640000  0.12290000  0.91790000  1.0 0.1301092048
H  H60  1  0.21360000  0.13150000  0.33650000  1.0 0.1301092048
H  H61  1  0.26840000  0.76190000  0.88730000  1.0 0.1301092048
H  H62  1  0.73160000  0.61890000  0.49350000  1.0 0.1301092048
H  H63  1  0.87460000  0.26190000  0.99350000  1.0 0.1301092048
H  H64  1  0.12540000  0.11890000  0.38730000  1.0 0.1301092048
H  H65  1  0.25990000  0.56920000  0.61970000  1.0 0.1371717422
H  H66  1  0.74010000  0.35980000  0.30930000  1.0 0.1371717422
H  H67  1  0.94950000  0.06920000  0.80930000  1.0 0.1371717422
H  H68  1  0.05050000  0.85980000  0.11970000  1.0 0.1371717422
H  H69  1  0.14470000  0.52400000  0.56890000  1.0 0.1301092048
H  H70  1  0.85530000  0.42420000  0.37930000  1.0 0.1301092048
H  H71  1  0.95510000  0.02400000  0.87930000  1.0 0.1301092048
H  H72  1  0.04490000  0.92420000  0.06890000  1.0 0.1301092048
H  H73  1  0.08390000  0.37110000  0.37760000  1.0 0.1125308691
H  H74  1  0.91610000  0.29370000  0.28720000  1.0 0.1125308691
H  H75  1  0.99350000  0.87110000  0.78720000  1.0 0.1125308691
H  H76  1  0.00650000  0.79370000  0.87760000  1.0 0.1125308691
H  H77  1  0.13820000  0.26320000  0.23700000  1.0 0.1207997028
H  H78  1  0.86180000  0.09880000  0.12500000  1.0 0.1301092048
H  H79  1  0.02620000  0.76320000  0.62500000  1.0 0.1207997028
H  H80  1  0.97380000  0.59880000  0.73700000  1.0 0.1207997028
H  H81  1  0.25340000  0.30840000  0.28780000  1.0 0.1371717422
H  H82  1  0.74660000  0.03440000  0.05500000  1.0 0.1371717422
H  H83  1  0.02060000  0.80840000  0.55500000  1.0 0.1371717422
H  H84  1  0.97940000  0.53440000  0.78780000  1.0 0.1371717422
C  C1  1  0.62063000  0.74441000  0.81362000  1.0 0.6591045602
C  C2  1  0.37937000  0.19299000  0.12378000  1.0 0.6591045602
C  C3  1  0.93079000  0.24441000  0.62378000  1.0 0.6591045602
C  C4  1  0.06921000  0.69299000  0.31362000  1.0 0.6591045602
C  C5  1  0.67071000  0.78807000  0.90424000  1.0 -0.0612502899
C  C6  1  0.32929000  0.23353000  0.11736000  1.0 -0.0612502899
C  C7  1  0.88383000  0.28807000  0.61736000  1.0 -0.0612502899
C  C8  1  0.11617000  0.73353000  0.40424000  1.0 -0.0612502899
C  C9  1  0.65251000  0.83790000  0.99581000  1.0 -0.0717779901
C  C10  1  0.34749000  0.34330000  0.18539000  1.0 -0.0717779901
C  C11  1  0.84209000  0.33790000  0.68539000  1.0 -0.0717779901
C  C12  1  0.15791000  0.84330000  0.49581000  1.0 -0.0717779901
C  C13  1  0.69495000  0.87100000  0.07875000  1.0 -0.1914929294
C  C14  1  0.30505000  0.38380000  0.17605000  1.0 -0.1914929294
C  C15  1  0.79225000  0.37100000  0.67605000  1.0 -0.1914929294
C  C16  1  0.20775000  0.88380000  0.57875000  1.0 -0.1914929294
C  C17  1  0.75620000  0.85620000  0.06940000  1.0 0.1701185058
C  C18  1  0.24380000  0.31320000  0.10000000  1.0 0.1701185058
C  C19  1  0.78680000  0.35620000  0.60000000  1.0 0.1701185058
C  C20  1  0.21320000  0.81320000  0.56940000  1.0 0.1701185058
C  C21  1  0.77677000  0.81100000  0.97977000  1.0 -0.1844729588
C  C22  1  0.22323000  0.20300000  0.03423000  1.0 -0.1844729588
C  C23  1  0.83123000  0.31100000  0.53423000  1.0 -0.1844729588
C  C24  1  0.16877000  0.70300000  0.47977000  1.0 -0.1844729588
C  C25  1  0.73410000  0.77660000  0.89670000  1.0 -0.0795850875
C  C26  1  0.26590000  0.16260000  0.04250000  1.0 -0.0795850875
C  C27  1  0.87990000  0.27660000  0.54250000  1.0 -0.0795850875
C  C28  1  0.12010000  0.66260000  0.39670000  1.0 -0.0795850875
C  C29  1  0.91867000  0.59040000  0.04407000  1.0 0.6168974681
C  C30  1  0.08133000  0.12540000  0.67173000  1.0 0.6168974681
C  C31  1  0.54633000  0.09040000  0.17173000  1.0 0.6168974681
C  C32  1  0.45367000  0.62540000  0.54407000  1.0 0.6168974681
C  C33  1  0.88827000  0.67073000  0.07474000  1.0 -0.0492593961
C  C34  1  0.11173000  0.18647000  0.78246000  1.0 -0.0492593961
C  C35  1  0.59599000  0.17073000  0.28246000  1.0 -0.0492593961
C  C36  1  0.40401000  0.68647000  0.57474000  1.0 -0.0492593961
C  C37  1  0.90446000  0.78600000  0.18486000  1.0 -0.0795850875
C  C38  1  0.09554000  0.28040000  0.88154000  1.0 -0.0795850875
C  C39  1  0.60114000  0.28600000  0.38154000  1.0 -0.0795850875
C  C40  1  0.39886000  0.78040000  0.68486000  1.0 -0.0795850875
C  C41  1  0.87736000  0.86010000  0.21166000  1.0 -0.1391521798
C  C42  1  0.12264000  0.33430000  0.98274000  1.0 -0.1391521798
C  C43  1  0.64844000  0.36010000  0.48274000  1.0 -0.1391521798
C  C44  1  0.35156000  0.83430000  0.71166000  1.0 -0.1391521798
C  C45  1  0.82998000  0.81970000  0.12668000  1.0 0.2057369395
C  C46  1  0.17002000  0.29670000  0.98972000  1.0 0.2057369395
C  C47  1  0.69302000  0.31970000  0.48972000  1.0 0.2057369395
C  C48  1  0.30698000  0.79670000  0.62668000  1.0 0.2057369395
C  C49  1  0.81217000  0.70300000  0.01637000  1.0 -0.1914929294
C  C50  1  0.18783000  0.20420000  0.89083000  1.0 -0.1914929294
C  C51  1  0.68663000  0.20300000  0.39083000  1.0 -0.1914929294
C  C52  1  0.31337000  0.70420000  0.51637000  1.0 -0.1914929294
C  C53  1  0.84103000  0.63230000  0.99193000  1.0 -0.0795850875
C  C54  1  0.15897000  0.15090000  0.79127000  1.0 -0.0795850875
C  C55  1  0.64037000  0.13230000  0.29127000  1.0 -0.0795850875
C  C56  1  0.35963000  0.65090000  0.49193000  1.0 -0.0795850875
C  C57  1  0.81390000  0.00840000  0.27250000  1.0 0.0861308022
C  C58  1  0.18610000  0.45860000  0.19450000  1.0 0.0861308022
C  C59  1  0.73590000  0.50840000  0.69450000  1.0 0.0861308022
C  C60  1  0.26410000  0.95860000  0.77250000  1.0 0.0861308022
C  C61  1  0.08812000  0.55548000  0.02304000  1.0 0.5944960459
C  C62  1  0.91188000  0.93492000  0.46736000  1.0 0.5953931554
C  C63  1  0.53244000  0.05548000  0.96736000  1.0 0.5944960459
C  C64  1  0.46756000  0.43492000  0.52304000  1.0 0.5944960459
C  C65  1  0.12794000  0.52675000  0.95119000  1.0 -0.0370406334
C  C66  1  0.87206000  0.82325000  0.39881000  1.0 -0.0370406334
C  C67  1  0.57556000  0.02675000  0.89881000  1.0 -0.0370406334
C  C68  1  0.42444000  0.32325000  0.45119000  1.0 -0.0370406334
C  C69  1  0.18163000  0.60763000  0.99740000  1.0 -0.0795850875
C  C70  1  0.81837000  0.81577000  0.42600000  1.0 -0.0795850875
C  C71  1  0.61023000  0.10763000  0.92600000  1.0 -0.0795850875
C  C72  1  0.38977000  0.31577000  0.49740000  1.0 -0.0795850875
C  C73  1  0.21504000  0.58174000  0.92670000  1.0 -0.1914929294
C  C74  1  0.78496000  0.71166000  0.36670000  1.0 -0.1914929294
C  C75  1  0.65504000  0.08174000  0.86670000  1.0 -0.1914929294
C  C76  1  0.34496000  0.21166000  0.42670000  1.0 -0.1914929294
C  C77  1  0.19711000  0.47351000  0.81120000  1.0 0.1876763298
C  C78  1  0.80289000  0.61409000  0.27640000  1.0 0.1876763298
C  C79  1  0.66231000  0.97351000  0.77640000  1.0 0.1876763298
C  C80  1  0.33769000  0.11409000  0.31120000  1.0 0.1876763298
C  C81  1  0.14477000  0.39137000  0.76660000  1.0 -0.1322663681
C  C82  1  0.85523000  0.62183000  0.24660000  1.0 -0.1391521798
C  C83  1  0.62477000  0.89137000  0.74660000  1.0 -0.1322663681
C  C84  1  0.37523000  0.12183000  0.26660000  1.0 -0.1322663681
C  C85  1  0.10910000  0.41710000  0.83380000  1.0 -0.0717779901
C  C86  1  0.89090000  0.72470000  0.30800000  1.0 -0.0717779901
C  C87  1  0.58330000  0.91710000  0.80800000  1.0 -0.0717779901
C  C88  1  0.41670000  0.22470000  0.33380000  1.0 -0.0717779901
C  C89  1  0.39005000  0.78864000  0.87381000  1.0 0.6510109647
C  C90  1  0.60995000  0.48376000  0.39859000  1.0 0.6510109647
C  C91  1  0.91483000  0.28864000  0.89859000  1.0 0.6510109647
C  C92  1  0.08517000  0.98376000  0.37381000  1.0 0.6510109647
C  C93  1  0.34627000  0.69747000  0.83500000  1.0 -0.0612502899
C  C94  1  0.65373000  0.48873000  0.35120000  1.0 -0.0612502899
C  C95  1  0.86247000  0.19747000  0.85120000  1.0 -0.0612502899
C  C96  1  0.13753000  0.98873000  0.33500000  1.0 -0.0612502899
C  C97  1  0.36899000  0.60839000  0.78680000  1.0 -0.0795850875
C  C98  1  0.63101000  0.41781000  0.23940000  1.0 -0.0795850875
C  C99  1  0.82159000  0.10839000  0.73940000  1.0 -0.0795850875
C  C100  1  0.17841000  0.91781000  0.28680000  1.0 -0.0795850875
C  C101  1  0.33066000  0.52706000  0.75620000  1.0 -0.1745222465
C  C102  1  0.66934000  0.42554000  0.19640000  1.0 -0.1745222465
C  C103  1  0.77086000  0.02706000  0.69640000  1.0 -0.1745222465
C  C104  1  0.22914000  0.92554000  0.25620000  1.0 -0.1745222465
C  C105  1  0.26882000  0.53012000  0.77230000  1.0 0.1701185058
C  C106  1  0.73118000  0.50348000  0.26130000  1.0 0.1701185058
C  C107  1  0.75782000  0.03012000  0.76130000  1.0 0.1701185058
C  C108  1  0.24218000  0.00348000  0.27230000  1.0 0.1701185058
C  C109  1  0.24671000  0.61801000  0.82230000  1.0 -0.1914929294
C  C110  1  0.75329000  0.57559000  0.37130000  1.0 -0.1914929294
C  C111  1  0.79571000  0.11801000  0.87130000  1.0 -0.1914929294
C  C112  1  0.20429000  0.07559000  0.32230000  1.0 -0.1914929294
C  C113  1  0.28481000  0.70171000  0.85330000  1.0 -0.0795850875
C  C114  1  0.71519000  0.56849000  0.41690000  1.0 -0.0795850875
C  C115  1  0.84841000  0.20171000  0.91690000  1.0 -0.0795850875
C  C116  1  0.15159000  0.06849000  0.35330000  1.0 -0.0795850875
C  C117  1  0.23090000  0.32890000  0.63520000  1.0 0.0276002867
C  C118  1  0.76910000  0.40430000  0.09800000  1.0 0.0276002867
C  C119  1  0.69370000  0.82890000  0.59800000  1.0 0.0276002867
C  C120  1  0.30630000  0.90430000  0.13520000  1.0 0.0276002867
C  C121  1  0.26750000  0.44310000  0.45860000  1.0 0.0656996097
C  C122  1  0.73250000  0.19110000  0.17560000  1.0 0.0656996097
C  C123  1  0.98450000  0.94310000  0.67560000  1.0 0.0656996097
C  C124  1  0.01550000  0.69110000  0.95860000  1.0 0.0656996097
C  C125  1  0.23520000  0.50710000  0.54210000  1.0 -0.1322663681
C  C126  1  0.76480000  0.30690000  0.27190000  1.0 -0.1322663681
C  C127  1  0.96500000  0.00710000  0.77190000  1.0 -0.1322663681
C  C128  1  0.03500000  0.80690000  0.04210000  1.0 -0.1322663681
C  C129  1  0.16680000  0.48030000  0.51190000  1.0 -0.0612502899
C  C130  1  0.83320000  0.34510000  0.31350000  1.0 -0.0612502899
C  C131  1  0.96840000  0.98030000  0.81350000  1.0 -0.0612502899
C  C132  1  0.03160000  0.84510000  0.01190000  1.0 -0.0612502899
C  C133  1  0.13060000  0.38940000  0.39820000  1.0 -0.0795850875
C  C134  1  0.86940000  0.26760000  0.25880000  1.0 -0.0795850875
C  C135  1  0.99120000  0.88940000  0.75880000  1.0 -0.0795850875
C  C136  1  0.00880000  0.76760000  0.89820000  1.0 -0.0795850875
C  C137  1  0.16290000  0.32540000  0.31470000  1.0 -0.0717779901
C  C138  1  0.83710000  0.15180000  0.16250000  1.0 -0.0717779901
C  C139  1  0.01070000  0.82540000  0.66250000  1.0 -0.0717779901
C  C140  1  0.98930000  0.65180000  0.81470000  1.0 -0.0717779901
C  C141  1  0.23130000  0.35220000  0.34490000  1.0 -0.1322663681
C  C142  1  0.76870000  0.11360000  0.12090000  1.0 -0.1322663681
C  C143  1  0.00730000  0.85220000  0.62090000  1.0 -0.1322663681
C  C144  1  0.99270000  0.61360000  0.84490000  1.0 -0.1322663681
N  N1  1  0.80293000  0.89480000  0.15453000  1.0 -0.0492593961
N  N2  1  0.19707000  0.35160000  0.09187000  1.0 -0.0492593961
N  N3  1  0.74027000  0.39480000  0.59187000  1.0 -0.0492593961
N  N4  1  0.25973000  0.85160000  0.65453000  1.0 -0.0492593961
N  N5  1  0.23132000  0.44532000  0.73980000  1.0 -0.0253378128
N  N6  1  0.76868000  0.50848000  0.21400000  1.0 -0.0247224656
N  N7  1  0.70552000  0.94532000  0.71400000  1.0 -0.0253378128
N  N8  1  0.29448000  0.00848000  0.23980000  1.0 -0.0253378128
N  N9  1  0.34710000  0.47120000  0.48870000  1.0 0.422901754
N  N10  1  0.65290000  0.14160000  0.12410000  1.0 0.4310002817
N  N11  1  0.98250000  0.97120000  0.62410000  1.0 0.4310002817
N  N12  1  0.01750000  0.64160000  0.98870000  1.0 0.422901754
O  O1  1  0.75990000  0.57970000  0.60780000  1.0 -0.6120822684
O  O2  1  0.24010000  0.84790000  0.81980000  1.0 -0.6120822684
O  O3  1  0.97190000  0.07970000  0.31980000  1.0 -0.6120822684
O  O4  1  0.02810000  0.34790000  0.10780000  1.0 -0.6120822684
O  O5  1  0.75080000  0.79820000  0.73720000  1.0 -0.588472213
O  O6  1  0.24920000  0.98640000  0.04740000  1.0 -0.588472213
O  O7  1  0.06100000  0.29820000  0.54740000  1.0 -0.588472213
O  O8  1  0.93900000  0.48640000  0.23720000  1.0 -0.588472213
O  O9  1  0.56884000  0.77569000  0.83495000  1.0 -0.7086258785
O  O10  1  0.43116000  0.26611000  0.20685000  1.0 -0.7086258785
O  O11  1  0.94074000  0.27569000  0.70685000  1.0 -0.7086258785
O  O12  1  0.05926000  0.76611000  0.33495000  1.0 -0.7086258785
O  O13  1  0.63102000  0.67649000  0.71873000  1.0 -0.6978178875
O  O14  1  0.36898000  0.08771000  0.04547000  1.0 -0.6978178875
O  O15  1  0.95776000  0.17649000  0.54547000  1.0 -0.6978178875
O  O16  1  0.04224000  0.58771000  0.21873000  1.0 -0.6978178875
O  O17  1  0.96217000  0.63270000  0.12447000  1.0 -0.7326799885
O  O18  1  0.03783000  0.16230000  0.67053000  1.0 -0.7326799885
O  O19  1  0.50823000  0.13270000  0.17053000  1.0 -0.7326799885
O  O20  1  0.49177000  0.66230000  0.62447000  1.0 -0.7326799885
O  O21  1  0.90104000  0.48797000  0.94267000  1.0 -0.636672552
O  O22  1  0.09896000  0.04163000  0.58693000  1.0 -0.636672552
O  O23  1  0.54530000  0.98797000  0.08693000  1.0 -0.636672552
O  O24  1  0.45470000  0.54163000  0.44267000  1.0 -0.636672552
O  O25  1  0.04015000  0.47845000  0.97694000  1.0 -0.6857513444
O  O26  1  0.95985000  0.93679000  0.43830000  1.0 -0.6857513444
O  O27  1  0.50151000  0.97845000  0.93830000  1.0 -0.6857513444
O  O28  1  0.49849000  0.43679000  0.47694000  1.0 -0.6849944846
O  O29  1  0.10677000  0.65676000  0.12801000  1.0 -0.5218018548
O  O30  1  0.89323000  0.02124000  0.54999000  1.0 -0.5218018548
O  O31  1  0.52875000  0.15676000  0.04999000  1.0 -0.5218018548
O  O32  1  0.47125000  0.52124000  0.62801000  1.0 -0.5218018548
O  O33  1  0.43977000  0.76872000  0.83805000  1.0 -0.7086258785
O  O34  1  0.56023000  0.39828000  0.32895000  1.0 -0.7086258785
O  O35  1  0.93067000  0.26872000  0.82895000  1.0 -0.7086258785
O  O36  1  0.06933000  0.89828000  0.33805000  1.0 -0.7086258785
O  O37  1  0.37579000  0.88044000  0.94015000  1.0 -0.6857513444
O  O38  1  0.62421000  0.56436000  0.50465000  1.0 -0.6857513444
O  O39  1  0.94029000  0.38044000  0.00465000  1.0 -0.6857513444
O  O40  1  0.05971000  0.06436000  0.44015000  1.0 -0.6857513444
O  O41  1  0.37380000  0.42360000  0.41320000  1.0 -0.2842094557
O  O42  1  0.62620000  0.03940000  0.04980000  1.0 -0.2842094557
O  O43  1  0.01040000  0.92360000  0.54980000  1.0 -0.2851095752
O  O44  1  0.98960000  0.53940000  0.91320000  1.0 -0.2842094557
O  O45  1  0.39070000  0.52490000  0.57380000  1.0 -0.2622612075
O  O46  1  0.60930000  0.18310000  0.13420000  1.0 -0.2657372808
O  O47  1  0.95110000  0.02490000  0.63420000  1.0 -0.2657372808
O  O48  1  0.04890000  0.68310000  0.07380000  1.0 -0.2657372808
