# DDEC6 charges by PACMAN v1.1 (https://github.com/mtap-research/PACMAN-charge/)
data_NEYSUJ_ASR_pacman
_symmetry_space_group_name_H-M   'P 1'
_cell_length_a   17.53950000
_cell_length_b   17.53950000
_cell_length_c   17.53950000
_cell_angle_alpha   90.00000000
_cell_angle_beta   90.00000000
_cell_angle_gamma   90.00000000
_symmetry_Int_Tables_number   1
_chemical_formula_structural   Cu3H48(C15N4)4
_chemical_formula_sum   'Cu6 H96 C120 N32'
_cell_volume   5395.74759975
_cell_formula_units_Z   2
loop_
 _symmetry_equiv_pos_site_id
 _symmetry_equiv_pos_as_xyz
  1  'x, y, z'
loop_
 _atom_site_type_symbol
 _atom_site_label
 _atom_site_symmetry_multiplicity
 _atom_site_fract_x
 _atom_site_fract_y
 _atom_site_fract_z
 _atom_site_occupancy
 _atom_site_charge
Cu  Cu1  1  0.00000000  0.75000000  0.50000000  1.0 0.1699241582
Cu  Cu2  1  0.00000000  0.25000000  0.50000000  1.0 0.1699241582
Cu  Cu3  1  0.50000000  0.00000000  0.75000000  1.0 0.1699241582
Cu  Cu4  1  0.50000000  0.00000000  0.25000000  1.0 0.1699241582
Cu  Cu5  1  0.75000000  0.50000000  0.00000000  1.0 0.1699241582
Cu  Cu6  1  0.25000000  0.50000000  0.00000000  1.0 0.1699241582
H  H1  1  0.91012000  0.64014000  0.41160000  1.0 0.0860526576
H  H2  1  0.08988000  0.35986000  0.41160000  1.0 0.0860526576
H  H3  1  0.08988000  0.64014000  0.58840000  1.0 0.0860526576
H  H4  1  0.91012000  0.35986000  0.58840000  1.0 0.0860526576
H  H5  1  0.41160000  0.91012000  0.64014000  1.0 0.0860526576
H  H6  1  0.41160000  0.08988000  0.35986000  1.0 0.0860526576
H  H7  1  0.58840000  0.08988000  0.64014000  1.0 0.0860526576
H  H8  1  0.58840000  0.91012000  0.35986000  1.0 0.0860526576
H  H9  1  0.64014000  0.41160000  0.91012000  1.0 0.0860526576
H  H10  1  0.35986000  0.41160000  0.08988000  1.0 0.0860526576
H  H11  1  0.64014000  0.58840000  0.08988000  1.0 0.0860526576
H  H12  1  0.35986000  0.58840000  0.91012000  1.0 0.0860526576
H  H13  1  0.14014000  0.41012000  0.08840000  1.0 0.0860526576
H  H14  1  0.85986000  0.58988000  0.08840000  1.0 0.0860526576
H  H15  1  0.14014000  0.58988000  0.91160000  1.0 0.0860526576
H  H16  1  0.85986000  0.41012000  0.91160000  1.0 0.0860526576
H  H17  1  0.41012000  0.91160000  0.85986000  1.0 0.0860526576
H  H18  1  0.58988000  0.91160000  0.14014000  1.0 0.0860526576
H  H19  1  0.58988000  0.08840000  0.85986000  1.0 0.0860526576
H  H20  1  0.41012000  0.08840000  0.14014000  1.0 0.0860526576
H  H21  1  0.91160000  0.14014000  0.58988000  1.0 0.0860526576
H  H22  1  0.91160000  0.85986000  0.41012000  1.0 0.0860526576
H  H23  1  0.08840000  0.14014000  0.41012000  1.0 0.0860526576
H  H24  1  0.08840000  0.85986000  0.58988000  1.0 0.0860526576
H  H25  1  0.08988000  0.35986000  0.58840000  1.0 0.0860526576
H  H26  1  0.91012000  0.64014000  0.58840000  1.0 0.0860526576
H  H27  1  0.91012000  0.35986000  0.41160000  1.0 0.0860526576
H  H28  1  0.08988000  0.64014000  0.41160000  1.0 0.0860526576
H  H29  1  0.58840000  0.08988000  0.35986000  1.0 0.0860526576
H  H30  1  0.58840000  0.91012000  0.64014000  1.0 0.0860526576
H  H31  1  0.41160000  0.91012000  0.35986000  1.0 0.0860526576
H  H32  1  0.41160000  0.08988000  0.64014000  1.0 0.0860526576
H  H33  1  0.35986000  0.58840000  0.08988000  1.0 0.0860526576
H  H34  1  0.64014000  0.58840000  0.91012000  1.0 0.0860526576
H  H35  1  0.35986000  0.41160000  0.91012000  1.0 0.0860526576
H  H36  1  0.64014000  0.41160000  0.08988000  1.0 0.0860526576
H  H37  1  0.85986000  0.58988000  0.91160000  1.0 0.0860526576
H  H38  1  0.14014000  0.41012000  0.91160000  1.0 0.0860526576
H  H39  1  0.85986000  0.41012000  0.08840000  1.0 0.0860526576
H  H40  1  0.14014000  0.58988000  0.08840000  1.0 0.0860526576
H  H41  1  0.58988000  0.08840000  0.14014000  1.0 0.0860526576
H  H42  1  0.41012000  0.08840000  0.85986000  1.0 0.0860526576
H  H43  1  0.41012000  0.91160000  0.14014000  1.0 0.0860526576
H  H44  1  0.58988000  0.91160000  0.85986000  1.0 0.0860526576
H  H45  1  0.08840000  0.85986000  0.41012000  1.0 0.0860526576
H  H46  1  0.08840000  0.14014000  0.58988000  1.0 0.0860526576
H  H47  1  0.91160000  0.85986000  0.58988000  1.0 0.0860526576
H  H48  1  0.91160000  0.14014000  0.41012000  1.0 0.0860526576
H  H49  1  0.81313000  0.63685000  0.32074000  1.0 0.1308413526
H  H50  1  0.18687000  0.36315000  0.32074000  1.0 0.1308413526
H  H51  1  0.18687000  0.63685000  0.67926000  1.0 0.1308413526
H  H52  1  0.81313000  0.36315000  0.67926000  1.0 0.1308413526
H  H53  1  0.32074000  0.81313000  0.63685000  1.0 0.1308413526
H  H54  1  0.32074000  0.18687000  0.36315000  1.0 0.1308413526
H  H55  1  0.67926000  0.18687000  0.63685000  1.0 0.1308413526
H  H56  1  0.67926000  0.81313000  0.36315000  1.0 0.1308413526
H  H57  1  0.63685000  0.32074000  0.81313000  1.0 0.1308413526
H  H58  1  0.36315000  0.32074000  0.18687000  1.0 0.1308413526
H  H59  1  0.63685000  0.67926000  0.18687000  1.0 0.1308413526
H  H60  1  0.36315000  0.67926000  0.81313000  1.0 0.1308413526
H  H61  1  0.13685000  0.31313000  0.17926000  1.0 0.1308413526
H  H62  1  0.86315000  0.68687000  0.17926000  1.0 0.1308413526
H  H63  1  0.13685000  0.68687000  0.82074000  1.0 0.1308413526
H  H64  1  0.86315000  0.31313000  0.82074000  1.0 0.1308413526
H  H65  1  0.31313000  0.82074000  0.86315000  1.0 0.1308413526
H  H66  1  0.68687000  0.82074000  0.13685000  1.0 0.1308413526
H  H67  1  0.68687000  0.17926000  0.86315000  1.0 0.1308413526
H  H68  1  0.31313000  0.17926000  0.13685000  1.0 0.1308413526
H  H69  1  0.82074000  0.13685000  0.68687000  1.0 0.1308413526
H  H70  1  0.82074000  0.86315000  0.31313000  1.0 0.1308413526
H  H71  1  0.17926000  0.13685000  0.31313000  1.0 0.1308413526
H  H72  1  0.17926000  0.86315000  0.68687000  1.0 0.1308413526
H  H73  1  0.18687000  0.36315000  0.67926000  1.0 0.1308413526
H  H74  1  0.81313000  0.63685000  0.67926000  1.0 0.1308413526
H  H75  1  0.81313000  0.36315000  0.32074000  1.0 0.1308413526
H  H76  1  0.18687000  0.63685000  0.32074000  1.0 0.1308413526
H  H77  1  0.67926000  0.18687000  0.36315000  1.0 0.1308413526
H  H78  1  0.67926000  0.81313000  0.63685000  1.0 0.1308413526
H  H79  1  0.32074000  0.81313000  0.36315000  1.0 0.1308413526
H  H80  1  0.32074000  0.18687000  0.63685000  1.0 0.1308413526
H  H81  1  0.36315000  0.67926000  0.18687000  1.0 0.1308413526
H  H82  1  0.63685000  0.67926000  0.81313000  1.0 0.1308413526
H  H83  1  0.36315000  0.32074000  0.81313000  1.0 0.1308413526
H  H84  1  0.63685000  0.32074000  0.18687000  1.0 0.1308413526
H  H85  1  0.86315000  0.68687000  0.82074000  1.0 0.1308413526
H  H86  1  0.13685000  0.31313000  0.82074000  1.0 0.1308413526
H  H87  1  0.86315000  0.31313000  0.17926000  1.0 0.1308413526
H  H88  1  0.13685000  0.68687000  0.17926000  1.0 0.1308413526
H  H89  1  0.68687000  0.17926000  0.13685000  1.0 0.1308413526
H  H90  1  0.31313000  0.17926000  0.86315000  1.0 0.1308413526
H  H91  1  0.31313000  0.82074000  0.13685000  1.0 0.1308413526
H  H92  1  0.68687000  0.82074000  0.86315000  1.0 0.1308413526
H  H93  1  0.17926000  0.86315000  0.31313000  1.0 0.1308413526
H  H94  1  0.17926000  0.13685000  0.68687000  1.0 0.1308413526
H  H95  1  0.82074000  0.86315000  0.68687000  1.0 0.1308413526
H  H96  1  0.82074000  0.13685000  0.31313000  1.0 0.1308413526
C  C1  1  0.80700000  0.75000000  0.30700000  1.0 0.1797906473
C  C2  1  0.19300000  0.25000000  0.30700000  1.0 0.1797906473
C  C3  1  0.19300000  0.75000000  0.69300000  1.0 0.1797906473
C  C4  1  0.80700000  0.25000000  0.69300000  1.0 0.1797906473
C  C5  1  0.30700000  0.80700000  0.75000000  1.0 0.1797906473
C  C6  1  0.30700000  0.19300000  0.25000000  1.0 0.1797906473
C  C7  1  0.69300000  0.19300000  0.75000000  1.0 0.1797906473
C  C8  1  0.69300000  0.80700000  0.25000000  1.0 0.1797906473
C  C9  1  0.75000000  0.30700000  0.80700000  1.0 0.1797906473
C  C10  1  0.25000000  0.30700000  0.19300000  1.0 0.1797906473
C  C11  1  0.75000000  0.69300000  0.19300000  1.0 0.1797906473
C  C12  1  0.25000000  0.69300000  0.80700000  1.0 0.1797906473
C  C13  1  0.19300000  0.25000000  0.69300000  1.0 0.1797906473
C  C14  1  0.80700000  0.75000000  0.69300000  1.0 0.1797906473
C  C15  1  0.80700000  0.25000000  0.30700000  1.0 0.1797906473
C  C16  1  0.19300000  0.75000000  0.30700000  1.0 0.1797906473
C  C17  1  0.69300000  0.19300000  0.25000000  1.0 0.1797906473
C  C18  1  0.69300000  0.80700000  0.75000000  1.0 0.1797906473
C  C19  1  0.30700000  0.80700000  0.25000000  1.0 0.1797906473
C  C20  1  0.30700000  0.19300000  0.75000000  1.0 0.1797906473
C  C21  1  0.25000000  0.69300000  0.19300000  1.0 0.1797906473
C  C22  1  0.75000000  0.69300000  0.80700000  1.0 0.1797906473
C  C23  1  0.25000000  0.30700000  0.80700000  1.0 0.1797906473
C  C24  1  0.75000000  0.30700000  0.19300000  1.0 0.1797906473
C  C25  1  0.89090000  0.68580000  0.39260000  1.0 0.0497019479
C  C26  1  0.10910000  0.31420000  0.39260000  1.0 0.0497019479
C  C27  1  0.10910000  0.68580000  0.60740000  1.0 0.0497019479
C  C28  1  0.89090000  0.31420000  0.60740000  1.0 0.0497019479
C  C29  1  0.39260000  0.89090000  0.68580000  1.0 0.0497019479
C  C30  1  0.39260000  0.10910000  0.31420000  1.0 0.0497019479
C  C31  1  0.60740000  0.10910000  0.68580000  1.0 0.0497019479
C  C32  1  0.60740000  0.89090000  0.31420000  1.0 0.0497019479
C  C33  1  0.68580000  0.39260000  0.89090000  1.0 0.0497019479
C  C34  1  0.31420000  0.39260000  0.10910000  1.0 0.0497019479
C  C35  1  0.68580000  0.60740000  0.10910000  1.0 0.0497019479
C  C36  1  0.31420000  0.60740000  0.89090000  1.0 0.0497019479
C  C37  1  0.18580000  0.39090000  0.10740000  1.0 0.0497019479
C  C38  1  0.81420000  0.60910000  0.10740000  1.0 0.0497019479
C  C39  1  0.18580000  0.60910000  0.89260000  1.0 0.0497019479
C  C40  1  0.81420000  0.39090000  0.89260000  1.0 0.0497019479
C  C41  1  0.39090000  0.89260000  0.81420000  1.0 0.0497019479
C  C42  1  0.60910000  0.89260000  0.18580000  1.0 0.0497019479
C  C43  1  0.60910000  0.10740000  0.81420000  1.0 0.0497019479
C  C44  1  0.39090000  0.10740000  0.18580000  1.0 0.0497019479
C  C45  1  0.89260000  0.18580000  0.60910000  1.0 0.0497019479
C  C46  1  0.89260000  0.81420000  0.39090000  1.0 0.0497019479
C  C47  1  0.10740000  0.18580000  0.39090000  1.0 0.0497019479
C  C48  1  0.10740000  0.81420000  0.60910000  1.0 0.0497019479
C  C49  1  0.10910000  0.31420000  0.60740000  1.0 0.0497019479
C  C50  1  0.89090000  0.68580000  0.60740000  1.0 0.0497019479
C  C51  1  0.89090000  0.31420000  0.39260000  1.0 0.0497019479
C  C52  1  0.10910000  0.68580000  0.39260000  1.0 0.0497019479
C  C53  1  0.60740000  0.10910000  0.31420000  1.0 0.0497019479
C  C54  1  0.60740000  0.89090000  0.68580000  1.0 0.0497019479
C  C55  1  0.39260000  0.89090000  0.31420000  1.0 0.0497019479
C  C56  1  0.39260000  0.10910000  0.68580000  1.0 0.0497019479
C  C57  1  0.31420000  0.60740000  0.10910000  1.0 0.0497019479
C  C58  1  0.68580000  0.60740000  0.89090000  1.0 0.0497019479
C  C59  1  0.31420000  0.39260000  0.89090000  1.0 0.0497019479
C  C60  1  0.68580000  0.39260000  0.10910000  1.0 0.0497019479
C  C61  1  0.81420000  0.60910000  0.89260000  1.0 0.0497019479
C  C62  1  0.18580000  0.39090000  0.89260000  1.0 0.0497019479
C  C63  1  0.81420000  0.39090000  0.10740000  1.0 0.0497019479
C  C64  1  0.18580000  0.60910000  0.10740000  1.0 0.0497019479
C  C65  1  0.60910000  0.10740000  0.18580000  1.0 0.0497019479
C  C66  1  0.39090000  0.10740000  0.81420000  1.0 0.0497019479
C  C67  1  0.39090000  0.89260000  0.18580000  1.0 0.0497019479
C  C68  1  0.60910000  0.89260000  0.81420000  1.0 0.0497019479
C  C69  1  0.10740000  0.81420000  0.39090000  1.0 0.0497019479
C  C70  1  0.10740000  0.18580000  0.60910000  1.0 0.0497019479
C  C71  1  0.89260000  0.81420000  0.60910000  1.0 0.0497019479
C  C72  1  0.89260000  0.18580000  0.39090000  1.0 0.0497019479
C  C73  1  0.83310000  0.68330000  0.33680000  1.0 -0.2421394959
C  C74  1  0.16690000  0.31670000  0.33680000  1.0 -0.2421394959
C  C75  1  0.16690000  0.68330000  0.66320000  1.0 -0.2421394959
C  C76  1  0.83310000  0.31670000  0.66320000  1.0 -0.2421394959
C  C77  1  0.33680000  0.83310000  0.68330000  1.0 -0.2421394959
C  C78  1  0.33680000  0.16690000  0.31670000  1.0 -0.2421394959
C  C79  1  0.66320000  0.16690000  0.68330000  1.0 -0.2421394959
C  C80  1  0.66320000  0.83310000  0.31670000  1.0 -0.2421394959
C  C81  1  0.68330000  0.33680000  0.83310000  1.0 -0.2421394959
C  C82  1  0.31670000  0.33680000  0.16690000  1.0 -0.2421394959
C  C83  1  0.68330000  0.66320000  0.16690000  1.0 -0.2421394959
C  C84  1  0.31670000  0.66320000  0.83310000  1.0 -0.2421394959
C  C85  1  0.18330000  0.33310000  0.16320000  1.0 -0.2421394959
C  C86  1  0.81670000  0.66690000  0.16320000  1.0 -0.2421394959
C  C87  1  0.18330000  0.66690000  0.83680000  1.0 -0.2421394959
C  C88  1  0.81670000  0.33310000  0.83680000  1.0 -0.2421394959
C  C89  1  0.33310000  0.83680000  0.81670000  1.0 -0.2421394959
C  C90  1  0.66690000  0.83680000  0.18330000  1.0 -0.2421394959
C  C91  1  0.66690000  0.16320000  0.81670000  1.0 -0.2421394959
C  C92  1  0.33310000  0.16320000  0.18330000  1.0 -0.2421394959
C  C93  1  0.83680000  0.18330000  0.66690000  1.0 -0.2421394959
C  C94  1  0.83680000  0.81670000  0.33310000  1.0 -0.2421394959
C  C95  1  0.16320000  0.18330000  0.33310000  1.0 -0.2421394959
C  C96  1  0.16320000  0.81670000  0.66690000  1.0 -0.2421394959
C  C97  1  0.16690000  0.31670000  0.66320000  1.0 -0.2421394959
C  C98  1  0.83310000  0.68330000  0.66320000  1.0 -0.2421394959
C  C99  1  0.83310000  0.31670000  0.33680000  1.0 -0.2421394959
C  C100  1  0.16690000  0.68330000  0.33680000  1.0 -0.2421394959
C  C101  1  0.66320000  0.16690000  0.31670000  1.0 -0.2421394959
C  C102  1  0.66320000  0.83310000  0.68330000  1.0 -0.2421394959
C  C103  1  0.33680000  0.83310000  0.31670000  1.0 -0.2421394959
C  C104  1  0.33680000  0.16690000  0.68330000  1.0 -0.2421394959
C  C105  1  0.31670000  0.66320000  0.16690000  1.0 -0.2421394959
C  C106  1  0.68330000  0.66320000  0.83310000  1.0 -0.2421394959
C  C107  1  0.31670000  0.33680000  0.83310000  1.0 -0.2421394959
C  C108  1  0.68330000  0.33680000  0.16690000  1.0 -0.2421394959
C  C109  1  0.81670000  0.66690000  0.83680000  1.0 -0.2421394959
C  C110  1  0.18330000  0.33310000  0.83680000  1.0 -0.2421394959
C  C111  1  0.81670000  0.33310000  0.16320000  1.0 -0.2421394959
C  C112  1  0.18330000  0.66690000  0.16320000  1.0 -0.2421394959
C  C113  1  0.66690000  0.16320000  0.18330000  1.0 -0.2421394959
C  C114  1  0.33310000  0.16320000  0.81670000  1.0 -0.2421394959
C  C115  1  0.33310000  0.83680000  0.18330000  1.0 -0.2421394959
C  C116  1  0.66690000  0.83680000  0.81670000  1.0 -0.2421394959
C  C117  1  0.16320000  0.81670000  0.33310000  1.0 -0.2421394959
C  C118  1  0.16320000  0.18330000  0.66690000  1.0 -0.2421394959
C  C119  1  0.83680000  0.81670000  0.66690000  1.0 -0.2421394959
C  C120  1  0.83680000  0.18330000  0.33310000  1.0 -0.2421394959
N  N1  1  0.91870000  0.75000000  0.41870000  1.0 -0.2028414425
N  N2  1  0.08130000  0.25000000  0.41870000  1.0 -0.2028414425
N  N3  1  0.08130000  0.75000000  0.58130000  1.0 -0.2028414425
N  N4  1  0.91870000  0.25000000  0.58130000  1.0 -0.2028414425
N  N5  1  0.41870000  0.91870000  0.75000000  1.0 -0.2028414425
N  N6  1  0.41870000  0.08130000  0.25000000  1.0 -0.2028414425
N  N7  1  0.58130000  0.08130000  0.75000000  1.0 -0.2028414425
N  N8  1  0.58130000  0.91870000  0.25000000  1.0 -0.2028414425
N  N9  1  0.75000000  0.41870000  0.91870000  1.0 -0.2028414425
N  N10  1  0.25000000  0.41870000  0.08130000  1.0 -0.2028414425
N  N11  1  0.75000000  0.58130000  0.08130000  1.0 -0.2028414425
N  N12  1  0.25000000  0.58130000  0.91870000  1.0 -0.2028414425
N  N13  1  0.08130000  0.25000000  0.58130000  1.0 -0.2028414425
N  N14  1  0.91870000  0.75000000  0.58130000  1.0 -0.2028414425
N  N15  1  0.91870000  0.25000000  0.41870000  1.0 -0.2028414425
N  N16  1  0.08130000  0.75000000  0.41870000  1.0 -0.2028414425
N  N17  1  0.58130000  0.08130000  0.25000000  1.0 -0.2028414425
N  N18  1  0.58130000  0.91870000  0.75000000  1.0 -0.2028414425
N  N19  1  0.41870000  0.91870000  0.25000000  1.0 -0.2028414425
N  N20  1  0.41870000  0.08130000  0.75000000  1.0 -0.2028414425
N  N21  1  0.25000000  0.58130000  0.08130000  1.0 -0.2028414425
N  N22  1  0.75000000  0.58130000  0.91870000  1.0 -0.2028414425
N  N23  1  0.25000000  0.41870000  0.91870000  1.0 -0.2028414425
N  N24  1  0.75000000  0.41870000  0.08130000  1.0 -0.2028414425
N  N25  1  0.75000000  0.75000000  0.25000000  1.0 -0.2063423451
N  N26  1  0.25000000  0.25000000  0.25000000  1.0 -0.2028414425
N  N27  1  0.25000000  0.75000000  0.75000000  1.0 -0.2063423451
N  N28  1  0.75000000  0.25000000  0.75000000  1.0 -0.2063423451
N  N29  1  0.25000000  0.25000000  0.75000000  1.0 -0.2063423451
N  N30  1  0.75000000  0.75000000  0.75000000  1.0 -0.2063423451
N  N31  1  0.75000000  0.25000000  0.25000000  1.0 -0.2028414425
N  N32  1  0.25000000  0.75000000  0.25000000  1.0 -0.2028414425
