# DDEC6 charges by PACMAN v1.1 (https://github.com/mtap-research/PACMAN-charge/)
data_NEYVEU_FSR_pacman
_symmetry_space_group_name_H-M   'P 1'
_cell_length_a   27.65710000
_cell_length_b   27.65710000
_cell_length_c   27.65710000
_cell_angle_alpha   90.00000000
_cell_angle_beta   90.00000000
_cell_angle_gamma   90.00000000
_symmetry_Int_Tables_number   1
_chemical_formula_structural   ZnH22C27N5O4
_chemical_formula_sum   'Zn12 H264 C324 N60 O48'
_cell_volume   21155.33563612
_cell_formula_units_Z   12
loop_
 _symmetry_equiv_pos_site_id
 _symmetry_equiv_pos_as_xyz
  1  'x, y, z'
loop_
 _atom_site_type_symbol
 _atom_site_label
 _atom_site_symmetry_multiplicity
 _atom_site_fract_x
 _atom_site_fract_y
 _atom_site_fract_z
 _atom_site_occupancy
 _atom_site_charge
Zn  Zn1  1  0.00000000  0.69817000  0.50000000  1.0 0.7839404387
Zn  Zn2  1  0.00000000  0.30183000  0.50000000  1.0 0.7839404387
Zn  Zn3  1  0.50000000  0.00000000  0.69817000  1.0 0.7839404387
Zn  Zn4  1  0.50000000  0.00000000  0.30183000  1.0 0.7839404387
Zn  Zn5  1  0.69817000  0.50000000  0.00000000  1.0 0.7839404387
Zn  Zn6  1  0.30183000  0.50000000  0.00000000  1.0 0.7839404387
Zn  Zn7  1  0.19817000  0.50000000  0.00000000  1.0 0.7839404387
Zn  Zn8  1  0.80183000  0.50000000  0.00000000  1.0 0.7839404387
Zn  Zn9  1  0.50000000  0.00000000  0.19817000  1.0 0.7839404387
Zn  Zn10  1  0.50000000  0.00000000  0.80183000  1.0 0.7839404387
Zn  Zn11  1  0.00000000  0.19817000  0.50000000  1.0 0.7839404387
Zn  Zn12  1  0.00000000  0.80183000  0.50000000  1.0 0.7839404387
H  H1  1  0.11450000  0.67410000  0.61750000  1.0 0.1222081277
H  H2  1  0.88550000  0.32590000  0.61750000  1.0 0.1222081277
H  H3  1  0.88550000  0.67410000  0.38250000  1.0 0.1222081277
H  H4  1  0.11450000  0.32590000  0.38250000  1.0 0.1222081277
H  H5  1  0.61750000  0.11450000  0.67410000  1.0 0.1222081277
H  H6  1  0.61750000  0.88550000  0.32590000  1.0 0.1222081277
H  H7  1  0.38250000  0.88550000  0.67410000  1.0 0.1222081277
H  H8  1  0.38250000  0.11450000  0.32590000  1.0 0.1222081277
H  H9  1  0.67410000  0.61750000  0.11450000  1.0 0.1222081277
H  H10  1  0.32590000  0.61750000  0.88550000  1.0 0.1222081277
H  H11  1  0.67410000  0.38250000  0.88550000  1.0 0.1222081277
H  H12  1  0.32590000  0.38250000  0.11450000  1.0 0.1222081277
H  H13  1  0.17410000  0.61450000  0.11750000  1.0 0.1222081277
H  H14  1  0.82590000  0.38550000  0.11750000  1.0 0.1222081277
H  H15  1  0.17410000  0.38550000  0.88250000  1.0 0.1222081277
H  H16  1  0.82590000  0.61450000  0.88250000  1.0 0.1222081277
H  H17  1  0.61450000  0.11750000  0.17410000  1.0 0.1222081277
H  H18  1  0.38550000  0.11750000  0.82590000  1.0 0.1222081277
H  H19  1  0.38550000  0.88250000  0.17410000  1.0 0.1222081277
H  H20  1  0.61450000  0.88250000  0.82590000  1.0 0.1222081277
H  H21  1  0.11750000  0.17410000  0.61450000  1.0 0.1222081277
H  H22  1  0.11750000  0.82590000  0.38550000  1.0 0.1222081277
H  H23  1  0.88250000  0.17410000  0.38550000  1.0 0.1222081277
H  H24  1  0.88250000  0.82590000  0.61450000  1.0 0.1222081277
H  H25  1  0.17380000  0.68060000  0.67650000  1.0 0.1128921396
H  H26  1  0.82620000  0.31940000  0.67650000  1.0 0.1128921396
H  H27  1  0.82620000  0.68060000  0.32350000  1.0 0.1128921396
H  H28  1  0.17380000  0.31940000  0.32350000  1.0 0.1128921396
H  H29  1  0.67650000  0.17380000  0.68060000  1.0 0.1128921396
H  H30  1  0.67650000  0.82620000  0.31940000  1.0 0.1128921396
H  H31  1  0.32350000  0.82620000  0.68060000  1.0 0.1128921396
H  H32  1  0.32350000  0.17380000  0.31940000  1.0 0.1128921396
H  H33  1  0.68060000  0.67650000  0.17380000  1.0 0.1128921396
H  H34  1  0.31940000  0.67650000  0.82620000  1.0 0.1128921396
H  H35  1  0.68060000  0.32350000  0.82620000  1.0 0.1128921396
H  H36  1  0.31940000  0.32350000  0.17380000  1.0 0.1128921396
H  H37  1  0.18060000  0.67380000  0.17650000  1.0 0.1128921396
H  H38  1  0.81940000  0.32620000  0.17650000  1.0 0.1128921396
H  H39  1  0.18060000  0.32620000  0.82350000  1.0 0.1128921396
H  H40  1  0.81940000  0.67380000  0.82350000  1.0 0.1128921396
H  H41  1  0.67380000  0.17650000  0.18060000  1.0 0.1128921396
H  H42  1  0.32620000  0.17650000  0.81940000  1.0 0.1128921396
H  H43  1  0.32620000  0.82350000  0.18060000  1.0 0.1128921396
H  H44  1  0.67380000  0.82350000  0.81940000  1.0 0.1128921396
H  H45  1  0.17650000  0.18060000  0.67380000  1.0 0.1128921396
H  H46  1  0.17650000  0.81940000  0.32620000  1.0 0.1128921396
H  H47  1  0.82350000  0.18060000  0.32620000  1.0 0.1128921396
H  H48  1  0.82350000  0.81940000  0.67380000  1.0 0.1128921396
H  H49  1  0.16390000  0.82540000  0.67040000  1.0 0.1222081277
H  H50  1  0.83610000  0.17460000  0.67040000  1.0 0.1222081277
H  H51  1  0.83610000  0.82540000  0.32960000  1.0 0.1222081277
H  H52  1  0.16390000  0.17460000  0.32960000  1.0 0.1222081277
H  H53  1  0.67040000  0.16390000  0.82540000  1.0 0.1222081277
H  H54  1  0.67040000  0.83610000  0.17460000  1.0 0.1222081277
H  H55  1  0.32960000  0.83610000  0.82540000  1.0 0.1222081277
H  H56  1  0.32960000  0.16390000  0.17460000  1.0 0.1222081277
H  H57  1  0.82540000  0.67040000  0.16390000  1.0 0.1222081277
H  H58  1  0.17460000  0.67040000  0.83610000  1.0 0.1222081277
H  H59  1  0.82540000  0.32960000  0.83610000  1.0 0.1222081277
H  H60  1  0.17460000  0.32960000  0.16390000  1.0 0.1222081277
H  H61  1  0.32540000  0.66390000  0.17040000  1.0 0.1222081277
H  H62  1  0.67460000  0.33610000  0.17040000  1.0 0.1222081277
H  H63  1  0.32540000  0.33610000  0.82960000  1.0 0.1222081277
H  H64  1  0.67460000  0.66390000  0.82960000  1.0 0.1222081277
H  H65  1  0.66390000  0.17040000  0.32540000  1.0 0.1222081277
H  H66  1  0.33610000  0.17040000  0.67460000  1.0 0.1222081277
H  H67  1  0.33610000  0.82960000  0.32540000  1.0 0.1222081277
H  H68  1  0.66390000  0.82960000  0.67460000  1.0 0.1222081277
H  H69  1  0.17040000  0.32540000  0.66390000  1.0 0.1222081277
H  H70  1  0.17040000  0.67460000  0.33610000  1.0 0.1222081277
H  H71  1  0.82960000  0.32540000  0.33610000  1.0 0.1222081277
H  H72  1  0.82960000  0.67460000  0.66390000  1.0 0.1222081277
H  H73  1  0.10470000  0.81890000  0.61140000  1.0 0.127623689
H  H74  1  0.89530000  0.18110000  0.61140000  1.0 0.127623689
H  H75  1  0.89530000  0.81890000  0.38860000  1.0 0.127623689
H  H76  1  0.10470000  0.18110000  0.38860000  1.0 0.127623689
H  H77  1  0.61140000  0.10470000  0.81890000  1.0 0.127623689
H  H78  1  0.61140000  0.89530000  0.18110000  1.0 0.127623689
H  H79  1  0.38860000  0.89530000  0.81890000  1.0 0.127623689
H  H80  1  0.38860000  0.10470000  0.18110000  1.0 0.127623689
H  H81  1  0.81890000  0.61140000  0.10470000  1.0 0.127623689
H  H82  1  0.18110000  0.61140000  0.89530000  1.0 0.127623689
H  H83  1  0.81890000  0.38860000  0.89530000  1.0 0.127623689
H  H84  1  0.18110000  0.38860000  0.10470000  1.0 0.127623689
H  H85  1  0.31890000  0.60470000  0.11140000  1.0 0.127623689
H  H86  1  0.68110000  0.39530000  0.11140000  1.0 0.127623689
H  H87  1  0.31890000  0.39530000  0.88860000  1.0 0.127623689
H  H88  1  0.68110000  0.60470000  0.88860000  1.0 0.127623689
H  H89  1  0.60470000  0.11140000  0.31890000  1.0 0.127623689
H  H90  1  0.39530000  0.11140000  0.68110000  1.0 0.127623689
H  H91  1  0.39530000  0.88860000  0.31890000  1.0 0.127623689
H  H92  1  0.60470000  0.88860000  0.68110000  1.0 0.127623689
H  H93  1  0.11140000  0.31890000  0.60470000  1.0 0.127623689
H  H94  1  0.11140000  0.68110000  0.39530000  1.0 0.127623689
H  H95  1  0.88860000  0.31890000  0.39530000  1.0 0.127623689
H  H96  1  0.88860000  0.68110000  0.60470000  1.0 0.127623689
H  H97  1  0.18870000  0.69390000  0.75140000  1.0 0.1128921396
H  H98  1  0.81130000  0.30610000  0.75140000  1.0 0.1128921396
H  H99  1  0.81130000  0.69390000  0.24860000  1.0 0.1128921396
H  H100  1  0.18870000  0.30610000  0.24860000  1.0 0.1128921396
H  H101  1  0.75140000  0.18870000  0.69390000  1.0 0.1128921396
H  H102  1  0.75140000  0.81130000  0.30610000  1.0 0.1128921396
H  H103  1  0.24860000  0.81130000  0.69390000  1.0 0.1128921396
H  H104  1  0.24860000  0.18870000  0.30610000  1.0 0.1128921396
H  H105  1  0.69390000  0.75140000  0.18870000  1.0 0.1128921396
H  H106  1  0.30610000  0.75140000  0.81130000  1.0 0.1128921396
H  H107  1  0.69390000  0.24860000  0.81130000  1.0 0.1128921396
H  H108  1  0.30610000  0.24860000  0.18870000  1.0 0.1128921396
H  H109  1  0.19390000  0.68870000  0.25140000  1.0 0.1128921396
H  H110  1  0.80610000  0.31130000  0.25140000  1.0 0.1128921396
H  H111  1  0.19390000  0.31130000  0.74860000  1.0 0.1128921396
H  H112  1  0.80610000  0.68870000  0.74860000  1.0 0.1128921396
H  H113  1  0.68870000  0.25140000  0.19390000  1.0 0.1128921396
H  H114  1  0.31130000  0.25140000  0.80610000  1.0 0.1128921396
H  H115  1  0.31130000  0.74860000  0.19390000  1.0 0.1128921396
H  H116  1  0.68870000  0.74860000  0.80610000  1.0 0.1128921396
H  H117  1  0.25140000  0.19390000  0.68870000  1.0 0.1128921396
H  H118  1  0.25140000  0.80610000  0.31130000  1.0 0.1128921396
H  H119  1  0.74860000  0.19390000  0.31130000  1.0 0.1128921396
H  H120  1  0.74860000  0.80610000  0.68870000  1.0 0.1128921396
H  H121  1  0.06210000  0.62160000  0.53370000  1.0 0.1222081277
H  H122  1  0.93790000  0.37840000  0.53370000  1.0 0.1222081277
H  H123  1  0.93790000  0.62160000  0.46630000  1.0 0.1222081277
H  H124  1  0.06210000  0.37840000  0.46630000  1.0 0.1222081277
H  H125  1  0.53370000  0.06210000  0.62160000  1.0 0.1222081277
H  H126  1  0.53370000  0.93790000  0.37840000  1.0 0.1222081277
H  H127  1  0.46630000  0.93790000  0.62160000  1.0 0.1222081277
H  H128  1  0.46630000  0.06210000  0.37840000  1.0 0.1222081277
H  H129  1  0.62160000  0.53370000  0.06210000  1.0 0.1222081277
H  H130  1  0.37840000  0.53370000  0.93790000  1.0 0.1222081277
H  H131  1  0.62160000  0.46630000  0.93790000  1.0 0.1222081277
H  H132  1  0.37840000  0.46630000  0.06210000  1.0 0.1222081277
H  H133  1  0.12160000  0.56210000  0.03370000  1.0 0.1222081277
H  H134  1  0.87840000  0.43790000  0.03370000  1.0 0.1222081277
H  H135  1  0.12160000  0.43790000  0.96630000  1.0 0.1222081277
H  H136  1  0.87840000  0.56210000  0.96630000  1.0 0.1222081277
H  H137  1  0.56210000  0.03370000  0.12160000  1.0 0.1222081277
H  H138  1  0.43790000  0.03370000  0.87840000  1.0 0.1222081277
H  H139  1  0.43790000  0.96630000  0.12160000  1.0 0.1222081277
H  H140  1  0.56210000  0.96630000  0.87840000  1.0 0.1222081277
H  H141  1  0.03370000  0.12160000  0.56210000  1.0 0.1222081277
H  H142  1  0.03370000  0.87840000  0.43790000  1.0 0.1222081277
H  H143  1  0.96630000  0.12160000  0.43790000  1.0 0.1222081277
H  H144  1  0.96630000  0.87840000  0.56210000  1.0 0.1222081277
H  H145  1  0.07370000  0.49230000  0.53990000  1.0 0.2739201119
H  H146  1  0.92630000  0.50770000  0.53990000  1.0 0.2739201119
H  H147  1  0.92630000  0.49230000  0.46010000  1.0 0.2739201119
H  H148  1  0.07370000  0.50770000  0.46010000  1.0 0.2739201119
H  H149  1  0.53990000  0.07370000  0.49230000  1.0 0.2739201119
H  H150  1  0.53990000  0.92630000  0.50770000  1.0 0.2739201119
H  H151  1  0.46010000  0.92630000  0.49230000  1.0 0.2739201119
H  H152  1  0.46010000  0.07370000  0.50770000  1.0 0.2739201119
H  H153  1  0.49230000  0.53990000  0.07370000  1.0 0.2739201119
H  H154  1  0.50770000  0.53990000  0.92630000  1.0 0.2739201119
H  H155  1  0.49230000  0.46010000  0.92630000  1.0 0.2739201119
H  H156  1  0.50770000  0.46010000  0.07370000  1.0 0.2739201119
H  H157  1  0.99230000  0.57370000  0.03990000  1.0 0.2739201119
H  H158  1  0.00770000  0.42630000  0.03990000  1.0 0.2739201119
H  H159  1  0.99230000  0.42630000  0.96010000  1.0 0.2739201119
H  H160  1  0.00770000  0.57370000  0.96010000  1.0 0.2739201119
H  H161  1  0.57370000  0.03990000  0.99230000  1.0 0.2739201119
H  H162  1  0.42630000  0.03990000  0.00770000  1.0 0.2739201119
H  H163  1  0.42630000  0.96010000  0.99230000  1.0 0.2739201119
H  H164  1  0.57370000  0.96010000  0.00770000  1.0 0.2739201119
H  H165  1  0.03990000  0.99230000  0.57370000  1.0 0.2739201119
H  H166  1  0.03990000  0.00770000  0.42630000  1.0 0.2739201119
H  H167  1  0.96010000  0.99230000  0.42630000  1.0 0.2739201119
H  H168  1  0.96010000  0.00770000  0.57370000  1.0 0.2739201119
H  H169  1  0.10010000  0.53670000  0.55540000  1.0 0.286752263
H  H170  1  0.89990000  0.46330000  0.55540000  1.0 0.286752263
H  H171  1  0.89990000  0.53670000  0.44460000  1.0 0.286752263
H  H172  1  0.10010000  0.46330000  0.44460000  1.0 0.286752263
H  H173  1  0.55540000  0.10010000  0.53670000  1.0 0.286752263
H  H174  1  0.55540000  0.89990000  0.46330000  1.0 0.286752263
H  H175  1  0.44460000  0.89990000  0.53670000  1.0 0.286752263
H  H176  1  0.44460000  0.10010000  0.46330000  1.0 0.286752263
H  H177  1  0.53670000  0.55540000  0.10010000  1.0 0.286752263
H  H178  1  0.46330000  0.55540000  0.89990000  1.0 0.286752263
H  H179  1  0.53670000  0.44460000  0.89990000  1.0 0.286752263
H  H180  1  0.46330000  0.44460000  0.10010000  1.0 0.286752263
H  H181  1  0.03670000  0.60010000  0.05540000  1.0 0.286752263
H  H182  1  0.96330000  0.39990000  0.05540000  1.0 0.286752263
H  H183  1  0.03670000  0.39990000  0.94460000  1.0 0.286752263
H  H184  1  0.96330000  0.60010000  0.94460000  1.0 0.286752263
H  H185  1  0.60010000  0.05540000  0.03670000  1.0 0.286752263
H  H186  1  0.39990000  0.05540000  0.96330000  1.0 0.286752263
H  H187  1  0.39990000  0.94460000  0.03670000  1.0 0.286752263
H  H188  1  0.60010000  0.94460000  0.96330000  1.0 0.286752263
H  H189  1  0.05540000  0.03670000  0.60010000  1.0 0.286752263
H  H190  1  0.05540000  0.96330000  0.39990000  1.0 0.286752263
H  H191  1  0.94460000  0.03670000  0.39990000  1.0 0.286752263
H  H192  1  0.94460000  0.96330000  0.60010000  1.0 0.286752263
H  H193  1  0.98320000  0.61990000  0.56860000  1.0 0.127623689
H  H194  1  0.01680000  0.38010000  0.56860000  1.0 0.127623689
H  H195  1  0.01680000  0.61990000  0.43140000  1.0 0.127623689
H  H196  1  0.98320000  0.38010000  0.43140000  1.0 0.127623689
H  H197  1  0.56860000  0.98320000  0.61990000  1.0 0.127623689
H  H198  1  0.56860000  0.01680000  0.38010000  1.0 0.127623689
H  H199  1  0.43140000  0.01680000  0.61990000  1.0 0.127623689
H  H200  1  0.43140000  0.98320000  0.38010000  1.0 0.127623689
H  H201  1  0.61990000  0.56860000  0.98320000  1.0 0.127623689
H  H202  1  0.38010000  0.56860000  0.01680000  1.0 0.127623689
H  H203  1  0.61990000  0.43140000  0.01680000  1.0 0.127623689
H  H204  1  0.38010000  0.43140000  0.98320000  1.0 0.127623689
H  H205  1  0.11990000  0.48320000  0.06860000  1.0 0.127623689
H  H206  1  0.88010000  0.51680000  0.06860000  1.0 0.127623689
H  H207  1  0.11990000  0.51680000  0.93140000  1.0 0.127623689
H  H208  1  0.88010000  0.48320000  0.93140000  1.0 0.127623689
H  H209  1  0.48320000  0.06860000  0.11990000  1.0 0.127623689
H  H210  1  0.51680000  0.06860000  0.88010000  1.0 0.127623689
H  H211  1  0.51680000  0.93140000  0.11990000  1.0 0.127623689
H  H212  1  0.48320000  0.93140000  0.88010000  1.0 0.127623689
H  H213  1  0.06860000  0.11990000  0.48320000  1.0 0.127623689
H  H214  1  0.06860000  0.88010000  0.51680000  1.0 0.127623689
H  H215  1  0.93140000  0.11990000  0.51680000  1.0 0.127623689
H  H216  1  0.93140000  0.88010000  0.48320000  1.0 0.127623689
H  H217  1  0.97570000  0.50600000  0.59970000  1.0 0.2352216435
H  H218  1  0.02430000  0.49400000  0.59970000  1.0 0.2346646083
H  H219  1  0.02430000  0.50600000  0.40030000  1.0 0.2346646083
H  H220  1  0.97570000  0.49400000  0.40030000  1.0 0.2346646083
H  H221  1  0.59970000  0.97570000  0.50600000  1.0 0.2352216435
H  H222  1  0.59970000  0.02430000  0.49400000  1.0 0.2346646083
H  H223  1  0.40030000  0.02430000  0.50600000  1.0 0.2346646083
H  H224  1  0.40030000  0.97570000  0.49400000  1.0 0.2352216435
H  H225  1  0.50600000  0.59970000  0.97570000  1.0 0.2352216435
H  H226  1  0.49400000  0.59970000  0.02430000  1.0 0.2346646083
H  H227  1  0.50600000  0.40030000  0.02430000  1.0 0.2346646083
H  H228  1  0.49400000  0.40030000  0.97570000  1.0 0.2352216435
H  H229  1  0.00600000  0.47570000  0.09970000  1.0 0.2346646083
H  H230  1  0.99400000  0.52430000  0.09970000  1.0 0.2352216435
H  H231  1  0.00600000  0.52430000  0.90030000  1.0 0.2352216435
H  H232  1  0.99400000  0.47570000  0.90030000  1.0 0.2352216435
H  H233  1  0.47570000  0.09970000  0.00600000  1.0 0.2346646083
H  H234  1  0.52430000  0.09970000  0.99400000  1.0 0.2352216435
H  H235  1  0.52430000  0.90030000  0.00600000  1.0 0.2346646083
H  H236  1  0.47570000  0.90030000  0.99400000  1.0 0.2352216435
H  H237  1  0.09970000  0.00600000  0.47570000  1.0 0.2346646083
H  H238  1  0.09970000  0.99400000  0.52430000  1.0 0.2346646083
H  H239  1  0.90030000  0.00600000  0.52430000  1.0 0.2346646083
H  H240  1  0.90030000  0.99400000  0.47570000  1.0 0.2352216435
H  H241  1  0.97140000  0.55760000  0.61440000  1.0 0.2820981994
H  H242  1  0.02860000  0.44240000  0.61440000  1.0 0.2820981994
H  H243  1  0.02860000  0.55760000  0.38560000  1.0 0.2820981994
H  H244  1  0.97140000  0.44240000  0.38560000  1.0 0.2820981994
H  H245  1  0.61440000  0.97140000  0.55760000  1.0 0.2820981994
H  H246  1  0.61440000  0.02860000  0.44240000  1.0 0.2820981994
H  H247  1  0.38560000  0.02860000  0.55760000  1.0 0.2820981994
H  H248  1  0.38560000  0.97140000  0.44240000  1.0 0.2820981994
H  H249  1  0.55760000  0.61440000  0.97140000  1.0 0.2820981994
H  H250  1  0.44240000  0.61440000  0.02860000  1.0 0.2820981994
H  H251  1  0.55760000  0.38560000  0.02860000  1.0 0.2820981994
H  H252  1  0.44240000  0.38560000  0.97140000  1.0 0.2820981994
H  H253  1  0.05760000  0.47140000  0.11440000  1.0 0.2820981994
H  H254  1  0.94240000  0.52860000  0.11440000  1.0 0.2820981994
H  H255  1  0.05760000  0.52860000  0.88560000  1.0 0.2820981994
H  H256  1  0.94240000  0.47140000  0.88560000  1.0 0.2820981994
H  H257  1  0.47140000  0.11440000  0.05760000  1.0 0.2820981994
H  H258  1  0.52860000  0.11440000  0.94240000  1.0 0.2820981994
H  H259  1  0.52860000  0.88560000  0.05760000  1.0 0.2820981994
H  H260  1  0.47140000  0.88560000  0.94240000  1.0 0.2820981994
H  H261  1  0.11440000  0.05760000  0.47140000  1.0 0.2820981994
H  H262  1  0.11440000  0.94240000  0.52860000  1.0 0.2820981994
H  H263  1  0.88560000  0.05760000  0.52860000  1.0 0.2820981994
H  H264  1  0.88560000  0.94240000  0.47140000  1.0 0.2820981994
C  C1  1  0.06520000  0.74209000  0.56430000  1.0 0.5503537101
C  C2  1  0.93480000  0.25791000  0.56430000  1.0 0.5503537101
C  C3  1  0.93480000  0.74209000  0.43570000  1.0 0.5503537101
C  C4  1  0.06520000  0.25791000  0.43570000  1.0 0.5503537101
C  C5  1  0.56430000  0.06520000  0.74209000  1.0 0.5503537101
C  C6  1  0.56430000  0.93480000  0.25791000  1.0 0.5503537101
C  C7  1  0.43570000  0.93480000  0.74209000  1.0 0.5503537101
C  C8  1  0.43570000  0.06520000  0.25791000  1.0 0.5503537101
C  C9  1  0.74209000  0.56430000  0.06520000  1.0 0.5503537101
C  C10  1  0.25791000  0.56430000  0.93480000  1.0 0.5503537101
C  C11  1  0.74209000  0.43570000  0.93480000  1.0 0.5503537101
C  C12  1  0.25791000  0.43570000  0.06520000  1.0 0.5503537101
C  C13  1  0.24209000  0.56520000  0.06430000  1.0 0.5503537101
C  C14  1  0.75791000  0.43480000  0.06430000  1.0 0.5503537101
C  C15  1  0.24209000  0.43480000  0.93570000  1.0 0.5503537101
C  C16  1  0.75791000  0.56520000  0.93570000  1.0 0.5503537101
C  C17  1  0.56520000  0.06430000  0.24209000  1.0 0.5503537101
C  C18  1  0.43480000  0.06430000  0.75791000  1.0 0.5503537101
C  C19  1  0.43480000  0.93570000  0.24209000  1.0 0.5503537101
C  C20  1  0.56520000  0.93570000  0.75791000  1.0 0.5503537101
C  C21  1  0.06430000  0.24209000  0.56520000  1.0 0.5503537101
C  C22  1  0.06430000  0.75791000  0.43480000  1.0 0.5503537101
C  C23  1  0.93570000  0.24209000  0.43480000  1.0 0.5503537101
C  C24  1  0.93570000  0.75791000  0.56520000  1.0 0.5503537101
C  C25  1  0.10373000  0.74582000  0.60859000  1.0 -0.0133109041
C  C26  1  0.89627000  0.25418000  0.60859000  1.0 -0.0133109041
C  C27  1  0.89627000  0.74582000  0.39141000  1.0 -0.0133109041
C  C28  1  0.10373000  0.25418000  0.39141000  1.0 -0.0133109041
C  C29  1  0.60859000  0.10373000  0.74582000  1.0 -0.0133109041
C  C30  1  0.60859000  0.89627000  0.25418000  1.0 -0.0133109041
C  C31  1  0.39141000  0.89627000  0.74582000  1.0 -0.0133109041
C  C32  1  0.39141000  0.10373000  0.25418000  1.0 -0.0133109041
C  C33  1  0.74582000  0.60859000  0.10373000  1.0 -0.0133109041
C  C34  1  0.25418000  0.60859000  0.89627000  1.0 -0.0133109041
C  C35  1  0.74582000  0.39141000  0.89627000  1.0 -0.0133109041
C  C36  1  0.25418000  0.39141000  0.10373000  1.0 -0.0133109041
C  C37  1  0.24582000  0.60373000  0.10859000  1.0 -0.0133109041
C  C38  1  0.75418000  0.39627000  0.10859000  1.0 -0.0133109041
C  C39  1  0.24582000  0.39627000  0.89141000  1.0 -0.0133109041
C  C40  1  0.75418000  0.60373000  0.89141000  1.0 -0.0133109041
C  C41  1  0.60373000  0.10859000  0.24582000  1.0 -0.0133109041
C  C42  1  0.39627000  0.10859000  0.75418000  1.0 -0.0133109041
C  C43  1  0.39627000  0.89141000  0.24582000  1.0 -0.0133109041
C  C44  1  0.60373000  0.89141000  0.75418000  1.0 -0.0133109041
C  C45  1  0.10859000  0.24582000  0.60373000  1.0 -0.0133109041
C  C46  1  0.10859000  0.75418000  0.39627000  1.0 -0.0133109041
C  C47  1  0.89141000  0.24582000  0.39627000  1.0 -0.0133109041
C  C48  1  0.89141000  0.75418000  0.60373000  1.0 -0.0133109041
C  C49  1  0.12444000  0.70439000  0.62809000  1.0 -0.1303789026
C  C50  1  0.87556000  0.29561000  0.62809000  1.0 -0.1303789026
C  C51  1  0.87556000  0.70439000  0.37191000  1.0 -0.1303789026
C  C52  1  0.12444000  0.29561000  0.37191000  1.0 -0.1303789026
C  C53  1  0.62809000  0.12444000  0.70439000  1.0 -0.1303789026
C  C54  1  0.62809000  0.87556000  0.29561000  1.0 -0.1303789026
C  C55  1  0.37191000  0.87556000  0.70439000  1.0 -0.1303789026
C  C56  1  0.37191000  0.12444000  0.29561000  1.0 -0.1303789026
C  C57  1  0.70439000  0.62809000  0.12444000  1.0 -0.1303789026
C  C58  1  0.29561000  0.62809000  0.87556000  1.0 -0.1303789026
C  C59  1  0.70439000  0.37191000  0.87556000  1.0 -0.1303789026
C  C60  1  0.29561000  0.37191000  0.12444000  1.0 -0.1303789026
C  C61  1  0.20439000  0.62444000  0.12809000  1.0 -0.1303789026
C  C62  1  0.79561000  0.37556000  0.12809000  1.0 -0.1303789026
C  C63  1  0.20439000  0.37556000  0.87191000  1.0 -0.1303789026
C  C64  1  0.79561000  0.62444000  0.87191000  1.0 -0.1303789026
C  C65  1  0.62444000  0.12809000  0.20439000  1.0 -0.1303789026
C  C66  1  0.37556000  0.12809000  0.79561000  1.0 -0.1303789026
C  C67  1  0.37556000  0.87191000  0.20439000  1.0 -0.1303789026
C  C68  1  0.62444000  0.87191000  0.79561000  1.0 -0.1303789026
C  C69  1  0.12809000  0.20439000  0.62444000  1.0 -0.1303789026
C  C70  1  0.12809000  0.79561000  0.37556000  1.0 -0.1303789026
C  C71  1  0.87191000  0.20439000  0.37556000  1.0 -0.1303789026
C  C72  1  0.87191000  0.79561000  0.62444000  1.0 -0.1303789026
C  C73  1  0.15994000  0.70829000  0.66345000  1.0 -0.1515623139
C  C74  1  0.84006000  0.29171000  0.66345000  1.0 -0.1515623139
C  C75  1  0.84006000  0.70829000  0.33655000  1.0 -0.1515623139
C  C76  1  0.15994000  0.29171000  0.33655000  1.0 -0.1515623139
C  C77  1  0.66345000  0.15994000  0.70829000  1.0 -0.1515623139
C  C78  1  0.66345000  0.84006000  0.29171000  1.0 -0.1515623139
C  C79  1  0.33655000  0.84006000  0.70829000  1.0 -0.1515623139
C  C80  1  0.33655000  0.15994000  0.29171000  1.0 -0.1515623139
C  C81  1  0.70829000  0.66345000  0.15994000  1.0 -0.1515623139
C  C82  1  0.29171000  0.66345000  0.84006000  1.0 -0.1515623139
C  C83  1  0.70829000  0.33655000  0.84006000  1.0 -0.1515623139
C  C84  1  0.29171000  0.33655000  0.15994000  1.0 -0.1515623139
C  C85  1  0.20829000  0.65994000  0.16345000  1.0 -0.1515623139
C  C86  1  0.79171000  0.34006000  0.16345000  1.0 -0.1515623139
C  C87  1  0.20829000  0.34006000  0.83655000  1.0 -0.1515623139
C  C88  1  0.79171000  0.65994000  0.83655000  1.0 -0.1515623139
C  C89  1  0.65994000  0.16345000  0.20829000  1.0 -0.1515623139
C  C90  1  0.34006000  0.16345000  0.79171000  1.0 -0.1515623139
C  C91  1  0.34006000  0.83655000  0.20829000  1.0 -0.1515623139
C  C92  1  0.65994000  0.83655000  0.79171000  1.0 -0.1515623139
C  C93  1  0.16345000  0.20829000  0.65994000  1.0 -0.1515623139
C  C94  1  0.16345000  0.79171000  0.34006000  1.0 -0.1515623139
C  C95  1  0.83655000  0.20829000  0.34006000  1.0 -0.1515623139
C  C96  1  0.83655000  0.79171000  0.65994000  1.0 -0.1515623139
C  C97  1  0.17474000  0.75360000  0.67931000  1.0 0.0839846252
C  C98  1  0.82526000  0.24640000  0.67931000  1.0 0.0839846252
C  C99  1  0.82526000  0.75360000  0.32069000  1.0 0.0839846252
C  C100  1  0.17474000  0.24640000  0.32069000  1.0 0.0839846252
C  C101  1  0.67931000  0.17474000  0.75360000  1.0 0.0839846252
C  C102  1  0.67931000  0.82526000  0.24640000  1.0 0.0839846252
C  C103  1  0.32069000  0.82526000  0.75360000  1.0 0.0839846252
C  C104  1  0.32069000  0.17474000  0.24640000  1.0 0.0839846252
C  C105  1  0.75360000  0.67931000  0.17474000  1.0 0.0839846252
C  C106  1  0.24640000  0.67931000  0.82526000  1.0 0.0839846252
C  C107  1  0.75360000  0.32069000  0.82526000  1.0 0.0839846252
C  C108  1  0.24640000  0.32069000  0.17474000  1.0 0.0839846252
C  C109  1  0.25360000  0.67474000  0.17931000  1.0 0.0839846252
C  C110  1  0.74640000  0.32526000  0.17931000  1.0 0.0839846252
C  C111  1  0.25360000  0.32526000  0.82069000  1.0 0.0839846252
C  C112  1  0.74640000  0.67474000  0.82069000  1.0 0.0839846252
C  C113  1  0.67474000  0.17931000  0.25360000  1.0 0.0839846252
C  C114  1  0.32526000  0.17931000  0.74640000  1.0 0.0839846252
C  C115  1  0.32526000  0.82069000  0.25360000  1.0 0.0839846252
C  C116  1  0.67474000  0.82069000  0.74640000  1.0 0.0839846252
C  C117  1  0.17931000  0.25360000  0.67474000  1.0 0.0839846252
C  C118  1  0.17931000  0.74640000  0.32526000  1.0 0.0839846252
C  C119  1  0.82069000  0.25360000  0.32526000  1.0 0.0839846252
C  C120  1  0.82069000  0.74640000  0.67474000  1.0 0.0839846252
C  C121  1  0.15404000  0.79506000  0.65980000  1.0 -0.162226926
C  C122  1  0.84596000  0.20494000  0.65980000  1.0 -0.162226926
C  C123  1  0.84596000  0.79506000  0.34020000  1.0 -0.162226926
C  C124  1  0.15404000  0.20494000  0.34020000  1.0 -0.162226926
C  C125  1  0.65980000  0.15404000  0.79506000  1.0 -0.162226926
C  C126  1  0.65980000  0.84596000  0.20494000  1.0 -0.162226926
C  C127  1  0.34020000  0.84596000  0.79506000  1.0 -0.162226926
C  C128  1  0.34020000  0.15404000  0.20494000  1.0 -0.162226926
C  C129  1  0.79506000  0.65980000  0.15404000  1.0 -0.162226926
C  C130  1  0.20494000  0.65980000  0.84596000  1.0 -0.162226926
C  C131  1  0.79506000  0.34020000  0.84596000  1.0 -0.162226926
C  C132  1  0.20494000  0.34020000  0.15404000  1.0 -0.162226926
C  C133  1  0.29506000  0.65404000  0.15980000  1.0 -0.162226926
C  C134  1  0.70494000  0.34596000  0.15980000  1.0 -0.162226926
C  C135  1  0.29506000  0.34596000  0.84020000  1.0 -0.162226926
C  C136  1  0.70494000  0.65404000  0.84020000  1.0 -0.162226926
C  C137  1  0.65404000  0.15980000  0.29506000  1.0 -0.162226926
C  C138  1  0.34596000  0.15980000  0.70494000  1.0 -0.162226926
C  C139  1  0.34596000  0.84020000  0.29506000  1.0 -0.162226926
C  C140  1  0.65404000  0.84020000  0.70494000  1.0 -0.162226926
C  C141  1  0.15980000  0.29506000  0.65404000  1.0 -0.162226926
C  C142  1  0.15980000  0.70494000  0.34596000  1.0 -0.162226926
C  C143  1  0.84020000  0.29506000  0.34596000  1.0 -0.162226926
C  C144  1  0.84020000  0.70494000  0.65404000  1.0 -0.162226926
C  C145  1  0.11853000  0.79116000  0.62445000  1.0 -0.1078930865
C  C146  1  0.88147000  0.20884000  0.62445000  1.0 -0.1078930865
C  C147  1  0.88147000  0.79116000  0.37555000  1.0 -0.1078930865
C  C148  1  0.11853000  0.20884000  0.37555000  1.0 -0.1078930865
C  C149  1  0.62445000  0.11853000  0.79116000  1.0 -0.1078930865
C  C150  1  0.62445000  0.88147000  0.20884000  1.0 -0.1078930865
C  C151  1  0.37555000  0.88147000  0.79116000  1.0 -0.1078930865
C  C152  1  0.37555000  0.11853000  0.20884000  1.0 -0.1078930865
C  C153  1  0.79116000  0.62445000  0.11853000  1.0 -0.1078930865
C  C154  1  0.20884000  0.62445000  0.88147000  1.0 -0.1078930865
C  C155  1  0.79116000  0.37555000  0.88147000  1.0 -0.1078930865
C  C156  1  0.20884000  0.37555000  0.11853000  1.0 -0.1078930865
C  C157  1  0.29116000  0.61853000  0.12445000  1.0 -0.1078930865
C  C158  1  0.70884000  0.38147000  0.12445000  1.0 -0.1078930865
C  C159  1  0.29116000  0.38147000  0.87555000  1.0 -0.1078930865
C  C160  1  0.70884000  0.61853000  0.87555000  1.0 -0.1078930865
C  C161  1  0.61853000  0.12445000  0.29116000  1.0 -0.1078930865
C  C162  1  0.38147000  0.12445000  0.70884000  1.0 -0.1078930865
C  C163  1  0.38147000  0.87555000  0.29116000  1.0 -0.1078930865
C  C164  1  0.61853000  0.87555000  0.70884000  1.0 -0.1078930865
C  C165  1  0.12445000  0.29116000  0.61853000  1.0 -0.1078930865
C  C166  1  0.12445000  0.70884000  0.38147000  1.0 -0.1078930865
C  C167  1  0.87555000  0.29116000  0.38147000  1.0 -0.1078930865
C  C168  1  0.87555000  0.70884000  0.61853000  1.0 -0.1078930865
C  C169  1  0.21875000  0.74690000  0.71200000  1.0 0.0695357201
C  C170  1  0.78125000  0.25310000  0.71200000  1.0 0.0695357201
C  C171  1  0.78125000  0.74690000  0.28800000  1.0 0.0695357201
C  C172  1  0.21875000  0.25310000  0.28800000  1.0 0.0695357201
C  C173  1  0.71200000  0.21875000  0.74690000  1.0 0.0695357201
C  C174  1  0.71200000  0.78125000  0.25310000  1.0 0.0695357201
C  C175  1  0.28800000  0.78125000  0.74690000  1.0 0.0695357201
C  C176  1  0.28800000  0.21875000  0.25310000  1.0 0.0695357201
C  C177  1  0.74690000  0.71200000  0.21875000  1.0 0.0695357201
C  C178  1  0.25310000  0.71200000  0.78125000  1.0 0.0695357201
C  C179  1  0.74690000  0.28800000  0.78125000  1.0 0.0695357201
C  C180  1  0.25310000  0.28800000  0.21875000  1.0 0.0695357201
C  C181  1  0.24690000  0.71875000  0.21200000  1.0 0.0695357201
C  C182  1  0.75310000  0.28125000  0.21200000  1.0 0.0695357201
C  C183  1  0.24690000  0.28125000  0.78800000  1.0 0.0695357201
C  C184  1  0.75310000  0.71875000  0.78800000  1.0 0.0695357201
C  C185  1  0.71875000  0.21200000  0.24690000  1.0 0.0695357201
C  C186  1  0.28125000  0.21200000  0.75310000  1.0 0.0695357201
C  C187  1  0.28125000  0.78800000  0.24690000  1.0 0.0695357201
C  C188  1  0.71875000  0.78800000  0.75310000  1.0 0.0695357201
C  C189  1  0.21200000  0.24690000  0.71875000  1.0 0.0695357201
C  C190  1  0.21200000  0.75310000  0.28125000  1.0 0.0695357201
C  C191  1  0.78800000  0.24690000  0.28125000  1.0 0.0695357201
C  C192  1  0.78800000  0.75310000  0.71875000  1.0 0.0695357201
C  C193  1  0.21540000  0.71410000  0.74850000  1.0 -0.201169119
C  C194  1  0.78460000  0.28590000  0.74850000  1.0 -0.201169119
C  C195  1  0.78460000  0.71410000  0.25150000  1.0 -0.201169119
C  C196  1  0.21540000  0.28590000  0.25150000  1.0 -0.201169119
C  C197  1  0.74850000  0.21540000  0.71410000  1.0 -0.201169119
C  C198  1  0.74850000  0.78460000  0.28590000  1.0 -0.201169119
C  C199  1  0.25150000  0.78460000  0.71410000  1.0 -0.201169119
C  C200  1  0.25150000  0.21540000  0.28590000  1.0 -0.201169119
C  C201  1  0.71410000  0.74850000  0.21540000  1.0 -0.201169119
C  C202  1  0.28590000  0.74850000  0.78460000  1.0 -0.201169119
C  C203  1  0.71410000  0.25150000  0.78460000  1.0 -0.201169119
C  C204  1  0.28590000  0.25150000  0.21540000  1.0 -0.201169119
C  C205  1  0.21410000  0.71540000  0.24850000  1.0 -0.201169119
C  C206  1  0.78590000  0.28460000  0.24850000  1.0 -0.201169119
C  C207  1  0.21410000  0.28460000  0.75150000  1.0 -0.201169119
C  C208  1  0.78590000  0.71540000  0.75150000  1.0 -0.201169119
C  C209  1  0.71540000  0.24850000  0.21410000  1.0 -0.201169119
C  C210  1  0.28460000  0.24850000  0.78590000  1.0 -0.201169119
C  C211  1  0.28460000  0.75150000  0.21410000  1.0 -0.201169119
C  C212  1  0.71540000  0.75150000  0.78590000  1.0 -0.201169119
C  C213  1  0.24850000  0.21410000  0.71540000  1.0 -0.201169119
C  C214  1  0.24850000  0.78590000  0.28460000  1.0 -0.201169119
C  C215  1  0.75150000  0.21410000  0.28460000  1.0 -0.201169119
C  C216  1  0.75150000  0.78590000  0.71540000  1.0 -0.201169119
C  C217  1  0.00000000  0.52672000  0.50000000  1.0 -0.0008350502
C  C218  1  0.00000000  0.47328000  0.50000000  1.0 -0.0008350502
C  C219  1  0.50000000  0.00000000  0.52672000  1.0 -0.0008350502
C  C220  1  0.50000000  0.00000000  0.47328000  1.0 -0.0008350502
C  C221  1  0.52672000  0.50000000  0.00000000  1.0 -0.0008350502
C  C222  1  0.47328000  0.50000000  0.00000000  1.0 -0.0008350502
C  C223  1  0.02672000  0.50000000  0.00000000  1.0 -0.0008350502
C  C224  1  0.97328000  0.50000000  0.00000000  1.0 0.0012230097
C  C225  1  0.50000000  0.00000000  0.02672000  1.0 -0.0008350502
C  C226  1  0.50000000  0.00000000  0.97328000  1.0 -0.0008350502
C  C227  1  0.00000000  0.02672000  0.50000000  1.0 -0.0008350502
C  C228  1  0.00000000  0.97328000  0.50000000  1.0 -0.0008350502
C  C229  1  0.03670000  0.60420000  0.52017000  1.0 -0.0688922999
C  C230  1  0.96330000  0.39580000  0.52017000  1.0 -0.0688922999
C  C231  1  0.96330000  0.60420000  0.47983000  1.0 -0.0688922999
C  C232  1  0.03670000  0.39580000  0.47983000  1.0 -0.0688922999
C  C233  1  0.52017000  0.03670000  0.60420000  1.0 -0.0688922999
C  C234  1  0.52017000  0.96330000  0.39580000  1.0 -0.0688922999
C  C235  1  0.47983000  0.96330000  0.60420000  1.0 -0.0688922999
C  C236  1  0.47983000  0.03670000  0.39580000  1.0 -0.0688922999
C  C237  1  0.60420000  0.52017000  0.03670000  1.0 -0.0688922999
C  C238  1  0.39580000  0.52017000  0.96330000  1.0 -0.0688922999
C  C239  1  0.60420000  0.47983000  0.96330000  1.0 -0.0688922999
C  C240  1  0.39580000  0.47983000  0.03670000  1.0 -0.0688922999
C  C241  1  0.10420000  0.53670000  0.02017000  1.0 -0.0688922999
C  C242  1  0.89580000  0.46330000  0.02017000  1.0 -0.0688922999
C  C243  1  0.10420000  0.46330000  0.97983000  1.0 -0.0688922999
C  C244  1  0.89580000  0.53670000  0.97983000  1.0 -0.0688922999
C  C245  1  0.53670000  0.02017000  0.10420000  1.0 -0.0688922999
C  C246  1  0.46330000  0.02017000  0.89580000  1.0 -0.0688922999
C  C247  1  0.46330000  0.97983000  0.10420000  1.0 -0.0688922999
C  C248  1  0.53670000  0.97983000  0.89580000  1.0 -0.0688922999
C  C249  1  0.02017000  0.10420000  0.53670000  1.0 -0.0688922999
C  C250  1  0.02017000  0.89580000  0.46330000  1.0 -0.0688922999
C  C251  1  0.97983000  0.10420000  0.46330000  1.0 -0.0688922999
C  C252  1  0.97983000  0.89580000  0.53670000  1.0 -0.0688922999
C  C253  1  0.03770000  0.55280000  0.52140000  1.0 0.0695357201
C  C254  1  0.96230000  0.44720000  0.52140000  1.0 0.0695357201
C  C255  1  0.96230000  0.55280000  0.47860000  1.0 0.0695357201
C  C256  1  0.03770000  0.44720000  0.47860000  1.0 0.0695357201
C  C257  1  0.52140000  0.03770000  0.55280000  1.0 0.0695357201
C  C258  1  0.52140000  0.96230000  0.44720000  1.0 0.0695357201
C  C259  1  0.47860000  0.96230000  0.55280000  1.0 0.0695357201
C  C260  1  0.47860000  0.03770000  0.44720000  1.0 0.0695357201
C  C261  1  0.55280000  0.52140000  0.03770000  1.0 0.0695357201
C  C262  1  0.44720000  0.52140000  0.96230000  1.0 0.0695357201
C  C263  1  0.55280000  0.47860000  0.96230000  1.0 0.0695357201
C  C264  1  0.44720000  0.47860000  0.03770000  1.0 0.0695357201
C  C265  1  0.05280000  0.53770000  0.02140000  1.0 0.0695357201
C  C266  1  0.94720000  0.46230000  0.02140000  1.0 0.0695357201
C  C267  1  0.05280000  0.46230000  0.97860000  1.0 0.0695357201
C  C268  1  0.94720000  0.53770000  0.97860000  1.0 0.0695357201
C  C269  1  0.53770000  0.02140000  0.05280000  1.0 0.0695357201
C  C270  1  0.46230000  0.02140000  0.94720000  1.0 0.0695357201
C  C271  1  0.46230000  0.97860000  0.05280000  1.0 0.0695357201
C  C272  1  0.53770000  0.97860000  0.94720000  1.0 0.0695357201
C  C273  1  0.02140000  0.05280000  0.53770000  1.0 0.0695357201
C  C274  1  0.02140000  0.94720000  0.46230000  1.0 0.0695357201
C  C275  1  0.97860000  0.05280000  0.46230000  1.0 0.0695357201
C  C276  1  0.97860000  0.94720000  0.53770000  1.0 0.0695357201
C  C277  1  0.98992000  0.60240000  0.54070000  1.0 -0.0688922999
C  C278  1  0.01008000  0.39760000  0.54070000  1.0 -0.0688922999
C  C279  1  0.01008000  0.60240000  0.45930000  1.0 -0.0688922999
C  C280  1  0.98992000  0.39760000  0.45930000  1.0 -0.0688922999
C  C281  1  0.54070000  0.98992000  0.60240000  1.0 -0.0688922999
C  C282  1  0.54070000  0.01008000  0.39760000  1.0 -0.0688922999
C  C283  1  0.45930000  0.01008000  0.60240000  1.0 -0.0688922999
C  C284  1  0.45930000  0.98992000  0.39760000  1.0 -0.0688922999
C  C285  1  0.60240000  0.54070000  0.98992000  1.0 -0.0688922999
C  C286  1  0.39760000  0.54070000  0.01008000  1.0 -0.0688922999
C  C287  1  0.60240000  0.45930000  0.01008000  1.0 -0.0688922999
C  C288  1  0.39760000  0.45930000  0.98992000  1.0 -0.0688922999
C  C289  1  0.10240000  0.48992000  0.04070000  1.0 -0.0688922999
C  C290  1  0.89760000  0.51008000  0.04070000  1.0 -0.0688922999
C  C291  1  0.10240000  0.51008000  0.95930000  1.0 -0.0688922999
C  C292  1  0.89760000  0.48992000  0.95930000  1.0 -0.0688922999
C  C293  1  0.48992000  0.04070000  0.10240000  1.0 -0.0688922999
C  C294  1  0.51008000  0.04070000  0.89760000  1.0 -0.0688922999
C  C295  1  0.51008000  0.95930000  0.10240000  1.0 -0.0688922999
C  C296  1  0.48992000  0.95930000  0.89760000  1.0 -0.0688922999
C  C297  1  0.04070000  0.10240000  0.48992000  1.0 -0.0688922999
C  C298  1  0.04070000  0.89760000  0.51008000  1.0 -0.0688922999
C  C299  1  0.95930000  0.10240000  0.51008000  1.0 -0.0688922999
C  C300  1  0.95930000  0.89760000  0.48992000  1.0 -0.0688922999
C  C301  1  0.98890000  0.55110000  0.54370000  1.0 0.0533248269
C  C302  1  0.01110000  0.44890000  0.54370000  1.0 0.0533248269
C  C303  1  0.01110000  0.55110000  0.45630000  1.0 0.0533248269
C  C304  1  0.98890000  0.44890000  0.45630000  1.0 0.0533248269
C  C305  1  0.54370000  0.98890000  0.55110000  1.0 0.0533248269
C  C306  1  0.54370000  0.01110000  0.44890000  1.0 0.0533248269
C  C307  1  0.45630000  0.01110000  0.55110000  1.0 0.0533248269
C  C308  1  0.45630000  0.98890000  0.44890000  1.0 0.0533248269
C  C309  1  0.55110000  0.54370000  0.98890000  1.0 0.0533248269
C  C310  1  0.44890000  0.54370000  0.01110000  1.0 0.0533248269
C  C311  1  0.55110000  0.45630000  0.01110000  1.0 0.0533248269
C  C312  1  0.44890000  0.45630000  0.98890000  1.0 0.0533248269
C  C313  1  0.05110000  0.48890000  0.04370000  1.0 0.0533248269
C  C314  1  0.94890000  0.51110000  0.04370000  1.0 0.0533248269
C  C315  1  0.05110000  0.51110000  0.95630000  1.0 0.0533248269
C  C316  1  0.94890000  0.48890000  0.95630000  1.0 0.0533248269
C  C317  1  0.48890000  0.04370000  0.05110000  1.0 0.0533248269
C  C318  1  0.51110000  0.04370000  0.94890000  1.0 0.0533248269
C  C319  1  0.51110000  0.95630000  0.05110000  1.0 0.0533248269
C  C320  1  0.48890000  0.95630000  0.94890000  1.0 0.0533248269
C  C321  1  0.04370000  0.05110000  0.48890000  1.0 0.0533248269
C  C322  1  0.04370000  0.94890000  0.51110000  1.0 0.0533248269
C  C323  1  0.95630000  0.05110000  0.51110000  1.0 0.0533248269
C  C324  1  0.95630000  0.94890000  0.48890000  1.0 0.0533248269
N  N1  1  0.00000000  0.62740000  0.50000000  1.0 0.0012230097
N  N2  1  0.00000000  0.37260000  0.50000000  1.0 0.0012230097
N  N3  1  0.50000000  0.00000000  0.62740000  1.0 0.0012230097
N  N4  1  0.50000000  0.00000000  0.37260000  1.0 0.0012230097
N  N5  1  0.62740000  0.50000000  0.00000000  1.0 0.0012230097
N  N6  1  0.37260000  0.50000000  0.00000000  1.0 0.0012230097
N  N7  1  0.12740000  0.50000000  0.00000000  1.0 0.0012230097
N  N8  1  0.87260000  0.50000000  0.00000000  1.0 0.0012230097
N  N9  1  0.50000000  0.00000000  0.12740000  1.0 0.0012230097
N  N10  1  0.50000000  0.00000000  0.87260000  1.0 0.0012230097
N  N11  1  0.00000000  0.12740000  0.50000000  1.0 0.0012230097
N  N12  1  0.00000000  0.87260000  0.50000000  1.0 0.0012230097
N  N13  1  0.07560000  0.52330000  0.54160000  1.0 -0.5951828914
N  N14  1  0.92440000  0.47670000  0.54160000  1.0 -0.5943515118
N  N15  1  0.92440000  0.52330000  0.45840000  1.0 -0.5943515118
N  N16  1  0.07560000  0.47670000  0.45840000  1.0 -0.5951828914
N  N17  1  0.54160000  0.07560000  0.52330000  1.0 -0.5943515118
N  N18  1  0.54160000  0.92440000  0.47670000  1.0 -0.5943515118
N  N19  1  0.45840000  0.92440000  0.52330000  1.0 -0.5943515118
N  N20  1  0.45840000  0.07560000  0.47670000  1.0 -0.5943515118
N  N21  1  0.52330000  0.54160000  0.07560000  1.0 -0.5943515118
N  N22  1  0.47670000  0.54160000  0.92440000  1.0 -0.5951828914
N  N23  1  0.52330000  0.45840000  0.92440000  1.0 -0.5951828914
N  N24  1  0.47670000  0.45840000  0.07560000  1.0 -0.5943515118
N  N25  1  0.02330000  0.57560000  0.04160000  1.0 -0.5943515118
N  N26  1  0.97670000  0.42440000  0.04160000  1.0 -0.5943515118
N  N27  1  0.02330000  0.42440000  0.95840000  1.0 -0.5951828914
N  N28  1  0.97670000  0.57560000  0.95840000  1.0 -0.5943515118
N  N29  1  0.57560000  0.04160000  0.02330000  1.0 -0.5943515118
N  N30  1  0.42440000  0.04160000  0.97670000  1.0 -0.5951828914
N  N31  1  0.42440000  0.95840000  0.02330000  1.0 -0.5943515118
N  N32  1  0.57560000  0.95840000  0.97670000  1.0 -0.5943515118
N  N33  1  0.04160000  0.02330000  0.57560000  1.0 -0.5951828914
N  N34  1  0.04160000  0.97670000  0.42440000  1.0 -0.5943515118
N  N35  1  0.95840000  0.02330000  0.42440000  1.0 -0.5943515118
N  N36  1  0.95840000  0.97670000  0.57560000  1.0 -0.5943515118
N  N37  1  0.97700000  0.53620000  0.59250000  1.0 -0.570106512
N  N38  1  0.02300000  0.46380000  0.59250000  1.0 -0.570106512
N  N39  1  0.02300000  0.53620000  0.40750000  1.0 -0.570106512
N  N40  1  0.97700000  0.46380000  0.40750000  1.0 -0.570106512
N  N41  1  0.59250000  0.97700000  0.53620000  1.0 -0.570106512
N  N42  1  0.59250000  0.02300000  0.46380000  1.0 -0.570106512
N  N43  1  0.40750000  0.02300000  0.53620000  1.0 -0.570106512
N  N44  1  0.40750000  0.97700000  0.46380000  1.0 -0.570106512
N  N45  1  0.53620000  0.59250000  0.97700000  1.0 -0.570106512
N  N46  1  0.46380000  0.59250000  0.02300000  1.0 -0.570106512
N  N47  1  0.53620000  0.40750000  0.02300000  1.0 -0.570106512
N  N48  1  0.46380000  0.40750000  0.97700000  1.0 -0.570106512
N  N49  1  0.03620000  0.47700000  0.09250000  1.0 -0.570106512
N  N50  1  0.96380000  0.52300000  0.09250000  1.0 -0.570106512
N  N51  1  0.03620000  0.52300000  0.90750000  1.0 -0.570106512
N  N52  1  0.96380000  0.47700000  0.90750000  1.0 -0.570106512
N  N53  1  0.47700000  0.09250000  0.03620000  1.0 -0.570106512
N  N54  1  0.52300000  0.09250000  0.96380000  1.0 -0.570106512
N  N55  1  0.52300000  0.90750000  0.03620000  1.0 -0.570106512
N  N56  1  0.47700000  0.90750000  0.96380000  1.0 -0.570106512
N  N57  1  0.09250000  0.03620000  0.47700000  1.0 -0.570106512
N  N58  1  0.09250000  0.96380000  0.52300000  1.0 -0.570106512
N  N59  1  0.90750000  0.03620000  0.52300000  1.0 -0.570106512
N  N60  1  0.90750000  0.96380000  0.47700000  1.0 -0.570106512
O  O1  1  0.05260000  0.79009000  0.55225000  1.0 -0.6605726189
O  O2  1  0.94740000  0.20991000  0.55225000  1.0 -0.6605726189
O  O3  1  0.94740000  0.79009000  0.44775000  1.0 -0.6605726189
O  O4  1  0.05260000  0.20991000  0.44775000  1.0 -0.6605726189
O  O5  1  0.55225000  0.05260000  0.79009000  1.0 -0.6605726189
O  O6  1  0.55225000  0.94740000  0.20991000  1.0 -0.6605726189
O  O7  1  0.44775000  0.94740000  0.79009000  1.0 -0.6605726189
O  O8  1  0.44775000  0.05260000  0.20991000  1.0 -0.6605726189
O  O9  1  0.79009000  0.55225000  0.05260000  1.0 -0.6605726189
O  O10  1  0.20991000  0.55225000  0.94740000  1.0 -0.6605726189
O  O11  1  0.79009000  0.44775000  0.94740000  1.0 -0.6605726189
O  O12  1  0.20991000  0.44775000  0.05260000  1.0 -0.6605726189
O  O13  1  0.29009000  0.55260000  0.05225000  1.0 -0.6605726189
O  O14  1  0.70991000  0.44740000  0.05225000  1.0 -0.6605726189
O  O15  1  0.29009000  0.44740000  0.94775000  1.0 -0.6605726189
O  O16  1  0.70991000  0.55260000  0.94775000  1.0 -0.6605726189
O  O17  1  0.55260000  0.05225000  0.29009000  1.0 -0.6605726189
O  O18  1  0.44740000  0.05225000  0.70991000  1.0 -0.6605726189
O  O19  1  0.44740000  0.94775000  0.29009000  1.0 -0.6605726189
O  O20  1  0.55260000  0.94775000  0.70991000  1.0 -0.6605726189
O  O21  1  0.05225000  0.29009000  0.55260000  1.0 -0.6605726189
O  O22  1  0.05225000  0.70991000  0.44740000  1.0 -0.6605726189
O  O23  1  0.94775000  0.29009000  0.44740000  1.0 -0.6605726189
O  O24  1  0.94775000  0.70991000  0.55260000  1.0 -0.6605726189
O  O25  1  0.04982000  0.70795000  0.54853000  1.0 -0.415107991
O  O26  1  0.95018000  0.29205000  0.54853000  1.0 -0.4145441609
O  O27  1  0.95018000  0.70795000  0.45147000  1.0 -0.4145441609
O  O28  1  0.04982000  0.29205000  0.45147000  1.0 -0.415107991
O  O29  1  0.54853000  0.04982000  0.70795000  1.0 -0.4145441609
O  O30  1  0.54853000  0.95018000  0.29205000  1.0 -0.4145441609
O  O31  1  0.45147000  0.95018000  0.70795000  1.0 -0.4145441609
O  O32  1  0.45147000  0.04982000  0.29205000  1.0 -0.4145441609
O  O33  1  0.70795000  0.54853000  0.04982000  1.0 -0.4145441609
O  O34  1  0.29205000  0.54853000  0.95018000  1.0 -0.415107991
O  O35  1  0.70795000  0.45147000  0.95018000  1.0 -0.415107991
O  O36  1  0.29205000  0.45147000  0.04982000  1.0 -0.4145441609
O  O37  1  0.20795000  0.54982000  0.04853000  1.0 -0.4145441609
O  O38  1  0.79205000  0.45018000  0.04853000  1.0 -0.4145441609
O  O39  1  0.20795000  0.45018000  0.95147000  1.0 -0.415107991
O  O40  1  0.79205000  0.54982000  0.95147000  1.0 -0.415107991
O  O41  1  0.54982000  0.04853000  0.20795000  1.0 -0.4145441609
O  O42  1  0.45018000  0.04853000  0.79205000  1.0 -0.4145441609
O  O43  1  0.45018000  0.95147000  0.20795000  1.0 -0.4145441609
O  O44  1  0.54982000  0.95147000  0.79205000  1.0 -0.4145441609
O  O45  1  0.04853000  0.20795000  0.54982000  1.0 -0.415107991
O  O46  1  0.04853000  0.79205000  0.45018000  1.0 -0.415107991
O  O47  1  0.95147000  0.20795000  0.45018000  1.0 -0.4145441609
O  O48  1  0.95147000  0.79205000  0.54982000  1.0 -0.4145441609
