# DDEC6 charges by PACMAN v1.1 (https://github.com/mtap-research/PACMAN-charge/)
data_NHBZZN10_ASR_pacman
_symmetry_space_group_name_H-M   'P 1'
_cell_length_a   7.62300000
_cell_length_b   11.18900000
_cell_length_c   16.87300000
_cell_angle_alpha   90.00000000
_cell_angle_beta   90.00000000
_cell_angle_gamma   90.00000000
_symmetry_Int_Tables_number   1
_chemical_formula_structural   ZnH8C14(NO2)2
_chemical_formula_sum   'Zn4 H32 C56 N8 O16'
_cell_volume   1439.16139313
_cell_formula_units_Z   4
loop_
 _symmetry_equiv_pos_site_id
 _symmetry_equiv_pos_as_xyz
  1  'x, y, z'
loop_
 _atom_site_type_symbol
 _atom_site_label
 _atom_site_symmetry_multiplicity
 _atom_site_fract_x
 _atom_site_fract_y
 _atom_site_fract_z
 _atom_site_occupancy
 _atom_site_charge
Zn  Zn1  1  0.10140000  0.64180000  0.03870000  1.0 0.9195989367
Zn  Zn2  1  0.39860000  0.35820000  0.53870000  1.0 0.9195989367
Zn  Zn3  1  0.89860000  0.14180000  0.46130000  1.0 0.9195989367
Zn  Zn4  1  0.60140000  0.85820000  0.96130000  1.0 0.9195989367
H  H1  1  0.50378000  0.63501000  0.31473000  1.0 0.0919413608
H  H2  1  0.45484000  0.67310000  0.16755000  1.0 0.111322737
H  H3  1  0.22050000  0.31778000  0.14093000  1.0 0.0997380701
H  H4  1  0.28156000  0.27456000  0.28772000  1.0 0.0919413608
H  H5  1  0.74462000  0.28833000  0.25574000  1.0 0.0849838552
H  H6  1  0.74401000  0.37712000  0.12277000  1.0 0.111322737
H  H7  1  0.00168000  0.70210000  0.22344000  1.0 0.0919413608
H  H8  1  0.00007000  0.60736000  0.35510000  1.0 0.0997380701
H  H9  1  0.99622000  0.36499000  0.81473000  1.0 0.0919413608
H  H10  1  0.04516000  0.32690000  0.66755000  1.0 0.111322737
H  H11  1  0.27950000  0.68222000  0.64093000  1.0 0.0997380701
H  H12  1  0.21744000  0.72480000  0.78891000  1.0 0.0919413608
H  H13  1  0.75538000  0.71167000  0.75574000  1.0 0.0849838552
H  H14  1  0.75599000  0.62288000  0.62277000  1.0 0.111322737
H  H15  1  0.49832000  0.29790000  0.72344000  1.0 0.0919413608
H  H16  1  0.49993000  0.39264000  0.85510000  1.0 0.0997380701
H  H17  1  0.49622000  0.13501000  0.18527000  1.0 0.0919413608
H  H18  1  0.54516000  0.17310000  0.33245000  1.0 0.111322737
H  H19  1  0.77950000  0.81778000  0.35907000  1.0 0.0997380701
H  H20  1  0.71744000  0.77520000  0.21109000  1.0 0.0997380701
H  H21  1  0.25538000  0.78833000  0.24426000  1.0 0.0849838552
H  H22  1  0.25599000  0.87712000  0.37723000  1.0 0.111322737
H  H23  1  0.99832000  0.20210000  0.27656000  1.0 0.0919413608
H  H24  1  0.99993000  0.10736000  0.14490000  1.0 0.0997380701
H  H25  1  0.00378000  0.86499000  0.68527000  1.0 0.0919413608
H  H26  1  0.95484000  0.82690000  0.83245000  1.0 0.111322737
H  H27  1  0.72050000  0.18222000  0.85907000  1.0 0.0997380701
H  H28  1  0.78256000  0.22480000  0.71109000  1.0 0.0997380701
H  H29  1  0.24462000  0.21167000  0.74426000  1.0 0.0849838552
H  H30  1  0.24401000  0.12288000  0.87723000  1.0 0.111322737
H  H31  1  0.50168000  0.79790000  0.77656000  1.0 0.0919413608
H  H32  1  0.50007000  0.89264000  0.64490000  1.0 0.0997380701
C  C1  1  0.41740000  0.43380000  0.39590000  1.0 0.5343765464
C  C2  1  0.39040000  0.45450000  0.30700000  1.0 -0.0194794906
C  C3  1  0.44110000  0.56440000  0.27510000  1.0 -0.0902017134
C  C4  1  0.41340000  0.58460000  0.19530000  1.0 -0.1253309402
C  C5  1  0.33460000  0.49560000  0.14980000  1.0 0.2085830678
C  C6  1  0.28540000  0.38740000  0.18060000  1.0 -0.137347583
C  C7  1  0.31670000  0.36510000  0.26110000  1.0 -0.0789355238
C  C8  1  0.87360000  0.38430000  0.39530000  1.0 0.5669802871
C  C9  1  0.87060000  0.44160000  0.31400000  1.0 -0.0194794906
C  C10  1  0.80130000  0.38200000  0.24860000  1.0 -0.1126996654
C  C11  1  0.79760000  0.43090000  0.17480000  1.0 -0.1023483652
C  C12  1  0.86510000  0.55540000  0.16460000  1.0 0.234620623
C  C13  1  0.93920000  0.61000000  0.22960000  1.0 -0.1716459322
C  C14  1  0.94120000  0.55780000  0.30240000  1.0 -0.0789355238
C  C15  1  0.08260000  0.56620000  0.89590000  1.0 0.5343765464
C  C16  1  0.10960000  0.54550000  0.80700000  1.0 -0.0194794906
C  C17  1  0.05890000  0.43560000  0.77510000  1.0 -0.0902017134
C  C18  1  0.08660000  0.41540000  0.69530000  1.0 -0.1241165029
C  C19  1  0.16540000  0.50440000  0.64980000  1.0 0.2085830678
C  C20  1  0.21460000  0.61260000  0.68060000  1.0 -0.137347583
C  C21  1  0.18330000  0.63490000  0.76110000  1.0 -0.0789355238
C  C22  1  0.62640000  0.61570000  0.89530000  1.0 0.5669802871
C  C23  1  0.62940000  0.55840000  0.81400000  1.0 -0.0194794906
C  C24  1  0.69870000  0.61800000  0.74860000  1.0 -0.1126996654
C  C25  1  0.70240000  0.56910000  0.67480000  1.0 -0.1023483652
C  C26  1  0.63490000  0.44460000  0.66460000  1.0 0.234620623
C  C27  1  0.56080000  0.39000000  0.72960000  1.0 -0.1716459322
C  C28  1  0.55880000  0.44220000  0.80240000  1.0 -0.0789355238
C  C29  1  0.58260000  0.93380000  0.10410000  1.0 0.5343765464
C  C30  1  0.60960000  0.95450000  0.19300000  1.0 -0.0194794906
C  C31  1  0.55890000  0.06440000  0.22490000  1.0 -0.0902017134
C  C32  1  0.58660000  0.08460000  0.30470000  1.0 -0.1253309402
C  C33  1  0.66540000  0.99560000  0.35020000  1.0 0.2085830678
C  C34  1  0.71460000  0.88740000  0.31940000  1.0 -0.137347583
C  C35  1  0.68330000  0.86510000  0.23890000  1.0 -0.0789355238
C  C36  1  0.12640000  0.88430000  0.10470000  1.0 0.5669802871
C  C37  1  0.12940000  0.94160000  0.18600000  1.0 -0.0194794906
C  C38  1  0.19870000  0.88200000  0.25140000  1.0 -0.1126996654
C  C39  1  0.20240000  0.93090000  0.32520000  1.0 -0.1023483652
C  C40  1  0.13490000  0.05540000  0.33540000  1.0 0.234620623
C  C41  1  0.06080000  0.11000000  0.27040000  1.0 -0.1716459322
C  C42  1  0.05880000  0.05780000  0.19760000  1.0 -0.0789355238
C  C43  1  0.91740000  0.06620000  0.60410000  1.0 0.5343765464
C  C44  1  0.89040000  0.04550000  0.69300000  1.0 -0.0194794906
C  C45  1  0.94110000  0.93560000  0.72490000  1.0 -0.0902017134
C  C46  1  0.91340000  0.91540000  0.80470000  1.0 -0.1241165029
C  C47  1  0.83460000  0.00440000  0.85020000  1.0 0.2085830678
C  C48  1  0.78540000  0.11260000  0.81940000  1.0 -0.137347583
C  C49  1  0.81670000  0.13490000  0.73890000  1.0 -0.0789355238
C  C50  1  0.37360000  0.11570000  0.60470000  1.0 0.5669802871
C  C51  1  0.37060000  0.05840000  0.68600000  1.0 -0.0194794906
C  C52  1  0.30130000  0.11800000  0.75140000  1.0 -0.1126996654
C  C53  1  0.29760000  0.06910000  0.82520000  1.0 -0.1023483652
C  C54  1  0.36510000  0.94460000  0.83540000  1.0 0.234620623
C  C55  1  0.43920000  0.89000000  0.77040000  1.0 -0.1716459322
C  C56  1  0.44120000  0.94220000  0.69760000  1.0 -0.0789355238
N  N1  1  0.29650000  0.52050000  0.06420000  1.0 -0.2385045256
N  N2  1  0.85870000  0.60890000  0.08680000  1.0 -0.2627149227
N  N3  1  0.20350000  0.47950000  0.56420000  1.0 -0.2385045256
N  N4  1  0.64130000  0.39110000  0.58680000  1.0 -0.2666047814
N  N5  1  0.70350000  0.02050000  0.43580000  1.0 -0.2385045256
N  N6  1  0.14130000  0.10890000  0.41320000  1.0 -0.2627149227
N  N7  1  0.79650000  0.97950000  0.93580000  1.0 -0.2385045256
N  N8  1  0.35870000  0.89110000  0.91320000  1.0 -0.2666047814
O  O1  1  0.48180000  0.51170000  0.43830000  1.0 -0.4464741128
O  O2  1  0.36520000  0.33130000  0.42380000  1.0 -0.4552466947
O  O3  1  0.82270000  0.27640000  0.39710000  1.0 -0.5122880342
O  O4  1  0.91990000  0.44460000  0.45400000  1.0 -0.3980171385
O  O5  1  0.01820000  0.48830000  0.93830000  1.0 -0.4464741128
O  O6  1  0.13480000  0.66870000  0.92380000  1.0 -0.4552466947
O  O7  1  0.67730000  0.72360000  0.89710000  1.0 -0.5122880342
O  O8  1  0.58010000  0.55540000  0.95400000  1.0 -0.3980171385
O  O9  1  0.51820000  0.01170000  0.06170000  1.0 -0.4464741128
O  O10  1  0.63480000  0.83130000  0.07620000  1.0 -0.4552466947
O  O11  1  0.17730000  0.77640000  0.10290000  1.0 -0.5122880342
O  O12  1  0.08010000  0.94460000  0.04600000  1.0 -0.3980171385
O  O13  1  0.98180000  0.98830000  0.56170000  1.0 -0.4464741128
O  O14  1  0.86520000  0.16870000  0.57620000  1.0 -0.4552466947
O  O15  1  0.32270000  0.22360000  0.60290000  1.0 -0.5122880342
O  O16  1  0.41990000  0.05540000  0.54600000  1.0 -0.3980171385
