# DDEC6 charges by PACMAN v1.1 (https://github.com/mtap-research/PACMAN-charge/)
data_NIBHUC_FSR_pacman
_symmetry_space_group_name_H-M   'P 1'
_cell_length_a   37.51320000
_cell_length_b   37.51320000
_cell_length_c   37.51320000
_cell_angle_alpha   59.60860000
_cell_angle_beta   59.60860000
_cell_angle_gamma   59.60860000
_symmetry_Int_Tables_number   1
_chemical_formula_structural   Cu6H48C108N28O27
_chemical_formula_sum   'Cu24 H192 C432 N112 O108'
_cell_volume   36996.16811242
_cell_formula_units_Z   4
loop_
 _symmetry_equiv_pos_site_id
 _symmetry_equiv_pos_as_xyz
  1  'x, y, z'
loop_
 _atom_site_type_symbol
 _atom_site_label
 _atom_site_symmetry_multiplicity
 _atom_site_fract_x
 _atom_site_fract_y
 _atom_site_fract_z
 _atom_site_occupancy
 _atom_site_charge
Cu  Cu1  1  0.09167000  0.09167000  0.62667000  1.0 0.8752348847
Cu  Cu2  1  0.09167000  0.62667000  0.09167000  1.0 0.8715353261
Cu  Cu3  1  0.62667000  0.09167000  0.09167000  1.0 0.8715353261
Cu  Cu4  1  0.09292000  0.09293000  0.55531000  1.0 0.9115756777
Cu  Cu5  1  0.09293000  0.55531000  0.09292000  1.0 0.9115756777
Cu  Cu6  1  0.55531000  0.09292000  0.09293000  1.0 0.9115756777
Cu  Cu7  1  0.62730000  0.09196000  0.55671000  1.0 0.8715353261
Cu  Cu8  1  0.09196000  0.55671000  0.62730000  1.0 0.8715353261
Cu  Cu9  1  0.55671000  0.62730000  0.09196000  1.0 0.8715353261
Cu  Cu10  1  0.62730000  0.55671000  0.09196000  1.0 0.8715353261
Cu  Cu11  1  0.55671000  0.09196000  0.62730000  1.0 0.8715353261
Cu  Cu12  1  0.09196000  0.62730000  0.55671000  1.0 0.8715353261
Cu  Cu13  1  0.90833000  0.37333000  0.90833000  1.0 0.8715353261
Cu  Cu14  1  0.37333000  0.90833000  0.90833000  1.0 0.8715353261
Cu  Cu15  1  0.90833000  0.90833000  0.37333000  1.0 0.8715353261
Cu  Cu16  1  0.90708000  0.44469000  0.90707000  1.0 0.9115756777
Cu  Cu17  1  0.44469000  0.90707000  0.90708000  1.0 0.9115756777
Cu  Cu18  1  0.90707000  0.90708000  0.44469000  1.0 0.9115756777
Cu  Cu19  1  0.37270000  0.44329000  0.90804000  1.0 0.8715353261
Cu  Cu20  1  0.44329000  0.90804000  0.37270000  1.0 0.8715353261
Cu  Cu21  1  0.90804000  0.37270000  0.44329000  1.0 0.8715353261
Cu  Cu22  1  0.37270000  0.90804000  0.44329000  1.0 0.8715353261
Cu  Cu23  1  0.90804000  0.44329000  0.37270000  1.0 0.8715353261
Cu  Cu24  1  0.44329000  0.37270000  0.90804000  1.0 0.8715353261
H  H1  1  0.95640000  0.11190000  0.70010000  1.0 0.1299508641
H  H2  1  0.11190000  0.70010000  0.95640000  1.0 0.1299508641
H  H3  1  0.70010000  0.95640000  0.11190000  1.0 0.1299508641
H  H4  1  0.95640000  0.70010000  0.11190000  1.0 0.1299508641
H  H5  1  0.70010000  0.11190000  0.95640000  1.0 0.1299508641
H  H6  1  0.11190000  0.95640000  0.70010000  1.0 0.1299508641
H  H7  1  0.88130000  0.11680000  0.73340000  1.0 0.1299508641
H  H8  1  0.11680000  0.73340000  0.88130000  1.0 0.1299508641
H  H9  1  0.73340000  0.88130000  0.11680000  1.0 0.1299508641
H  H10  1  0.88130000  0.73340000  0.11680000  1.0 0.1299508641
H  H11  1  0.73340000  0.11680000  0.88130000  1.0 0.1299508641
H  H12  1  0.11680000  0.88130000  0.73340000  1.0 0.1299508641
H  H13  1  0.88440000  0.12010000  0.62740000  1.0 0.1299508641
H  H14  1  0.12010000  0.62740000  0.88440000  1.0 0.1299508641
H  H15  1  0.62740000  0.88440000  0.12010000  1.0 0.1299508641
H  H16  1  0.88440000  0.62740000  0.12010000  1.0 0.1299508641
H  H17  1  0.62740000  0.12010000  0.88440000  1.0 0.1299508641
H  H18  1  0.12010000  0.88440000  0.62740000  1.0 0.1299508641
H  H19  1  0.95810000  0.10580000  0.59740000  1.0 0.1408003774
H  H20  1  0.10580000  0.59740000  0.95810000  1.0 0.1408003774
H  H21  1  0.59740000  0.95810000  0.10580000  1.0 0.1408003774
H  H22  1  0.95810000  0.59740000  0.10580000  1.0 0.1408003774
H  H23  1  0.59740000  0.10580000  0.95810000  1.0 0.1408003774
H  H24  1  0.10580000  0.95810000  0.59740000  1.0 0.1408003774
H  H25  1  0.22790000  0.07510000  0.58630000  1.0 0.1489481059
H  H26  1  0.07510000  0.58630000  0.22790000  1.0 0.1489481059
H  H27  1  0.58630000  0.22790000  0.07510000  1.0 0.1489481059
H  H28  1  0.22790000  0.58630000  0.07510000  1.0 0.1489481059
H  H29  1  0.58630000  0.07510000  0.22790000  1.0 0.1489481059
H  H30  1  0.07510000  0.22790000  0.58630000  1.0 0.1489481059
H  H31  1  0.30380000  0.06010000  0.55600000  1.0 0.1299508641
H  H32  1  0.06010000  0.55600000  0.30380000  1.0 0.1299508641
H  H33  1  0.55600000  0.30380000  0.06010000  1.0 0.1299508641
H  H34  1  0.30380000  0.55600000  0.06010000  1.0 0.1299508641
H  H35  1  0.55600000  0.06010000  0.30380000  1.0 0.1299508641
H  H36  1  0.06010000  0.30380000  0.55600000  1.0 0.1299508641
H  H37  1  0.30440000  0.06070000  0.44710000  1.0 0.1299508641
H  H38  1  0.06070000  0.44710000  0.30440000  1.0 0.1299508641
H  H39  1  0.44710000  0.30440000  0.06070000  1.0 0.1299508641
H  H40  1  0.30440000  0.44710000  0.06070000  1.0 0.1299508641
H  H41  1  0.44710000  0.06070000  0.30440000  1.0 0.1299508641
H  H42  1  0.06070000  0.30440000  0.44710000  1.0 0.1299508641
H  H43  1  0.23180000  0.06810000  0.48050000  1.0 0.1408003774
H  H44  1  0.06810000  0.48050000  0.23180000  1.0 0.1408003774
H  H45  1  0.48050000  0.23180000  0.06810000  1.0 0.1408003774
H  H46  1  0.23180000  0.48050000  0.06810000  1.0 0.1408003774
H  H47  1  0.48050000  0.06810000  0.23180000  1.0 0.1408003774
H  H48  1  0.06810000  0.23180000  0.48050000  1.0 0.1408003774
H  H49  1  0.44780000  0.06150000  0.55640000  1.0 0.1408003774
H  H50  1  0.06150000  0.55640000  0.44780000  1.0 0.1408003774
H  H51  1  0.55640000  0.44780000  0.06150000  1.0 0.1408003774
H  H52  1  0.44780000  0.55640000  0.06150000  1.0 0.1408003774
H  H53  1  0.55640000  0.06150000  0.44780000  1.0 0.1408003774
H  H54  1  0.06150000  0.44780000  0.55640000  1.0 0.1408003774
H  H55  1  0.48160000  0.07030000  0.58820000  1.0 0.1489481059
H  H56  1  0.07030000  0.58820000  0.48160000  1.0 0.1489481059
H  H57  1  0.58820000  0.48160000  0.07030000  1.0 0.1489481059
H  H58  1  0.48160000  0.58820000  0.07030000  1.0 0.1489481059
H  H59  1  0.58820000  0.07030000  0.48160000  1.0 0.1489481059
H  H60  1  0.07030000  0.48160000  0.58820000  1.0 0.1489481059
H  H61  1  0.70410000  0.96240000  0.59840000  1.0 0.1299508641
H  H62  1  0.96240000  0.59840000  0.70410000  1.0 0.1408003774
H  H63  1  0.59840000  0.70410000  0.96240000  1.0 0.1408003774
H  H64  1  0.70410000  0.59840000  0.96240000  1.0 0.1299508641
H  H65  1  0.59840000  0.96240000  0.70410000  1.0 0.1299508641
H  H66  1  0.96240000  0.70410000  0.59840000  1.0 0.1408003774
H  H67  1  0.73900000  0.89080000  0.63510000  1.0 0.1489481059
H  H68  1  0.89080000  0.63510000  0.73900000  1.0 0.1489481059
H  H69  1  0.63510000  0.73900000  0.89080000  1.0 0.1489481059
H  H70  1  0.73900000  0.63510000  0.89080000  1.0 0.1489481059
H  H71  1  0.63510000  0.89080000  0.73900000  1.0 0.1489481059
H  H72  1  0.89080000  0.73900000  0.63510000  1.0 0.1489481059
H  H73  1  0.70050000  0.11660000  0.59400000  1.0 0.1299508641
H  H74  1  0.11660000  0.59400000  0.70050000  1.0 0.1299508641
H  H75  1  0.59400000  0.70050000  0.11660000  1.0 0.1299508641
H  H76  1  0.70050000  0.59400000  0.11660000  1.0 0.1299508641
H  H77  1  0.59400000  0.11660000  0.70050000  1.0 0.1299508641
H  H78  1  0.11660000  0.70050000  0.59400000  1.0 0.1299508641
H  H79  1  0.74170000  0.11350000  0.63150000  1.0 0.1299508641
H  H80  1  0.11350000  0.63150000  0.74170000  1.0 0.1299508641
H  H81  1  0.63150000  0.74170000  0.11350000  1.0 0.1299508641
H  H82  1  0.74170000  0.63150000  0.11350000  1.0 0.1299508641
H  H83  1  0.63150000  0.11350000  0.74170000  1.0 0.1299508641
H  H84  1  0.11350000  0.74170000  0.63150000  1.0 0.1299508641
H  H85  1  0.58910000  0.22040000  0.48090000  1.0 0.1408003774
H  H86  1  0.22040000  0.48090000  0.58910000  1.0 0.1408003774
H  H87  1  0.48090000  0.58910000  0.22040000  1.0 0.1408003774
H  H88  1  0.58910000  0.48090000  0.22040000  1.0 0.1408003774
H  H89  1  0.48090000  0.22040000  0.58910000  1.0 0.1408003774
H  H90  1  0.22040000  0.58910000  0.48090000  1.0 0.1408003774
H  H91  1  0.55460000  0.29330000  0.44760000  1.0 0.1299508641
H  H92  1  0.29330000  0.44760000  0.55460000  1.0 0.1299508641
H  H93  1  0.44760000  0.55460000  0.29330000  1.0 0.1299508641
H  H94  1  0.55460000  0.44760000  0.29330000  1.0 0.1299508641
H  H95  1  0.44760000  0.29330000  0.55460000  1.0 0.1299508641
H  H96  1  0.29330000  0.55460000  0.44760000  1.0 0.1299508641
H  H97  1  0.04360000  0.29990000  0.88810000  1.0 0.1299508641
H  H98  1  0.29990000  0.88810000  0.04360000  1.0 0.1299508641
H  H99  1  0.88810000  0.04360000  0.29990000  1.0 0.1299508641
H  H100  1  0.04360000  0.88810000  0.29990000  1.0 0.1299508641
H  H101  1  0.88810000  0.29990000  0.04360000  1.0 0.1299508641
H  H102  1  0.29990000  0.04360000  0.88810000  1.0 0.1299508641
H  H103  1  0.11870000  0.26660000  0.88320000  1.0 0.1299508641
H  H104  1  0.26660000  0.88320000  0.11870000  1.0 0.1299508641
H  H105  1  0.88320000  0.11870000  0.26660000  1.0 0.1299508641
H  H106  1  0.11870000  0.88320000  0.26660000  1.0 0.1299508641
H  H107  1  0.88320000  0.26660000  0.11870000  1.0 0.1299508641
H  H108  1  0.26660000  0.11870000  0.88320000  1.0 0.1299508641
H  H109  1  0.11560000  0.37260000  0.87990000  1.0 0.1299508641
H  H110  1  0.37260000  0.87990000  0.11560000  1.0 0.1299508641
H  H111  1  0.87990000  0.11560000  0.37260000  1.0 0.1299508641
H  H112  1  0.11560000  0.87990000  0.37260000  1.0 0.1299508641
H  H113  1  0.87990000  0.37260000  0.11560000  1.0 0.1299508641
H  H114  1  0.37260000  0.11560000  0.87990000  1.0 0.1299508641
H  H115  1  0.04190000  0.40260000  0.89420000  1.0 0.1408003774
H  H116  1  0.40260000  0.89420000  0.04190000  1.0 0.1408003774
H  H117  1  0.89420000  0.04190000  0.40260000  1.0 0.1408003774
H  H118  1  0.04190000  0.89420000  0.40260000  1.0 0.1408003774
H  H119  1  0.89420000  0.40260000  0.04190000  1.0 0.1408003774
H  H120  1  0.40260000  0.04190000  0.89420000  1.0 0.1408003774
H  H121  1  0.77210000  0.41370000  0.92490000  1.0 0.1489481059
H  H122  1  0.41370000  0.92490000  0.77210000  1.0 0.1489481059
H  H123  1  0.92490000  0.77210000  0.41370000  1.0 0.1489481059
H  H124  1  0.77210000  0.92490000  0.41370000  1.0 0.1489481059
H  H125  1  0.92490000  0.41370000  0.77210000  1.0 0.1489481059
H  H126  1  0.41370000  0.77210000  0.92490000  1.0 0.1489481059
H  H127  1  0.69620000  0.44400000  0.93990000  1.0 0.1299508641
H  H128  1  0.44400000  0.93990000  0.69620000  1.0 0.1299508641
H  H129  1  0.93990000  0.69620000  0.44400000  1.0 0.1299508641
H  H130  1  0.69620000  0.93990000  0.44400000  1.0 0.1299508641
H  H131  1  0.93990000  0.44400000  0.69620000  1.0 0.1299508641
H  H132  1  0.44400000  0.69620000  0.93990000  1.0 0.1299508641
H  H133  1  0.69560000  0.55290000  0.93930000  1.0 0.1299508641
H  H134  1  0.55290000  0.93930000  0.69560000  1.0 0.1299508641
H  H135  1  0.93930000  0.69560000  0.55290000  1.0 0.1299508641
H  H136  1  0.69560000  0.93930000  0.55290000  1.0 0.1299508641
H  H137  1  0.93930000  0.55290000  0.69560000  1.0 0.1299508641
H  H138  1  0.55290000  0.69560000  0.93930000  1.0 0.1299508641
H  H139  1  0.76820000  0.51950000  0.93190000  1.0 0.1408003774
H  H140  1  0.51950000  0.93190000  0.76820000  1.0 0.1408003774
H  H141  1  0.93190000  0.76820000  0.51950000  1.0 0.1408003774
H  H142  1  0.76820000  0.93190000  0.51950000  1.0 0.1408003774
H  H143  1  0.93190000  0.51950000  0.76820000  1.0 0.1408003774
H  H144  1  0.51950000  0.76820000  0.93190000  1.0 0.1408003774
H  H145  1  0.55220000  0.44360000  0.93850000  1.0 0.1408003774
H  H146  1  0.44360000  0.93850000  0.55220000  1.0 0.1408003774
H  H147  1  0.93850000  0.55220000  0.44360000  1.0 0.1408003774
H  H148  1  0.55220000  0.93850000  0.44360000  1.0 0.1408003774
H  H149  1  0.93850000  0.44360000  0.55220000  1.0 0.1408003774
H  H150  1  0.44360000  0.55220000  0.93850000  1.0 0.1408003774
H  H151  1  0.51840000  0.41180000  0.92970000  1.0 0.1489481059
H  H152  1  0.41180000  0.92970000  0.51840000  1.0 0.1489481059
H  H153  1  0.92970000  0.51840000  0.41180000  1.0 0.1489481059
H  H154  1  0.51840000  0.92970000  0.41180000  1.0 0.1489481059
H  H155  1  0.92970000  0.41180000  0.51840000  1.0 0.1489481059
H  H156  1  0.41180000  0.51840000  0.92970000  1.0 0.1489481059
H  H157  1  0.29590000  0.40160000  0.03760000  1.0 0.1299508641
H  H158  1  0.40160000  0.03760000  0.29590000  1.0 0.1408003774
H  H159  1  0.03760000  0.29590000  0.40160000  1.0 0.1408003774
H  H160  1  0.29590000  0.03760000  0.40160000  1.0 0.1408003774
H  H161  1  0.03760000  0.40160000  0.29590000  1.0 0.1408003774
H  H162  1  0.40160000  0.29590000  0.03760000  1.0 0.1408003774
H  H163  1  0.26100000  0.36490000  0.10920000  1.0 0.1489481059
H  H164  1  0.36490000  0.10920000  0.26100000  1.0 0.1489481059
H  H165  1  0.10920000  0.26100000  0.36490000  1.0 0.1489481059
H  H166  1  0.26100000  0.10920000  0.36490000  1.0 0.1489481059
H  H167  1  0.10920000  0.36490000  0.26100000  1.0 0.1489481059
H  H168  1  0.36490000  0.26100000  0.10920000  1.0 0.1489481059
H  H169  1  0.29950000  0.40600000  0.88340000  1.0 0.1299508641
H  H170  1  0.40600000  0.88340000  0.29950000  1.0 0.1299508641
H  H171  1  0.88340000  0.29950000  0.40600000  1.0 0.1299508641
H  H172  1  0.29950000  0.88340000  0.40600000  1.0 0.1299508641
H  H173  1  0.88340000  0.40600000  0.29950000  1.0 0.1299508641
H  H174  1  0.40600000  0.29950000  0.88340000  1.0 0.1299508641
H  H175  1  0.25830000  0.36850000  0.88650000  1.0 0.1299508641
H  H176  1  0.36850000  0.88650000  0.25830000  1.0 0.1299508641
H  H177  1  0.88650000  0.25830000  0.36850000  1.0 0.1299508641
H  H178  1  0.25830000  0.88650000  0.36850000  1.0 0.1299508641
H  H179  1  0.88650000  0.36850000  0.25830000  1.0 0.1299508641
H  H180  1  0.36850000  0.25830000  0.88650000  1.0 0.1299508641
H  H181  1  0.41090000  0.51910000  0.77960000  1.0 0.1408003774
H  H182  1  0.51910000  0.77960000  0.41090000  1.0 0.1408003774
H  H183  1  0.77960000  0.41090000  0.51910000  1.0 0.1408003774
H  H184  1  0.41090000  0.77960000  0.51910000  1.0 0.1408003774
H  H185  1  0.77960000  0.51910000  0.41090000  1.0 0.1408003774
H  H186  1  0.51910000  0.41090000  0.77960000  1.0 0.1408003774
H  H187  1  0.44540000  0.55240000  0.70670000  1.0 0.1299508641
H  H188  1  0.55240000  0.70670000  0.44540000  1.0 0.1299508641
H  H189  1  0.70670000  0.44540000  0.55240000  1.0 0.1299508641
H  H190  1  0.44540000  0.70670000  0.55240000  1.0 0.1299508641
H  H191  1  0.70670000  0.55240000  0.44540000  1.0 0.1299508641
H  H192  1  0.55240000  0.44540000  0.70670000  1.0 0.1299508641
C  C1  1  0.01190000  0.10470000  0.62810000  1.0 0.5377203867
C  C2  1  0.10470000  0.62810000  0.01190000  1.0 0.5377203867
C  C3  1  0.62810000  0.01190000  0.10470000  1.0 0.5377203867
C  C4  1  0.01190000  0.62810000  0.10470000  1.0 0.5377203867
C  C5  1  0.62810000  0.10470000  0.01190000  1.0 0.5377203867
C  C6  1  0.10470000  0.01190000  0.62810000  1.0 0.5377203867
C  C7  1  0.96680000  0.10890000  0.64320000  1.0 -0.0583279261
C  C8  1  0.10890000  0.64320000  0.96680000  1.0 -0.0583279261
C  C9  1  0.64320000  0.96680000  0.10890000  1.0 -0.0583279261
C  C10  1  0.96680000  0.64320000  0.10890000  1.0 -0.0583279261
C  C11  1  0.64320000  0.10890000  0.96680000  1.0 -0.0583279261
C  C12  1  0.10890000  0.96680000  0.64320000  1.0 -0.0583279261
C  C13  1  0.94300000  0.11210000  0.68480000  1.0 -0.0583279261
C  C14  1  0.11210000  0.68480000  0.94300000  1.0 -0.0583279261
C  C15  1  0.68480000  0.94300000  0.11210000  1.0 -0.0583279261
C  C16  1  0.94300000  0.68480000  0.11210000  1.0 -0.0583279261
C  C17  1  0.68480000  0.11210000  0.94300000  1.0 -0.0583279261
C  C18  1  0.11210000  0.94300000  0.68480000  1.0 -0.054017318
C  C19  1  0.89580000  0.11610000  0.70490000  1.0 -0.1073864508
C  C20  1  0.11610000  0.70490000  0.89580000  1.0 -0.1073864508
C  C21  1  0.70490000  0.89580000  0.11610000  1.0 -0.1073864508
C  C22  1  0.89580000  0.70490000  0.11610000  1.0 -0.1073864508
C  C23  1  0.70490000  0.11610000  0.89580000  1.0 -0.0994177166
C  C24  1  0.11610000  0.89580000  0.70490000  1.0 -0.1073864508
C  C25  1  0.87210000  0.11870000  0.68550000  1.0 -0.010671889
C  C26  1  0.11870000  0.68550000  0.87210000  1.0 -0.010671889
C  C27  1  0.68550000  0.87210000  0.11870000  1.0 -0.010671889
C  C28  1  0.87210000  0.68550000  0.11870000  1.0 -0.010671889
C  C29  1  0.68550000  0.11870000  0.87210000  1.0 -0.010671889
C  C30  1  0.11870000  0.87210000  0.68550000  1.0 -0.010671889
C  C31  1  0.89800000  0.11660000  0.64430000  1.0 -0.0994177166
C  C32  1  0.11660000  0.64430000  0.89800000  1.0 -0.0994177166
C  C33  1  0.64430000  0.89800000  0.11660000  1.0 -0.0994177166
C  C34  1  0.89800000  0.64430000  0.11660000  1.0 -0.0994177166
C  C35  1  0.64430000  0.11660000  0.89800000  1.0 -0.0994177166
C  C36  1  0.11660000  0.89800000  0.64430000  1.0 -0.0994177166
C  C37  1  0.94360000  0.10990000  0.62460000  1.0 -0.0583279261
C  C38  1  0.10990000  0.62460000  0.94360000  1.0 -0.0583279261
C  C39  1  0.62460000  0.94360000  0.10990000  1.0 -0.0583279261
C  C40  1  0.94360000  0.62460000  0.10990000  1.0 -0.0583279261
C  C41  1  0.62460000  0.10990000  0.94360000  1.0 -0.0583279261
C  C42  1  0.10990000  0.94360000  0.62460000  1.0 -0.0583279261
C  C43  1  0.82980000  0.12380000  0.70860000  1.0 0.3010827329
C  C44  1  0.12380000  0.70860000  0.82980000  1.0 0.3010827329
C  C45  1  0.70860000  0.82980000  0.12380000  1.0 0.3010827329
C  C46  1  0.82980000  0.70860000  0.12380000  1.0 0.3010827329
C  C47  1  0.70860000  0.12380000  0.82980000  1.0 0.3010827329
C  C48  1  0.12380000  0.82980000  0.70860000  1.0 0.3010827329
C  C49  1  0.76800000  0.12160000  0.76810000  1.0 0.4891795079
C  C50  1  0.12160000  0.76810000  0.76800000  1.0 0.4891795079
C  C51  1  0.76810000  0.76800000  0.12160000  1.0 0.4891795079
C  C52  1  0.77540000  0.12010000  0.70460000  1.0 0.4891795079
C  C53  1  0.12010000  0.70460000  0.77540000  1.0 0.4891795079
C  C54  1  0.70460000  0.77540000  0.12010000  1.0 0.4891795079
C  C55  1  0.77540000  0.70460000  0.12010000  1.0 0.4891795079
C  C56  1  0.70460000  0.12010000  0.77540000  1.0 0.4891795079
C  C57  1  0.12010000  0.77540000  0.70460000  1.0 0.4891795079
C  C58  1  0.17210000  0.07860000  0.55940000  1.0 0.5510462748
C  C59  1  0.07860000  0.55940000  0.17210000  1.0 0.5510462748
C  C60  1  0.55940000  0.17210000  0.07860000  1.0 0.5510462748
C  C61  1  0.17210000  0.55940000  0.07860000  1.0 0.5510462748
C  C62  1  0.55940000  0.07860000  0.17210000  1.0 0.5510462748
C  C63  1  0.07860000  0.17210000  0.55940000  1.0 0.5510462748
C  C64  1  0.22410000  0.06960000  0.53770000  1.0 0.0223031108
C  C65  1  0.06960000  0.53770000  0.22410000  1.0 0.0223031108
C  C66  1  0.53770000  0.22410000  0.06960000  1.0 0.0223031108
C  C67  1  0.22410000  0.53770000  0.06960000  1.0 0.0223031108
C  C68  1  0.53770000  0.06960000  0.22410000  1.0 0.0223031108
C  C69  1  0.06960000  0.22410000  0.53770000  1.0 0.0223031108
C  C70  1  0.24410000  0.06970000  0.55990000  1.0 -0.0994177166
C  C71  1  0.06970000  0.55990000  0.24410000  1.0 -0.0994177166
C  C72  1  0.55990000  0.24410000  0.06970000  1.0 -0.0994177166
C  C73  1  0.24410000  0.55990000  0.06970000  1.0 -0.0994177166
C  C74  1  0.55990000  0.06970000  0.24410000  1.0 -0.0994177166
C  C75  1  0.06970000  0.24410000  0.55990000  1.0 -0.0994177166
C  C76  1  0.28900000  0.06110000  0.54160000  1.0 -0.0904774358
C  C77  1  0.06110000  0.54160000  0.28900000  1.0 -0.0904774358
C  C78  1  0.54160000  0.28900000  0.06110000  1.0 -0.0904774358
C  C79  1  0.28900000  0.54160000  0.06110000  1.0 -0.0904774358
C  C80  1  0.54160000  0.06110000  0.28900000  1.0 -0.0904774358
C  C81  1  0.06110000  0.28900000  0.54160000  1.0 -0.0904774358
C  C82  1  0.31060000  0.05460000  0.50310000  1.0 0.0123695699
C  C83  1  0.05460000  0.50310000  0.31060000  1.0 0.0123695699
C  C84  1  0.50310000  0.31060000  0.05460000  1.0 0.0123695699
C  C85  1  0.31060000  0.50310000  0.05460000  1.0 0.0123695699
C  C86  1  0.50310000  0.05460000  0.31060000  1.0 0.0123695699
C  C87  1  0.05460000  0.31060000  0.50310000  1.0 0.0123695699
C  C88  1  0.28920000  0.06070000  0.47580000  1.0 -0.0994177166
C  C89  1  0.06070000  0.47580000  0.28920000  1.0 -0.0994177166
C  C90  1  0.47580000  0.28920000  0.06070000  1.0 -0.0994177166
C  C91  1  0.28920000  0.47580000  0.06070000  1.0 -0.0994177166
C  C92  1  0.47580000  0.06070000  0.28920000  1.0 -0.0994177166
C  C93  1  0.06070000  0.28920000  0.47580000  1.0 -0.0994177166
C  C94  1  0.24690000  0.06630000  0.49510000  1.0 -0.0994177166
C  C95  1  0.06630000  0.49510000  0.24690000  1.0 -0.0994177166
C  C96  1  0.49510000  0.24690000  0.06630000  1.0 -0.0994177166
C  C97  1  0.24690000  0.49510000  0.06630000  1.0 -0.0994177166
C  C98  1  0.49510000  0.06630000  0.24690000  1.0 -0.0994177166
C  C99  1  0.06630000  0.24690000  0.49510000  1.0 -0.0994177166
C  C100  1  0.35450000  0.05180000  0.48510000  1.0 0.3367183768
C  C101  1  0.05180000  0.48510000  0.35450000  1.0 0.3367183768
C  C102  1  0.48510000  0.35450000  0.05180000  1.0 0.3367183768
C  C103  1  0.35450000  0.48510000  0.05180000  1.0 0.3285354055
C  C104  1  0.48510000  0.05180000  0.35450000  1.0 0.3367183768
C  C105  1  0.05180000  0.35450000  0.48510000  1.0 0.3367183768
C  C106  1  0.41810000  0.05180000  0.47880000  1.0 0.4826903792
C  C107  1  0.05180000  0.47880000  0.41810000  1.0 0.4826903792
C  C108  1  0.47880000  0.41810000  0.05180000  1.0 0.4826903792
C  C109  1  0.41810000  0.47880000  0.05180000  1.0 0.4826903792
C  C110  1  0.47880000  0.05180000  0.41810000  1.0 0.4826903792
C  C111  1  0.05180000  0.41810000  0.47880000  1.0 0.4826903792
C  C112  1  0.42040000  0.04800000  0.42030000  1.0 0.4975020465
C  C113  1  0.04800000  0.42030000  0.42040000  1.0 0.4975020465
C  C114  1  0.42030000  0.42040000  0.04800000  1.0 0.4975020465
C  C115  1  0.47910000  0.05140000  0.47910000  1.0 0.4066988058
C  C116  1  0.05140000  0.47910000  0.47910000  1.0 0.4066988058
C  C117  1  0.47910000  0.47910000  0.05140000  1.0 0.4066988058
C  C118  1  0.50010000  0.06000000  0.50020000  1.0 0.0298633801
C  C119  1  0.06000000  0.50020000  0.50010000  1.0 0.0298633801
C  C120  1  0.50020000  0.50010000  0.06000000  1.0 0.0298633801
C  C121  1  0.47590000  0.06300000  0.54180000  1.0 -0.1073864508
C  C122  1  0.06300000  0.54180000  0.47590000  1.0 -0.1073864508
C  C123  1  0.54180000  0.47590000  0.06300000  1.0 -0.1073864508
C  C124  1  0.47590000  0.54180000  0.06300000  1.0 -0.1073864508
C  C125  1  0.54180000  0.06300000  0.47590000  1.0 -0.1073864508
C  C126  1  0.06300000  0.47590000  0.54180000  1.0 -0.1073864508
C  C127  1  0.49540000  0.06840000  0.56010000  1.0 -0.0824630814
C  C128  1  0.06840000  0.56010000  0.49540000  1.0 -0.0824630814
C  C129  1  0.56010000  0.49540000  0.06840000  1.0 -0.0824630814
C  C130  1  0.49540000  0.56010000  0.06840000  1.0 -0.0824630814
C  C131  1  0.56010000  0.06840000  0.49540000  1.0 -0.0824630814
C  C132  1  0.06840000  0.49540000  0.56010000  1.0 -0.0824630814
C  C133  1  0.53540000  0.07090000  0.53530000  1.0 -0.0273991784
C  C134  1  0.07090000  0.53530000  0.53540000  1.0 -0.0273991784
C  C135  1  0.53530000  0.53540000  0.07090000  1.0 -0.0273991784
C  C136  1  0.56020000  0.07340000  0.56020000  1.0 0.6120522843
C  C137  1  0.07340000  0.56020000  0.56020000  1.0 0.6120522843
C  C138  1  0.56020000  0.56020000  0.07340000  1.0 0.6120522843
C  C139  1  0.62780000  0.00490000  0.62800000  1.0 0.3974286682
C  C140  1  0.00490000  0.62800000  0.62780000  1.0 0.3974286682
C  C141  1  0.62800000  0.62780000  0.00490000  1.0 0.3938270635
C  C142  1  0.64810000  0.95930000  0.64850000  1.0 -0.0396693093
C  C143  1  0.95930000  0.64850000  0.64810000  1.0 -0.0396693093
C  C144  1  0.64850000  0.64810000  0.95930000  1.0 -0.0396693093
C  C145  1  0.68990000  0.94560000  0.62580000  1.0 -0.0904774358
C  C146  1  0.94560000  0.62580000  0.68990000  1.0 -0.0904774358
C  C147  1  0.62580000  0.68990000  0.94560000  1.0 -0.0904774358
C  C148  1  0.68990000  0.62580000  0.94560000  1.0 -0.0904774358
C  C149  1  0.62580000  0.94560000  0.68990000  1.0 -0.0904774358
C  C150  1  0.94560000  0.68990000  0.62580000  1.0 -0.0904774358
C  C151  1  0.70910000  0.90410000  0.64780000  1.0 -0.1498464791
C  C152  1  0.90410000  0.64780000  0.70910000  1.0 -0.1498464791
C  C153  1  0.64780000  0.70910000  0.90410000  1.0 -0.1498464791
C  C154  1  0.70910000  0.64780000  0.90410000  1.0 -0.1498464791
C  C155  1  0.64780000  0.90410000  0.70910000  1.0 -0.1498464791
C  C156  1  0.90410000  0.70910000  0.64780000  1.0 -0.1498464791
C  C157  1  0.68770000  0.88010000  0.68750000  1.0 0.0756352669
C  C158  1  0.88010000  0.68750000  0.68770000  1.0 0.0756352669
C  C159  1  0.68750000  0.68770000  0.88010000  1.0 0.0756352669
C  C160  1  0.71240000  0.82830000  0.71220000  1.0 0.3285354055
C  C161  1  0.82830000  0.71220000  0.71240000  1.0 0.3233064539
C  C162  1  0.71220000  0.71240000  0.82830000  1.0 0.3233064539
C  C163  1  0.77170000  0.77180000  0.70880000  1.0 0.4632212794
C  C164  1  0.77180000  0.70880000  0.77170000  1.0 0.4632212794
C  C165  1  0.70880000  0.77170000  0.77180000  1.0 0.4632212794
C  C166  1  0.62580000  0.09200000  0.62580000  1.0 0.5821421173
C  C167  1  0.09200000  0.62580000  0.62580000  1.0 0.5821421173
C  C168  1  0.62580000  0.62580000  0.09200000  1.0 0.5821421173
C  C169  1  0.64230000  0.11570000  0.64230000  1.0 -0.0583279261
C  C170  1  0.11570000  0.64230000  0.64230000  1.0 -0.0583279261
C  C171  1  0.64230000  0.64230000  0.11570000  1.0 -0.0583279261
C  C172  1  0.68610000  0.11540000  0.62310000  1.0 -0.0904774358
C  C173  1  0.11540000  0.62310000  0.68610000  1.0 -0.0904774358
C  C174  1  0.62310000  0.68610000  0.11540000  1.0 -0.0904774358
C  C175  1  0.68610000  0.62310000  0.11540000  1.0 -0.0904774358
C  C176  1  0.62310000  0.11540000  0.68610000  1.0 -0.0904774358
C  C177  1  0.11540000  0.68610000  0.62310000  1.0 -0.0904774358
C  C178  1  0.71300000  0.11350000  0.64550000  1.0 -0.0904774358
C  C179  1  0.11350000  0.64550000  0.71300000  1.0 -0.0904774358
C  C180  1  0.64550000  0.71300000  0.11350000  1.0 -0.0904774358
C  C181  1  0.71300000  0.64550000  0.11350000  1.0 -0.0904774358
C  C182  1  0.64550000  0.11350000  0.71300000  1.0 -0.0904774358
C  C183  1  0.11350000  0.71300000  0.64550000  1.0 -0.0904774358
C  C184  1  0.68880000  0.11190000  0.68870000  1.0 0.0020162574
C  C185  1  0.11190000  0.68870000  0.68880000  1.0 0.0020162574
C  C186  1  0.68870000  0.68880000  0.11190000  1.0 0.0020162574
C  C187  1  0.70560000  0.12030000  0.70550000  1.0 0.2563515183
C  C188  1  0.12030000  0.70550000  0.70560000  1.0 0.2563515183
C  C189  1  0.70550000  0.70560000  0.12030000  1.0 0.2563515183
C  C190  1  0.55520000  0.17820000  0.55520000  1.0 0.5343012467
C  C191  1  0.17820000  0.55520000  0.55520000  1.0 0.5343012467
C  C192  1  0.55520000  0.55520000  0.17820000  1.0 0.5343012467
C  C193  1  0.53580000  0.22320000  0.53560000  1.0 -0.0904774358
C  C194  1  0.22320000  0.53560000  0.53580000  1.0 -0.0904774358
C  C195  1  0.53560000  0.53580000  0.22320000  1.0 -0.0904774358
C  C196  1  0.56120000  0.23710000  0.49450000  1.0 -0.0824630814
C  C197  1  0.23710000  0.49450000  0.56120000  1.0 -0.0824630814
C  C198  1  0.49450000  0.56120000  0.23710000  1.0 -0.0904774358
C  C199  1  0.56120000  0.49450000  0.23710000  1.0 -0.0904774358
C  C200  1  0.49450000  0.23710000  0.56120000  1.0 -0.0904774358
C  C201  1  0.23710000  0.56120000  0.49450000  1.0 -0.0904774358
C  C202  1  0.53960000  0.27950000  0.47640000  1.0 -0.0824630814
C  C203  1  0.27950000  0.47640000  0.53960000  1.0 -0.0824630814
C  C204  1  0.47640000  0.53960000  0.27950000  1.0 -0.0824630814
C  C205  1  0.53960000  0.47640000  0.27950000  1.0 -0.0824630814
C  C206  1  0.47640000  0.27950000  0.53960000  1.0 -0.0824630814
C  C207  1  0.27950000  0.53960000  0.47640000  1.0 -0.0824630814
C  C208  1  0.49610000  0.30660000  0.49610000  1.0 -0.0583279261
C  C209  1  0.30660000  0.49610000  0.49610000  1.0 -0.0583279261
C  C210  1  0.49610000  0.49610000  0.30660000  1.0 -0.0583279261
C  C211  1  0.47860000  0.34760000  0.47860000  1.0 0.2843682445
C  C212  1  0.34760000  0.47860000  0.47860000  1.0 0.2843682445
C  C213  1  0.47860000  0.47860000  0.34760000  1.0 0.2858025781
C  C214  1  0.47890000  0.41250000  0.41250000  1.0 0.4700372891
C  C215  1  0.41250000  0.41250000  0.47890000  1.0 0.4700372891
C  C216  1  0.41250000  0.47890000  0.41250000  1.0 0.4700372891
C  C217  1  0.98810000  0.37190000  0.89530000  1.0 0.5343012467
C  C218  1  0.37190000  0.89530000  0.98810000  1.0 0.5343012467
C  C219  1  0.89530000  0.98810000  0.37190000  1.0 0.5377203867
C  C220  1  0.98810000  0.89530000  0.37190000  1.0 0.5377203867
C  C221  1  0.89530000  0.37190000  0.98810000  1.0 0.5343012467
C  C222  1  0.37190000  0.98810000  0.89530000  1.0 0.5377203867
C  C223  1  0.03320000  0.35680000  0.89110000  1.0 -0.0583279261
C  C224  1  0.35680000  0.89110000  0.03320000  1.0 -0.0583279261
C  C225  1  0.89110000  0.03320000  0.35680000  1.0 -0.0583279261
C  C226  1  0.03320000  0.89110000  0.35680000  1.0 -0.0583279261
C  C227  1  0.89110000  0.35680000  0.03320000  1.0 -0.0583279261
C  C228  1  0.35680000  0.03320000  0.89110000  1.0 -0.0583279261
C  C229  1  0.05700000  0.31520000  0.88790000  1.0 -0.0583279261
C  C230  1  0.31520000  0.88790000  0.05700000  1.0 -0.0583279261
C  C231  1  0.88790000  0.05700000  0.31520000  1.0 -0.0583279261
C  C232  1  0.05700000  0.88790000  0.31520000  1.0 -0.0583279261
C  C233  1  0.88790000  0.31520000  0.05700000  1.0 -0.0583279261
C  C234  1  0.31520000  0.05700000  0.88790000  1.0 -0.0583279261
C  C235  1  0.10420000  0.29510000  0.88390000  1.0 -0.0994177166
C  C236  1  0.29510000  0.88390000  0.10420000  1.0 -0.1073864508
C  C237  1  0.88390000  0.10420000  0.29510000  1.0 -0.1073864508
C  C238  1  0.10420000  0.88390000  0.29510000  1.0 -0.1073864508
C  C239  1  0.88390000  0.29510000  0.10420000  1.0 -0.0994177166
C  C240  1  0.29510000  0.10420000  0.88390000  1.0 -0.1073864508
C  C241  1  0.12790000  0.31450000  0.88130000  1.0 -0.010671889
C  C242  1  0.31450000  0.88130000  0.12790000  1.0 -0.010671889
C  C243  1  0.88130000  0.12790000  0.31450000  1.0 -0.010671889
C  C244  1  0.12790000  0.88130000  0.31450000  1.0 -0.010671889
C  C245  1  0.88130000  0.31450000  0.12790000  1.0 -0.010671889
C  C246  1  0.31450000  0.12790000  0.88130000  1.0 -0.010671889
C  C247  1  0.10200000  0.35570000  0.88340000  1.0 -0.0994177166
C  C248  1  0.35570000  0.88340000  0.10200000  1.0 -0.0994177166
C  C249  1  0.88340000  0.10200000  0.35570000  1.0 -0.0994177166
C  C250  1  0.10200000  0.88340000  0.35570000  1.0 -0.0994177166
C  C251  1  0.88340000  0.35570000  0.10200000  1.0 -0.0994177166
C  C252  1  0.35570000  0.10200000  0.88340000  1.0 -0.0994177166
C  C253  1  0.05640000  0.37540000  0.89010000  1.0 -0.0583279261
C  C254  1  0.37540000  0.89010000  0.05640000  1.0 -0.0583279261
C  C255  1  0.89010000  0.05640000  0.37540000  1.0 -0.0583279261
C  C256  1  0.05640000  0.89010000  0.37540000  1.0 -0.0583279261
C  C257  1  0.89010000  0.37540000  0.05640000  1.0 -0.0583279261
C  C258  1  0.37540000  0.05640000  0.89010000  1.0 -0.0583279261
C  C259  1  0.17020000  0.29140000  0.87620000  1.0 0.3010827329
C  C260  1  0.29140000  0.87620000  0.17020000  1.0 0.3010827329
C  C261  1  0.87620000  0.17020000  0.29140000  1.0 0.3010827329
C  C262  1  0.17020000  0.87620000  0.29140000  1.0 0.3010827329
C  C263  1  0.87620000  0.29140000  0.17020000  1.0 0.3010827329
C  C264  1  0.29140000  0.17020000  0.87620000  1.0 0.3010827329
C  C265  1  0.23200000  0.23190000  0.87840000  1.0 0.4891795079
C  C266  1  0.23190000  0.87840000  0.23200000  1.0 0.4891795079
C  C267  1  0.87840000  0.23200000  0.23190000  1.0 0.4891795079
C  C268  1  0.22460000  0.29540000  0.87990000  1.0 0.4891795079
C  C269  1  0.29540000  0.87990000  0.22460000  1.0 0.4891795079
C  C270  1  0.87990000  0.22460000  0.29540000  1.0 0.4891795079
C  C271  1  0.22460000  0.87990000  0.29540000  1.0 0.4891795079
C  C272  1  0.87990000  0.29540000  0.22460000  1.0 0.4891795079
C  C273  1  0.29540000  0.22460000  0.87990000  1.0 0.4891795079
C  C274  1  0.82790000  0.44060000  0.92140000  1.0 0.5510462748
C  C275  1  0.44060000  0.92140000  0.82790000  1.0 0.5510462748
C  C276  1  0.92140000  0.82790000  0.44060000  1.0 0.5510462748
C  C277  1  0.82790000  0.92140000  0.44060000  1.0 0.5510462748
C  C278  1  0.92140000  0.44060000  0.82790000  1.0 0.5510462748
C  C279  1  0.44060000  0.82790000  0.92140000  1.0 0.5510462748
C  C280  1  0.77590000  0.46230000  0.93040000  1.0 0.0223031108
C  C281  1  0.46230000  0.93040000  0.77590000  1.0 0.0223031108
C  C282  1  0.93040000  0.77590000  0.46230000  1.0 0.0223031108
C  C283  1  0.77590000  0.93040000  0.46230000  1.0 0.0223031108
C  C284  1  0.93040000  0.46230000  0.77590000  1.0 0.0223031108
C  C285  1  0.46230000  0.77590000  0.93040000  1.0 0.0223031108
C  C286  1  0.75590000  0.44010000  0.93030000  1.0 -0.0994177166
C  C287  1  0.44010000  0.93030000  0.75590000  1.0 -0.0994177166
C  C288  1  0.93030000  0.75590000  0.44010000  1.0 -0.0994177166
C  C289  1  0.75590000  0.93030000  0.44010000  1.0 -0.0994177166
C  C290  1  0.93030000  0.44010000  0.75590000  1.0 -0.0994177166
C  C291  1  0.44010000  0.75590000  0.93030000  1.0 -0.0994177166
C  C292  1  0.71100000  0.45840000  0.93890000  1.0 -0.0904774358
C  C293  1  0.45840000  0.93890000  0.71100000  1.0 -0.0904774358
C  C294  1  0.93890000  0.71100000  0.45840000  1.0 -0.0904774358
C  C295  1  0.71100000  0.93890000  0.45840000  1.0 -0.0904774358
C  C296  1  0.93890000  0.45840000  0.71100000  1.0 -0.0904774358
C  C297  1  0.45840000  0.71100000  0.93890000  1.0 -0.0904774358
C  C298  1  0.68940000  0.49690000  0.94540000  1.0 0.0123695699
C  C299  1  0.49690000  0.94540000  0.68940000  1.0 0.0123695699
C  C300  1  0.94540000  0.68940000  0.49690000  1.0 0.0123695699
C  C301  1  0.68940000  0.94540000  0.49690000  1.0 0.0123695699
C  C302  1  0.94540000  0.49690000  0.68940000  1.0 0.0123695699
C  C303  1  0.49690000  0.68940000  0.94540000  1.0 0.0123695699
C  C304  1  0.71080000  0.52420000  0.93930000  1.0 -0.0994177166
C  C305  1  0.52420000  0.93930000  0.71080000  1.0 -0.0994177166
C  C306  1  0.93930000  0.71080000  0.52420000  1.0 -0.0994177166
C  C307  1  0.71080000  0.93930000  0.52420000  1.0 -0.0994177166
C  C308  1  0.93930000  0.52420000  0.71080000  1.0 -0.0994177166
C  C309  1  0.52420000  0.71080000  0.93930000  1.0 -0.0994177166
C  C310  1  0.75310000  0.50490000  0.93370000  1.0 -0.0994177166
C  C311  1  0.50490000  0.93370000  0.75310000  1.0 -0.0994177166
C  C312  1  0.93370000  0.75310000  0.50490000  1.0 -0.0994177166
C  C313  1  0.75310000  0.93370000  0.50490000  1.0 -0.0994177166
C  C314  1  0.93370000  0.50490000  0.75310000  1.0 -0.0994177166
C  C315  1  0.50490000  0.75310000  0.93370000  1.0 -0.0994177166
C  C316  1  0.64550000  0.51490000  0.94820000  1.0 0.3367183768
C  C317  1  0.51490000  0.94820000  0.64550000  1.0 0.3367183768
C  C318  1  0.94820000  0.64550000  0.51490000  1.0 0.3367183768
C  C319  1  0.64550000  0.94820000  0.51490000  1.0 0.3367183768
C  C320  1  0.94820000  0.51490000  0.64550000  1.0 0.3367183768
C  C321  1  0.51490000  0.64550000  0.94820000  1.0 0.3367183768
C  C322  1  0.58190000  0.52120000  0.94820000  1.0 0.4826903792
C  C323  1  0.52120000  0.94820000  0.58190000  1.0 0.4826903792
C  C324  1  0.94820000  0.58190000  0.52120000  1.0 0.4826903792
C  C325  1  0.58190000  0.94820000  0.52120000  1.0 0.4826903792
C  C326  1  0.94820000  0.52120000  0.58190000  1.0 0.4826903792
C  C327  1  0.52120000  0.58190000  0.94820000  1.0 0.4826903792
C  C328  1  0.57960000  0.57970000  0.95200000  1.0 0.4975020465
C  C329  1  0.57970000  0.95200000  0.57960000  1.0 0.4975020465
C  C330  1  0.95200000  0.57960000  0.57970000  1.0 0.4975020465
C  C331  1  0.52090000  0.52090000  0.94860000  1.0 0.4066988058
C  C332  1  0.52090000  0.94860000  0.52090000  1.0 0.4066988058
C  C333  1  0.94860000  0.52090000  0.52090000  1.0 0.4066988058
C  C334  1  0.49990000  0.49980000  0.94000000  1.0 0.0298633801
C  C335  1  0.49980000  0.94000000  0.49990000  1.0 0.0298633801
C  C336  1  0.94000000  0.49990000  0.49980000  1.0 0.0298633801
C  C337  1  0.52410000  0.45820000  0.93700000  1.0 -0.1073864508
C  C338  1  0.45820000  0.93700000  0.52410000  1.0 -0.1073864508
C  C339  1  0.93700000  0.52410000  0.45820000  1.0 -0.1073864508
C  C340  1  0.52410000  0.93700000  0.45820000  1.0 -0.1073864508
C  C341  1  0.93700000  0.45820000  0.52410000  1.0 -0.1073864508
C  C342  1  0.45820000  0.52410000  0.93700000  1.0 -0.1073864508
C  C343  1  0.50460000  0.43990000  0.93160000  1.0 -0.0824630814
C  C344  1  0.43990000  0.93160000  0.50460000  1.0 -0.0824630814
C  C345  1  0.93160000  0.50460000  0.43990000  1.0 -0.0824630814
C  C346  1  0.50460000  0.93160000  0.43990000  1.0 -0.0824630814
C  C347  1  0.93160000  0.43990000  0.50460000  1.0 -0.0824630814
C  C348  1  0.43990000  0.50460000  0.93160000  1.0 -0.0824630814
C  C349  1  0.46460000  0.46470000  0.92910000  1.0 -0.0273991784
C  C350  1  0.46470000  0.92910000  0.46460000  1.0 -0.0273991784
C  C351  1  0.92910000  0.46460000  0.46470000  1.0 -0.0273991784
C  C352  1  0.43980000  0.43980000  0.92660000  1.0 0.6120522843
C  C353  1  0.43980000  0.92660000  0.43980000  1.0 0.6120522843
C  C354  1  0.92660000  0.43980000  0.43980000  1.0 0.6120522843
C  C355  1  0.37220000  0.37200000  0.99510000  1.0 0.3974286682
C  C356  1  0.37200000  0.99510000  0.37220000  1.0 0.3974286682
C  C357  1  0.99510000  0.37220000  0.37200000  1.0 0.3974286682
C  C358  1  0.35190000  0.35150000  0.04070000  1.0 -0.0396693093
C  C359  1  0.35150000  0.04070000  0.35190000  1.0 -0.0396693093
C  C360  1  0.04070000  0.35190000  0.35150000  1.0 -0.0396693093
C  C361  1  0.31010000  0.37420000  0.05440000  1.0 -0.0904774358
C  C362  1  0.37420000  0.05440000  0.31010000  1.0 -0.0904774358
C  C363  1  0.05440000  0.31010000  0.37420000  1.0 -0.0904774358
C  C364  1  0.31010000  0.05440000  0.37420000  1.0 -0.0904774358
C  C365  1  0.05440000  0.37420000  0.31010000  1.0 -0.0904774358
C  C366  1  0.37420000  0.31010000  0.05440000  1.0 -0.0904774358
C  C367  1  0.29090000  0.35220000  0.09590000  1.0 -0.1498464791
C  C368  1  0.35220000  0.09590000  0.29090000  1.0 -0.1498464791
C  C369  1  0.09590000  0.29090000  0.35220000  1.0 -0.1498464791
C  C370  1  0.29090000  0.09590000  0.35220000  1.0 -0.1498464791
C  C371  1  0.09590000  0.35220000  0.29090000  1.0 -0.1498464791
C  C372  1  0.35220000  0.29090000  0.09590000  1.0 -0.1498464791
C  C373  1  0.31230000  0.31250000  0.11990000  1.0 0.0730911818
C  C374  1  0.31250000  0.11990000  0.31230000  1.0 0.0730911818
C  C375  1  0.11990000  0.31230000  0.31250000  1.0 0.0730911818
C  C376  1  0.28760000  0.28780000  0.17170000  1.0 0.3285354055
C  C377  1  0.28780000  0.17170000  0.28760000  1.0 0.3285354055
C  C378  1  0.17170000  0.28760000  0.28780000  1.0 0.3233064539
C  C379  1  0.22830000  0.29120000  0.22820000  1.0 0.4632212794
C  C380  1  0.29120000  0.22820000  0.22830000  1.0 0.4632212794
C  C381  1  0.22820000  0.22830000  0.29120000  1.0 0.4632212794
C  C382  1  0.37420000  0.37420000  0.90800000  1.0 0.5821421173
C  C383  1  0.37420000  0.90800000  0.37420000  1.0 0.5821421173
C  C384  1  0.90800000  0.37420000  0.37420000  1.0 0.5821421173
C  C385  1  0.35770000  0.35770000  0.88430000  1.0 -0.0583279261
C  C386  1  0.35770000  0.88430000  0.35770000  1.0 -0.0583279261
C  C387  1  0.88430000  0.35770000  0.35770000  1.0 -0.0583279261
C  C388  1  0.31390000  0.37690000  0.88460000  1.0 -0.0904774358
C  C389  1  0.37690000  0.88460000  0.31390000  1.0 -0.0904774358
C  C390  1  0.88460000  0.31390000  0.37690000  1.0 -0.0904774358
C  C391  1  0.31390000  0.88460000  0.37690000  1.0 -0.0904774358
C  C392  1  0.88460000  0.37690000  0.31390000  1.0 -0.0904774358
C  C393  1  0.37690000  0.31390000  0.88460000  1.0 -0.0904774358
C  C394  1  0.28700000  0.35450000  0.88650000  1.0 -0.0904774358
C  C395  1  0.35450000  0.88650000  0.28700000  1.0 -0.0994177166
C  C396  1  0.88650000  0.28700000  0.35450000  1.0 -0.0904774358
C  C397  1  0.28700000  0.88650000  0.35450000  1.0 -0.0994177166
C  C398  1  0.88650000  0.35450000  0.28700000  1.0 -0.0904774358
C  C399  1  0.35450000  0.28700000  0.88650000  1.0 -0.0904774358
C  C400  1  0.31120000  0.31130000  0.88810000  1.0 -0.0003328351
C  C401  1  0.31130000  0.88810000  0.31120000  1.0 0.0020162574
C  C402  1  0.88810000  0.31120000  0.31130000  1.0 0.0020162574
C  C403  1  0.29440000  0.29450000  0.87970000  1.0 0.2563515183
C  C404  1  0.29450000  0.87970000  0.29440000  1.0 0.2563515183
C  C405  1  0.87970000  0.29440000  0.29450000  1.0 0.2563515183
C  C406  1  0.44480000  0.44480000  0.82180000  1.0 0.5377203867
C  C407  1  0.44480000  0.82180000  0.44480000  1.0 0.5377203867
C  C408  1  0.82180000  0.44480000  0.44480000  1.0 0.5343012467
C  C409  1  0.46420000  0.46440000  0.77680000  1.0 -0.0904774358
C  C410  1  0.46440000  0.77680000  0.46420000  1.0 -0.0904774358
C  C411  1  0.77680000  0.46420000  0.46440000  1.0 -0.0904774358
C  C412  1  0.43880000  0.50550000  0.76290000  1.0 -0.0824630814
C  C413  1  0.50550000  0.76290000  0.43880000  1.0 -0.0904774358
C  C414  1  0.76290000  0.43880000  0.50550000  1.0 -0.0904774358
C  C415  1  0.43880000  0.76290000  0.50550000  1.0 -0.0904774358
C  C416  1  0.76290000  0.50550000  0.43880000  1.0 -0.0904774358
C  C417  1  0.50550000  0.43880000  0.76290000  1.0 -0.0904774358
C  C418  1  0.46040000  0.52360000  0.72050000  1.0 -0.0904774358
C  C419  1  0.52360000  0.72050000  0.46040000  1.0 -0.0904774358
C  C420  1  0.72050000  0.46040000  0.52360000  1.0 -0.0824630814
C  C421  1  0.46040000  0.72050000  0.52360000  1.0 -0.0824630814
C  C422  1  0.72050000  0.52360000  0.46040000  1.0 -0.0824630814
C  C423  1  0.52360000  0.46040000  0.72050000  1.0 -0.0824630814
C  C424  1  0.50390000  0.50390000  0.69340000  1.0 -0.054017318
C  C425  1  0.50390000  0.69340000  0.50390000  1.0 -0.054017318
C  C426  1  0.69340000  0.50390000  0.50390000  1.0 -0.054017318
C  C427  1  0.52140000  0.52140000  0.65240000  1.0 0.2858025781
C  C428  1  0.52140000  0.65240000  0.52140000  1.0 0.2858025781
C  C429  1  0.65240000  0.52140000  0.52140000  1.0 0.2858025781
C  C430  1  0.52110000  0.58750000  0.58750000  1.0 0.4700372891
C  C431  1  0.58750000  0.58750000  0.52110000  1.0 0.4700372891
C  C432  1  0.58750000  0.52110000  0.58750000  1.0 0.4700372891
N  N1  1  0.80850000  0.12320000  0.74850000  1.0 -0.3881019909
N  N2  1  0.12320000  0.74850000  0.80850000  1.0 -0.3881019909
N  N3  1  0.74850000  0.80850000  0.12320000  1.0 -0.3881019909
N  N4  1  0.80850000  0.74850000  0.12320000  1.0 -0.3881019909
N  N5  1  0.74850000  0.12320000  0.80850000  1.0 -0.3881019909
N  N6  1  0.12320000  0.80850000  0.74850000  1.0 -0.3881019909
N  N7  1  0.74790000  0.11930000  0.74790000  1.0 -0.2681582266
N  N8  1  0.11930000  0.74790000  0.74790000  1.0 -0.2681582266
N  N9  1  0.74790000  0.74790000  0.11930000  1.0 -0.2636109762
N  N10  1  0.81500000  0.12500000  0.68200000  1.0 -0.3786237263
N  N11  1  0.12500000  0.68200000  0.81500000  1.0 -0.3786237263
N  N12  1  0.68200000  0.81500000  0.12500000  1.0 -0.3881019909
N  N13  1  0.81500000  0.68200000  0.12500000  1.0 -0.3786237263
N  N14  1  0.68200000  0.12500000  0.81500000  1.0 -0.3786237263
N  N15  1  0.12500000  0.81500000  0.68200000  1.0 -0.3786237263
N  N16  1  0.37820000  0.05270000  0.50310000  1.0 -0.4199482942
N  N17  1  0.05270000  0.50310000  0.37820000  1.0 -0.4199482942
N  N18  1  0.50310000  0.37820000  0.05270000  1.0 -0.4199482942
N  N19  1  0.37820000  0.50310000  0.05270000  1.0 -0.4199482942
N  N20  1  0.50310000  0.05270000  0.37820000  1.0 -0.4199482942
N  N21  1  0.05270000  0.37820000  0.50310000  1.0 -0.4199482942
N  N22  1  0.44020000  0.05170000  0.44030000  1.0 -0.2485311899
N  N23  1  0.05170000  0.44030000  0.44020000  1.0 -0.2485311899
N  N24  1  0.44030000  0.44020000  0.05170000  1.0 -0.2485311899
N  N25  1  0.37820000  0.05070000  0.44090000  1.0 -0.4416388942
N  N26  1  0.05070000  0.44090000  0.37820000  1.0 -0.4416388942
N  N27  1  0.44090000  0.37820000  0.05070000  1.0 -0.4416388942
N  N28  1  0.37820000  0.44090000  0.05070000  1.0 -0.4416388942
N  N29  1  0.44090000  0.05070000  0.37820000  1.0 -0.4416388942
N  N30  1  0.05070000  0.37820000  0.44090000  1.0 -0.4416388942
N  N31  1  0.43830000  0.05170000  0.50130000  1.0 -0.4199482942
N  N32  1  0.05170000  0.50130000  0.43830000  1.0 -0.4199482942
N  N33  1  0.50130000  0.43830000  0.05170000  1.0 -0.4199482942
N  N34  1  0.43830000  0.50130000  0.05170000  1.0 -0.4199482942
N  N35  1  0.50130000  0.05170000  0.43830000  1.0 -0.4199482942
N  N36  1  0.05170000  0.43830000  0.50130000  1.0 -0.4273449717
N  N37  1  0.75350000  0.81090000  0.68790000  1.0 -0.3786237263
N  N38  1  0.81090000  0.68790000  0.75350000  1.0 -0.3786237263
N  N39  1  0.68790000  0.75350000  0.81090000  1.0 -0.3742608004
N  N40  1  0.75350000  0.68790000  0.81090000  1.0 -0.3742608004
N  N41  1  0.68790000  0.81090000  0.75350000  1.0 -0.3786237263
N  N42  1  0.81090000  0.75350000  0.68790000  1.0 -0.3786237263
N  N43  1  0.75087000  0.75087000  0.75087000  1.0 -0.3270305902
N  N44  1  0.74760000  0.12210000  0.68420000  1.0 -0.40278432
N  N45  1  0.12210000  0.68420000  0.74760000  1.0 -0.4116237823
N  N46  1  0.68420000  0.74760000  0.12210000  1.0 -0.4116237823
N  N47  1  0.74760000  0.68420000  0.12210000  1.0 -0.4116237823
N  N48  1  0.68420000  0.12210000  0.74760000  1.0 -0.4116237823
N  N49  1  0.12210000  0.74760000  0.68420000  1.0 -0.4116237823
N  N50  1  0.49330000  0.36960000  0.43950000  1.0 -0.3270305902
N  N51  1  0.36960000  0.43950000  0.49330000  1.0 -0.3236055099
N  N52  1  0.43950000  0.49330000  0.36960000  1.0 -0.3270305902
N  N53  1  0.49330000  0.43950000  0.36960000  1.0 -0.3270305902
N  N54  1  0.43950000  0.36960000  0.49330000  1.0 -0.3236055099
N  N55  1  0.36960000  0.49330000  0.43950000  1.0 -0.3236055099
N  N56  1  0.43503000  0.43503000  0.43503000  1.0 -0.3439767533
N  N57  1  0.19150000  0.25150000  0.87680000  1.0 -0.3881019909
N  N58  1  0.25150000  0.87680000  0.19150000  1.0 -0.3881019909
N  N59  1  0.87680000  0.19150000  0.25150000  1.0 -0.3881019909
N  N60  1  0.19150000  0.87680000  0.25150000  1.0 -0.3881019909
N  N61  1  0.87680000  0.25150000  0.19150000  1.0 -0.3881019909
N  N62  1  0.25150000  0.19150000  0.87680000  1.0 -0.3881019909
N  N63  1  0.25210000  0.25210000  0.88070000  1.0 -0.2681582266
N  N64  1  0.25210000  0.88070000  0.25210000  1.0 -0.2636109762
N  N65  1  0.88070000  0.25210000  0.25210000  1.0 -0.2681582266
N  N66  1  0.18500000  0.31800000  0.87500000  1.0 -0.3881019909
N  N67  1  0.31800000  0.87500000  0.18500000  1.0 -0.3786237263
N  N68  1  0.87500000  0.18500000  0.31800000  1.0 -0.3786237263
N  N69  1  0.18500000  0.87500000  0.31800000  1.0 -0.3786237263
N  N70  1  0.87500000  0.31800000  0.18500000  1.0 -0.3786237263
N  N71  1  0.31800000  0.18500000  0.87500000  1.0 -0.3786237263
N  N72  1  0.62180000  0.49690000  0.94730000  1.0 -0.4199482942
N  N73  1  0.49690000  0.94730000  0.62180000  1.0 -0.4199482942
N  N74  1  0.94730000  0.62180000  0.49690000  1.0 -0.4199482942
N  N75  1  0.62180000  0.94730000  0.49690000  1.0 -0.4199482942
N  N76  1  0.94730000  0.49690000  0.62180000  1.0 -0.4199482942
N  N77  1  0.49690000  0.62180000  0.94730000  1.0 -0.4116237823
N  N78  1  0.55980000  0.55970000  0.94830000  1.0 -0.2485311899
N  N79  1  0.55970000  0.94830000  0.55980000  1.0 -0.2485311899
N  N80  1  0.94830000  0.55980000  0.55970000  1.0 -0.2485311899
N  N81  1  0.62180000  0.55910000  0.94930000  1.0 -0.4416388942
N  N82  1  0.55910000  0.94930000  0.62180000  1.0 -0.4416388942
N  N83  1  0.94930000  0.62180000  0.55910000  1.0 -0.4416388942
N  N84  1  0.62180000  0.94930000  0.55910000  1.0 -0.4416388942
N  N85  1  0.94930000  0.55910000  0.62180000  1.0 -0.4416388942
N  N86  1  0.55910000  0.62180000  0.94930000  1.0 -0.4416388942
N  N87  1  0.56170000  0.49870000  0.94830000  1.0 -0.4199482942
N  N88  1  0.49870000  0.94830000  0.56170000  1.0 -0.4199482942
N  N89  1  0.94830000  0.56170000  0.49870000  1.0 -0.4199482942
N  N90  1  0.56170000  0.94830000  0.49870000  1.0 -0.4199482942
N  N91  1  0.94830000  0.49870000  0.56170000  1.0 -0.4199482942
N  N92  1  0.49870000  0.56170000  0.94830000  1.0 -0.4273449717
N  N93  1  0.24650000  0.31210000  0.18910000  1.0 -0.3786237263
N  N94  1  0.31210000  0.18910000  0.24650000  1.0 -0.3786237263
N  N95  1  0.18910000  0.24650000  0.31210000  1.0 -0.3742608004
N  N96  1  0.24650000  0.18910000  0.31210000  1.0 -0.3786237263
N  N97  1  0.18910000  0.31210000  0.24650000  1.0 -0.3742608004
N  N98  1  0.31210000  0.24650000  0.18910000  1.0 -0.3786237263
N  N99  1  0.24913000  0.24913000  0.24913000  1.0 -0.3270305902
N  N100  1  0.25240000  0.31580000  0.87790000  1.0 -0.4116237823
N  N101  1  0.31580000  0.87790000  0.25240000  1.0 -0.4116237823
N  N102  1  0.87790000  0.25240000  0.31580000  1.0 -0.4116237823
N  N103  1  0.25240000  0.87790000  0.31580000  1.0 -0.4116237823
N  N104  1  0.87790000  0.31580000  0.25240000  1.0 -0.4116237823
N  N105  1  0.31580000  0.25240000  0.87790000  1.0 -0.40278432
N  N106  1  0.50670000  0.56050000  0.63040000  1.0 -0.3236055099
N  N107  1  0.56050000  0.63040000  0.50670000  1.0 -0.3236055099
N  N108  1  0.63040000  0.50670000  0.56050000  1.0 -0.3270305902
N  N109  1  0.50670000  0.63040000  0.56050000  1.0 -0.3270305902
N  N110  1  0.63040000  0.56050000  0.50670000  1.0 -0.3236055099
N  N111  1  0.56050000  0.50670000  0.63040000  1.0 -0.3270305902
N  N112  1  0.56497000  0.56497000  0.56497000  1.0 -0.3464704924
O  O1  1  0.02910000  0.10290000  0.64780000  1.0 -0.4273449717
O  O2  1  0.10290000  0.64780000  0.02910000  1.0 -0.4273449717
O  O3  1  0.64780000  0.02910000  0.10290000  1.0 -0.4273449717
O  O4  1  0.02910000  0.64780000  0.10290000  1.0 -0.4273449717
O  O5  1  0.64780000  0.10290000  0.02910000  1.0 -0.4273449717
O  O6  1  0.10290000  0.02910000  0.64780000  1.0 -0.4273449717
O  O7  1  0.02906000  0.10296000  0.58646000  1.0 -0.5476303273
O  O8  1  0.10296000  0.58646000  0.02906000  1.0 -0.5476303273
O  O9  1  0.58646000  0.02906000  0.10296000  1.0 -0.5476303273
O  O10  1  0.02906000  0.58646000  0.10296000  1.0 -0.5433453195
O  O11  1  0.58646000  0.10296000  0.02906000  1.0 -0.5476303273
O  O12  1  0.10296000  0.02906000  0.58646000  1.0 -0.5476303273
O  O13  1  0.15500000  0.08200000  0.53710000  1.0 -0.4818361474
O  O14  1  0.08200000  0.53710000  0.15500000  1.0 -0.4818361474
O  O15  1  0.53710000  0.15500000  0.08200000  1.0 -0.4818361474
O  O16  1  0.15500000  0.53710000  0.08200000  1.0 -0.4818361474
O  O17  1  0.53710000  0.08200000  0.15500000  1.0 -0.4818361474
O  O18  1  0.08200000  0.15500000  0.53710000  1.0 -0.4818361474
O  O19  1  0.15440000  0.08070000  0.59720000  1.0 -0.5043768459
O  O20  1  0.08070000  0.59720000  0.15440000  1.0 -0.505555243
O  O21  1  0.59720000  0.15440000  0.08070000  1.0 -0.505555243
O  O22  1  0.15440000  0.59720000  0.08070000  1.0 -0.505555243
O  O23  1  0.59720000  0.08070000  0.15440000  1.0 -0.505555243
O  O24  1  0.08070000  0.15440000  0.59720000  1.0 -0.505555243
O  O25  1  0.09110000  0.09100000  0.68590000  1.0 -0.2305709892
O  O26  1  0.09100000  0.68590000  0.09110000  1.0 -0.2195050814
O  O27  1  0.68590000  0.09110000  0.09100000  1.0 -0.2136659571
O  O28  1  0.09730000  0.09740000  0.49270000  1.0 -0.2791032367
O  O29  1  0.09740000  0.49270000  0.09730000  1.0 -0.2889641695
O  O30  1  0.49270000  0.09730000  0.09740000  1.0 -0.2681582266
O  O31  1  0.59590000  0.07920000  0.53730000  1.0 -0.4569337975
O  O32  1  0.07920000  0.53730000  0.59590000  1.0 -0.4569337975
O  O33  1  0.53730000  0.59590000  0.07920000  1.0 -0.4569337975
O  O34  1  0.59590000  0.53730000  0.07920000  1.0 -0.4569337975
O  O35  1  0.53730000  0.07920000  0.59590000  1.0 -0.4569337975
O  O36  1  0.07920000  0.59590000  0.53730000  1.0 -0.4569337975
O  O37  1  0.64700000  0.03480000  0.58460000  1.0 -0.5476303273
O  O38  1  0.03480000  0.58460000  0.64700000  1.0 -0.5476303273
O  O39  1  0.58460000  0.64700000  0.03480000  1.0 -0.5476303273
O  O40  1  0.64700000  0.58460000  0.03480000  1.0 -0.5476303273
O  O41  1  0.58460000  0.03480000  0.64700000  1.0 -0.5476303273
O  O42  1  0.03480000  0.64700000  0.58460000  1.0 -0.5476303273
O  O43  1  0.64770000  0.10800000  0.58490000  1.0 -0.4569337975
O  O44  1  0.10800000  0.58490000  0.64770000  1.0 -0.4569337975
O  O45  1  0.58490000  0.64770000  0.10800000  1.0 -0.4569337975
O  O46  1  0.64770000  0.58490000  0.10800000  1.0 -0.4569337975
O  O47  1  0.58490000  0.10800000  0.64770000  1.0 -0.4569337975
O  O48  1  0.10800000  0.64770000  0.58490000  1.0 -0.4569337975
O  O49  1  0.59390000  0.15330000  0.53660000  1.0 -0.4881001064
O  O50  1  0.15330000  0.53660000  0.59390000  1.0 -0.4881001064
O  O51  1  0.53660000  0.59390000  0.15330000  1.0 -0.4881001064
O  O52  1  0.59390000  0.53660000  0.15330000  1.0 -0.4881001064
O  O53  1  0.53660000  0.15330000  0.59390000  1.0 -0.4881001064
O  O54  1  0.15330000  0.59390000  0.53660000  1.0 -0.4881001064
O  O55  1  0.97090000  0.35220000  0.89710000  1.0 -0.4273449717
O  O56  1  0.35220000  0.89710000  0.97090000  1.0 -0.4273449717
O  O57  1  0.89710000  0.97090000  0.35220000  1.0 -0.4273449717
O  O58  1  0.97090000  0.89710000  0.35220000  1.0 -0.4273449717
O  O59  1  0.89710000  0.35220000  0.97090000  1.0 -0.4273449717
O  O60  1  0.35220000  0.97090000  0.89710000  1.0 -0.4273449717
O  O61  1  0.97094000  0.41354000  0.89704000  1.0 -0.5433453195
O  O62  1  0.41354000  0.89704000  0.97094000  1.0 -0.5476303273
O  O63  1  0.89704000  0.97094000  0.41354000  1.0 -0.5476303273
O  O64  1  0.97094000  0.89704000  0.41354000  1.0 -0.5476303273
O  O65  1  0.89704000  0.41354000  0.97094000  1.0 -0.5476303273
O  O66  1  0.41354000  0.97094000  0.89704000  1.0 -0.5476303273
O  O67  1  0.84500000  0.46290000  0.91800000  1.0 -0.4818361474
O  O68  1  0.46290000  0.91800000  0.84500000  1.0 -0.4818361474
O  O69  1  0.91800000  0.84500000  0.46290000  1.0 -0.4818361474
O  O70  1  0.84500000  0.91800000  0.46290000  1.0 -0.4818361474
O  O71  1  0.91800000  0.46290000  0.84500000  1.0 -0.4818361474
O  O72  1  0.46290000  0.84500000  0.91800000  1.0 -0.4818361474
O  O73  1  0.84560000  0.40280000  0.91930000  1.0 -0.505555243
O  O74  1  0.40280000  0.91930000  0.84560000  1.0 -0.5043768459
O  O75  1  0.91930000  0.84560000  0.40280000  1.0 -0.505555243
O  O76  1  0.84560000  0.91930000  0.40280000  1.0 -0.505555243
O  O77  1  0.91930000  0.40280000  0.84560000  1.0 -0.505555243
O  O78  1  0.40280000  0.84560000  0.91930000  1.0 -0.5043768459
O  O79  1  0.90890000  0.31410000  0.90900000  1.0 -0.2195050814
O  O80  1  0.31410000  0.90900000  0.90890000  1.0 -0.2305709892
O  O81  1  0.90900000  0.90890000  0.31410000  1.0 -0.2136659571
O  O82  1  0.90270000  0.50730000  0.90260000  1.0 -0.2889641695
O  O83  1  0.50730000  0.90260000  0.90270000  1.0 -0.2791032367
O  O84  1  0.90260000  0.90270000  0.50730000  1.0 -0.2889641695
O  O85  1  0.40410000  0.46270000  0.92080000  1.0 -0.4569337975
O  O86  1  0.46270000  0.92080000  0.40410000  1.0 -0.4569337975
O  O87  1  0.92080000  0.40410000  0.46270000  1.0 -0.4569337975
O  O88  1  0.40410000  0.92080000  0.46270000  1.0 -0.4569337975
O  O89  1  0.92080000  0.46270000  0.40410000  1.0 -0.4569337975
O  O90  1  0.46270000  0.40410000  0.92080000  1.0 -0.4569337975
O  O91  1  0.35300000  0.41540000  0.96520000  1.0 -0.5476303273
O  O92  1  0.41540000  0.96520000  0.35300000  1.0 -0.5476303273
O  O93  1  0.96520000  0.35300000  0.41540000  1.0 -0.5476303273
O  O94  1  0.35300000  0.96520000  0.41540000  1.0 -0.5476303273
O  O95  1  0.96520000  0.41540000  0.35300000  1.0 -0.5476303273
O  O96  1  0.41540000  0.35300000  0.96520000  1.0 -0.5476303273
O  O97  1  0.35230000  0.41510000  0.89200000  1.0 -0.4569337975
O  O98  1  0.41510000  0.89200000  0.35230000  1.0 -0.4569337975
O  O99  1  0.89200000  0.35230000  0.41510000  1.0 -0.4569337975
O  O100  1  0.35230000  0.89200000  0.41510000  1.0 -0.4569337975
O  O101  1  0.89200000  0.41510000  0.35230000  1.0 -0.4569337975
O  O102  1  0.41510000  0.35230000  0.89200000  1.0 -0.4569337975
O  O103  1  0.40610000  0.46340000  0.84670000  1.0 -0.4881001064
O  O104  1  0.46340000  0.84670000  0.40610000  1.0 -0.4881001064
O  O105  1  0.84670000  0.40610000  0.46340000  1.0 -0.4881001064
O  O106  1  0.40610000  0.84670000  0.46340000  1.0 -0.4881001064
O  O107  1  0.84670000  0.46340000  0.40610000  1.0 -0.4881001064
O  O108  1  0.46340000  0.40610000  0.84670000  1.0 -0.4881001064
