# DDEC6 charges by PACMAN v1.1 (https://github.com/mtap-research/PACMAN-charge/)
data_NIDFOY_FSR_pacman
_symmetry_space_group_name_H-M   'P 1'
_cell_length_a   9.91440000
_cell_length_b   10.70210000
_cell_length_c   12.77670000
_cell_angle_alpha   79.34200000
_cell_angle_beta   72.67400000
_cell_angle_gamma   85.11400000
_symmetry_Int_Tables_number   1
_chemical_formula_structural   TbH6C14S3Br3O8
_chemical_formula_sum   'Tb2 H12 C28 S6 Br6 O16'
_cell_volume   1271.17740533
_cell_formula_units_Z   2
loop_
 _symmetry_equiv_pos_site_id
 _symmetry_equiv_pos_as_xyz
  1  'x, y, z'
loop_
 _atom_site_type_symbol
 _atom_site_label
 _atom_site_symmetry_multiplicity
 _atom_site_fract_x
 _atom_site_fract_y
 _atom_site_fract_z
 _atom_site_occupancy
 _atom_site_charge
Tb  Tb1  1  0.27408000  0.81515000  0.33223000  1.0 1.9580995192
Tb  Tb2  1  0.72592000  0.18485000  0.66777000  1.0 1.9580995192
H  H1  1  0.85580000  0.21120000  0.31580000  1.0 0.168916424
H  H2  1  0.94090000  0.14920000  0.20920000  1.0 0.168916424
H  H3  1  0.83100000  0.06670000  0.31130000  1.0 0.168916424
H  H4  1  0.13160000  0.28080000  0.30120000  1.0 0.1451269139
H  H5  1  0.25580000  0.17390000  0.28610000  1.0 0.1757000088
H  H6  1  0.16930000  0.20890000  0.19630000  1.0 0.168916424
H  H7  1  0.14420000  0.78880000  0.68420000  1.0 0.1757000088
H  H8  1  0.05910000  0.85080000  0.79080000  1.0 0.168916424
H  H9  1  0.16900000  0.93330000  0.68870000  1.0 0.168916424
H  H10  1  0.86840000  0.71920000  0.69880000  1.0 0.1440919537
H  H11  1  0.74420000  0.82610000  0.71390000  1.0 0.1757000088
H  H12  1  0.83070000  0.79110000  0.80370000  1.0 0.168916424
C  C1  1  0.96630000  0.49520000  0.39920000  1.0 -0.1924049954
C  C2  1  0.05170000  0.59070000  0.40110000  1.0 0.2585647155
C  C3  1  0.08600000  0.59660000  0.50900000  1.0 0.2523475487
C  C4  1  0.57160000  0.07550000  0.04820000  1.0 -0.1643177222
C  C5  1  0.47230000  0.99170000  0.11820000  1.0 0.2711844046
C  C6  1  0.39610000  0.91020000  0.06820000  1.0 0.2893303979
C  C7  1  0.61340000  0.90500000  0.48110000  1.0 -0.1765726657
C  C8  1  0.49100000  0.89140000  0.45360000  1.0 0.2791952987
C  C9  1  0.37010000  0.99060000  0.47470000  1.0 0.2711844046
C  C10  1  0.90120000  0.13290000  0.29030000  1.0 -0.5485561143
C  C11  1  0.16280000  0.19950000  0.27540000  1.0 -0.5646372687
C  C12  1  0.52800000  0.39910000  0.32140000  1.0 -0.1765726657
C  C13  1  0.38500000  0.51100000  0.12630000  1.0 0.0196867988
C  C14  1  0.51600000  0.40500000  0.26340000  1.0 -0.1157883804
C  C15  1  0.03370000  0.50480000  0.60080000  1.0 -0.1924049954
C  C16  1  0.94830000  0.40930000  0.59890000  1.0 0.2585647155
C  C17  1  0.91400000  0.40340000  0.49100000  1.0 0.2523475487
C  C18  1  0.42840000  0.92450000  0.95180000  1.0 -0.1643177222
C  C19  1  0.52770000  0.00830000  0.88180000  1.0 0.2711844046
C  C20  1  0.60390000  0.08980000  0.93180000  1.0 0.2893303979
C  C21  1  0.38660000  0.09500000  0.51890000  1.0 -0.1765726657
C  C22  1  0.50900000  0.10860000  0.54640000  1.0 0.2791952987
C  C23  1  0.62990000  0.00940000  0.52530000  1.0 0.2711844046
C  C24  1  0.09880000  0.86710000  0.70970000  1.0 -0.5485561143
C  C25  1  0.83720000  0.80050000  0.72460000  1.0 -0.5646372687
C  C26  1  0.47200000  0.60090000  0.67860000  1.0 -0.173568974
C  C27  1  0.61500000  0.48900000  0.87370000  1.0 0.0196867988
C  C28  1  0.48400000  0.59500000  0.73660000  1.0 -0.1157883804
S  S1  1  0.03896000  0.08127000  0.35296000  1.0 0.6966709841
S  S2  1  0.37470000  0.49640000  0.28570000  1.0 0.2791952987
S  S3  1  0.39260000  0.50070000  0.35250000  1.0 0.1929616754
S  S4  1  0.96104000  0.91873000  0.64704000  1.0 0.6929483164
S  S5  1  0.62530000  0.50360000  0.71430000  1.0 0.2791952987
S  S6  1  0.60740000  0.49930000  0.64750000  1.0 0.1929616754
Br  Br1  1  0.92319000  0.48786000  0.26525000  1.0 0.0519742568
Br  Br2  1  0.66720000  0.17287000  0.11031000  1.0 0.0612148337
Br  Br3  1  0.76324000  0.78297000  0.45068000  1.0 0.0009944871
Br  Br4  1  0.07681000  0.51214000  0.73475000  1.0 0.0519742568
Br  Br5  1  0.33280000  0.82713000  0.88969000  1.0 0.0612148337
Br  Br6  1  0.23676000  0.21703000  0.54932000  1.0 -0.0029114206
O  O1  1  0.09860000  0.96020000  0.30570000  1.0 -0.6591131936
O  O2  1  0.40550000  0.63010000  0.29320000  1.0 -0.3556877624
O  O3  1  0.10330000  0.67560000  0.32060000  1.0 -0.470781381
O  O4  1  0.16170000  0.68800000  0.50390000  1.0 -0.5113131653
O  O5  1  0.43730000  0.97250000  0.22280000  1.0 -0.484365071
O  O6  1  0.31170000  0.83270000  0.13600000  1.0 -0.4574439775
O  O7  1  0.46620000  0.79990000  0.41330000  1.0 -0.470781381
O  O8  1  0.26260000  0.96820000  0.44900000  1.0 -0.5313233684
O  O9  1  0.90140000  0.03980000  0.69430000  1.0 -0.6591131936
O  O10  1  0.59450000  0.36990000  0.70680000  1.0 -0.3556877624
O  O11  1  0.89670000  0.32440000  0.67940000  1.0 -0.470781381
O  O12  1  0.83830000  0.31200000  0.49610000  1.0 -0.5113131653
O  O13  1  0.56270000  0.02750000  0.77720000  1.0 -0.484365071
O  O14  1  0.68830000  0.16730000  0.86400000  1.0 -0.4574439775
O  O15  1  0.53380000  0.20010000  0.58670000  1.0 -0.470781381
O  O16  1  0.73740000  0.03180000  0.55100000  1.0 -0.5313233684
