# DDEC6 charges by PACMAN v1.1 (https://github.com/mtap-research/PACMAN-charge/)
data_NIDGEP_FSR_pacman
_symmetry_space_group_name_H-M   'P 1'
_cell_length_a   9.91130000
_cell_length_b   10.55050000
_cell_length_c   12.74820000
_cell_angle_alpha   79.56400000
_cell_angle_beta   72.88500000
_cell_angle_gamma   86.35900000
_symmetry_Int_Tables_number   1
_chemical_formula_structural   YbH6C15S4Br3O8
_chemical_formula_sum   'Yb2 H12 C30 S8 Br6 O16'
_cell_volume   1252.88606524
_cell_formula_units_Z   2
loop_
 _symmetry_equiv_pos_site_id
 _symmetry_equiv_pos_as_xyz
  1  'x, y, z'
loop_
 _atom_site_type_symbol
 _atom_site_label
 _atom_site_symmetry_multiplicity
 _atom_site_fract_x
 _atom_site_fract_y
 _atom_site_fract_z
 _atom_site_occupancy
 _atom_site_charge
Yb  Yb1  1  0.27507000  0.81665000  0.32978000  1.0 1.9385459679
Yb  Yb2  1  0.72493000  0.18335000  0.67022000  1.0 1.9385459679
H  H1  1  0.13240000  0.28140000  0.30460000  1.0 0.1413874286
H  H2  1  0.25760000  0.17670000  0.28830000  1.0 0.1682998589
H  H3  1  0.17110000  0.21050000  0.19860000  1.0 0.1682998589
H  H4  1  0.85810000  0.20390000  0.31780000  1.0 0.1682998589
H  H5  1  0.94290000  0.14280000  0.21070000  1.0 0.1682998589
H  H6  1  0.83440000  0.05660000  0.31340000  1.0 0.1644077259
H  H7  1  0.86760000  0.71860000  0.69540000  1.0 0.1413874286
H  H8  1  0.74240000  0.82330000  0.71170000  1.0 0.1682998589
H  H9  1  0.82890000  0.78950000  0.80140000  1.0 0.1682998589
H  H10  1  0.14190000  0.79610000  0.68220000  1.0 0.1682998589
H  H11  1  0.05710000  0.85720000  0.78930000  1.0 0.1682998589
H  H12  1  0.16560000  0.94340000  0.68660000  1.0 0.1644077259
C  C1  1  0.37050000  0.99130000  0.47260000  1.0 0.2405070248
C  C2  1  0.48960000  0.89010000  0.45110000  1.0 0.265996303
C  C3  1  0.08970000  0.59940000  0.50720000  1.0 0.218884829
C  C4  1  0.05170000  0.59180000  0.40010000  1.0 0.2292516488
C  C5  1  0.47400000  0.99200000  0.11810000  1.0 0.2516309875
C  C6  1  0.39340000  0.90940000  0.06790000  1.0 0.2788164574
C  C7  1  0.16450000  0.20020000  0.27790000  1.0 -0.5700756949
C  C8  1  0.90390000  0.12560000  0.29190000  1.0 -0.5514184278
C  C9  1  0.38740000  0.09580000  0.51880000  1.0 -0.1678971839
C  C10  1  0.03680000  0.50560000  0.60140000  1.0 -0.1924091768
C  C11  1  0.57560000  0.07550000  0.04780000  1.0 -0.1639903974
C  C12  1  0.34400000  0.53000000  0.10820000  1.0 0.1788842413
C  C13  1  0.48900000  0.50000000  0.44900000  1.0 0.0773223001
C  C14  1  0.50800000  0.40730000  0.25490000  1.0 -0.1127637107
C  C15  1  0.52200000  0.40000000  0.31000000  1.0 -0.0634706733
C  C16  1  0.62950000  0.00870000  0.52740000  1.0 0.2405070248
C  C17  1  0.51040000  0.10990000  0.54890000  1.0 0.265996303
C  C18  1  0.91030000  0.40060000  0.49280000  1.0 0.218884829
C  C19  1  0.94830000  0.40820000  0.59990000  1.0 0.2292516488
C  C20  1  0.52600000  0.00800000  0.88190000  1.0 0.2516309875
C  C21  1  0.60660000  0.09060000  0.93210000  1.0 0.2788164574
C  C22  1  0.83550000  0.79980000  0.72210000  1.0 -0.5700756949
C  C23  1  0.09610000  0.87440000  0.70810000  1.0 -0.5514184278
C  C24  1  0.61260000  0.90420000  0.48120000  1.0 -0.1678971839
C  C25  1  0.96320000  0.49440000  0.39860000  1.0 -0.197156806
C  C26  1  0.42440000  0.92450000  0.95220000  1.0 -0.1639903974
C  C27  1  0.65600000  0.47000000  0.89180000  1.0 0.1788842413
C  C28  1  0.51100000  0.50000000  0.55100000  1.0 0.0773223001
C  C29  1  0.49200000  0.59270000  0.74510000  1.0 -0.1127637107
C  C30  1  0.47800000  0.60000000  0.69000000  1.0 -0.0634706733
S  S1  1  0.04290000  0.07742000  0.35375000  1.0 0.691097315
S  S2  1  0.35990000  0.50970000  0.26360000  1.0 0.0039123812
S  S3  1  0.38840000  0.50100000  0.35360000  1.0 0.0081261504
S  S4  1  0.37820000  0.49720000  0.29240000  1.0 0.0474882606
S  S5  1  0.95710000  0.92258000  0.64625000  1.0 0.691097315
S  S6  1  0.64010000  0.49030000  0.73640000  1.0 0.0039123812
S  S7  1  0.61160000  0.49900000  0.64640000  1.0 0.0081261504
S  S8  1  0.62180000  0.50280000  0.70760000  1.0 0.0474882606
Br  Br1  1  0.24072000  0.21959000  0.54870000  1.0 0.0216440051
Br  Br2  1  0.08296000  0.51441000  0.73319000  1.0 0.061633687
Br  Br3  1  0.67896000  0.16954000  0.11021000  1.0 0.0474882606
Br  Br4  1  0.75928000  0.78041000  0.45130000  1.0 0.0216440051
Br  Br5  1  0.91704000  0.48559000  0.26681000  1.0 0.061633687
Br  Br6  1  0.32104000  0.83046000  0.88979000  1.0 0.0474882606
O  O1  1  0.10240000  0.95660000  0.30600000  1.0 -0.6619777721
O  O2  1  0.26360000  0.96900000  0.44540000  1.0 -0.5140752834
O  O3  1  0.46490000  0.80020000  0.40960000  1.0 -0.4156017047
O  O4  1  0.16870000  0.69150000  0.49950000  1.0 -0.486439262
O  O5  1  0.10450000  0.67670000  0.31890000  1.0 -0.460047428
O  O6  1  0.43730000  0.97120000  0.22370000  1.0 -0.4965496403
O  O7  1  0.30790000  0.83260000  0.13650000  1.0 -0.4479476553
O  O8  1  0.40330000  0.63540000  0.28720000  1.0 -0.2335706767
O  O9  1  0.89760000  0.04340000  0.69400000  1.0 -0.6619777721
O  O10  1  0.73640000  0.03100000  0.55460000  1.0 -0.5140752834
O  O11  1  0.53510000  0.19980000  0.59040000  1.0 -0.4148335201
O  O12  1  0.83130000  0.30850000  0.50050000  1.0 -0.486439262
O  O13  1  0.89550000  0.32330000  0.68110000  1.0 -0.460047428
O  O14  1  0.56270000  0.02880000  0.77630000  1.0 -0.4965496403
O  O15  1  0.69210000  0.16740000  0.86350000  1.0 -0.4479476553
O  O16  1  0.59670000  0.36460000  0.71280000  1.0 -0.2335706767
