# DDEC6 charges by PACMAN v1.1 (https://github.com/mtap-research/PACMAN-charge/)
data_NIFVAD_ASR_pacman
_symmetry_space_group_name_H-M   'P 1'
_cell_length_a   9.16820000
_cell_length_b   11.07840000
_cell_length_c   11.50240000
_cell_angle_alpha   106.76000000
_cell_angle_beta   100.14700000
_cell_angle_gamma   98.20300000
_symmetry_Int_Tables_number   1
_chemical_formula_structural   NiH26C36(NO2)4
_chemical_formula_sum   'Ni1 H26 C36 N4 O8'
_cell_volume   1077.71202485
_cell_formula_units_Z   1
loop_
 _symmetry_equiv_pos_site_id
 _symmetry_equiv_pos_as_xyz
  1  'x, y, z'
loop_
 _atom_site_type_symbol
 _atom_site_label
 _atom_site_symmetry_multiplicity
 _atom_site_fract_x
 _atom_site_fract_y
 _atom_site_fract_z
 _atom_site_occupancy
 _atom_site_charge
Ni  Ni1  1  0.50000000  0.50000000  0.00000000  1.0 0.6476726363
H  H1  1  0.69053000  0.26473000  0.65300000  1.0 0.3632576297
H  H2  1  0.30947000  0.73527000  0.34700000  1.0 0.3632576297
H  H3  1  0.82194000  0.05361000  0.45274000  1.0 0.1178300212
H  H4  1  0.17806000  0.94639000  0.54726000  1.0 0.1178300212
H  H5  1  0.84824000  0.86156000  0.32199000  1.0 0.1118971636
H  H6  1  0.15176000  0.13844000  0.67801000  1.0 0.1118971636
H  H7  1  0.73250000  0.66746000  0.33749000  1.0 0.1118971636
H  H8  1  0.26750000  0.33254000  0.66251000  1.0 0.1118971636
H  H9  1  0.57466000  0.85900000  0.62274000  1.0 0.1178300212
H  H10  1  0.42534000  0.14100000  0.37726000  1.0 0.1178300212
H  H11  1  0.36653000  0.33481000  0.32366000  1.0 0.1178300212
H  H12  1  0.63347000  0.66519000  0.67634000  1.0 0.1178300212
H  H13  1  0.24617000  0.29577000  0.04010000  1.0 0.1118971636
H  H14  1  0.75383000  0.70423000  0.95990000  1.0 0.1118971636
H  H15  1  0.17951000  0.50877000  0.82590000  1.0 0.125703696
H  H16  1  0.82049000  0.49123000  0.17410000  1.0 0.125703696
H  H17  1  0.93088000  0.40052000  0.83170000  1.0 0.139505973
H  H18  1  0.06912000  0.59948000  0.16830000  1.0 0.139505973
H  H19  1  0.83500000  0.22830000  0.93024000  1.0 0.139505973
H  H20  1  0.16500000  0.77170000  0.06976000  1.0 0.139505973
H  H21  1  0.92361000  0.29539000  0.06945000  1.0 0.125703696
H  H22  1  0.07639000  0.70461000  0.93055000  1.0 0.125703696
H  H23  1  0.02080000  0.16607000  0.18023000  1.0 0.125703696
H  H24  1  0.97920000  0.83393000  0.81977000  1.0 0.125703696
H  H25  1  0.07361000  0.97227000  0.19075000  1.0 0.125703696
H  H26  1  0.92639000  0.02773000  0.80925000  1.0 0.125703696
C  C1  1  0.67350000  0.09860000  0.63690000  1.0 0.5358538459
C  C2  1  0.32650000  0.90140000  0.36310000  1.0 0.5358538459
C  C3  1  0.69600000  0.97690000  0.55150000  1.0 -0.0388822054
C  C4  1  0.30400000  0.02310000  0.44850000  1.0 -0.0388822054
C  C5  1  0.77740000  0.97630000  0.46040000  1.0 -0.1029175893
C  C6  1  0.22260000  0.02370000  0.53960000  1.0 -0.1029175893
C  C7  1  0.79210000  0.86170000  0.38200000  1.0 -0.0816931446
C  C8  1  0.20790000  0.13830000  0.61800000  1.0 -0.0816931446
C  C9  1  0.72380000  0.74550000  0.39130000  1.0 -0.1219142248
C  C10  1  0.27620000  0.25450000  0.60870000  1.0 -0.1219142248
C  C11  1  0.64370000  0.74860000  0.48128000  1.0 0.0700350086
C  C12  1  0.35630000  0.25140000  0.51872000  1.0 0.0700350086
C  C13  1  0.62880000  0.86010000  0.56170000  1.0 -0.140929306
C  C14  1  0.37120000  0.13990000  0.43830000  1.0 -0.140929306
C  C15  1  0.56460000  0.61950000  0.48970000  1.0 0.0629193316
C  C16  1  0.43540000  0.38050000  0.51030000  1.0 0.0629193316
C  C17  1  0.48140000  0.51800000  0.38336000  1.0 -0.0511437264
C  C18  1  0.51860000  0.48200000  0.61664000  1.0 -0.0511437264
C  C19  1  0.42000000  0.40140000  0.39510000  1.0 -0.1681024154
C  C20  1  0.58000000  0.59860000  0.60490000  1.0 -0.1681024154
C  C21  1  0.44600000  0.53610000  0.25665000  1.0 0.5664647053
C  C22  1  0.55400000  0.46390000  0.74335000  1.0 0.5664647053
C  C23  1  0.19950000  0.33580000  0.98740000  1.0 0.1023896242
C  C24  1  0.80050000  0.66420000  0.01260000  1.0 0.1023896242
C  C25  1  0.16190000  0.45220000  0.87030000  1.0 -0.0511437264
C  C26  1  0.83810000  0.54780000  0.12970000  1.0 -0.0511437264
C  C27  1  0.02410000  0.39240000  0.87260000  1.0 -0.1029175893
C  C28  1  0.97590000  0.60760000  0.12740000  1.0 -0.1029175893
C  C29  1  0.93200000  0.24420000  0.98780000  1.0 -0.1681024154
C  C30  1  0.06800000  0.75580000  0.01220000  1.0 -0.1681024154
C  C31  1  0.96820000  0.11740000  0.99420000  1.0 0.0933087672
C  C32  1  0.03180000  0.88260000  0.00580000  1.0 0.0933087672
C  C33  1  0.01220000  0.09920000  0.10700000  1.0 -0.1486206522
C  C34  1  0.98780000  0.90080000  0.89300000  1.0 -0.1486206522
C  C35  1  0.04390000  0.98300000  0.11340000  1.0 -0.1341216957
C  C36  1  0.95610000  0.01700000  0.88660000  1.0 -0.1341216957
N  N1  1  0.27240000  0.41702000  0.94366000  1.0 -0.2734895815
N  N2  1  0.72760000  0.58298000  0.05634000  1.0 -0.2734895815
N  N3  1  0.04860000  0.31760000  0.94670000  1.0 0.0421052816
N  N4  1  0.95140000  0.68240000  0.05330000  1.0 0.0421052816
O  O1  1  0.50522000  0.47443000  0.17436000  1.0 -0.5352572968
O  O2  1  0.49478000  0.52557000  0.82564000  1.0 -0.5352572968
O  O3  1  0.35750000  0.60965000  0.24226000  1.0 -0.5482198765
O  O4  1  0.64250000  0.39035000  0.75774000  1.0 -0.5482198765
O  O5  1  0.61850000  0.10200000  0.72560000  1.0 -0.486197563
O  O6  1  0.38150000  0.89800000  0.27440000  1.0 -0.486197563
O  O7  1  0.71740000  0.20128000  0.60613000  1.0 -0.4775257876
O  O8  1  0.28260000  0.79872000  0.39387000  1.0 -0.4775257876
