# DDEC6 charges by PACMAN v1.1 (https://github.com/mtap-research/PACMAN-charge/)
data_NIFZIN_ion_pacman
_symmetry_space_group_name_H-M   'P 1'
_cell_length_a   18.36720000
_cell_length_b   18.56250000
_cell_length_c   49.07120000
_cell_angle_alpha   90.00000000
_cell_angle_beta   90.00000000
_cell_angle_gamma   90.00000000
_symmetry_Int_Tables_number   1
_chemical_formula_structural   Tb3Co2H46C72N12ClO34
_chemical_formula_sum   'Tb24 Co16 H368 C576 N96 Cl8 O272'
_cell_volume   16730.39135988
_cell_formula_units_Z   8
loop_
 _symmetry_equiv_pos_site_id
 _symmetry_equiv_pos_as_xyz
  1  'x, y, z'
loop_
 _atom_site_type_symbol
 _atom_site_label
 _atom_site_symmetry_multiplicity
 _atom_site_fract_x
 _atom_site_fract_y
 _atom_site_fract_z
 _atom_site_occupancy
 _atom_site_charge
Tb  Tb1  1  0.20036000  0.42011000  0.12165000  1.0 2.0736481578
Tb  Tb2  1  0.70036000  0.57989000  0.37835000  1.0 2.0736481578
Tb  Tb3  1  0.79964000  0.07989000  0.62165000  1.0 2.0736481578
Tb  Tb4  1  0.29964000  0.92011000  0.87835000  1.0 2.0736481578
Tb  Tb5  1  0.79964000  0.57989000  0.87835000  1.0 2.0736481578
Tb  Tb6  1  0.29964000  0.42011000  0.62165000  1.0 2.0736481578
Tb  Tb7  1  0.20036000  0.92011000  0.37835000  1.0 2.0736481578
Tb  Tb8  1  0.70036000  0.07989000  0.12165000  1.0 2.0736481578
Tb  Tb9  1  0.35899000  0.59927000  0.12232000  1.0 2.126484725
Tb  Tb10  1  0.85899000  0.40073000  0.37768000  1.0 2.126484725
Tb  Tb11  1  0.64101000  0.90073000  0.62232000  1.0 2.126484725
Tb  Tb12  1  0.14101000  0.09927000  0.87768000  1.0 2.126484725
Tb  Tb13  1  0.64101000  0.40073000  0.87768000  1.0 2.126484725
Tb  Tb14  1  0.14101000  0.59927000  0.62232000  1.0 2.126484725
Tb  Tb15  1  0.35899000  0.09927000  0.37768000  1.0 2.126484725
Tb  Tb16  1  0.85899000  0.90073000  0.12232000  1.0 2.126484725
Tb  Tb17  1  0.80392000  0.51883000  0.12423000  1.0 1.871395591
Tb  Tb18  1  0.30392000  0.48117000  0.37577000  1.0 1.871395591
Tb  Tb19  1  0.19608000  0.98117000  0.62423000  1.0 1.871395591
Tb  Tb20  1  0.69608000  0.01883000  0.87577000  1.0 1.871395591
Tb  Tb21  1  0.19608000  0.48117000  0.87577000  1.0 1.871395591
Tb  Tb22  1  0.69608000  0.51883000  0.62423000  1.0 1.871395591
Tb  Tb23  1  0.80392000  0.01883000  0.37577000  1.0 1.871395591
Tb  Tb24  1  0.30392000  0.98117000  0.12423000  1.0 1.871395591
Co  Co1  1  0.03718000  0.61769000  0.25340000  1.0 0.4186670483
Co  Co2  1  0.53718000  0.38231000  0.24660000  1.0 0.4186670483
Co  Co3  1  0.96282000  0.88231000  0.75340000  1.0 0.4186670483
Co  Co4  1  0.46282000  0.11769000  0.74660000  1.0 0.4186670483
Co  Co5  1  0.96282000  0.38231000  0.74660000  1.0 0.4186670483
Co  Co6  1  0.46282000  0.61769000  0.75340000  1.0 0.4186670483
Co  Co7  1  0.03718000  0.11769000  0.24660000  1.0 0.4186670483
Co  Co8  1  0.53718000  0.88231000  0.25340000  1.0 0.4186670483
Co  Co9  1  0.11316000  0.74806000  0.99805000  1.0 0.4260448745
Co  Co10  1  0.61316000  0.25194000  0.50195000  1.0 0.4260448745
Co  Co11  1  0.88684000  0.75194000  0.49805000  1.0 0.4260448745
Co  Co12  1  0.38684000  0.24806000  0.00195000  1.0 0.4186670483
Co  Co13  1  0.88684000  0.25194000  0.00195000  1.0 0.4260448745
Co  Co14  1  0.38684000  0.74806000  0.49805000  1.0 0.4260448745
Co  Co15  1  0.11316000  0.24806000  0.50195000  1.0 0.4186670483
Co  Co16  1  0.61316000  0.75194000  0.99805000  1.0 0.4260448745
H  H1  1  0.46240000  0.22720000  0.94470000  1.0 0.1128082604
H  H2  1  0.96240000  0.77280000  0.55530000  1.0 0.1128082604
H  H3  1  0.53760000  0.27280000  0.44470000  1.0 0.1128082604
H  H4  1  0.03760000  0.72720000  0.05530000  1.0 0.1128082604
H  H5  1  0.53760000  0.77280000  0.05530000  1.0 0.1128082604
H  H6  1  0.03760000  0.22720000  0.44470000  1.0 0.1128082604
H  H7  1  0.46240000  0.72720000  0.55530000  1.0 0.1128082604
H  H8  1  0.96240000  0.27280000  0.94470000  1.0 0.1128082604
H  H9  1  0.62610000  0.36950000  0.94320000  1.0 0.1305037878
H  H10  1  0.12610000  0.63050000  0.55680000  1.0 0.1305037878
H  H11  1  0.37390000  0.13050000  0.44320000  1.0 0.1305037878
H  H12  1  0.87390000  0.86950000  0.05680000  1.0 0.1398092056
H  H13  1  0.37390000  0.63050000  0.05680000  1.0 0.1305037878
H  H14  1  0.87390000  0.36950000  0.44320000  1.0 0.1305037878
H  H15  1  0.62610000  0.86950000  0.55680000  1.0 0.1398092056
H  H16  1  0.12610000  0.13050000  0.94320000  1.0 0.1398092056
H  H17  1  0.58560000  0.41330000  0.98460000  1.0 0.1305037878
H  H18  1  0.08560000  0.58670000  0.51540000  1.0 0.1305037878
H  H19  1  0.41440000  0.08670000  0.48460000  1.0 0.1305037878
H  H20  1  0.91440000  0.91330000  0.01540000  1.0 0.1305037878
H  H21  1  0.41440000  0.58670000  0.01540000  1.0 0.1305037878
H  H22  1  0.91440000  0.41330000  0.48460000  1.0 0.1305037878
H  H23  1  0.58560000  0.91330000  0.51540000  1.0 0.1305037878
H  H24  1  0.08560000  0.08670000  0.98460000  1.0 0.1305037878
H  H25  1  0.53980000  0.45210000  0.02340000  1.0 0.1398092056
H  H26  1  0.03980000  0.54790000  0.47660000  1.0 0.1398092056
H  H27  1  0.46020000  0.04790000  0.52340000  1.0 0.1398092056
H  H28  1  0.96020000  0.95210000  0.97660000  1.0 0.1398092056
H  H29  1  0.46020000  0.54790000  0.97660000  1.0 0.1398092056
H  H30  1  0.96020000  0.45210000  0.52340000  1.0 0.1398092056
H  H31  1  0.53980000  0.95210000  0.47660000  1.0 0.1398092056
H  H32  1  0.03980000  0.04790000  0.02340000  1.0 0.1398092056
H  H33  1  0.47760000  0.49150000  0.06190000  1.0 0.1305037878
H  H34  1  0.97760000  0.50850000  0.43810000  1.0 0.1305037878
H  H35  1  0.52240000  0.00850000  0.56190000  1.0 0.1305037878
H  H36  1  0.02240000  0.99150000  0.93810000  1.0 0.1305037878
H  H37  1  0.52240000  0.50850000  0.93810000  1.0 0.1305037878
H  H38  1  0.02240000  0.49150000  0.56190000  1.0 0.1305037878
H  H39  1  0.47760000  0.99150000  0.43810000  1.0 0.1305037878
H  H40  1  0.97760000  0.00850000  0.06190000  1.0 0.1305037878
H  H41  1  0.33100000  0.33520000  0.05060000  1.0 0.1206989913
H  H42  1  0.83100000  0.66480000  0.44940000  1.0 0.1206989913
H  H43  1  0.66900000  0.16480000  0.55060000  1.0 0.1206989913
H  H44  1  0.16900000  0.83520000  0.94940000  1.0 0.1206989913
H  H45  1  0.66900000  0.66480000  0.94940000  1.0 0.1206989913
H  H46  1  0.16900000  0.33520000  0.55060000  1.0 0.1206989913
H  H47  1  0.33100000  0.83520000  0.44940000  1.0 0.1206989913
H  H48  1  0.83100000  0.16480000  0.05060000  1.0 0.1206989913
H  H49  1  0.46670000  0.45890000  0.19620000  1.0 0.1206989913
H  H50  1  0.96670000  0.54110000  0.30380000  1.0 0.1206989913
H  H51  1  0.53330000  0.04110000  0.69620000  1.0 0.1206989913
H  H52  1  0.03330000  0.95890000  0.80380000  1.0 0.1206989913
H  H53  1  0.53330000  0.54110000  0.80380000  1.0 0.1206989913
H  H54  1  0.03330000  0.45890000  0.69620000  1.0 0.1206989913
H  H55  1  0.46670000  0.95890000  0.30380000  1.0 0.1206989913
H  H56  1  0.96670000  0.04110000  0.19620000  1.0 0.1206989913
H  H57  1  0.31020000  0.32570000  0.17050000  1.0 0.1398092056
H  H58  1  0.81020000  0.67430000  0.32950000  1.0 0.1398092056
H  H59  1  0.68980000  0.17430000  0.67050000  1.0 0.1398092056
H  H60  1  0.18980000  0.82570000  0.82950000  1.0 0.1398092056
H  H61  1  0.68980000  0.67430000  0.82950000  1.0 0.1398092056
H  H62  1  0.18980000  0.32570000  0.67050000  1.0 0.1398092056
H  H63  1  0.31020000  0.82570000  0.32950000  1.0 0.1398092056
H  H64  1  0.81020000  0.17430000  0.17050000  1.0 0.1398092056
H  H65  1  0.33750000  0.24910000  0.20670000  1.0 0.1305037878
H  H66  1  0.83750000  0.75090000  0.29330000  1.0 0.1305037878
H  H67  1  0.66250000  0.25090000  0.70670000  1.0 0.1305037878
H  H68  1  0.16250000  0.74910000  0.79330000  1.0 0.1305037878
H  H69  1  0.66250000  0.75090000  0.79330000  1.0 0.1305037878
H  H70  1  0.16250000  0.24910000  0.70670000  1.0 0.1305037878
H  H71  1  0.33750000  0.74910000  0.29330000  1.0 0.1305037878
H  H72  1  0.83750000  0.25090000  0.20670000  1.0 0.1305037878
H  H73  1  0.34780000  0.19940000  0.24590000  1.0 0.1305037878
H  H74  1  0.84780000  0.80060000  0.25410000  1.0 0.1305037878
H  H75  1  0.65220000  0.30060000  0.74590000  1.0 0.1305037878
H  H76  1  0.15220000  0.69940000  0.75410000  1.0 0.1305037878
H  H77  1  0.65220000  0.80060000  0.75410000  1.0 0.1305037878
H  H78  1  0.15220000  0.19940000  0.74590000  1.0 0.1305037878
H  H79  1  0.34780000  0.69940000  0.25410000  1.0 0.1305037878
H  H80  1  0.84780000  0.30060000  0.24590000  1.0 0.1305037878
H  H81  1  0.36210000  0.15080000  0.28920000  1.0 0.1305037878
H  H82  1  0.86210000  0.84920000  0.21080000  1.0 0.1305037878
H  H83  1  0.63790000  0.34920000  0.78920000  1.0 0.1305037878
H  H84  1  0.13790000  0.65080000  0.71080000  1.0 0.1305037878
H  H85  1  0.63790000  0.84920000  0.71080000  1.0 0.1305037878
H  H86  1  0.13790000  0.15080000  0.78920000  1.0 0.1305037878
H  H87  1  0.36210000  0.65080000  0.21080000  1.0 0.1305037878
H  H88  1  0.86210000  0.34920000  0.28920000  1.0 0.1305037878
H  H89  1  0.52190000  0.29550000  0.30170000  1.0 0.1128082604
H  H90  1  0.02190000  0.70450000  0.19830000  1.0 0.1128082604
H  H91  1  0.47810000  0.20450000  0.80170000  1.0 0.1128082604
H  H92  1  0.97810000  0.79550000  0.69830000  1.0 0.1128082604
H  H93  1  0.47810000  0.70450000  0.69830000  1.0 0.1128082604
H  H94  1  0.97810000  0.29550000  0.80170000  1.0 0.1128082604
H  H95  1  0.52190000  0.79550000  0.19830000  1.0 0.1128082604
H  H96  1  0.02190000  0.20450000  0.30170000  1.0 0.1128082604
H  H97  1  0.11000000  0.54970000  0.20150000  1.0 0.1206989913
H  H98  1  0.61000000  0.45030000  0.29850000  1.0 0.1206989913
H  H99  1  0.89000000  0.95030000  0.70150000  1.0 0.1206989913
H  H100  1  0.39000000  0.04970000  0.79850000  1.0 0.1206989913
H  H101  1  0.89000000  0.45030000  0.79850000  1.0 0.1206989913
H  H102  1  0.39000000  0.54970000  0.70150000  1.0 0.1206989913
H  H103  1  0.11000000  0.04970000  0.29850000  1.0 0.1206989913
H  H104  1  0.61000000  0.95030000  0.20150000  1.0 0.1206989913
H  H105  1  0.25020000  0.69830000  0.17460000  1.0 0.1398092056
H  H106  1  0.75020000  0.30170000  0.32540000  1.0 0.1398092056
H  H107  1  0.74980000  0.80170000  0.67460000  1.0 0.1398092056
H  H108  1  0.24980000  0.19830000  0.82540000  1.0 0.1398092056
H  H109  1  0.74980000  0.30170000  0.82540000  1.0 0.1398092056
H  H110  1  0.24980000  0.69830000  0.67460000  1.0 0.1398092056
H  H111  1  0.25020000  0.19830000  0.32540000  1.0 0.1398092056
H  H112  1  0.75020000  0.80170000  0.17460000  1.0 0.1398092056
H  H113  1  0.22890000  0.76550000  0.21460000  1.0 0.1305037878
H  H114  1  0.72890000  0.23450000  0.28540000  1.0 0.1305037878
H  H115  1  0.77110000  0.73450000  0.71460000  1.0 0.1305037878
H  H116  1  0.27110000  0.26550000  0.78540000  1.0 0.1305037878
H  H117  1  0.77110000  0.23450000  0.78540000  1.0 0.1305037878
H  H118  1  0.27110000  0.76550000  0.71460000  1.0 0.1305037878
H  H119  1  0.22890000  0.26550000  0.28540000  1.0 0.1305037878
H  H120  1  0.72890000  0.73450000  0.21460000  1.0 0.1305037878
H  H121  1  0.21380000  0.81300000  0.25390000  1.0 0.1305037878
H  H122  1  0.71380000  0.18700000  0.24610000  1.0 0.1305037878
H  H123  1  0.78620000  0.68700000  0.75390000  1.0 0.1305037878
H  H124  1  0.28620000  0.31300000  0.74610000  1.0 0.1305037878
H  H125  1  0.78620000  0.18700000  0.74610000  1.0 0.1305037878
H  H126  1  0.28620000  0.81300000  0.75390000  1.0 0.1305037878
H  H127  1  0.21380000  0.31300000  0.24610000  1.0 0.1305037878
H  H128  1  0.71380000  0.68700000  0.25390000  1.0 0.1305037878
H  H129  1  0.18810000  0.86060000  0.29660000  1.0 0.1305037878
H  H130  1  0.68810000  0.13940000  0.20340000  1.0 0.1305037878
H  H131  1  0.81190000  0.63940000  0.79660000  1.0 0.1305037878
H  H132  1  0.31190000  0.36060000  0.70340000  1.0 0.1305037878
H  H133  1  0.81190000  0.13940000  0.70340000  1.0 0.1305037878
H  H134  1  0.31190000  0.86060000  0.79660000  1.0 0.1305037878
H  H135  1  0.18810000  0.36060000  0.20340000  1.0 0.1305037878
H  H136  1  0.68810000  0.63940000  0.29660000  1.0 0.1305037878
H  H137  1  0.04620000  0.70270000  0.30860000  1.0 0.1128082604
H  H138  1  0.54620000  0.29730000  0.19140000  1.0 0.1128082604
H  H139  1  0.95380000  0.79730000  0.80860000  1.0 0.1128082604
H  H140  1  0.45380000  0.20270000  0.69140000  1.0 0.1128082604
H  H141  1  0.95380000  0.29730000  0.69140000  1.0 0.1128082604
H  H142  1  0.45380000  0.70270000  0.80860000  1.0 0.1128082604
H  H143  1  0.04620000  0.20270000  0.19140000  1.0 0.1128082604
H  H144  1  0.54620000  0.79730000  0.30860000  1.0 0.1128082604
H  H145  1  0.20760000  0.67780000  0.04360000  1.0 0.1206989913
H  H146  1  0.70760000  0.32220000  0.45640000  1.0 0.1206989913
H  H147  1  0.79240000  0.82220000  0.54360000  1.0 0.1206989913
H  H148  1  0.29240000  0.17780000  0.95640000  1.0 0.1206989913
H  H149  1  0.79240000  0.32220000  0.95640000  1.0 0.1206989913
H  H150  1  0.29240000  0.67780000  0.54360000  1.0 0.1206989913
H  H151  1  0.20760000  0.17780000  0.45640000  1.0 0.1206989913
H  H152  1  0.70760000  0.82220000  0.04360000  1.0 0.1206989913
H  H153  1  0.08240000  0.52050000  0.07320000  1.0 0.1305037878
H  H154  1  0.58240000  0.47950000  0.42680000  1.0 0.1305037878
H  H155  1  0.91760000  0.97950000  0.57320000  1.0 0.1305037878
H  H156  1  0.41760000  0.02050000  0.92680000  1.0 0.1305037878
H  H157  1  0.91760000  0.47950000  0.92680000  1.0 0.1305037878
H  H158  1  0.41760000  0.52050000  0.57320000  1.0 0.1305037878
H  H159  1  0.08240000  0.02050000  0.42680000  1.0 0.1305037878
H  H160  1  0.58240000  0.97950000  0.07320000  1.0 0.1305037878
H  H161  1  0.00300000  0.53850000  0.03720000  1.0 0.1305037878
H  H162  1  0.50300000  0.46150000  0.46280000  1.0 0.1305037878
H  H163  1  0.99700000  0.96150000  0.53720000  1.0 0.1305037878
H  H164  1  0.49700000  0.03850000  0.96280000  1.0 0.1305037878
H  H165  1  0.99700000  0.46150000  0.96280000  1.0 0.1305037878
H  H166  1  0.49700000  0.53850000  0.53720000  1.0 0.1305037878
H  H167  1  0.00300000  0.03850000  0.46280000  1.0 0.1305037878
H  H168  1  0.50300000  0.96150000  0.03720000  1.0 0.1305037878
H  H169  1  0.93600000  0.55900000  0.00080000  1.0 0.1305037878
H  H170  1  0.43600000  0.44100000  0.49920000  1.0 0.1305037878
H  H171  1  0.06400000  0.94100000  0.50080000  1.0 0.1305037878
H  H172  1  0.56400000  0.05900000  0.99920000  1.0 0.1305037878
H  H173  1  0.06400000  0.44100000  0.99920000  1.0 0.1305037878
H  H174  1  0.56400000  0.55900000  0.50080000  1.0 0.1305037878
H  H175  1  0.93600000  0.05900000  0.49920000  1.0 0.1305037878
H  H176  1  0.43600000  0.94100000  0.00080000  1.0 0.1305037878
H  H177  1  0.87320000  0.58470000  0.96070000  1.0 0.1305037878
H  H178  1  0.37320000  0.41530000  0.53930000  1.0 0.1305037878
H  H179  1  0.12680000  0.91530000  0.46070000  1.0 0.1305037878
H  H180  1  0.62680000  0.08470000  0.03930000  1.0 0.1305037878
H  H181  1  0.12680000  0.41530000  0.03930000  1.0 0.1305037878
H  H182  1  0.62680000  0.58470000  0.46070000  1.0 0.1305037878
H  H183  1  0.87320000  0.08470000  0.53930000  1.0 0.1305037878
H  H184  1  0.37320000  0.91530000  0.96070000  1.0 0.1305037878
H  H185  1  0.01220000  0.74620000  0.94760000  1.0 0.1206989913
H  H186  1  0.51220000  0.25380000  0.55240000  1.0 0.1206989913
H  H187  1  0.98780000  0.75380000  0.44760000  1.0 0.1206989913
H  H188  1  0.48780000  0.24620000  0.05240000  1.0 0.1206989913
H  H189  1  0.98780000  0.25380000  0.05240000  1.0 0.1206989913
H  H190  1  0.48780000  0.74620000  0.44760000  1.0 0.1206989913
H  H191  1  0.01220000  0.24620000  0.55240000  1.0 0.1206989913
H  H192  1  0.51220000  0.75380000  0.94760000  1.0 0.1206989913
H  H193  1  0.14130000  0.58660000  0.30190000  1.0 0.1206989913
H  H194  1  0.64130000  0.41340000  0.19810000  1.0 0.1206989913
H  H195  1  0.85870000  0.91340000  0.80190000  1.0 0.1206989913
H  H196  1  0.35870000  0.08660000  0.69810000  1.0 0.1206989913
H  H197  1  0.85870000  0.41340000  0.69810000  1.0 0.1206989913
H  H198  1  0.35870000  0.58660000  0.80190000  1.0 0.1206989913
H  H199  1  0.14130000  0.08660000  0.19810000  1.0 0.1206989913
H  H200  1  0.64130000  0.91340000  0.30190000  1.0 0.1206989913
H  H201  1  0.13320000  0.37440000  0.31450000  1.0 0.1305037878
H  H202  1  0.63320000  0.62560000  0.18550000  1.0 0.1305037878
H  H203  1  0.86680000  0.12560000  0.81450000  1.0 0.1305037878
H  H204  1  0.36680000  0.87440000  0.68550000  1.0 0.1305037878
H  H205  1  0.86680000  0.62560000  0.68550000  1.0 0.1305037878
H  H206  1  0.36680000  0.37440000  0.81450000  1.0 0.1305037878
H  H207  1  0.13320000  0.87440000  0.18550000  1.0 0.1305037878
H  H208  1  0.63320000  0.12560000  0.31450000  1.0 0.1305037878
H  H209  1  0.06260000  0.36380000  0.27550000  1.0 0.1206989913
H  H210  1  0.56260000  0.63620000  0.22450000  1.0 0.1206989913
H  H211  1  0.93740000  0.13620000  0.77550000  1.0 0.1206989913
H  H212  1  0.43740000  0.86380000  0.72450000  1.0 0.1206989913
H  H213  1  0.93740000  0.63620000  0.72450000  1.0 0.1206989913
H  H214  1  0.43740000  0.36380000  0.77550000  1.0 0.1206989913
H  H215  1  0.06260000  0.86380000  0.22450000  1.0 0.1206989913
H  H216  1  0.56260000  0.13620000  0.27550000  1.0 0.1206989913
H  H217  1  0.01410000  0.36260000  0.23350000  1.0 0.1206989913
H  H218  1  0.51410000  0.63740000  0.26650000  1.0 0.1206989913
H  H219  1  0.98590000  0.13740000  0.73350000  1.0 0.1206989913
H  H220  1  0.48590000  0.86260000  0.76650000  1.0 0.1206989913
H  H221  1  0.98590000  0.63740000  0.76650000  1.0 0.1206989913
H  H222  1  0.48590000  0.36260000  0.73350000  1.0 0.1206989913
H  H223  1  0.01410000  0.86260000  0.26650000  1.0 0.1206989913
H  H224  1  0.51410000  0.13740000  0.23350000  1.0 0.1206989913
H  H225  1  0.94580000  0.37130000  0.19360000  1.0 0.1305037878
H  H226  1  0.44580000  0.62870000  0.30640000  1.0 0.1305037878
H  H227  1  0.05420000  0.12870000  0.69360000  1.0 0.1305037878
H  H228  1  0.55420000  0.87130000  0.80640000  1.0 0.1305037878
H  H229  1  0.05420000  0.62870000  0.80640000  1.0 0.1305037878
H  H230  1  0.55420000  0.37130000  0.69360000  1.0 0.1305037878
H  H231  1  0.94580000  0.87130000  0.30640000  1.0 0.1305037878
H  H232  1  0.44580000  0.12870000  0.19360000  1.0 0.1305037878
H  H233  1  0.93730000  0.58470000  0.20480000  1.0 0.1206989913
H  H234  1  0.43730000  0.41530000  0.29520000  1.0 0.1206989913
H  H235  1  0.06270000  0.91530000  0.70480000  1.0 0.1206989913
H  H236  1  0.56270000  0.08470000  0.79520000  1.0 0.1206989913
H  H237  1  0.06270000  0.41530000  0.79520000  1.0 0.1206989913
H  H238  1  0.56270000  0.58470000  0.70480000  1.0 0.1206989913
H  H239  1  0.93730000  0.08470000  0.29520000  1.0 0.1206989913
H  H240  1  0.43730000  0.91530000  0.20480000  1.0 0.1206989913
H  H241  1  0.86620000  0.33830000  0.05510000  1.0 0.1206989913
H  H242  1  0.36620000  0.66170000  0.44490000  1.0 0.1206989913
H  H243  1  0.13380000  0.16170000  0.55510000  1.0 0.1206989913
H  H244  1  0.63380000  0.83830000  0.94490000  1.0 0.1206989913
H  H245  1  0.13380000  0.66170000  0.94490000  1.0 0.1206989913
H  H246  1  0.63380000  0.33830000  0.55510000  1.0 0.1206989913
H  H247  1  0.86620000  0.83830000  0.44490000  1.0 0.1206989913
H  H248  1  0.36620000  0.16170000  0.05510000  1.0 0.1206989913
H  H249  1  0.65220000  0.36410000  0.06390000  1.0 0.1398092056
H  H250  1  0.15220000  0.63590000  0.43610000  1.0 0.1398092056
H  H251  1  0.34780000  0.13590000  0.56390000  1.0 0.1398092056
H  H252  1  0.84780000  0.86410000  0.93610000  1.0 0.1398092056
H  H253  1  0.34780000  0.63590000  0.93610000  1.0 0.1398092056
H  H254  1  0.84780000  0.36410000  0.56390000  1.0 0.1398092056
H  H255  1  0.65220000  0.86410000  0.43610000  1.0 0.1398092056
H  H256  1  0.15220000  0.13590000  0.06390000  1.0 0.1398092056
H  H257  1  0.63490000  0.29520000  0.02520000  1.0 0.1206989913
H  H258  1  0.13490000  0.70480000  0.47480000  1.0 0.1206989913
H  H259  1  0.36510000  0.20480000  0.52520000  1.0 0.1206989913
H  H260  1  0.86510000  0.79520000  0.97480000  1.0 0.1206989913
H  H261  1  0.36510000  0.70480000  0.97480000  1.0 0.1206989913
H  H262  1  0.86510000  0.29520000  0.52520000  1.0 0.1206989913
H  H263  1  0.63490000  0.79520000  0.47480000  1.0 0.1206989913
H  H264  1  0.13490000  0.20480000  0.02520000  1.0 0.1206989913
H  H265  1  0.62790000  0.22040000  0.98950000  1.0 0.1305037878
H  H266  1  0.12790000  0.77960000  0.51050000  1.0 0.1305037878
H  H267  1  0.37210000  0.27960000  0.48950000  1.0 0.1305037878
H  H268  1  0.87210000  0.72040000  0.01050000  1.0 0.1305037878
H  H269  1  0.37210000  0.77960000  0.01050000  1.0 0.1305037878
H  H270  1  0.87210000  0.22040000  0.48950000  1.0 0.1305037878
H  H271  1  0.62790000  0.72040000  0.51050000  1.0 0.1305037878
H  H272  1  0.12790000  0.27960000  0.98950000  1.0 0.1305037878
H  H273  1  0.63330000  0.14090000  0.95270000  1.0 0.1305037878
H  H274  1  0.13330000  0.85910000  0.54730000  1.0 0.1305037878
H  H275  1  0.36670000  0.35910000  0.45270000  1.0 0.1305037878
H  H276  1  0.86670000  0.64090000  0.04730000  1.0 0.1305037878
H  H277  1  0.36670000  0.85910000  0.04730000  1.0 0.1305037878
H  H278  1  0.86670000  0.14090000  0.45270000  1.0 0.1305037878
H  H279  1  0.63330000  0.64090000  0.54730000  1.0 0.1305037878
H  H280  1  0.13330000  0.35910000  0.95270000  1.0 0.1305037878
H  H281  1  0.84990000  0.14620000  0.95700000  1.0 0.1206989913
H  H282  1  0.34990000  0.85380000  0.54300000  1.0 0.1206989913
H  H283  1  0.15010000  0.35380000  0.45700000  1.0 0.1206989913
H  H284  1  0.65010000  0.64620000  0.04300000  1.0 0.1206989913
H  H285  1  0.15010000  0.85380000  0.04300000  1.0 0.1206989913
H  H286  1  0.65010000  0.14620000  0.45700000  1.0 0.1206989913
H  H287  1  0.84990000  0.64620000  0.54300000  1.0 0.1206989913
H  H288  1  0.34990000  0.35380000  0.95700000  1.0 0.1206989913
H  H289  1  0.28330000  0.31270000  0.11170000  1.0 0.3411534877
H  H290  1  0.78330000  0.68730000  0.38830000  1.0 0.3411534877
H  H291  1  0.71670000  0.18730000  0.61170000  1.0 0.3411534877
H  H292  1  0.21670000  0.81270000  0.88830000  1.0 0.3411534877
H  H293  1  0.71670000  0.68730000  0.88830000  1.0 0.3411534877
H  H294  1  0.21670000  0.31270000  0.61170000  1.0 0.3411534877
H  H295  1  0.28330000  0.81270000  0.38830000  1.0 0.3411534877
H  H296  1  0.78330000  0.18730000  0.11170000  1.0 0.3411534877
H  H297  1  0.51580000  0.62830000  0.12580000  1.0 0.4025996954
H  H298  1  0.01580000  0.37170000  0.37420000  1.0 0.4025996954
H  H299  1  0.48420000  0.87170000  0.62580000  1.0 0.4025996954
H  H300  1  0.98420000  0.12830000  0.87420000  1.0 0.4025996954
H  H301  1  0.48420000  0.37170000  0.87420000  1.0 0.4025996954
H  H302  1  0.98420000  0.62830000  0.62580000  1.0 0.4025996954
H  H303  1  0.51580000  0.12830000  0.37420000  1.0 0.4025996954
H  H304  1  0.01580000  0.87170000  0.12580000  1.0 0.4025996954
H  H305  1  0.85340000  0.67150000  0.12490000  1.0 0.4025996954
H  H306  1  0.35340000  0.32850000  0.37510000  1.0 0.4025996954
H  H307  1  0.14660000  0.82850000  0.62490000  1.0 0.4025996954
H  H308  1  0.64660000  0.17150000  0.87510000  1.0 0.4025996954
H  H309  1  0.14660000  0.32850000  0.87510000  1.0 0.4025996954
H  H310  1  0.64660000  0.67150000  0.62490000  1.0 0.4025996954
H  H311  1  0.85340000  0.17150000  0.37510000  1.0 0.4025996954
H  H312  1  0.35340000  0.82850000  0.12490000  1.0 0.4025996954
H  H313  1  0.92770000  0.53890000  0.09630000  1.0 0.3801942014
H  H314  1  0.42770000  0.46110000  0.40370000  1.0 0.3801942014
H  H315  1  0.07230000  0.96110000  0.59630000  1.0 0.3801942014
H  H316  1  0.57230000  0.03890000  0.90370000  1.0 0.3801942014
H  H317  1  0.07230000  0.46110000  0.90370000  1.0 0.3801942014
H  H318  1  0.57230000  0.53890000  0.59630000  1.0 0.3801942014
H  H319  1  0.92770000  0.03890000  0.40370000  1.0 0.3801942014
H  H320  1  0.42770000  0.96110000  0.09630000  1.0 0.3801942014
H  H321  1  0.21670000  0.28400000  0.11820000  1.0 0.3345142506
H  H322  1  0.71670000  0.71600000  0.38180000  1.0 0.3345142506
H  H323  1  0.78330000  0.21600000  0.61820000  1.0 0.3411534877
H  H324  1  0.28330000  0.78400000  0.88180000  1.0 0.3345142506
H  H325  1  0.78330000  0.71600000  0.88180000  1.0 0.3345142506
H  H326  1  0.28330000  0.28400000  0.61820000  1.0 0.3345142506
H  H327  1  0.21670000  0.78400000  0.38180000  1.0 0.3345142506
H  H328  1  0.71670000  0.21600000  0.11820000  1.0 0.3411534877
H  H329  1  0.51000000  0.57310000  0.10640000  1.0 0.374000761
H  H330  1  0.01000000  0.42690000  0.39360000  1.0 0.374000761
H  H331  1  0.49000000  0.92690000  0.60640000  1.0 0.374000761
H  H332  1  0.99000000  0.07310000  0.89360000  1.0 0.374000761
H  H333  1  0.49000000  0.42690000  0.89360000  1.0 0.374000761
H  H334  1  0.99000000  0.57310000  0.60640000  1.0 0.374000761
H  H335  1  0.51000000  0.07310000  0.39360000  1.0 0.374000761
H  H336  1  0.01000000  0.92690000  0.10640000  1.0 0.374000761
H  H337  1  0.77790000  0.67740000  0.12090000  1.0 0.3801942014
H  H338  1  0.27790000  0.32260000  0.37910000  1.0 0.3801942014
H  H339  1  0.22210000  0.82260000  0.62090000  1.0 0.3801942014
H  H340  1  0.72210000  0.17740000  0.87910000  1.0 0.3801942014
H  H341  1  0.22210000  0.32260000  0.87910000  1.0 0.3801942014
H  H342  1  0.72210000  0.67740000  0.62090000  1.0 0.3801942014
H  H343  1  0.77790000  0.17740000  0.37910000  1.0 0.3801942014
H  H344  1  0.27790000  0.82260000  0.12090000  1.0 0.3801942014
H  H345  1  0.94950000  0.52590000  0.12290000  1.0 0.374000761
H  H346  1  0.44950000  0.47410000  0.37710000  1.0 0.374000761
H  H347  1  0.05050000  0.97410000  0.62290000  1.0 0.374000761
H  H348  1  0.55050000  0.02590000  0.87710000  1.0 0.374000761
H  H349  1  0.05050000  0.47410000  0.87710000  1.0 0.374000761
H  H350  1  0.55050000  0.52590000  0.62290000  1.0 0.374000761
H  H351  1  0.94950000  0.02590000  0.37710000  1.0 0.374000761
H  H352  1  0.44950000  0.97410000  0.12290000  1.0 0.374000761
H  H353  1  0.07670000  0.44190000  0.10490000  1.0 0.3069942065
H  H354  1  0.57670000  0.55810000  0.39510000  1.0 0.3069942065
H  H355  1  0.92330000  0.05810000  0.60490000  1.0 0.3069942065
H  H356  1  0.42330000  0.94190000  0.89510000  1.0 0.3069942065
H  H357  1  0.92330000  0.55810000  0.89510000  1.0 0.3069942065
H  H358  1  0.42330000  0.44190000  0.60490000  1.0 0.3069942065
H  H359  1  0.07670000  0.94190000  0.39510000  1.0 0.3069942065
H  H360  1  0.57670000  0.05810000  0.10490000  1.0 0.3069942065
H  H361  1  0.07110000  0.43520000  0.13300000  1.0 0.3345142506
H  H362  1  0.57110000  0.56480000  0.36700000  1.0 0.3345142506
H  H363  1  0.92890000  0.06480000  0.63300000  1.0 0.3345142506
H  H364  1  0.42890000  0.93520000  0.86700000  1.0 0.3345142506
H  H365  1  0.92890000  0.56480000  0.86700000  1.0 0.3345142506
H  H366  1  0.42890000  0.43520000  0.63300000  1.0 0.3345142506
H  H367  1  0.07110000  0.93520000  0.36700000  1.0 0.3345142506
H  H368  1  0.57110000  0.06480000  0.13300000  1.0 0.3345142506
C  C1  1  0.57330000  0.25630000  0.91354000  1.0 0.5907248587
C  C2  1  0.07330000  0.74370000  0.58646000  1.0 0.5907248587
C  C3  1  0.42670000  0.24370000  0.41354000  1.0 0.5907248587
C  C4  1  0.92670000  0.75630000  0.08646000  1.0 0.5907248587
C  C5  1  0.42670000  0.74370000  0.08646000  1.0 0.5907248587
C  C6  1  0.92670000  0.25630000  0.41354000  1.0 0.5907248587
C  C7  1  0.57330000  0.75630000  0.58646000  1.0 0.5907248587
C  C8  1  0.07330000  0.24370000  0.91354000  1.0 0.5907248587
C  C9  1  0.48760000  0.26510000  0.95274000  1.0 0.0322619401
C  C10  1  0.98760000  0.73490000  0.54726000  1.0 0.0322619401
C  C11  1  0.51240000  0.23490000  0.45274000  1.0 0.0322619401
C  C12  1  0.01240000  0.76510000  0.04726000  1.0 0.0322619401
C  C13  1  0.51240000  0.73490000  0.04726000  1.0 0.0322619401
C  C14  1  0.01240000  0.26510000  0.45274000  1.0 0.0322619401
C  C15  1  0.48760000  0.76510000  0.54726000  1.0 0.0322619401
C  C16  1  0.98760000  0.23490000  0.95274000  1.0 0.0322619401
C  C17  1  0.54770000  0.29230000  0.93940000  1.0 -0.0589759961
C  C18  1  0.04770000  0.70770000  0.56060000  1.0 -0.0589759961
C  C19  1  0.45230000  0.20770000  0.43940000  1.0 -0.0589759961
C  C20  1  0.95230000  0.79230000  0.06060000  1.0 -0.0589759961
C  C21  1  0.45230000  0.70770000  0.06060000  1.0 -0.0589759961
C  C22  1  0.95230000  0.29230000  0.43940000  1.0 -0.0589759961
C  C23  1  0.54770000  0.79230000  0.56060000  1.0 -0.0589759961
C  C24  1  0.04770000  0.20770000  0.93940000  1.0 -0.0589759961
C  C25  1  0.58540000  0.34950000  0.95160000  1.0 -0.0691138499
C  C26  1  0.08540000  0.65050000  0.54840000  1.0 -0.0691138499
C  C27  1  0.41460000  0.15050000  0.45160000  1.0 -0.0691138499
C  C28  1  0.91460000  0.84950000  0.04840000  1.0 -0.0691138499
C  C29  1  0.41460000  0.65050000  0.04840000  1.0 -0.0691138499
C  C30  1  0.91460000  0.34950000  0.45160000  1.0 -0.0691138499
C  C31  1  0.58540000  0.84950000  0.54840000  1.0 -0.0691138499
C  C32  1  0.08540000  0.15050000  0.95160000  1.0 -0.0691138499
C  C33  1  0.56100000  0.37550000  0.97620000  1.0 -0.1514698134
C  C34  1  0.06100000  0.62450000  0.52380000  1.0 -0.1514698134
C  C35  1  0.43900000  0.12450000  0.47620000  1.0 -0.1514698134
C  C36  1  0.93900000  0.87550000  0.02380000  1.0 -0.1514698134
C  C37  1  0.43900000  0.62450000  0.02380000  1.0 -0.1514698134
C  C38  1  0.93900000  0.37550000  0.47620000  1.0 -0.1514698134
C  C39  1  0.56100000  0.87550000  0.52380000  1.0 -0.1514698134
C  C40  1  0.06100000  0.12450000  0.97620000  1.0 -0.1514698134
C  C41  1  0.50110000  0.34660000  0.98851000  1.0 0.1398092056
C  C42  1  0.00110000  0.65340000  0.51149000  1.0 0.1398092056
C  C43  1  0.49890000  0.15340000  0.48851000  1.0 0.1398092056
C  C44  1  0.99890000  0.84660000  0.01149000  1.0 0.1398092056
C  C45  1  0.49890000  0.65340000  0.01149000  1.0 0.1398092056
C  C46  1  0.99890000  0.34660000  0.48851000  1.0 0.1398092056
C  C47  1  0.50110000  0.84660000  0.51149000  1.0 0.1398092056
C  C48  1  0.00110000  0.15340000  0.98851000  1.0 0.1398092056
C  C49  1  0.46960000  0.37260000  0.01408000  1.0 0.1593719379
C  C50  1  0.96960000  0.62740000  0.48592000  1.0 0.1593719379
C  C51  1  0.53040000  0.12740000  0.51408000  1.0 0.1593719379
C  C52  1  0.03040000  0.87260000  0.98592000  1.0 0.1593719379
C  C53  1  0.53040000  0.62740000  0.98592000  1.0 0.1593719379
C  C54  1  0.03040000  0.37260000  0.51408000  1.0 0.1593719379
C  C55  1  0.46960000  0.87260000  0.48592000  1.0 0.1593719379
C  C56  1  0.96960000  0.12740000  0.01408000  1.0 0.1593719379
C  C57  1  0.49680000  0.42980000  0.02880000  1.0 -0.161104951
C  C58  1  0.99680000  0.57020000  0.47120000  1.0 -0.161104951
C  C59  1  0.50320000  0.07020000  0.52880000  1.0 -0.161104951
C  C60  1  0.00320000  0.92980000  0.97120000  1.0 -0.161104951
C  C61  1  0.50320000  0.57020000  0.97120000  1.0 -0.161104951
C  C62  1  0.00320000  0.42980000  0.52880000  1.0 -0.161104951
C  C63  1  0.49680000  0.92980000  0.47120000  1.0 -0.161104951
C  C64  1  0.99680000  0.07020000  0.02880000  1.0 -0.161104951
C  C65  1  0.45950000  0.45360000  0.05152000  1.0 -0.0504643897
C  C66  1  0.95950000  0.54640000  0.44848000  1.0 -0.0504643897
C  C67  1  0.54050000  0.04640000  0.55152000  1.0 -0.0504643897
C  C68  1  0.04050000  0.95360000  0.94848000  1.0 -0.0504643897
C  C69  1  0.54050000  0.54640000  0.94848000  1.0 -0.0504643897
C  C70  1  0.04050000  0.45360000  0.55152000  1.0 -0.0504643897
C  C71  1  0.45950000  0.95360000  0.44848000  1.0 -0.0504643897
C  C72  1  0.95950000  0.04640000  0.05152000  1.0 -0.0504643897
C  C73  1  0.39580000  0.42060000  0.05851000  1.0 -0.0504643897
C  C74  1  0.89580000  0.57940000  0.44149000  1.0 -0.0504643897
C  C75  1  0.60420000  0.07940000  0.55851000  1.0 -0.0504643897
C  C76  1  0.10420000  0.92060000  0.94149000  1.0 -0.0504643897
C  C77  1  0.60420000  0.57940000  0.94149000  1.0 -0.0504643897
C  C78  1  0.10420000  0.42060000  0.55851000  1.0 -0.0504643897
C  C79  1  0.39580000  0.92060000  0.44149000  1.0 -0.0504643897
C  C80  1  0.89580000  0.07940000  0.05851000  1.0 -0.0504643897
C  C81  1  0.37230000  0.35970000  0.04469000  1.0 0.0684092969
C  C82  1  0.87230000  0.64030000  0.45531000  1.0 0.0684092969
C  C83  1  0.62770000  0.14030000  0.54469000  1.0 0.0684092969
C  C84  1  0.12770000  0.85970000  0.95531000  1.0 0.0684092969
C  C85  1  0.62770000  0.64030000  0.95531000  1.0 0.0684092969
C  C86  1  0.12770000  0.35970000  0.54469000  1.0 0.0684092969
C  C87  1  0.37230000  0.85970000  0.45531000  1.0 0.0684092969
C  C88  1  0.87230000  0.14030000  0.04469000  1.0 0.0684092969
C  C89  1  0.35000000  0.44700000  0.08214000  1.0 0.6698617072
C  C90  1  0.85000000  0.55300000  0.41786000  1.0 0.6698617072
C  C91  1  0.65000000  0.05300000  0.58214000  1.0 0.6698617072
C  C92  1  0.15000000  0.94700000  0.91786000  1.0 0.6698617072
C  C93  1  0.65000000  0.55300000  0.91786000  1.0 0.6698617072
C  C94  1  0.15000000  0.44700000  0.58214000  1.0 0.6698617072
C  C95  1  0.35000000  0.94700000  0.41786000  1.0 0.6698617072
C  C96  1  0.85000000  0.05300000  0.08214000  1.0 0.6698617072
C  C97  1  0.36260000  0.45600000  0.15770000  1.0 0.6343006746
C  C98  1  0.86260000  0.54400000  0.34230000  1.0 0.6343006746
C  C99  1  0.63740000  0.04400000  0.65770000  1.0 0.6343006746
C  C100  1  0.13740000  0.95600000  0.84230000  1.0 0.6343006746
C  C101  1  0.63740000  0.54400000  0.84230000  1.0 0.6343006746
C  C102  1  0.13740000  0.45600000  0.65770000  1.0 0.6343006746
C  C103  1  0.36260000  0.95600000  0.34230000  1.0 0.6343006746
C  C104  1  0.86260000  0.04400000  0.15770000  1.0 0.6343006746
C  C105  1  0.43890000  0.41760000  0.19875000  1.0 0.0614095002
C  C106  1  0.93890000  0.58240000  0.30125000  1.0 0.0614095002
C  C107  1  0.56110000  0.08240000  0.69875000  1.0 0.0614095002
C  C108  1  0.06110000  0.91760000  0.80125000  1.0 0.0614095002
C  C109  1  0.56110000  0.58240000  0.80125000  1.0 0.0614095002
C  C110  1  0.06110000  0.41760000  0.69875000  1.0 0.0614095002
C  C111  1  0.43890000  0.91760000  0.30125000  1.0 0.0614095002
C  C112  1  0.93890000  0.08240000  0.19875000  1.0 0.0614095002
C  C113  1  0.38360000  0.40190000  0.18020000  1.0 -0.0504643897
C  C114  1  0.88360000  0.59810000  0.31980000  1.0 -0.0504643897
C  C115  1  0.61640000  0.09810000  0.68020000  1.0 -0.0504643897
C  C116  1  0.11640000  0.90190000  0.81980000  1.0 -0.0504643897
C  C117  1  0.61640000  0.59810000  0.81980000  1.0 -0.0504643897
C  C118  1  0.11640000  0.40190000  0.68020000  1.0 -0.0504643897
C  C119  1  0.38360000  0.90190000  0.31980000  1.0 -0.0504643897
C  C120  1  0.88360000  0.09810000  0.18020000  1.0 -0.0504643897
C  C121  1  0.34580000  0.33830000  0.18310000  1.0 -0.0504643897
C  C122  1  0.84580000  0.66170000  0.31690000  1.0 -0.0504643897
C  C123  1  0.65420000  0.16170000  0.68310000  1.0 -0.0406301644
C  C124  1  0.15420000  0.83830000  0.81690000  1.0 -0.0504643897
C  C125  1  0.65420000  0.66170000  0.81690000  1.0 -0.0406301644
C  C126  1  0.15420000  0.33830000  0.68310000  1.0 -0.0504643897
C  C127  1  0.34580000  0.83830000  0.31690000  1.0 -0.0504643897
C  C128  1  0.84580000  0.16170000  0.18310000  1.0 -0.0406301644
C  C129  1  0.36090000  0.29330000  0.20490000  1.0 -0.1781479926
C  C130  1  0.86090000  0.70670000  0.29510000  1.0 -0.1781479926
C  C131  1  0.63910000  0.20670000  0.70490000  1.0 -0.1781479926
C  C132  1  0.13910000  0.79330000  0.79510000  1.0 -0.1781479926
C  C133  1  0.63910000  0.70670000  0.79510000  1.0 -0.1781479926
C  C134  1  0.13910000  0.29330000  0.70490000  1.0 -0.1781479926
C  C135  1  0.36090000  0.79330000  0.29510000  1.0 -0.1781479926
C  C136  1  0.86090000  0.20670000  0.20490000  1.0 -0.1781479926
C  C137  1  0.41130000  0.31530000  0.22378000  1.0 0.1398092056
C  C138  1  0.91130000  0.68470000  0.27622000  1.0 0.1398092056
C  C139  1  0.58870000  0.18470000  0.72378000  1.0 0.1398092056
C  C140  1  0.08870000  0.81530000  0.77622000  1.0 0.1398092056
C  C141  1  0.58870000  0.68470000  0.77622000  1.0 0.1398092056
C  C142  1  0.08870000  0.31530000  0.72378000  1.0 0.1398092056
C  C143  1  0.41130000  0.81530000  0.27622000  1.0 0.1398092056
C  C144  1  0.91130000  0.18470000  0.22378000  1.0 0.1398092056
C  C145  1  0.42510000  0.27540000  0.24948000  1.0 0.1481939406
C  C146  1  0.92510000  0.72460000  0.25052000  1.0 0.1481939406
C  C147  1  0.57490000  0.22460000  0.74948000  1.0 0.1481939406
C  C148  1  0.07490000  0.77540000  0.75052000  1.0 0.1481939406
C  C149  1  0.57490000  0.72460000  0.75052000  1.0 0.1481939406
C  C150  1  0.07490000  0.27540000  0.74948000  1.0 0.1481939406
C  C151  1  0.42510000  0.77540000  0.25052000  1.0 0.1481939406
C  C152  1  0.92510000  0.22460000  0.24948000  1.0 0.1481939406
C  C153  1  0.38240000  0.21840000  0.25773000  1.0 -0.1868141054
C  C154  1  0.88240000  0.78160000  0.24227000  1.0 -0.1868141054
C  C155  1  0.61760000  0.28160000  0.75773000  1.0 -0.1868141054
C  C156  1  0.11760000  0.71840000  0.74227000  1.0 -0.1868141054
C  C157  1  0.61760000  0.78160000  0.74227000  1.0 -0.1868141054
C  C158  1  0.11760000  0.21840000  0.75773000  1.0 -0.1868141054
C  C159  1  0.38240000  0.71840000  0.24227000  1.0 -0.1868141054
C  C160  1  0.88240000  0.28160000  0.25773000  1.0 -0.1868141054
C  C161  1  0.39070000  0.18920000  0.28340000  1.0 -0.0691138499
C  C162  1  0.89070000  0.81080000  0.21660000  1.0 -0.0691138499
C  C163  1  0.60930000  0.31080000  0.78340000  1.0 -0.0691138499
C  C164  1  0.10930000  0.68920000  0.71660000  1.0 -0.0691138499
C  C165  1  0.60930000  0.81080000  0.71660000  1.0 -0.0691138499
C  C166  1  0.10930000  0.18920000  0.78340000  1.0 -0.0691138499
C  C167  1  0.39070000  0.68920000  0.21660000  1.0 -0.0691138499
C  C168  1  0.89070000  0.31080000  0.28340000  1.0 -0.0691138499
C  C169  1  0.44380000  0.21970000  0.30047000  1.0 -0.0589759961
C  C170  1  0.94380000  0.78030000  0.19953000  1.0 -0.0589759961
C  C171  1  0.55620000  0.28030000  0.80047000  1.0 -0.0589759961
C  C172  1  0.05620000  0.71970000  0.69953000  1.0 -0.0589759961
C  C173  1  0.55620000  0.78030000  0.69953000  1.0 -0.0589759961
C  C174  1  0.05620000  0.21970000  0.80047000  1.0 -0.0589759961
C  C175  1  0.44380000  0.71970000  0.19953000  1.0 -0.0589759961
C  C176  1  0.94380000  0.28030000  0.30047000  1.0 -0.0589759961
C  C177  1  0.48590000  0.27640000  0.29054000  1.0 0.0216090882
C  C178  1  0.98590000  0.72360000  0.20946000  1.0 0.0216090882
C  C179  1  0.51410000  0.22360000  0.79054000  1.0 0.0216090882
C  C180  1  0.01410000  0.77640000  0.70946000  1.0 0.0216090882
C  C181  1  0.51410000  0.72360000  0.70946000  1.0 0.0216090882
C  C182  1  0.01410000  0.27640000  0.79054000  1.0 0.0216090882
C  C183  1  0.48590000  0.77640000  0.20946000  1.0 0.0216090882
C  C184  1  0.98590000  0.22360000  0.29054000  1.0 0.0216090882
C  C185  1  0.45200000  0.19240000  0.32950000  1.0 0.5973833271
C  C186  1  0.95200000  0.80760000  0.17050000  1.0 0.5973833271
C  C187  1  0.54800000  0.30760000  0.82950000  1.0 0.5973833271
C  C188  1  0.04800000  0.69240000  0.67050000  1.0 0.5973833271
C  C189  1  0.54800000  0.80760000  0.67050000  1.0 0.5973833271
C  C190  1  0.04800000  0.19240000  0.82950000  1.0 0.5973833271
C  C191  1  0.45200000  0.69240000  0.17050000  1.0 0.5973833271
C  C192  1  0.95200000  0.30760000  0.32950000  1.0 0.5973833271
C  C193  1  0.20500000  0.56880000  0.16050000  1.0 0.6523272575
C  C194  1  0.70500000  0.43120000  0.33950000  1.0 0.6523272575
C  C195  1  0.79500000  0.93120000  0.66050000  1.0 0.6523272575
C  C196  1  0.29500000  0.06880000  0.83950000  1.0 0.6523272575
C  C197  1  0.79500000  0.43120000  0.83950000  1.0 0.6523272575
C  C198  1  0.29500000  0.56880000  0.66050000  1.0 0.6523272575
C  C199  1  0.20500000  0.06880000  0.33950000  1.0 0.6523272575
C  C200  1  0.70500000  0.93120000  0.16050000  1.0 0.6523272575
C  C201  1  0.13420000  0.59310000  0.20414000  1.0 0.0519156695
C  C202  1  0.63420000  0.40690000  0.29586000  1.0 0.0519156695
C  C203  1  0.86580000  0.90690000  0.70414000  1.0 0.0519156695
C  C204  1  0.36580000  0.09310000  0.79586000  1.0 0.0519156695
C  C205  1  0.86580000  0.40690000  0.79586000  1.0 0.0519156695
C  C206  1  0.36580000  0.59310000  0.70414000  1.0 0.0519156695
C  C207  1  0.13420000  0.09310000  0.29586000  1.0 0.0519156695
C  C208  1  0.63420000  0.90690000  0.20414000  1.0 0.0519156695
C  C209  1  0.18510000  0.61530000  0.18490000  1.0 -0.0504643897
C  C210  1  0.68510000  0.38470000  0.31510000  1.0 -0.0504643897
C  C211  1  0.81490000  0.88470000  0.68490000  1.0 -0.0504643897
C  C212  1  0.31490000  0.11530000  0.81510000  1.0 -0.0504643897
C  C213  1  0.81490000  0.38470000  0.81510000  1.0 -0.0504643897
C  C214  1  0.31490000  0.61530000  0.68490000  1.0 -0.0504643897
C  C215  1  0.18510000  0.11530000  0.31510000  1.0 -0.0504643897
C  C216  1  0.68510000  0.88470000  0.18490000  1.0 -0.0504643897
C  C217  1  0.21880000  0.68110000  0.18790000  1.0 -0.0504643897
C  C218  1  0.71880000  0.31890000  0.31210000  1.0 -0.0504643897
C  C219  1  0.78120000  0.81890000  0.68790000  1.0 -0.0504643897
C  C220  1  0.28120000  0.18110000  0.81210000  1.0 -0.0504643897
C  C221  1  0.78120000  0.31890000  0.81210000  1.0 -0.0504643897
C  C222  1  0.28120000  0.68110000  0.68790000  1.0 -0.0504643897
C  C223  1  0.21880000  0.18110000  0.31210000  1.0 -0.0504643897
C  C224  1  0.71880000  0.81890000  0.18790000  1.0 -0.0504643897
C  C225  1  0.20500000  0.72200000  0.21160000  1.0 -0.1868141054
C  C226  1  0.70500000  0.27800000  0.28840000  1.0 -0.1868141054
C  C227  1  0.79500000  0.77800000  0.71160000  1.0 -0.1868141054
C  C228  1  0.29500000  0.22200000  0.78840000  1.0 -0.1868141054
C  C229  1  0.79500000  0.27800000  0.78840000  1.0 -0.1868141054
C  C230  1  0.29500000  0.72200000  0.71160000  1.0 -0.1868141054
C  C231  1  0.20500000  0.22200000  0.28840000  1.0 -0.1868141054
C  C232  1  0.70500000  0.77800000  0.21160000  1.0 -0.1868141054
C  C233  1  0.15540000  0.69580000  0.23000000  1.0 0.1481939406
C  C234  1  0.65540000  0.30420000  0.27000000  1.0 0.1481939406
C  C235  1  0.84460000  0.80420000  0.73000000  1.0 0.1481939406
C  C236  1  0.34460000  0.19580000  0.77000000  1.0 0.1481939406
C  C237  1  0.84460000  0.30420000  0.77000000  1.0 0.1481939406
C  C238  1  0.34460000  0.69580000  0.73000000  1.0 0.1481939406
C  C239  1  0.15540000  0.19580000  0.27000000  1.0 0.1481939406
C  C240  1  0.65540000  0.80420000  0.23000000  1.0 0.1481939406
C  C241  1  0.14280000  0.73070000  0.25658000  1.0 0.1398092056
C  C242  1  0.64280000  0.26930000  0.24342000  1.0 0.1398092056
C  C243  1  0.85720000  0.76930000  0.75658000  1.0 0.1398092056
C  C244  1  0.35720000  0.23070000  0.74342000  1.0 0.1398092056
C  C245  1  0.85720000  0.26930000  0.74342000  1.0 0.1398092056
C  C246  1  0.35720000  0.73070000  0.75658000  1.0 0.1398092056
C  C247  1  0.14280000  0.23070000  0.24342000  1.0 0.1398092056
C  C248  1  0.64280000  0.76930000  0.25658000  1.0 0.1398092056
C  C249  1  0.17940000  0.79130000  0.26510000  1.0 -0.1868141054
C  C250  1  0.67940000  0.20870000  0.23490000  1.0 -0.1868141054
C  C251  1  0.82060000  0.70870000  0.76510000  1.0 -0.1868141054
C  C252  1  0.32060000  0.29130000  0.73490000  1.0 -0.1868141054
C  C253  1  0.82060000  0.20870000  0.73490000  1.0 -0.1868141054
C  C254  1  0.32060000  0.79130000  0.76510000  1.0 -0.1868141054
C  C255  1  0.17940000  0.29130000  0.23490000  1.0 -0.1868141054
C  C256  1  0.67940000  0.70870000  0.26510000  1.0 -0.1868141054
C  C257  1  0.16420000  0.81930000  0.29060000  1.0 -0.0691138499
C  C258  1  0.66420000  0.18070000  0.20940000  1.0 -0.0691138499
C  C259  1  0.83580000  0.68070000  0.79060000  1.0 -0.0691138499
C  C260  1  0.33580000  0.31930000  0.70940000  1.0 -0.0589759961
C  C261  1  0.83580000  0.18070000  0.70940000  1.0 -0.0589759961
C  C262  1  0.33580000  0.81930000  0.79060000  1.0 -0.0691138499
C  C263  1  0.16420000  0.31930000  0.20940000  1.0 -0.0691138499
C  C264  1  0.66420000  0.68070000  0.29060000  1.0 -0.0691138499
C  C265  1  0.11460000  0.78650000  0.30680000  1.0 -0.0504643897
C  C266  1  0.61460000  0.21350000  0.19320000  1.0 -0.0504643897
C  C267  1  0.88540000  0.71350000  0.80680000  1.0 -0.0504643897
C  C268  1  0.38540000  0.28650000  0.69320000  1.0 -0.0504643897
C  C269  1  0.88540000  0.21350000  0.69320000  1.0 -0.0504643897
C  C270  1  0.38540000  0.78650000  0.80680000  1.0 -0.0504643897
C  C271  1  0.11460000  0.28650000  0.19320000  1.0 -0.0504643897
C  C272  1  0.61460000  0.71350000  0.30680000  1.0 -0.0504643897
C  C273  1  0.07920000  0.72580000  0.29723000  1.0 0.0322619401
C  C274  1  0.57920000  0.27420000  0.20277000  1.0 0.0322619401
C  C275  1  0.92080000  0.77420000  0.79723000  1.0 0.0322619401
C  C276  1  0.42080000  0.22580000  0.70277000  1.0 0.0322619401
C  C277  1  0.92080000  0.27420000  0.70277000  1.0 0.0322619401
C  C278  1  0.42080000  0.72580000  0.79723000  1.0 0.0322619401
C  C279  1  0.07920000  0.22580000  0.20277000  1.0 0.0322619401
C  C280  1  0.57920000  0.77420000  0.29723000  1.0 0.0322619401
C  C281  1  0.09510000  0.81430000  0.33500000  1.0 0.5973833271
C  C282  1  0.59510000  0.18570000  0.16500000  1.0 0.5973833271
C  C283  1  0.90490000  0.68570000  0.83500000  1.0 0.5973833271
C  C284  1  0.40490000  0.31430000  0.66500000  1.0 0.5973833271
C  C285  1  0.90490000  0.18570000  0.66500000  1.0 0.5973833271
C  C286  1  0.40490000  0.81430000  0.83500000  1.0 0.5973833271
C  C287  1  0.09510000  0.31430000  0.16500000  1.0 0.5973833271
C  C288  1  0.59510000  0.68570000  0.33500000  1.0 0.5973833271
C  C289  1  0.21130000  0.58080000  0.08381000  1.0 0.6416339011
C  C290  1  0.71130000  0.41920000  0.41619000  1.0 0.6416339011
C  C291  1  0.78870000  0.91920000  0.58381000  1.0 0.6416339011
C  C292  1  0.28870000  0.08080000  0.91619000  1.0 0.6416339011
C  C293  1  0.78870000  0.41920000  0.91619000  1.0 0.6416339011
C  C294  1  0.28870000  0.58080000  0.58381000  1.0 0.6416339011
C  C295  1  0.21130000  0.08080000  0.41619000  1.0 0.6416339011
C  C296  1  0.71130000  0.91920000  0.08381000  1.0 0.6416339011
C  C297  1  0.16590000  0.64960000  0.04249000  1.0 0.0684092969
C  C298  1  0.66590000  0.35040000  0.45751000  1.0 0.0684092969
C  C299  1  0.83410000  0.85040000  0.54249000  1.0 0.0684092969
C  C300  1  0.33410000  0.14960000  0.95751000  1.0 0.0684092969
C  C301  1  0.83410000  0.35040000  0.95751000  1.0 0.0684092969
C  C302  1  0.33410000  0.64960000  0.54249000  1.0 0.0684092969
C  C303  1  0.16590000  0.14960000  0.45751000  1.0 0.0684092969
C  C304  1  0.66590000  0.85040000  0.04249000  1.0 0.0684092969
C  C305  1  0.15540000  0.59650000  0.06178000  1.0 -0.0406301644
C  C306  1  0.65540000  0.40350000  0.43822000  1.0 -0.0406301644
C  C307  1  0.84460000  0.90350000  0.56178000  1.0 -0.0406301644
C  C308  1  0.34460000  0.09650000  0.93822000  1.0 -0.0406301644
C  C309  1  0.84460000  0.40350000  0.93822000  1.0 -0.0406301644
C  C310  1  0.34460000  0.59650000  0.56178000  1.0 -0.0406301644
C  C311  1  0.15540000  0.09650000  0.43822000  1.0 -0.0406301644
C  C312  1  0.65540000  0.90350000  0.06178000  1.0 -0.0406301644
C  C313  1  0.09240000  0.55530000  0.06010000  1.0 -0.0504643897
C  C314  1  0.59240000  0.44470000  0.43990000  1.0 -0.0504643897
C  C315  1  0.90760000  0.94470000  0.56010000  1.0 -0.0504643897
C  C316  1  0.40760000  0.05530000  0.93990000  1.0 -0.0504643897
C  C317  1  0.90760000  0.44470000  0.93990000  1.0 -0.0504643897
C  C318  1  0.40760000  0.55530000  0.56010000  1.0 -0.0504643897
C  C319  1  0.09240000  0.05530000  0.43990000  1.0 -0.0504643897
C  C320  1  0.59240000  0.94470000  0.06010000  1.0 -0.0504643897
C  C321  1  0.04470000  0.56650000  0.03875000  1.0 -0.1656758792
C  C322  1  0.54470000  0.43350000  0.46125000  1.0 -0.161104951
C  C323  1  0.95530000  0.93350000  0.53875000  1.0 -0.1656758792
C  C324  1  0.45530000  0.06650000  0.96125000  1.0 -0.161104951
C  C325  1  0.95530000  0.43350000  0.96125000  1.0 -0.161104951
C  C326  1  0.45530000  0.56650000  0.53875000  1.0 -0.161104951
C  C327  1  0.04470000  0.06650000  0.46125000  1.0 -0.1656758792
C  C328  1  0.54470000  0.93350000  0.03875000  1.0 -0.1656758792
C  C329  1  0.05890000  0.61910000  0.01972000  1.0 0.1481939406
C  C330  1  0.55890000  0.38090000  0.48028000  1.0 0.1481939406
C  C331  1  0.94110000  0.88090000  0.51972000  1.0 0.1481939406
C  C332  1  0.44110000  0.11910000  0.98028000  1.0 0.1481939406
C  C333  1  0.94110000  0.38090000  0.98028000  1.0 0.1481939406
C  C334  1  0.44110000  0.61910000  0.51972000  1.0 0.1481939406
C  C335  1  0.05890000  0.11910000  0.48028000  1.0 0.1481939406
C  C336  1  0.55890000  0.88090000  0.01972000  1.0 0.1481939406
C  C337  1  0.01210000  0.63480000  0.99627000  1.0 0.1398092056
C  C338  1  0.51210000  0.36520000  0.50373000  1.0 0.1398092056
C  C339  1  0.98790000  0.86520000  0.49627000  1.0 0.1398092056
C  C340  1  0.48790000  0.13480000  0.00373000  1.0 0.1398092056
C  C341  1  0.98790000  0.36520000  0.00373000  1.0 0.1398092056
C  C342  1  0.48790000  0.63480000  0.49627000  1.0 0.1398092056
C  C343  1  0.01210000  0.13480000  0.50373000  1.0 0.1398092056
C  C344  1  0.51210000  0.86520000  0.99627000  1.0 0.1398092056
C  C345  1  0.95180000  0.59600000  0.98946000  1.0 -0.1656758792
C  C346  1  0.45180000  0.40400000  0.51054000  1.0 -0.1656758792
C  C347  1  0.04820000  0.90400000  0.48946000  1.0 -0.1656758792
C  C348  1  0.54820000  0.09600000  0.01054000  1.0 -0.1656758792
C  C349  1  0.04820000  0.40400000  0.01054000  1.0 -0.1656758792
C  C350  1  0.54820000  0.59600000  0.48946000  1.0 -0.1656758792
C  C351  1  0.95180000  0.09600000  0.51054000  1.0 -0.1656758792
C  C352  1  0.45180000  0.90400000  0.98946000  1.0 -0.1656758792
C  C353  1  0.91380000  0.61170000  0.96560000  1.0 -0.0504643897
C  C354  1  0.41380000  0.38830000  0.53440000  1.0 -0.0504643897
C  C355  1  0.08620000  0.88830000  0.46560000  1.0 -0.0504643897
C  C356  1  0.58620000  0.11170000  0.03440000  1.0 -0.0504643897
C  C357  1  0.08620000  0.38830000  0.03440000  1.0 -0.0504643897
C  C358  1  0.58620000  0.61170000  0.46560000  1.0 -0.0504643897
C  C359  1  0.91380000  0.11170000  0.53440000  1.0 -0.0504643897
C  C360  1  0.41380000  0.88830000  0.96560000  1.0 -0.0504643897
C  C361  1  0.93690000  0.66760000  0.94920000  1.0 -0.0589759961
C  C362  1  0.43690000  0.33240000  0.55080000  1.0 -0.0589759961
C  C363  1  0.06310000  0.83240000  0.44920000  1.0 -0.0589759961
C  C364  1  0.56310000  0.16760000  0.05080000  1.0 -0.0589759961
C  C365  1  0.06310000  0.33240000  0.05080000  1.0 -0.0589759961
C  C366  1  0.56310000  0.66760000  0.44920000  1.0 -0.0589759961
C  C367  1  0.93690000  0.16760000  0.55080000  1.0 -0.0589759961
C  C368  1  0.43690000  0.83240000  0.94920000  1.0 -0.0589759961
C  C369  1  0.99660000  0.70750000  0.95813000  1.0 0.035208992
C  C370  1  0.49660000  0.29250000  0.54187000  1.0 0.0322619401
C  C371  1  0.00340000  0.79250000  0.45813000  1.0 0.0322619401
C  C372  1  0.50340000  0.20750000  0.04187000  1.0 0.0322619401
C  C373  1  0.00340000  0.29250000  0.04187000  1.0 0.0322619401
C  C374  1  0.50340000  0.70750000  0.45813000  1.0 0.0322619401
C  C375  1  0.99660000  0.20750000  0.54187000  1.0 0.0322619401
C  C376  1  0.49660000  0.79250000  0.95813000  1.0 0.0322619401
C  C377  1  0.89830000  0.68650000  0.92280000  1.0 0.5907248587
C  C378  1  0.39830000  0.31350000  0.57720000  1.0 0.5907248587
C  C379  1  0.10170000  0.81350000  0.42280000  1.0 0.5907248587
C  C380  1  0.60170000  0.18650000  0.07720000  1.0 0.5907248587
C  C381  1  0.10170000  0.31350000  0.07720000  1.0 0.5907248587
C  C382  1  0.60170000  0.68650000  0.42280000  1.0 0.5907248587
C  C383  1  0.89830000  0.18650000  0.57720000  1.0 0.5907248587
C  C384  1  0.39830000  0.81350000  0.92280000  1.0 0.5907248587
C  C385  1  0.19320000  0.49070000  0.33660000  1.0 0.5712567934
C  C386  1  0.69320000  0.50930000  0.16340000  1.0 0.5712567934
C  C387  1  0.80680000  0.00930000  0.83660000  1.0 0.5712567934
C  C388  1  0.30680000  0.99070000  0.66340000  1.0 0.5712567934
C  C389  1  0.80680000  0.50930000  0.66340000  1.0 0.5712567934
C  C390  1  0.30680000  0.49070000  0.83660000  1.0 0.5712567934
C  C391  1  0.19320000  0.99070000  0.16340000  1.0 0.5712567934
C  C392  1  0.69320000  0.00930000  0.33660000  1.0 0.5712567934
C  C393  1  0.12490000  0.54140000  0.29650000  1.0 0.0519156695
C  C394  1  0.62490000  0.45860000  0.20350000  1.0 0.0519156695
C  C395  1  0.87510000  0.95860000  0.79650000  1.0 0.0519156695
C  C396  1  0.37510000  0.04140000  0.70350000  1.0 0.0519156695
C  C397  1  0.87510000  0.45860000  0.70350000  1.0 0.0519156695
C  C398  1  0.37510000  0.54140000  0.79650000  1.0 0.0519156695
C  C399  1  0.12490000  0.04140000  0.20350000  1.0 0.0519156695
C  C400  1  0.62490000  0.95860000  0.29650000  1.0 0.0519156695
C  C401  1  0.14510000  0.48160000  0.31200000  1.0 -0.0504643897
C  C402  1  0.64510000  0.51840000  0.18800000  1.0 -0.0504643897
C  C403  1  0.85490000  0.01840000  0.81200000  1.0 -0.0504643897
C  C404  1  0.35490000  0.98160000  0.68800000  1.0 -0.0504643897
C  C405  1  0.85490000  0.51840000  0.68800000  1.0 -0.0504643897
C  C406  1  0.35490000  0.48160000  0.81200000  1.0 -0.0504643897
C  C407  1  0.14510000  0.98160000  0.18800000  1.0 -0.0504643897
C  C408  1  0.64510000  0.01840000  0.31200000  1.0 -0.0504643897
C  C409  1  0.12130000  0.41490000  0.30430000  1.0 -0.0504643897
C  C410  1  0.62130000  0.58510000  0.19570000  1.0 -0.0504643897
C  C411  1  0.87870000  0.08510000  0.80430000  1.0 -0.0504643897
C  C412  1  0.37870000  0.91490000  0.69570000  1.0 -0.0504643897
C  C413  1  0.87870000  0.58510000  0.69570000  1.0 -0.0504643897
C  C414  1  0.37870000  0.41490000  0.80430000  1.0 -0.0504643897
C  C415  1  0.12130000  0.91490000  0.19570000  1.0 -0.0504643897
C  C416  1  0.62130000  0.08510000  0.30430000  1.0 -0.0504643897
C  C417  1  0.07920000  0.40870000  0.28110000  1.0 -0.1781479926
C  C418  1  0.57920000  0.59130000  0.21890000  1.0 -0.1781479926
C  C419  1  0.92080000  0.09130000  0.78110000  1.0 -0.1781479926
C  C420  1  0.42080000  0.90870000  0.71890000  1.0 -0.1781479926
C  C421  1  0.92080000  0.59130000  0.71890000  1.0 -0.1781479926
C  C422  1  0.42080000  0.40870000  0.78110000  1.0 -0.1781479926
C  C423  1  0.07920000  0.90870000  0.21890000  1.0 -0.1781479926
C  C424  1  0.57920000  0.09130000  0.28110000  1.0 -0.1781479926
C  C425  1  0.06220000  0.46920000  0.26641000  1.0 0.1481939406
C  C426  1  0.56220000  0.53080000  0.23359000  1.0 0.1481939406
C  C427  1  0.93780000  0.03080000  0.76641000  1.0 0.1481939406
C  C428  1  0.43780000  0.96920000  0.73359000  1.0 0.1481939406
C  C429  1  0.93780000  0.53080000  0.73359000  1.0 0.1481939406
C  C430  1  0.43780000  0.46920000  0.76641000  1.0 0.1481939406
C  C431  1  0.06220000  0.96920000  0.23359000  1.0 0.1481939406
C  C432  1  0.56220000  0.03080000  0.26641000  1.0 0.1481939406
C  C433  1  0.01700000  0.46840000  0.24105000  1.0 0.1481939406
C  C434  1  0.51700000  0.53160000  0.25895000  1.0 0.1481939406
C  C435  1  0.98300000  0.03160000  0.74105000  1.0 0.1481939406
C  C436  1  0.48300000  0.96840000  0.75895000  1.0 0.1481939406
C  C437  1  0.98300000  0.53160000  0.75895000  1.0 0.1481939406
C  C438  1  0.48300000  0.46840000  0.74105000  1.0 0.1481939406
C  C439  1  0.01700000  0.96840000  0.25895000  1.0 0.1481939406
C  C440  1  0.51700000  0.03160000  0.24105000  1.0 0.1481939406
C  C441  1  0.99880000  0.40730000  0.22720000  1.0 -0.1781479926
C  C442  1  0.49880000  0.59270000  0.27280000  1.0 -0.1781479926
C  C443  1  0.00120000  0.09270000  0.72720000  1.0 -0.1781479926
C  C444  1  0.50120000  0.90730000  0.77280000  1.0 -0.1781479926
C  C445  1  0.00120000  0.59270000  0.77280000  1.0 -0.1781479926
C  C446  1  0.50120000  0.40730000  0.72720000  1.0 -0.1781479926
C  C447  1  0.99880000  0.90730000  0.27280000  1.0 -0.1781479926
C  C448  1  0.49880000  0.09270000  0.22720000  1.0 -0.1781479926
C  C449  1  0.95730000  0.41240000  0.20360000  1.0 -0.0589759961
C  C450  1  0.45730000  0.58760000  0.29640000  1.0 -0.0504643897
C  C451  1  0.04270000  0.08760000  0.70360000  1.0 -0.0504643897
C  C452  1  0.54270000  0.91240000  0.79640000  1.0 -0.0589759961
C  C453  1  0.04270000  0.58760000  0.79640000  1.0 -0.0504643897
C  C454  1  0.54270000  0.41240000  0.70360000  1.0 -0.0589759961
C  C455  1  0.95730000  0.91240000  0.29640000  1.0 -0.0589759961
C  C456  1  0.45730000  0.08760000  0.20360000  1.0 -0.0589759961
C  C457  1  0.93380000  0.47810000  0.19537000  1.0 -0.0406301644
C  C458  1  0.43380000  0.52190000  0.30463000  1.0 -0.0406301644
C  C459  1  0.06620000  0.02190000  0.69537000  1.0 -0.0406301644
C  C460  1  0.56620000  0.97810000  0.80463000  1.0 -0.0406301644
C  C461  1  0.06620000  0.52190000  0.80463000  1.0 -0.0406301644
C  C462  1  0.56620000  0.47810000  0.69537000  1.0 -0.0406301644
C  C463  1  0.93380000  0.97810000  0.30463000  1.0 -0.0406301644
C  C464  1  0.43380000  0.02190000  0.19537000  1.0 -0.0406301644
C  C465  1  0.95350000  0.53970000  0.21049000  1.0 0.0519156695
C  C466  1  0.45350000  0.46030000  0.28951000  1.0 0.0519156695
C  C467  1  0.04650000  0.96030000  0.71049000  1.0 0.0519156695
C  C468  1  0.54650000  0.03970000  0.78951000  1.0 0.0519156695
C  C469  1  0.04650000  0.46030000  0.78951000  1.0 0.0519156695
C  C470  1  0.54650000  0.53970000  0.71049000  1.0 0.0519156695
C  C471  1  0.95350000  0.03970000  0.28951000  1.0 0.0519156695
C  C472  1  0.45350000  0.96030000  0.21049000  1.0 0.0519156695
C  C473  1  0.88880000  0.48990000  0.17030000  1.0 0.5712567934
C  C474  1  0.38880000  0.51010000  0.32970000  1.0 0.5712567934
C  C475  1  0.11120000  0.01010000  0.67030000  1.0 0.5712567934
C  C476  1  0.61120000  0.98990000  0.82970000  1.0 0.5712567934
C  C477  1  0.11120000  0.51010000  0.82970000  1.0 0.5712567934
C  C478  1  0.61120000  0.48990000  0.67030000  1.0 0.5712567934
C  C479  1  0.88880000  0.98990000  0.32970000  1.0 0.5712567934
C  C480  1  0.38880000  0.01010000  0.17030000  1.0 0.5712567934
C  C481  1  0.77640000  0.40310000  0.08880000  1.0 0.5558007092
C  C482  1  0.27640000  0.59690000  0.41120000  1.0 0.5558007092
C  C483  1  0.22360000  0.09690000  0.58880000  1.0 0.5558007092
C  C484  1  0.72360000  0.90310000  0.91120000  1.0 0.5558007092
C  C485  1  0.22360000  0.59690000  0.91120000  1.0 0.5558007092
C  C486  1  0.72360000  0.40310000  0.58880000  1.0 0.5558007092
C  C487  1  0.77640000  0.90310000  0.41120000  1.0 0.5558007092
C  C488  1  0.27640000  0.09690000  0.08880000  1.0 0.5558007092
C  C489  1  0.81910000  0.32920000  0.04911000  1.0 0.0614095002
C  C490  1  0.31910000  0.67080000  0.45089000  1.0 0.0614095002
C  C491  1  0.18090000  0.17080000  0.54911000  1.0 0.0614095002
C  C492  1  0.68090000  0.82920000  0.95089000  1.0 0.0614095002
C  C493  1  0.18090000  0.67080000  0.95089000  1.0 0.0614095002
C  C494  1  0.68090000  0.32920000  0.54911000  1.0 0.0614095002
C  C495  1  0.81910000  0.82920000  0.45089000  1.0 0.0614095002
C  C496  1  0.31910000  0.17080000  0.04911000  1.0 0.0614095002
C  C497  1  0.76180000  0.35780000  0.06395000  1.0 -0.0234658487
C  C498  1  0.26180000  0.64220000  0.43605000  1.0 -0.0234658487
C  C499  1  0.23820000  0.14220000  0.56395000  1.0 -0.0234658487
C  C500  1  0.73820000  0.85780000  0.93605000  1.0 -0.0234658487
C  C501  1  0.23820000  0.64220000  0.93605000  1.0 -0.0234658487
C  C502  1  0.73820000  0.35780000  0.56395000  1.0 -0.0234658487
C  C503  1  0.76180000  0.85780000  0.43605000  1.0 -0.0234658487
C  C504  1  0.26180000  0.14220000  0.06395000  1.0 -0.0234658487
C  C505  1  0.69200000  0.34500000  0.05470000  1.0 -0.0280368907
C  C506  1  0.19200000  0.65500000  0.44530000  1.0 -0.0280368907
C  C507  1  0.30800000  0.15500000  0.55470000  1.0 -0.0280368907
C  C508  1  0.80800000  0.84500000  0.94530000  1.0 -0.0280368907
C  C509  1  0.30800000  0.65500000  0.94530000  1.0 -0.0280368907
C  C510  1  0.80800000  0.34500000  0.55470000  1.0 -0.0280368907
C  C511  1  0.69200000  0.84500000  0.44530000  1.0 -0.0280368907
C  C512  1  0.19200000  0.15500000  0.05470000  1.0 -0.0280368907
C  C513  1  0.68170000  0.30400000  0.03170000  1.0 -0.161104951
C  C514  1  0.18170000  0.69600000  0.46830000  1.0 -0.161104951
C  C515  1  0.31830000  0.19600000  0.53170000  1.0 -0.161104951
C  C516  1  0.81830000  0.80400000  0.96830000  1.0 -0.161104951
C  C517  1  0.31830000  0.69600000  0.96830000  1.0 -0.161104951
C  C518  1  0.81830000  0.30400000  0.53170000  1.0 -0.161104951
C  C519  1  0.68170000  0.80400000  0.46830000  1.0 -0.161104951
C  C520  1  0.18170000  0.19600000  0.03170000  1.0 -0.161104951
C  C521  1  0.74280000  0.27540000  0.01810000  1.0 0.1593719379
C  C522  1  0.24280000  0.72460000  0.48190000  1.0 0.1593719379
C  C523  1  0.25720000  0.22460000  0.51810000  1.0 0.1593719379
C  C524  1  0.75720000  0.77540000  0.98190000  1.0 0.1593719379
C  C525  1  0.25720000  0.72460000  0.98190000  1.0 0.1593719379
C  C526  1  0.75720000  0.27540000  0.51810000  1.0 0.1593719379
C  C527  1  0.74280000  0.77540000  0.48190000  1.0 0.1593719379
C  C528  1  0.24280000  0.22460000  0.01810000  1.0 0.1593719379
C  C529  1  0.73780000  0.22780000  0.99490000  1.0 0.1684610669
C  C530  1  0.23780000  0.77220000  0.50510000  1.0 0.1684610669
C  C531  1  0.26220000  0.27220000  0.49490000  1.0 0.1684610669
C  C532  1  0.76220000  0.72780000  0.00510000  1.0 0.1684610669
C  C533  1  0.26220000  0.77220000  0.00510000  1.0 0.1684610669
C  C534  1  0.76220000  0.22780000  0.49490000  1.0 0.1684610669
C  C535  1  0.73780000  0.72780000  0.50510000  1.0 0.1684610669
C  C536  1  0.23780000  0.27220000  0.99490000  1.0 0.1684610669
C  C537  1  0.67250000  0.20450000  0.98290000  1.0 -0.1514698134
C  C538  1  0.17250000  0.79550000  0.51710000  1.0 -0.1514698134
C  C539  1  0.32750000  0.29550000  0.48290000  1.0 -0.1514698134
C  C540  1  0.82750000  0.70450000  0.01710000  1.0 -0.1514698134
C  C541  1  0.32750000  0.79550000  0.01710000  1.0 -0.1514698134
C  C542  1  0.82750000  0.20450000  0.48290000  1.0 -0.1514698134
C  C543  1  0.67250000  0.70450000  0.51710000  1.0 -0.1514698134
C  C544  1  0.17250000  0.29550000  0.98290000  1.0 -0.1514698134
C  C545  1  0.67580000  0.15720000  0.96100000  1.0 -0.0504643897
C  C546  1  0.17580000  0.84280000  0.53900000  1.0 -0.0504643897
C  C547  1  0.32420000  0.34280000  0.46100000  1.0 -0.0504643897
C  C548  1  0.82420000  0.65720000  0.03900000  1.0 -0.0504643897
C  C549  1  0.32420000  0.84280000  0.03900000  1.0 -0.0504643897
C  C550  1  0.82420000  0.15720000  0.46100000  1.0 -0.0504643897
C  C551  1  0.67580000  0.65720000  0.53900000  1.0 -0.0504643897
C  C552  1  0.17580000  0.34280000  0.96100000  1.0 -0.0504643897
C  C553  1  0.74130000  0.13550000  0.95190000  1.0 -0.0504643897
C  C554  1  0.24130000  0.86450000  0.54810000  1.0 -0.0504643897
C  C555  1  0.25870000  0.36450000  0.45190000  1.0 -0.0504643897
C  C556  1  0.75870000  0.63550000  0.04810000  1.0 -0.0504643897
C  C557  1  0.25870000  0.86450000  0.04810000  1.0 -0.0504643897
C  C558  1  0.75870000  0.13550000  0.45190000  1.0 -0.0504643897
C  C559  1  0.74130000  0.63550000  0.54810000  1.0 -0.0504643897
C  C560  1  0.24130000  0.36450000  0.95190000  1.0 -0.0504643897
C  C561  1  0.80500000  0.16090000  0.96370000  1.0 0.0322619401
C  C562  1  0.30500000  0.83910000  0.53630000  1.0 0.0322619401
C  C563  1  0.19500000  0.33910000  0.46370000  1.0 0.0322619401
C  C564  1  0.69500000  0.66090000  0.03630000  1.0 0.0322619401
C  C565  1  0.19500000  0.83910000  0.03630000  1.0 0.0322619401
C  C566  1  0.69500000  0.16090000  0.46370000  1.0 0.0322619401
C  C567  1  0.80500000  0.66090000  0.53630000  1.0 0.0322619401
C  C568  1  0.30500000  0.33910000  0.96370000  1.0 0.0322619401
C  C569  1  0.73890000  0.08480000  0.92680000  1.0 0.4498010159
C  C570  1  0.23890000  0.91520000  0.57320000  1.0 0.4498010159
C  C571  1  0.26110000  0.41520000  0.42680000  1.0 0.4498010159
C  C572  1  0.76110000  0.58480000  0.07320000  1.0 0.4498010159
C  C573  1  0.26110000  0.91520000  0.07320000  1.0 0.4498010159
C  C574  1  0.76110000  0.08480000  0.42680000  1.0 0.4498010159
C  C575  1  0.73890000  0.58480000  0.57320000  1.0 0.4498010159
C  C576  1  0.23890000  0.41520000  0.92680000  1.0 0.4498010159
N  N1  1  0.46310000  0.29050000  0.97688000  1.0 -0.2303318723
N  N2  1  0.96310000  0.70950000  0.52312000  1.0 -0.2303318723
N  N3  1  0.53690000  0.20950000  0.47688000  1.0 -0.2303318723
N  N4  1  0.03690000  0.79050000  0.02312000  1.0 -0.2303318723
N  N5  1  0.53690000  0.70950000  0.02312000  1.0 -0.2303318723
N  N6  1  0.03690000  0.29050000  0.47688000  1.0 -0.2303318723
N  N7  1  0.46310000  0.79050000  0.52312000  1.0 -0.2303318723
N  N8  1  0.96310000  0.20950000  0.97688000  1.0 -0.2303318723
N  N9  1  0.40920000  0.33610000  0.02295000  1.0 -0.2107746972
N  N10  1  0.90920000  0.66390000  0.47705000  1.0 -0.2107746972
N  N11  1  0.59080000  0.16390000  0.52295000  1.0 -0.2107746972
N  N12  1  0.09080000  0.83610000  0.97705000  1.0 -0.2107746972
N  N13  1  0.59080000  0.66390000  0.97705000  1.0 -0.2107746972
N  N14  1  0.09080000  0.33610000  0.52295000  1.0 -0.2107746972
N  N15  1  0.40920000  0.83610000  0.47705000  1.0 -0.2107746972
N  N16  1  0.90920000  0.16390000  0.02295000  1.0 -0.2107746972
N  N17  1  0.45340000  0.37540000  0.21999000  1.0 -0.2107746972
N  N18  1  0.95340000  0.62460000  0.28001000  1.0 -0.2107746972
N  N19  1  0.54660000  0.12460000  0.71999000  1.0 -0.2107746972
N  N20  1  0.04660000  0.87540000  0.78001000  1.0 -0.2107746972
N  N21  1  0.54660000  0.62460000  0.78001000  1.0 -0.2107746972
N  N22  1  0.04660000  0.37540000  0.71999000  1.0 -0.2107746972
N  N23  1  0.45340000  0.87540000  0.28001000  1.0 -0.2107746972
N  N24  1  0.95340000  0.12460000  0.21999000  1.0 -0.2107746972
N  N25  1  0.47710000  0.30470000  0.26563000  1.0 -0.2107746972
N  N26  1  0.97710000  0.69530000  0.23437000  1.0 -0.2107746972
N  N27  1  0.52290000  0.19530000  0.76563000  1.0 -0.2107746972
N  N28  1  0.02290000  0.80470000  0.73437000  1.0 -0.2107746972
N  N29  1  0.52290000  0.69530000  0.73437000  1.0 -0.2107746972
N  N30  1  0.02290000  0.30470000  0.76563000  1.0 -0.2107746972
N  N31  1  0.47710000  0.80470000  0.23437000  1.0 -0.2107746972
N  N32  1  0.97710000  0.19530000  0.26563000  1.0 -0.2107746972
N  N33  1  0.11880000  0.63240000  0.22650000  1.0 -0.2107746972
N  N34  1  0.61880000  0.36760000  0.27350000  1.0 -0.2107746972
N  N35  1  0.88120000  0.86760000  0.72650000  1.0 -0.2107746972
N  N36  1  0.38120000  0.13240000  0.77350000  1.0 -0.2107746972
N  N37  1  0.88120000  0.36760000  0.77350000  1.0 -0.2107746972
N  N38  1  0.38120000  0.63240000  0.72650000  1.0 -0.2107746972
N  N39  1  0.11880000  0.13240000  0.27350000  1.0 -0.2107746972
N  N40  1  0.61880000  0.86760000  0.22650000  1.0 -0.2107746972
N  N41  1  0.09040000  0.69870000  0.27242000  1.0 -0.2107746972
N  N42  1  0.59040000  0.30130000  0.22758000  1.0 -0.2107746972
N  N43  1  0.90960000  0.80130000  0.77242000  1.0 -0.2107746972
N  N44  1  0.40960000  0.19870000  0.72758000  1.0 -0.2107746972
N  N45  1  0.90960000  0.30130000  0.72758000  1.0 -0.2107746972
N  N46  1  0.40960000  0.69870000  0.77242000  1.0 -0.2107746972
N  N47  1  0.09040000  0.19870000  0.22758000  1.0 -0.2107746972
N  N48  1  0.59040000  0.80130000  0.27242000  1.0 -0.2107746972
N  N49  1  0.11880000  0.66230000  0.02226000  1.0 -0.2032692973
N  N50  1  0.61880000  0.33770000  0.47774000  1.0 -0.2032692973
N  N51  1  0.88120000  0.83770000  0.52226000  1.0 -0.2032692973
N  N52  1  0.38120000  0.16230000  0.97774000  1.0 -0.2032692973
N  N53  1  0.88120000  0.33770000  0.97774000  1.0 -0.2032692973
N  N54  1  0.38120000  0.66230000  0.52226000  1.0 -0.2032692973
N  N55  1  0.11880000  0.16230000  0.47774000  1.0 -0.2032692973
N  N56  1  0.61880000  0.83770000  0.02226000  1.0 -0.2032692973
N  N57  1  0.03240000  0.69280000  0.98104000  1.0 -0.2032692973
N  N58  1  0.53240000  0.30720000  0.51896000  1.0 -0.2032692973
N  N59  1  0.96760000  0.80720000  0.48104000  1.0 -0.2032692973
N  N60  1  0.46760000  0.19280000  0.01896000  1.0 -0.2032692973
N  N61  1  0.96760000  0.30720000  0.01896000  1.0 -0.2032692973
N  N62  1  0.46760000  0.69280000  0.48104000  1.0 -0.2032692973
N  N63  1  0.03240000  0.19280000  0.51896000  1.0 -0.2032692973
N  N64  1  0.53240000  0.80720000  0.98104000  1.0 -0.2032692973
N  N65  1  0.08320000  0.53690000  0.27429000  1.0 -0.2107746972
N  N66  1  0.58320000  0.46310000  0.22571000  1.0 -0.2107746972
N  N67  1  0.91680000  0.96310000  0.77429000  1.0 -0.2107746972
N  N68  1  0.41680000  0.03690000  0.72571000  1.0 -0.2107746972
N  N69  1  0.91680000  0.46310000  0.72571000  1.0 -0.2107746972
N  N70  1  0.41680000  0.53690000  0.77429000  1.0 -0.2107746972
N  N71  1  0.08320000  0.03690000  0.22571000  1.0 -0.2107746972
N  N72  1  0.58320000  0.96310000  0.27429000  1.0 -0.2107746972
N  N73  1  0.99520000  0.53480000  0.23287000  1.0 -0.2107746972
N  N74  1  0.49520000  0.46520000  0.26713000  1.0 -0.2107746972
N  N75  1  0.00480000  0.96520000  0.73287000  1.0 -0.2107746972
N  N76  1  0.50480000  0.03480000  0.76713000  1.0 -0.2107746972
N  N77  1  0.00480000  0.46520000  0.76713000  1.0 -0.2107746972
N  N78  1  0.50480000  0.53480000  0.73287000  1.0 -0.2107746972
N  N79  1  0.99520000  0.03480000  0.26713000  1.0 -0.2107746972
N  N80  1  0.49520000  0.96520000  0.23287000  1.0 -0.2107746972
N  N81  1  0.81060000  0.28920000  0.02661000  1.0 -0.2032692973
N  N82  1  0.31060000  0.71080000  0.47339000  1.0 -0.2032692973
N  N83  1  0.18940000  0.21080000  0.52661000  1.0 -0.2032692973
N  N84  1  0.68940000  0.78920000  0.97339000  1.0 -0.2032692973
N  N85  1  0.18940000  0.71080000  0.97339000  1.0 -0.2032692973
N  N86  1  0.68940000  0.28920000  0.52661000  1.0 -0.2032692973
N  N87  1  0.81060000  0.78920000  0.47339000  1.0 -0.2032692973
N  N88  1  0.31060000  0.21080000  0.02661000  1.0 -0.2032692973
N  N89  1  0.80200000  0.20690000  0.98498000  1.0 -0.1868141054
N  N90  1  0.30200000  0.79310000  0.51502000  1.0 -0.1868141054
N  N91  1  0.19800000  0.29310000  0.48498000  1.0 -0.1781479926
N  N92  1  0.69800000  0.70690000  0.01502000  1.0 -0.1868141054
N  N93  1  0.19800000  0.79310000  0.01502000  1.0 -0.1868141054
N  N94  1  0.69800000  0.20690000  0.48498000  1.0 -0.1868141054
N  N95  1  0.80200000  0.70690000  0.51502000  1.0 -0.1868141054
N  N96  1  0.30200000  0.29310000  0.98498000  1.0 -0.1781479926
Cl  Cl1  1  0.27634000  0.50256000  0.00799000  1.0 1.2628845475
Cl  Cl2  1  0.77634000  0.49744000  0.49201000  1.0 1.2628845475
Cl  Cl3  1  0.72366000  0.99744000  0.50799000  1.0 1.2628845475
Cl  Cl4  1  0.22366000  0.00256000  0.99201000  1.0 1.2628845475
Cl  Cl5  1  0.72366000  0.49744000  0.99201000  1.0 1.2653377385
Cl  Cl6  1  0.22366000  0.50256000  0.50799000  1.0 1.2628845475
Cl  Cl7  1  0.27634000  0.00256000  0.49201000  1.0 1.2628845475
Cl  Cl8  1  0.77634000  0.99744000  0.00799000  1.0 1.2628845475
O  O1  1  0.54970000  0.19480000  0.90880000  1.0 -0.5293143436
O  O2  1  0.04970000  0.80520000  0.59120000  1.0 -0.5293143436
O  O3  1  0.45030000  0.30520000  0.40880000  1.0 -0.5293143436
O  O4  1  0.95030000  0.69480000  0.09120000  1.0 -0.5293143436
O  O5  1  0.45030000  0.80520000  0.09120000  1.0 -0.5293143436
O  O6  1  0.95030000  0.19480000  0.40880000  1.0 -0.5293143436
O  O7  1  0.54970000  0.69480000  0.59120000  1.0 -0.5293143436
O  O8  1  0.04970000  0.30520000  0.90880000  1.0 -0.5293143436
O  O9  1  0.61710000  0.29150000  0.89902000  1.0 -0.6908886663
O  O10  1  0.11710000  0.70850000  0.60098000  1.0 -0.6908886663
O  O11  1  0.38290000  0.20850000  0.39902000  1.0 -0.6908886663
O  O12  1  0.88290000  0.79150000  0.10098000  1.0 -0.6908886663
O  O13  1  0.38290000  0.70850000  0.10098000  1.0 -0.6908886663
O  O14  1  0.88290000  0.29150000  0.39902000  1.0 -0.6908886663
O  O15  1  0.61710000  0.79150000  0.60098000  1.0 -0.6908886663
O  O16  1  0.11710000  0.20850000  0.89902000  1.0 -0.6908886663
O  O17  1  0.29450000  0.41140000  0.08872000  1.0 -0.6618251174
O  O18  1  0.79450000  0.58860000  0.41128000  1.0 -0.6618251174
O  O19  1  0.70550000  0.08860000  0.58872000  1.0 -0.6618251174
O  O20  1  0.20550000  0.91140000  0.91128000  1.0 -0.6618251174
O  O21  1  0.70550000  0.58860000  0.91128000  1.0 -0.6618251174
O  O22  1  0.20550000  0.41140000  0.58872000  1.0 -0.6618251174
O  O23  1  0.29450000  0.91140000  0.41128000  1.0 -0.6618251174
O  O24  1  0.79450000  0.08860000  0.08872000  1.0 -0.6618251174
O  O25  1  0.37090000  0.50600000  0.09293000  1.0 -0.7151804238
O  O26  1  0.87090000  0.49400000  0.40707000  1.0 -0.71038499
O  O27  1  0.62910000  0.99400000  0.59293000  1.0 -0.71038499
O  O28  1  0.12910000  0.00600000  0.90707000  1.0 -0.7151804238
O  O29  1  0.62910000  0.49400000  0.90707000  1.0 -0.71038499
O  O30  1  0.12910000  0.50600000  0.59293000  1.0 -0.7151804238
O  O31  1  0.37090000  0.00600000  0.40707000  1.0 -0.7151804238
O  O32  1  0.87090000  0.99400000  0.09293000  1.0 -0.71038499
O  O33  1  0.30530000  0.44050000  0.14541000  1.0 -0.6908886663
O  O34  1  0.80530000  0.55950000  0.35459000  1.0 -0.6908886663
O  O35  1  0.69470000  0.05950000  0.64541000  1.0 -0.6908886663
O  O36  1  0.19470000  0.94050000  0.85459000  1.0 -0.6908886663
O  O37  1  0.69470000  0.55950000  0.85459000  1.0 -0.6908886663
O  O38  1  0.19470000  0.44050000  0.64541000  1.0 -0.6908886663
O  O39  1  0.30530000  0.94050000  0.35459000  1.0 -0.6908886663
O  O40  1  0.80530000  0.05950000  0.14541000  1.0 -0.6908886663
O  O41  1  0.40080000  0.50970000  0.15409000  1.0 -0.6196902941
O  O42  1  0.90080000  0.49030000  0.34591000  1.0 -0.6196902941
O  O43  1  0.59920000  0.99030000  0.65409000  1.0 -0.6196902941
O  O44  1  0.09920000  0.00970000  0.84591000  1.0 -0.6196902941
O  O45  1  0.59920000  0.49030000  0.84591000  1.0 -0.6196902941
O  O46  1  0.09920000  0.50970000  0.65409000  1.0 -0.6196902941
O  O47  1  0.40080000  0.00970000  0.34591000  1.0 -0.6196902941
O  O48  1  0.90080000  0.99030000  0.15409000  1.0 -0.6196902941
O  O49  1  0.39690000  0.16550000  0.34026000  1.0 -0.6731954723
O  O50  1  0.89690000  0.83450000  0.15974000  1.0 -0.6731954723
O  O51  1  0.60310000  0.33450000  0.84026000  1.0 -0.6731954723
O  O52  1  0.10310000  0.66550000  0.65974000  1.0 -0.6731954723
O  O53  1  0.60310000  0.83450000  0.65974000  1.0 -0.6731954723
O  O54  1  0.10310000  0.16550000  0.84026000  1.0 -0.6731954723
O  O55  1  0.39690000  0.66550000  0.15974000  1.0 -0.6731954723
O  O56  1  0.89690000  0.33450000  0.34026000  1.0 -0.675070849
O  O57  1  0.51450000  0.19520000  0.33952000  1.0 -0.5591117337
O  O58  1  0.01450000  0.80480000  0.16048000  1.0 -0.5591117337
O  O59  1  0.48550000  0.30480000  0.83952000  1.0 -0.5591117337
O  O60  1  0.98550000  0.69520000  0.66048000  1.0 -0.5591117337
O  O61  1  0.48550000  0.80480000  0.66048000  1.0 -0.5591117337
O  O62  1  0.98550000  0.19520000  0.83952000  1.0 -0.5591117337
O  O63  1  0.51450000  0.69520000  0.16048000  1.0 -0.5591117337
O  O64  1  0.01450000  0.30480000  0.33952000  1.0 -0.5591117337
O  O65  1  0.25640000  0.59230000  0.14612000  1.0 -0.71038499
O  O66  1  0.75640000  0.40770000  0.35388000  1.0 -0.71038499
O  O67  1  0.74360000  0.90770000  0.64612000  1.0 -0.71038499
O  O68  1  0.24360000  0.09230000  0.85388000  1.0 -0.71038499
O  O69  1  0.74360000  0.40770000  0.85388000  1.0 -0.71038499
O  O70  1  0.24360000  0.59230000  0.64612000  1.0 -0.71038499
O  O71  1  0.25640000  0.09230000  0.35388000  1.0 -0.71038499
O  O72  1  0.75640000  0.90770000  0.14612000  1.0 -0.71038499
O  O73  1  0.17080000  0.51150000  0.15671000  1.0 -0.6267189949
O  O74  1  0.67080000  0.48850000  0.34329000  1.0 -0.6267189949
O  O75  1  0.82920000  0.98850000  0.65671000  1.0 -0.6267189949
O  O76  1  0.32920000  0.01150000  0.84329000  1.0 -0.6267189949
O  O77  1  0.82920000  0.48850000  0.84329000  1.0 -0.6267189949
O  O78  1  0.32920000  0.51150000  0.65671000  1.0 -0.6267189949
O  O79  1  0.17080000  0.01150000  0.34329000  1.0 -0.6267189949
O  O80  1  0.67080000  0.98850000  0.15671000  1.0 -0.6267189949
O  O81  1  0.03770000  0.79230000  0.34555000  1.0 -0.5293143436
O  O82  1  0.53770000  0.20770000  0.15445000  1.0 -0.5293143436
O  O83  1  0.96230000  0.70770000  0.84555000  1.0 -0.5293143436
O  O84  1  0.46230000  0.29230000  0.65445000  1.0 -0.5293143436
O  O85  1  0.96230000  0.20770000  0.65445000  1.0 -0.5293143436
O  O86  1  0.46230000  0.79230000  0.84555000  1.0 -0.5293143436
O  O87  1  0.03770000  0.29230000  0.15445000  1.0 -0.5293143436
O  O88  1  0.53770000  0.70770000  0.34555000  1.0 -0.5293143436
O  O89  1  0.13970000  0.85680000  0.34541000  1.0 -0.6908886663
O  O90  1  0.63970000  0.14320000  0.15459000  1.0 -0.6908886663
O  O91  1  0.86030000  0.64320000  0.84541000  1.0 -0.6908886663
O  O92  1  0.36030000  0.35680000  0.65459000  1.0 -0.6908886663
O  O93  1  0.86030000  0.14320000  0.65459000  1.0 -0.6908886663
O  O94  1  0.36030000  0.85680000  0.84541000  1.0 -0.6908886663
O  O95  1  0.13970000  0.35680000  0.15459000  1.0 -0.6908886663
O  O96  1  0.63970000  0.64320000  0.34541000  1.0 -0.6908886663
O  O97  1  0.26200000  0.62360000  0.08753000  1.0 -0.6196902941
O  O98  1  0.76200000  0.37640000  0.41247000  1.0 -0.6196902941
O  O99  1  0.73800000  0.87640000  0.58753000  1.0 -0.6196902941
O  O100  1  0.23800000  0.12360000  0.91247000  1.0 -0.6196902941
O  O101  1  0.73800000  0.37640000  0.91247000  1.0 -0.6196902941
O  O102  1  0.23800000  0.62360000  0.58753000  1.0 -0.6196902941
O  O103  1  0.26200000  0.12360000  0.41247000  1.0 -0.6196902941
O  O104  1  0.76200000  0.87640000  0.08753000  1.0 -0.6196902941
O  O105  1  0.19940000  0.52460000  0.09687000  1.0 -0.6731954723
O  O106  1  0.69940000  0.47540000  0.40313000  1.0 -0.6731954723
O  O107  1  0.80060000  0.97540000  0.59687000  1.0 -0.6731954723
O  O108  1  0.30060000  0.02460000  0.90313000  1.0 -0.6731954723
O  O109  1  0.80060000  0.47540000  0.90313000  1.0 -0.6731954723
O  O110  1  0.30060000  0.52460000  0.59687000  1.0 -0.6731954723
O  O111  1  0.19940000  0.02460000  0.40313000  1.0 -0.6731954723
O  O112  1  0.69940000  0.97540000  0.09687000  1.0 -0.6731954723
O  O113  1  0.85890000  0.63810000  0.91348000  1.0 -0.6908886663
O  O114  1  0.35890000  0.36190000  0.58652000  1.0 -0.6908886663
O  O115  1  0.14110000  0.86190000  0.41348000  1.0 -0.6908886663
O  O116  1  0.64110000  0.13810000  0.08652000  1.0 -0.6908886663
O  O117  1  0.14110000  0.36190000  0.08652000  1.0 -0.6908886663
O  O118  1  0.64110000  0.63810000  0.41348000  1.0 -0.6908886663
O  O119  1  0.85890000  0.13810000  0.58652000  1.0 -0.6908886663
O  O120  1  0.35890000  0.86190000  0.91348000  1.0 -0.6908886663
O  O121  1  0.90870000  0.74810000  0.91313000  1.0 -0.5365079909
O  O122  1  0.40870000  0.25190000  0.58687000  1.0 -0.5365079909
O  O123  1  0.09130000  0.75190000  0.41313000  1.0 -0.5365079909
O  O124  1  0.59130000  0.24810000  0.08687000  1.0 -0.5365079909
O  O125  1  0.09130000  0.25190000  0.08687000  1.0 -0.5365079909
O  O126  1  0.59130000  0.74810000  0.41313000  1.0 -0.5365079909
O  O127  1  0.90870000  0.24810000  0.58687000  1.0 -0.5365079909
O  O128  1  0.40870000  0.75190000  0.91313000  1.0 -0.5365079909
O  O129  1  0.19810000  0.43970000  0.35308000  1.0 -0.6196902941
O  O130  1  0.69810000  0.56030000  0.14692000  1.0 -0.6196902941
O  O131  1  0.80190000  0.06030000  0.85308000  1.0 -0.6196902941
O  O132  1  0.30190000  0.93970000  0.64692000  1.0 -0.6196902941
O  O133  1  0.80190000  0.56030000  0.64692000  1.0 -0.6196902941
O  O134  1  0.30190000  0.43970000  0.85308000  1.0 -0.6196902941
O  O135  1  0.19810000  0.93970000  0.14692000  1.0 -0.6196902941
O  O136  1  0.69810000  0.06030000  0.35308000  1.0 -0.6196902941
O  O137  1  0.23030000  0.54640000  0.33936000  1.0 -0.5805464729
O  O138  1  0.73030000  0.45360000  0.16064000  1.0 -0.5805464729
O  O139  1  0.76970000  0.95360000  0.83936000  1.0 -0.5805464729
O  O140  1  0.26970000  0.04640000  0.66064000  1.0 -0.5805464729
O  O141  1  0.76970000  0.45360000  0.66064000  1.0 -0.5805464729
O  O142  1  0.26970000  0.54640000  0.83936000  1.0 -0.5805464729
O  O143  1  0.23030000  0.04640000  0.16064000  1.0 -0.5805464729
O  O144  1  0.73030000  0.95360000  0.33936000  1.0 -0.5805464729
O  O145  1  0.88680000  0.44120000  0.15228000  1.0 -0.5895592428
O  O146  1  0.38680000  0.55880000  0.34772000  1.0 -0.5895592428
O  O147  1  0.11320000  0.05880000  0.65228000  1.0 -0.5895592428
O  O148  1  0.61320000  0.94120000  0.84772000  1.0 -0.5895592428
O  O149  1  0.11320000  0.55880000  0.84772000  1.0 -0.5895592428
O  O150  1  0.61320000  0.44120000  0.65228000  1.0 -0.5895592428
O  O151  1  0.88680000  0.94120000  0.34772000  1.0 -0.5895592428
O  O152  1  0.38680000  0.05880000  0.15228000  1.0 -0.5895592428
O  O153  1  0.85600000  0.54940000  0.16772000  1.0 -0.6196902941
O  O154  1  0.35600000  0.45060000  0.33228000  1.0 -0.6196902941
O  O155  1  0.14400000  0.95060000  0.66772000  1.0 -0.6196902941
O  O156  1  0.64400000  0.04940000  0.83228000  1.0 -0.6196902941
O  O157  1  0.14400000  0.45060000  0.83228000  1.0 -0.6196902941
O  O158  1  0.64400000  0.54940000  0.66772000  1.0 -0.6196902941
O  O159  1  0.85600000  0.04940000  0.33228000  1.0 -0.6196902941
O  O160  1  0.35600000  0.95060000  0.16772000  1.0 -0.6196902941
O  O161  1  0.72370000  0.42910000  0.10118000  1.0 -0.5895592428
O  O162  1  0.22370000  0.57090000  0.39882000  1.0 -0.5895592428
O  O163  1  0.27630000  0.07090000  0.60118000  1.0 -0.5895592428
O  O164  1  0.77630000  0.92910000  0.89882000  1.0 -0.5895592428
O  O165  1  0.27630000  0.57090000  0.89882000  1.0 -0.5895592428
O  O166  1  0.77630000  0.42910000  0.60118000  1.0 -0.5895592428
O  O167  1  0.72370000  0.92910000  0.39882000  1.0 -0.5895592428
O  O168  1  0.22370000  0.07090000  0.10118000  1.0 -0.5895592428
O  O169  1  0.83980000  0.41560000  0.09561000  1.0 -0.5805464729
O  O170  1  0.33980000  0.58440000  0.40439000  1.0 -0.5805464729
O  O171  1  0.16020000  0.08440000  0.59561000  1.0 -0.5805464729
O  O172  1  0.66020000  0.91560000  0.90439000  1.0 -0.5805464729
O  O173  1  0.16020000  0.58440000  0.90439000  1.0 -0.5805464729
O  O174  1  0.66020000  0.41560000  0.59561000  1.0 -0.5805464729
O  O175  1  0.83980000  0.91560000  0.40439000  1.0 -0.5805464729
O  O176  1  0.33980000  0.08440000  0.09561000  1.0 -0.5805464729
O  O177  1  0.68300000  0.05360000  0.92180000  1.0 -0.5501348494
O  O178  1  0.18300000  0.94640000  0.57820000  1.0 -0.5501348494
O  O179  1  0.31700000  0.44640000  0.42180000  1.0 -0.5501348494
O  O180  1  0.81700000  0.55360000  0.07820000  1.0 -0.5501348494
O  O181  1  0.31700000  0.94640000  0.07820000  1.0 -0.5501348494
O  O182  1  0.81700000  0.05360000  0.42180000  1.0 -0.5501348494
O  O183  1  0.68300000  0.55360000  0.57820000  1.0 -0.5501348494
O  O184  1  0.18300000  0.44640000  0.92180000  1.0 -0.5501348494
O  O185  1  0.78930000  0.08710000  0.91210000  1.0 0.0055871264
O  O186  1  0.28930000  0.91290000  0.58790000  1.0 0.0031580786
O  O187  1  0.21070000  0.41290000  0.41210000  1.0 0.0031580786
O  O188  1  0.71070000  0.58710000  0.08790000  1.0 0.0031580786
O  O189  1  0.21070000  0.91290000  0.08790000  1.0 0.0031580786
O  O190  1  0.71070000  0.08710000  0.41210000  1.0 0.0031580786
O  O191  1  0.78930000  0.58710000  0.58790000  1.0 0.0031580786
O  O192  1  0.28930000  0.41290000  0.91210000  1.0 0.0031580786
O  O193  1  0.48740000  0.60120000  0.11656000  1.0 -0.7752360373
O  O194  1  0.98740000  0.39880000  0.38344000  1.0 -0.7752360373
O  O195  1  0.51260000  0.89880000  0.61656000  1.0 -0.7752360373
O  O196  1  0.01260000  0.10120000  0.88344000  1.0 -0.7752360373
O  O197  1  0.51260000  0.39880000  0.88344000  1.0 -0.7752360373
O  O198  1  0.01260000  0.60120000  0.61656000  1.0 -0.7752360373
O  O199  1  0.48740000  0.10120000  0.38344000  1.0 -0.7752360373
O  O200  1  0.98740000  0.89880000  0.11656000  1.0 -0.7752360373
O  O201  1  0.06880000  0.46330000  0.11940000  1.0 -0.71038499
O  O202  1  0.56880000  0.53670000  0.38060000  1.0 -0.71038499
O  O203  1  0.93120000  0.03670000  0.61940000  1.0 -0.71038499
O  O204  1  0.43120000  0.96330000  0.88060000  1.0 -0.71038499
O  O205  1  0.93120000  0.53670000  0.88060000  1.0 -0.71038499
O  O206  1  0.43120000  0.46330000  0.61940000  1.0 -0.71038499
O  O207  1  0.06880000  0.96330000  0.38060000  1.0 -0.71038499
O  O208  1  0.56880000  0.03670000  0.11940000  1.0 -0.71038499
O  O209  1  0.25570000  0.30030000  0.12447000  1.0 -0.71038499
O  O210  1  0.75570000  0.69970000  0.37553000  1.0 -0.71038499
O  O211  1  0.74430000  0.19970000  0.62447000  1.0 -0.71038499
O  O212  1  0.24430000  0.80030000  0.87553000  1.0 -0.71038499
O  O213  1  0.74430000  0.69970000  0.87553000  1.0 -0.71038499
O  O214  1  0.24430000  0.30030000  0.62447000  1.0 -0.71038499
O  O215  1  0.25570000  0.80030000  0.37553000  1.0 -0.71038499
O  O216  1  0.75570000  0.19970000  0.12447000  1.0 -0.71038499
O  O217  1  0.81280000  0.65050000  0.12705000  1.0 -0.7513757318
O  O218  1  0.31280000  0.34950000  0.37295000  1.0 -0.7513757318
O  O219  1  0.18720000  0.84950000  0.62705000  1.0 -0.7513757318
O  O220  1  0.68720000  0.15050000  0.87295000  1.0 -0.7513757318
O  O221  1  0.18720000  0.34950000  0.87295000  1.0 -0.7513757318
O  O222  1  0.68720000  0.65050000  0.62705000  1.0 -0.7513757318
O  O223  1  0.81280000  0.15050000  0.37295000  1.0 -0.7513757318
O  O224  1  0.31280000  0.84950000  0.12705000  1.0 -0.7513757318
O  O225  1  0.92780000  0.55510000  0.11233000  1.0 -0.71038499
O  O226  1  0.42780000  0.44490000  0.38767000  1.0 -0.71038499
O  O227  1  0.07220000  0.94490000  0.61233000  1.0 -0.71038499
O  O228  1  0.57220000  0.05510000  0.88767000  1.0 -0.71038499
O  O229  1  0.07220000  0.44490000  0.88767000  1.0 -0.71038499
O  O230  1  0.57220000  0.55510000  0.61233000  1.0 -0.71038499
O  O231  1  0.92780000  0.05510000  0.38767000  1.0 -0.71038499
O  O232  1  0.42780000  0.94490000  0.11233000  1.0 -0.71038499
O  O233  1  0.80880000  0.06190000  0.92670000  1.0 -0.1293032437
O  O234  1  0.30880000  0.93810000  0.57330000  1.0 -0.1293032437
O  O235  1  0.19120000  0.43810000  0.42670000  1.0 -0.1293032437
O  O236  1  0.69120000  0.56190000  0.07330000  1.0 -0.1363240748
O  O237  1  0.19120000  0.93810000  0.07330000  1.0 -0.1293032437
O  O238  1  0.69120000  0.06190000  0.42670000  1.0 -0.1293032437
O  O239  1  0.80880000  0.56190000  0.57330000  1.0 -0.1363240748
O  O240  1  0.30880000  0.43810000  0.92670000  1.0 -0.1293032437
O  O241  1  0.22970000  0.54620000  0.99250000  1.0 -0.4681679799
O  O242  1  0.29420000  0.53810000  0.03302000  1.0 -0.4889146506
O  O243  1  0.24260000  0.43560000  0.01374000  1.0 -0.4826669364
O  O244  1  0.34320000  0.48960000  0.99318000  1.0 -0.5120877891
O  O245  1  0.72970000  0.45380000  0.50750000  1.0 -0.4681679799
O  O246  1  0.79420000  0.46190000  0.46698000  1.0 -0.4889146506
O  O247  1  0.74260000  0.56440000  0.48626000  1.0 -0.4826669364
O  O248  1  0.84320000  0.51040000  0.50682000  1.0 -0.5120877891
O  O249  1  0.77030000  0.95380000  0.49250000  1.0 -0.4681679799
O  O250  1  0.70580000  0.96190000  0.53302000  1.0 -0.4889146506
O  O251  1  0.75740000  0.06440000  0.51374000  1.0 -0.4826669364
O  O252  1  0.65680000  0.01040000  0.49318000  1.0 -0.5120877891
O  O253  1  0.27030000  0.04620000  0.00750000  1.0 -0.4681679799
O  O254  1  0.20580000  0.03810000  0.96698000  1.0 -0.4889146506
O  O255  1  0.25740000  0.93560000  0.98626000  1.0 -0.4826669364
O  O256  1  0.15680000  0.98960000  0.00682000  1.0 -0.5120877891
O  O257  1  0.77030000  0.45380000  0.00750000  1.0 -0.4681679799
O  O258  1  0.70580000  0.46190000  0.96698000  1.0 -0.4889146506
O  O259  1  0.75740000  0.56440000  0.98626000  1.0 -0.4826669364
O  O260  1  0.65680000  0.51040000  0.00682000  1.0 -0.5120877891
O  O261  1  0.27030000  0.54620000  0.49250000  1.0 -0.4681679799
O  O262  1  0.20580000  0.53810000  0.53302000  1.0 -0.4889146506
O  O263  1  0.25740000  0.43560000  0.51374000  1.0 -0.4826669364
O  O264  1  0.15680000  0.48960000  0.49318000  1.0 -0.5120877891
O  O265  1  0.22970000  0.04620000  0.50750000  1.0 -0.4681679799
O  O266  1  0.29420000  0.03810000  0.46698000  1.0 -0.4889146506
O  O267  1  0.24260000  0.93560000  0.48626000  1.0 -0.4826669364
O  O268  1  0.34320000  0.98960000  0.50682000  1.0 -0.5120877891
O  O269  1  0.72970000  0.95380000  0.99250000  1.0 -0.4681679799
O  O270  1  0.79420000  0.96190000  0.03302000  1.0 -0.4889146506
O  O271  1  0.74260000  0.06440000  0.01374000  1.0 -0.4826669364
O  O272  1  0.84320000  0.01040000  0.99318000  1.0 -0.5120877891
