# DDEC6 charges by PACMAN v1.1 (https://github.com/mtap-research/PACMAN-charge/)
data_NIGDEO_ASR_pacman
_symmetry_space_group_name_H-M   'P 1'
_cell_length_a   24.70690000
_cell_length_b   24.70690000
_cell_length_c   24.70690000
_cell_angle_alpha   136.02700000
_cell_angle_beta   112.36800000
_cell_angle_gamma   84.24790000
_symmetry_Int_Tables_number   1
_chemical_formula_structural   Cu6H38C80NO24
_chemical_formula_sum   'Cu12 H76 C160 N2 O48'
_cell_volume   9322.86149918
_cell_formula_units_Z   2
loop_
 _symmetry_equiv_pos_site_id
 _symmetry_equiv_pos_as_xyz
  1  'x, y, z'
loop_
 _atom_site_type_symbol
 _atom_site_label
 _atom_site_symmetry_multiplicity
 _atom_site_fract_x
 _atom_site_fract_y
 _atom_site_fract_z
 _atom_site_occupancy
 _atom_site_charge
Cu  Cu1  1  0.17057000  0.06185000  0.89128000  1.0 0.838732542
Cu  Cu2  1  0.82943000  0.72071000  0.89128000  1.0 0.838732542
Cu  Cu3  1  0.09825000  0.98721000  0.88896000  1.0 0.7758594765
Cu  Cu4  1  0.90175000  0.79071000  0.88896000  1.0 0.7758594765
Cu  Cu5  1  0.47927000  0.38940000  0.33379000  1.0 0.8812380298
Cu  Cu6  1  0.52073000  0.85452000  0.91013000  1.0 0.8812380298
Cu  Cu7  1  0.05561000  0.38940000  0.91013000  1.0 0.8812380298
Cu  Cu8  1  0.94439000  0.85452000  0.33379000  1.0 0.8812380298
Cu  Cu9  1  0.49961000  0.42321000  0.47088000  1.0 0.8474560394
Cu  Cu10  1  0.50039000  0.97127000  0.92360000  1.0 0.8474560394
Cu  Cu11  1  0.95233000  0.42321000  0.92360000  1.0 0.8474560394
Cu  Cu12  1  0.04767000  0.97127000  0.47088000  1.0 0.8474560394
H  H1  1  0.31050000  0.94050000  0.87840000  1.0 0.1425510398
H  H2  1  0.68950000  0.56790000  0.63000000  1.0 0.1425510398
H  H3  1  0.06210000  0.94050000  0.63000000  1.0 0.1425510398
H  H4  1  0.93790000  0.56790000  0.87840000  1.0 0.1425510398
H  H5  1  0.33410000  0.73280000  0.79570000  1.0 0.1201946805
H  H6  1  0.66590000  0.46160000  0.39870000  1.0 0.1201946805
H  H7  1  0.93710000  0.73280000  0.39870000  1.0 0.1201946805
H  H8  1  0.06290000  0.46160000  0.79570000  1.0 0.1201946805
H  H9  1  0.18030000  0.79220000  0.80750000  1.0 0.1201946805
H  H10  1  0.81970000  0.62720000  0.61190000  1.0 0.1201946805
H  H11  1  0.98470000  0.79220000  0.61190000  1.0 0.1201946805
H  H12  1  0.01530000  0.62720000  0.80750000  1.0 0.1201946805
H  H13  1  0.18000000  0.72740000  0.83740000  1.0 0.1201946805
H  H14  1  0.82000000  0.65740000  0.54740000  1.0 0.1201946805
H  H15  1  0.89000000  0.72740000  0.54740000  1.0 0.1201946805
H  H16  1  0.11000000  0.65740000  0.83740000  1.0 0.1201946805
H  H17  1  0.25160000  0.50200000  0.68360000  1.0 0.1201946805
H  H18  1  0.74840000  0.43200000  0.25040000  1.0 0.1201946805
H  H19  1  0.81840000  0.50200000  0.25040000  1.0 0.1201946805
H  H20  1  0.18160000  0.43200000  0.68360000  1.0 0.1201946805
H  H21  1  0.27990000  0.60960000  0.71550000  1.0 0.113940826
H  H22  1  0.72010000  0.43560000  0.32970000  1.0 0.113940826
H  H23  1  0.89410000  0.60960000  0.32970000  1.0 0.113940826
H  H24  1  0.10590000  0.43560000  0.71550000  1.0 0.113940826
H  H25  1  0.16480000  0.15830000  0.16210000  1.0 0.1201946805
H  H26  1  0.83520000  0.99730000  0.99350000  1.0 0.1201946805
H  H27  1  0.99620000  0.15830000  0.99350000  1.0 0.1201946805
H  H28  1  0.00380000  0.99730000  0.16210000  1.0 0.1201946805
H  H29  1  0.31620000  0.33420000  0.38880000  1.0 0.1299822158
H  H30  1  0.68380000  0.07260000  0.01800000  1.0 0.1299822158
H  H31  1  0.94540000  0.33420000  0.01800000  1.0 0.1299822158
H  H32  1  0.05460000  0.07260000  0.38880000  1.0 0.1299822158
H  H33  1  0.30250000  0.23310000  0.16040000  1.0 0.1425510398
H  H34  1  0.69750000  0.85790000  0.93060000  1.0 0.1425510398
H  H35  1  0.07270000  0.23310000  0.93060000  1.0 0.1425510398
H  H36  1  0.92730000  0.85790000  0.16040000  1.0 0.1425510398
H  H37  1  0.22630000  0.38490000  0.43860000  1.0 0.113940826
H  H38  1  0.77370000  0.21230000  0.15860000  1.0 0.113940826
H  H39  1  0.94630000  0.38490000  0.15860000  1.0 0.113940826
H  H40  1  0.05370000  0.21230000  0.43860000  1.0 0.113940826
H  H41  1  0.17770000  0.39660000  0.50850000  1.0 0.113940826
H  H42  1  0.82230000  0.33080000  0.21890000  1.0 0.113940826
H  H43  1  0.88810000  0.39660000  0.21890000  1.0 0.113940826
H  H44  1  0.11190000  0.33080000  0.50850000  1.0 0.113940826
H  H45  1  0.16290000  0.13790000  0.23640000  1.0 0.113940826
H  H46  1  0.83710000  0.07350000  0.97500000  1.0 0.113940826
H  H47  1  0.90150000  0.13790000  0.97500000  1.0 0.113940826
H  H48  1  0.09850000  0.07350000  0.23640000  1.0 0.113940826
H  H49  1  0.45110000  0.61980000  0.44450000  1.0 0.1299822158
H  H50  1  0.54890000  0.99340000  0.16870000  1.0 0.1299822158
H  H51  1  0.17530000  0.61980000  0.16870000  1.0 0.1299822158
H  H52  1  0.82470000  0.99340000  0.44450000  1.0 0.1299822158
H  H53  1  0.46430000  0.84640000  0.67150000  1.0 0.1299822158
H  H54  1  0.53570000  0.20720000  0.38210000  1.0 0.1299822158
H  H55  1  0.17490000  0.84640000  0.38210000  1.0 0.1299822158
H  H56  1  0.82510000  0.20720000  0.67150000  1.0 0.1299822158
H  H57  1  0.49870000  0.67220000  0.65390000  1.0 0.1425510398
H  H58  1  0.50130000  0.15520000  0.17350000  1.0 0.1425510398
H  H59  1  0.01830000  0.67220000  0.17350000  1.0 0.1425510398
H  H60  1  0.98170000  0.15520000  0.65390000  1.0 0.1425510398
H  H61  1  0.35120000  0.67920000  0.41820000  1.0 0.1201946805
H  H62  1  0.64880000  0.06700000  0.32800000  1.0 0.1201946805
H  H63  1  0.26100000  0.67920000  0.32800000  1.0 0.1201946805
H  H64  1  0.73900000  0.06700000  0.41820000  1.0 0.1201946805
H  H65  1  0.46370000  0.92170000  0.54920000  1.0 0.1201946805
H  H66  1  0.53630000  0.08550000  0.45800000  1.0 0.1201946805
H  H67  1  0.37250000  0.92170000  0.45800000  1.0 0.1201946805
H  H68  1  0.62750000  0.08550000  0.54920000  1.0 0.1201946805
H  H69  1  0.50270000  0.85990000  0.58640000  1.0 0.1201946805
H  H70  1  0.49730000  0.08370000  0.35720000  1.0 0.1201946805
H  H71  1  0.27350000  0.85990000  0.35720000  1.0 0.1201946805
H  H72  1  0.72650000  0.08370000  0.58640000  1.0 0.1201946805
H  H73  1  0.03440000  0.81660000  0.78220000  1.0 0.113940826
H  H74  1  0.96560000  0.74780000  0.78220000  1.0 0.113940826
H  H75  1  0.03060000  0.03120000  0.00060000  1.0 0.1201946805
H  H76  1  0.96940000  0.97000000  0.00060000  1.0 0.1201946805
C  C1  1  0.20142000  0.93255000  0.86357000  1.0 0.5772395148
C  C2  1  0.79858000  0.66215000  0.73113000  1.0 0.5772395148
C  C3  1  0.06898000  0.93255000  0.73113000  1.0 0.5772395148
C  C4  1  0.93102000  0.66215000  0.86357000  1.0 0.5772395148
C  C5  1  0.23958000  0.87621000  0.84651000  1.0 -0.0179530651
C  C6  1  0.76042000  0.60693000  0.63663000  1.0 -0.0179530651
C  C7  1  0.02970000  0.87621000  0.63663000  1.0 -0.0179530651
C  C8  1  0.97030000  0.60693000  0.84651000  1.0 -0.0179530651
C  C9  1  0.29674000  0.89248000  0.85932000  1.0 -0.0997136725
C  C10  1  0.70326000  0.56258000  0.59574000  1.0 -0.0997136725
C  C11  1  0.03316000  0.89248000  0.59574000  1.0 -0.0997136725
C  C12  1  0.96684000  0.56258000  0.85932000  1.0 -0.0997136725
C  C13  1  0.33674000  0.84511000  0.84703000  1.0 -0.0357538737
C  C14  1  0.66326000  0.51029000  0.50837000  1.0 -0.0357538737
C  C15  1  0.99808000  0.84511000  0.50837000  1.0 -0.0357538737
C  C16  1  0.00192000  0.51029000  0.84703000  1.0 -0.0357538737
C  C17  1  0.31127000  0.77156000  0.81271000  1.0 -0.1430421586
C  C18  1  0.68873000  0.50144000  0.46029000  1.0 -0.1430421586
C  C19  1  0.95885000  0.77156000  0.46029000  1.0 -0.1430421586
C  C20  1  0.04115000  0.50144000  0.81271000  1.0 -0.1430421586
C  C21  1  0.25408000  0.75386000  0.80302000  1.0 0.0613713678
C  C22  1  0.74592000  0.54894000  0.49978000  1.0 0.0613713678
C  C23  1  0.95084000  0.75386000  0.49978000  1.0 0.0613713678
C  C24  1  0.04916000  0.54894000  0.80302000  1.0 0.0613713678
C  C25  1  0.22030000  0.80538000  0.81772000  1.0 -0.1336151199
C  C26  1  0.77970000  0.59742000  0.58508000  1.0 -0.1336151199
C  C27  1  0.98766000  0.80538000  0.58508000  1.0 -0.1336151199
C  C28  1  0.01234000  0.59742000  0.81772000  1.0 -0.1336151199
C  C29  1  0.39907000  0.86291000  0.86376000  1.0 0.5649768128
C  C30  1  0.60093000  0.46469000  0.46384000  1.0 0.5649768128
C  C31  1  0.99915000  0.86291000  0.46384000  1.0 0.5649768128
C  C32  1  0.00085000  0.46469000  0.86376000  1.0 0.5649768128
C  C33  1  0.23670000  0.68657000  0.78513000  1.0 0.0810787617
C  C34  1  0.76330000  0.54843000  0.44987000  1.0 0.0810787617
C  C35  1  0.90144000  0.68657000  0.44987000  1.0 0.0810787617
C  C36  1  0.09856000  0.54843000  0.78513000  1.0 0.0810787617
C  C37  1  0.19454000  0.68090000  0.80524000  1.0 -0.2289835872
C  C38  1  0.80546000  0.61070000  0.48636000  1.0 -0.2289835872
C  C39  1  0.87566000  0.68090000  0.48636000  1.0 -0.2289835872
C  C40  1  0.12434000  0.61070000  0.80524000  1.0 -0.2289835872
C  C41  1  0.16898000  0.61660000  0.78558000  1.0 0.0998613848
C  C42  1  0.83102000  0.61660000  0.44762000  1.0 0.0998613848
C  C43  1  0.19120000  0.54610000  0.73730000  1.0 0.0810787617
C  C44  1  0.80880000  0.54610000  0.35490000  1.0 0.0914735286
C  C45  1  0.23498000  0.54666000  0.71392000  1.0 -0.1593998778
C  C46  1  0.76502000  0.47894000  0.31168000  1.0 -0.1593998778
C  C47  1  0.83274000  0.54666000  0.31168000  1.0 -0.1593998778
C  C48  1  0.16726000  0.47894000  0.71392000  1.0 -0.1593998778
C  C49  1  0.25270000  0.61340000  0.73630000  1.0 -0.177740919
C  C50  1  0.74730000  0.48360000  0.36070000  1.0 -0.177740919
C  C51  1  0.87710000  0.61340000  0.36070000  1.0 -0.177740919
C  C52  1  0.12290000  0.48360000  0.73630000  1.0 -0.177740919
C  C53  1  0.19653000  0.12677000  0.05254000  1.0 0.5723755472
C  C54  1  0.80347000  0.85601000  0.93024000  1.0 0.5723755472
C  C55  1  0.07423000  0.12677000  0.93024000  1.0 0.5723755472
C  C56  1  0.92577000  0.85601000  0.05254000  1.0 0.5723755472
C  C57  1  0.23063000  0.18745000  0.14950000  1.0 -0.0087667639
C  C58  1  0.76937000  0.91887000  0.95682000  1.0 -0.0087667639
C  C59  1  0.03795000  0.18745000  0.95682000  1.0 -0.0087667639
C  C60  1  0.96205000  0.91887000  0.14950000  1.0 -0.0087667639
C  C61  1  0.20368000  0.19345000  0.19415000  1.0 -0.1593998778
C  C62  1  0.79632000  0.99047000  0.98977000  1.0 -0.1593998778
C  C63  1  0.99930000  0.19345000  0.98977000  1.0 -0.1593998778
C  C64  1  0.00070000  0.99047000  0.19415000  1.0 -0.1593998778
C  C65  1  0.23264000  0.24929000  0.28315000  1.0 0.0686221434
C  C66  1  0.76736000  0.05051000  0.01665000  1.0 0.0686221434
C  C67  1  0.96614000  0.24929000  0.01665000  1.0 0.0686221434
C  C68  1  0.03386000  0.05051000  0.28315000  1.0 0.0686221434
C  C69  1  0.29308000  0.29834000  0.32800000  1.0 -0.1499668071
C  C70  1  0.70692000  0.03492000  0.00526000  1.0 -0.1499668071
C  C71  1  0.97034000  0.29834000  0.00526000  1.0 -0.1499668071
C  C72  1  0.02966000  0.03492000  0.32800000  1.0 -0.1499668071
C  C73  1  0.31744000  0.29298000  0.28226000  1.0 -0.0179530651
C  C74  1  0.68256000  0.96482000  0.97554000  1.0 -0.0179530651
C  C75  1  0.01072000  0.29298000  0.97554000  1.0 -0.0179530651
C  C76  1  0.98928000  0.96482000  0.28226000  1.0 -0.0179530651
C  C77  1  0.28590000  0.23675000  0.19155000  1.0 -0.1074119271
C  C78  1  0.71410000  0.90565000  0.95085000  1.0 -0.1074119271
C  C79  1  0.04520000  0.23675000  0.95085000  1.0 -0.1074119271
C  C80  1  0.95480000  0.90565000  0.19155000  1.0 -0.1074119271
C  C81  1  0.38097000  0.34465000  0.33412000  1.0 0.5723755472
C  C82  1  0.61903000  0.95315000  0.96368000  1.0 0.5723755472
C  C83  1  0.01053000  0.34465000  0.96368000  1.0 0.5723755472
C  C84  1  0.98947000  0.95315000  0.33412000  1.0 0.5723755472
C  C85  1  0.19990000  0.26317000  0.33173000  1.0 0.0810787617
C  C86  1  0.80010000  0.13183000  0.06327000  1.0 0.0810787617
C  C87  1  0.93144000  0.26317000  0.06327000  1.0 0.0810787617
C  C88  1  0.06856000  0.13183000  0.33173000  1.0 0.0810787617
C  C89  1  0.20265000  0.33688000  0.41177000  1.0 -0.1593998778
C  C90  1  0.79735000  0.20912000  0.13423000  1.0 -0.1593998778
C  C91  1  0.92511000  0.33688000  0.13423000  1.0 -0.1593998778
C  C92  1  0.07489000  0.20912000  0.41177000  1.0 -0.1593998778
C  C93  1  0.17412000  0.34506000  0.45406000  1.0 -0.1499668071
C  C94  1  0.82588000  0.27994000  0.17094000  1.0 -0.1499668071
C  C95  1  0.89100000  0.34506000  0.17094000  1.0 -0.1499668071
C  C96  1  0.10900000  0.27994000  0.45406000  1.0 -0.1499668071
C  C97  1  0.13940000  0.27340000  0.41280000  1.0 0.0613713678
C  C98  1  0.86060000  0.27340000  0.13400000  1.0 0.0613713678
C  C99  1  0.13520000  0.19730000  0.33250000  1.0 0.0914735286
C  C100  1  0.86480000  0.19730000  0.06210000  1.0 0.0914735286
C  C101  1  0.16528000  0.18926000  0.28982000  1.0 -0.217528638
C  C102  1  0.83472000  0.12454000  0.02398000  1.0 -0.217528638
C  C103  1  0.89944000  0.18926000  0.02398000  1.0 -0.217528638
C  C104  1  0.10056000  0.12454000  0.28982000  1.0 -0.217528638
C  C105  1  0.48019000  0.54421000  0.48462000  1.0 0.5930815949
C  C106  1  0.51981000  0.00443000  0.06402000  1.0 0.5930815949
C  C107  1  0.05959000  0.54421000  0.06402000  1.0 0.5930815949
C  C108  1  0.94041000  0.00443000  0.48462000  1.0 0.5930815949
C  C109  1  0.47615000  0.62879000  0.54016000  1.0 -0.0302677695
C  C110  1  0.52385000  0.06401000  0.15264000  1.0 -0.0302677695
C  C111  1  0.08863000  0.62879000  0.15264000  1.0 -0.0302677695
C  C112  1  0.91137000  0.06401000  0.54016000  1.0 -0.0302677695
C  C113  1  0.45952000  0.65659000  0.50373000  1.0 -0.1593998778
C  C114  1  0.54048000  0.04421000  0.19707000  1.0 -0.1593998778
C  C115  1  0.15286000  0.65659000  0.19707000  1.0 -0.1593998778
C  C116  1  0.84714000  0.04421000  0.50373000  1.0 -0.1593998778
C  C117  1  0.45458000  0.73772000  0.55166000  1.0 0.0810787617
C  C118  1  0.54542000  0.09708000  0.28314000  1.0 0.0810787617
C  C119  1  0.18606000  0.73772000  0.28314000  1.0 0.0810787617
C  C120  1  0.81394000  0.09708000  0.55166000  1.0 0.0810787617
C  C121  1  0.46639000  0.79229000  0.63770000  1.0 -0.177740919
C  C122  1  0.53361000  0.17131000  0.32590000  1.0 -0.177740919
C  C123  1  0.15459000  0.79229000  0.32590000  1.0 -0.177740919
C  C124  1  0.84541000  0.17131000  0.63770000  1.0 -0.177740919
C  C125  1  0.48161000  0.76370000  0.67251000  1.0 0.0036102517
C  C126  1  0.51839000  0.19090000  0.28209000  1.0 0.0036102517
C  C127  1  0.09119000  0.76370000  0.28209000  1.0 0.0036102517
C  C128  1  0.90881000  0.19090000  0.67251000  1.0 0.0036102517
C  C129  1  0.48673000  0.68672000  0.62521000  1.0 -0.1074119271
C  C130  1  0.51327000  0.13848000  0.19999000  1.0 -0.1074119271
C  C131  1  0.06151000  0.68672000  0.19999000  1.0 -0.1074119271
C  C132  1  0.93849000  0.13848000  0.62521000  1.0 -0.1074119271
C  C133  1  0.49304000  0.82695000  0.76669000  1.0 0.5723755472
C  C134  1  0.50696000  0.27365000  0.33391000  1.0 0.5723755472
C  C135  1  0.06026000  0.82695000  0.33391000  1.0 0.5723755472
C  C136  1  0.93974000  0.27365000  0.76669000  1.0 0.5723755472
C  C137  1  0.43107000  0.76206000  0.50791000  1.0 0.0810787617
C  C138  1  0.56893000  0.07684000  0.33099000  1.0 0.0810787617
C  C139  1  0.25415000  0.76206000  0.33099000  1.0 0.0810787617
C  C140  1  0.74585000  0.07684000  0.50791000  1.0 0.0810787617
C  C141  1  0.37410000  0.72725000  0.44435000  1.0 -0.217528638
C  C142  1  0.62590000  0.07025000  0.35315000  1.0 -0.217528638
C  C143  1  0.28290000  0.72725000  0.35315000  1.0 -0.217528638
C  C144  1  0.71710000  0.07025000  0.44435000  1.0 -0.217528638
C  C145  1  0.34671000  0.76131000  0.41460000  1.0 0.1201946805
C  C146  1  0.65329000  0.06789000  0.41460000  1.0 0.1201946805
C  C147  1  0.38145000  0.83545000  0.45400000  1.0 0.0613713678
C  C148  1  0.61855000  0.07255000  0.45400000  1.0 0.0613713678
C  C149  1  0.44006000  0.87255000  0.52051000  1.0 -0.1499668071
C  C150  1  0.55994000  0.08045000  0.43249000  1.0 -0.1430421586
C  C151  1  0.35204000  0.87255000  0.43249000  1.0 -0.1430421586
C  C152  1  0.64796000  0.08045000  0.52051000  1.0 -0.1430421586
C  C153  1  0.46185000  0.83514000  0.54251000  1.0 -0.1499668071
C  C154  1  0.53815000  0.08066000  0.37329000  1.0 -0.1499668071
C  C155  1  0.29263000  0.83514000  0.37329000  1.0 -0.1499668071
C  C156  1  0.70737000  0.08066000  0.54251000  1.0 -0.1499668071
C  C157  1  0.02090000  0.84700000  0.82610000  1.0 0.0476373578
C  C158  1  0.97910000  0.80520000  0.82610000  1.0 0.0476373578
C  C159  1  0.01805000  0.97365000  0.95560000  1.0 0.0036102517
C  C160  1  0.98195000  0.93755000  0.95560000  1.0 0.0053887614
N  N1  1  0.03829000  0.93032000  0.89203000  1.0 -0.2289835872
N  N2  1  0.96171000  0.85374000  0.89203000  1.0 -0.2289835872
O  O1  1  0.43465000  0.82621000  0.87204000  1.0 -0.5093734847
O  O2  1  0.56535000  0.43739000  0.39156000  1.0 -0.5093734847
O  O3  1  0.95417000  0.82621000  0.39156000  1.0 -0.5093734847
O  O4  1  0.04583000  0.43739000  0.87204000  1.0 -0.5093734847
O  O5  1  0.41570000  0.92819000  0.88359000  1.0 -0.584130107
O  O6  1  0.58430000  0.46789000  0.51249000  1.0 -0.584130107
O  O7  1  0.04460000  0.92819000  0.51249000  1.0 -0.584130107
O  O8  1  0.95540000  0.46789000  0.88359000  1.0 -0.584130107
O  O9  1  0.15370000  0.91945000  0.86631000  1.0 -0.5207136186
O  O10  1  0.84630000  0.71261000  0.76575000  1.0 -0.5207136186
O  O11  1  0.05314000  0.91945000  0.76575000  1.0 -0.5207136186
O  O12  1  0.94686000  0.71261000  0.86631000  1.0 -0.5207136186
O  O13  1  0.21426000  0.98211000  0.86727000  1.0 -0.4826125079
O  O14  1  0.78574000  0.65301000  0.76785000  1.0 -0.4826125079
O  O15  1  0.11484000  0.98211000  0.76785000  1.0 -0.4826125079
O  O16  1  0.88516000  0.65301000  0.86727000  1.0 -0.4826125079
O  O17  1  0.15435000  0.07080000  0.01613000  1.0 -0.5207136186
O  O18  1  0.84565000  0.86178000  0.91645000  1.0 -0.5207136186
O  O19  1  0.05467000  0.07080000  0.91645000  1.0 -0.5207136186
O  O20  1  0.94533000  0.86178000  0.01613000  1.0 -0.5207136186
O  O21  1  0.21554000  0.13208000  0.01706000  1.0 -0.4826125079
O  O22  1  0.78446000  0.80152000  0.91654000  1.0 -0.4826125079
O  O23  1  0.11502000  0.13208000  0.91654000  1.0 -0.4826125079
O  O24  1  0.88498000  0.80152000  0.01706000  1.0 -0.4826125079
O  O25  1  0.41269000  0.37669000  0.40674000  1.0 -0.489335286
O  O26  1  0.58731000  0.99405000  0.96400000  1.0 -0.489335286
O  O27  1  0.96995000  0.37669000  0.96400000  1.0 -0.489335286
O  O28  1  0.03005000  0.99405000  0.40674000  1.0 -0.489335286
O  O29  1  0.39376000  0.34652000  0.29244000  1.0 -0.4679754065
O  O30  1  0.60624000  0.89868000  0.95276000  1.0 -0.4679754065
O  O31  1  0.05408000  0.34652000  0.95276000  1.0 -0.4679754065
O  O32  1  0.94592000  0.89868000  0.29244000  1.0 -0.4679754065
O  O33  1  0.47148000  0.49697000  0.40607000  1.0 -0.5324674831
O  O34  1  0.52852000  0.93459000  0.02549000  1.0 -0.5324674831
O  O35  1  0.09090000  0.49697000  0.02549000  1.0 -0.5324674831
O  O36  1  0.90910000  0.93459000  0.40607000  1.0 -0.5324674831
O  O37  1  0.48609000  0.52721000  0.52362000  1.0 -0.489335286
O  O38  1  0.51391000  0.03753000  0.04112000  1.0 -0.489335286
O  O39  1  0.00359000  0.52721000  0.04112000  1.0 -0.489335286
O  O40  1  0.99641000  0.03753000  0.52362000  1.0 -0.489335286
O  O41  1  0.48795000  0.89661000  0.81632000  1.0 -0.3772359775
O  O42  1  0.51205000  0.32837000  0.40866000  1.0 -0.3772359775
O  O43  1  0.08029000  0.89661000  0.40866000  1.0 -0.3772359775
O  O44  1  0.91971000  0.32837000  0.81632000  1.0 -0.374986677
O  O45  1  0.50796000  0.79281000  0.79287000  1.0 -0.5605443404
O  O46  1  0.49204000  0.28491000  0.28485000  1.0 -0.5605443404
O  O47  1  0.99994000  0.79281000  0.28485000  1.0 -0.5605443404
O  O48  1  0.00006000  0.28491000  0.79287000  1.0 -0.5605443404
