# DDEC6 charges by PACMAN v1.1 (https://github.com/mtap-research/PACMAN-charge/)
data_NIGNUO_ASR_pacman
_symmetry_space_group_name_H-M   'P 1'
_cell_length_a   23.71510000
_cell_length_b   23.71510000
_cell_length_c   23.71510000
_cell_angle_alpha   109.47100000
_cell_angle_beta   109.47100000
_cell_angle_gamma   109.47100000
_symmetry_Int_Tables_number   1
_chemical_formula_structural   Co6H40(C24O7)3
_chemical_formula_sum   'Co18 H120 C216 O63'
_cell_volume   10267.30675854
_cell_formula_units_Z   3
loop_
 _symmetry_equiv_pos_site_id
 _symmetry_equiv_pos_as_xyz
  1  'x, y, z'
loop_
 _atom_site_type_symbol
 _atom_site_label
 _atom_site_symmetry_multiplicity
 _atom_site_fract_x
 _atom_site_fract_y
 _atom_site_fract_z
 _atom_site_occupancy
 _atom_site_charge
Co  Co1  1  0.55488000  0.55914000  0.11402000  1.0 1.2204160096
Co  Co2  1  0.44512000  0.44086000  0.88598000  1.0 1.2204160096
Co  Co3  1  0.44512000  0.55914000  0.00426000  1.0 1.2204160096
Co  Co4  1  0.55488000  0.44086000  0.99574000  1.0 1.2204160096
Co  Co5  1  0.11402000  0.55488000  0.55914000  1.0 1.2257191866
Co  Co6  1  0.99574000  0.55488000  0.44086000  1.0 1.2204160096
Co  Co7  1  0.88598000  0.44512000  0.44086000  1.0 1.2204160096
Co  Co8  1  0.00426000  0.44512000  0.55914000  1.0 1.2204160096
Co  Co9  1  0.55914000  0.11402000  0.55488000  1.0 1.2204160096
Co  Co10  1  0.44086000  0.99574000  0.55488000  1.0 1.2204160096
Co  Co11  1  0.44086000  0.88598000  0.44512000  1.0 1.2204160096
Co  Co12  1  0.55914000  0.00426000  0.44512000  1.0 1.2204160096
Co  Co13  1  0.50000000  0.66879000  0.16879000  1.0 1.0924064049
Co  Co14  1  0.50000000  0.33121000  0.83121000  1.0 1.0924064049
Co  Co15  1  0.16879000  0.50000000  0.66879000  1.0 1.0924064049
Co  Co16  1  0.83121000  0.50000000  0.33121000  1.0 1.0924064049
Co  Co17  1  0.66879000  0.16879000  0.50000000  1.0 1.0924064049
Co  Co18  1  0.33121000  0.83121000  0.50000000  1.0 1.0924064049
H  H1  1  0.49380000  0.40060000  0.38180000  1.0 0.1143424838
H  H2  1  0.01880000  0.11200000  0.61820000  1.0 0.1143424838
H  H3  1  0.50620000  0.88800000  0.90680000  1.0 0.1143424838
H  H4  1  0.98120000  0.59940000  0.09320000  1.0 0.1143424838
H  H5  1  0.38180000  0.49380000  0.40060000  1.0 0.1143424838
H  H6  1  0.09320000  0.98120000  0.59940000  1.0 0.1143424838
H  H7  1  0.61820000  0.01880000  0.11200000  1.0 0.1143424838
H  H8  1  0.90680000  0.50620000  0.88800000  1.0 0.1143424838
H  H9  1  0.40060000  0.38180000  0.49380000  1.0 0.1143424838
H  H10  1  0.59940000  0.09320000  0.98120000  1.0 0.1143424838
H  H11  1  0.11200000  0.61820000  0.01880000  1.0 0.1143424838
H  H12  1  0.88800000  0.90680000  0.50620000  1.0 0.1143424838
H  H13  1  0.50620000  0.59940000  0.61820000  1.0 0.1143424838
H  H14  1  0.98120000  0.88800000  0.38180000  1.0 0.1143424838
H  H15  1  0.49380000  0.11200000  0.09320000  1.0 0.1143424838
H  H16  1  0.01880000  0.40060000  0.90680000  1.0 0.1143424838
H  H17  1  0.61820000  0.50620000  0.59940000  1.0 0.1143424838
H  H18  1  0.90680000  0.01880000  0.40060000  1.0 0.1143424838
H  H19  1  0.38180000  0.98120000  0.88800000  1.0 0.1143424838
H  H20  1  0.09320000  0.49380000  0.11200000  1.0 0.1143424838
H  H21  1  0.59940000  0.61820000  0.50620000  1.0 0.1143424838
H  H22  1  0.40060000  0.90680000  0.01880000  1.0 0.1143424838
H  H23  1  0.88800000  0.38180000  0.98120000  1.0 0.1143424838
H  H24  1  0.11200000  0.09320000  0.49380000  1.0 0.1143424838
H  H25  1  0.45980000  0.40010000  0.27710000  1.0 0.1213222455
H  H26  1  0.12300000  0.18270000  0.72290000  1.0 0.1213222455
H  H27  1  0.54020000  0.81730000  0.94030000  1.0 0.1213222455
H  H28  1  0.87700000  0.59990000  0.05970000  1.0 0.1213222455
H  H29  1  0.27710000  0.45980000  0.40010000  1.0 0.1213222455
H  H30  1  0.05970000  0.87700000  0.59990000  1.0 0.1213222455
H  H31  1  0.72290000  0.12300000  0.18270000  1.0 0.1213222455
H  H32  1  0.94030000  0.54020000  0.81730000  1.0 0.1213222455
H  H33  1  0.40010000  0.27710000  0.45980000  1.0 0.1213222455
H  H34  1  0.59990000  0.05970000  0.87700000  1.0 0.1213222455
H  H35  1  0.18270000  0.72290000  0.12300000  1.0 0.1213222455
H  H36  1  0.81730000  0.94030000  0.54020000  1.0 0.1213222455
H  H37  1  0.54020000  0.59990000  0.72290000  1.0 0.1213222455
H  H38  1  0.87700000  0.81730000  0.27710000  1.0 0.1213222455
H  H39  1  0.45980000  0.18270000  0.05970000  1.0 0.1213222455
H  H40  1  0.12300000  0.40010000  0.94030000  1.0 0.1213222455
H  H41  1  0.72290000  0.54020000  0.59990000  1.0 0.1213222455
H  H42  1  0.94030000  0.12300000  0.40010000  1.0 0.1213222455
H  H43  1  0.27710000  0.87700000  0.81730000  1.0 0.1213222455
H  H44  1  0.05970000  0.45980000  0.18270000  1.0 0.1213222455
H  H45  1  0.59990000  0.72290000  0.54020000  1.0 0.1213222455
H  H46  1  0.40010000  0.94030000  0.12300000  1.0 0.1213222455
H  H47  1  0.81730000  0.27710000  0.87700000  1.0 0.1213222455
H  H48  1  0.18270000  0.05970000  0.45980000  1.0 0.1213222455
H  H49  1  0.48780000  0.44670000  0.21310000  1.0 0.1213222455
H  H50  1  0.23360000  0.27470000  0.78690000  1.0 0.1213222455
H  H51  1  0.51220000  0.72530000  0.95890000  1.0 0.1213222455
H  H52  1  0.76640000  0.55330000  0.04110000  1.0 0.1213222455
H  H53  1  0.21310000  0.48780000  0.44670000  1.0 0.1213222455
H  H54  1  0.04110000  0.76640000  0.55330000  1.0 0.1213222455
H  H55  1  0.78690000  0.23360000  0.27470000  1.0 0.1213222455
H  H56  1  0.95890000  0.51220000  0.72530000  1.0 0.1213222455
H  H57  1  0.44670000  0.21310000  0.48780000  1.0 0.1213222455
H  H58  1  0.55330000  0.04110000  0.76640000  1.0 0.1213222455
H  H59  1  0.27470000  0.78690000  0.23360000  1.0 0.1213222455
H  H60  1  0.72530000  0.95890000  0.51220000  1.0 0.1213222455
H  H61  1  0.51220000  0.55330000  0.78690000  1.0 0.1213222455
H  H62  1  0.76640000  0.72530000  0.21310000  1.0 0.1213222455
H  H63  1  0.48780000  0.27470000  0.04110000  1.0 0.1213222455
H  H64  1  0.23360000  0.44670000  0.95890000  1.0 0.1213222455
H  H65  1  0.78690000  0.51220000  0.55330000  1.0 0.1213222455
H  H66  1  0.95890000  0.23360000  0.44670000  1.0 0.1213222455
H  H67  1  0.21310000  0.76640000  0.72530000  1.0 0.1213222455
H  H68  1  0.04110000  0.48780000  0.27470000  1.0 0.1213222455
H  H69  1  0.55330000  0.78690000  0.51220000  1.0 0.1213222455
H  H70  1  0.44670000  0.95890000  0.23360000  1.0 0.1213222455
H  H71  1  0.72530000  0.21310000  0.76640000  1.0 0.1213222455
H  H72  1  0.27470000  0.04110000  0.48780000  1.0 0.1213222455
H  H73  1  0.48550000  0.61510000  0.32260000  1.0 0.1297426849
H  H74  1  0.29250000  0.16290000  0.67740000  1.0 0.1297426849
H  H75  1  0.51450000  0.83710000  0.12960000  1.0 0.1297426849
H  H76  1  0.70750000  0.38490000  0.87040000  1.0 0.1297426849
H  H77  1  0.32260000  0.48550000  0.61510000  1.0 0.1297426849
H  H78  1  0.87040000  0.70750000  0.38490000  1.0 0.1297426849
H  H79  1  0.67740000  0.29250000  0.16290000  1.0 0.1297426849
H  H80  1  0.12960000  0.51450000  0.83710000  1.0 0.1297426849
H  H81  1  0.61510000  0.32260000  0.48550000  1.0 0.1297426849
H  H82  1  0.38490000  0.87040000  0.70750000  1.0 0.1297426849
H  H83  1  0.16290000  0.67740000  0.29250000  1.0 0.1297426849
H  H84  1  0.83710000  0.12960000  0.51450000  1.0 0.1297426849
H  H85  1  0.51450000  0.38490000  0.67740000  1.0 0.1297426849
H  H86  1  0.70750000  0.83710000  0.32260000  1.0 0.1297426849
H  H87  1  0.48550000  0.16290000  0.87040000  1.0 0.1297426849
H  H88  1  0.29250000  0.61510000  0.12960000  1.0 0.1297426849
H  H89  1  0.67740000  0.51450000  0.38490000  1.0 0.1297426849
H  H90  1  0.12960000  0.29250000  0.61510000  1.0 0.1297426849
H  H91  1  0.32260000  0.70750000  0.83710000  1.0 0.1297426849
H  H92  1  0.87040000  0.48550000  0.16290000  1.0 0.1297426849
H  H93  1  0.38490000  0.67740000  0.51450000  1.0 0.1297426849
H  H94  1  0.61510000  0.12960000  0.29250000  1.0 0.1297426849
H  H95  1  0.83710000  0.32260000  0.70750000  1.0 0.1297426849
H  H96  1  0.16290000  0.87040000  0.48550000  1.0 0.1297426849
H  H97  1  0.45630000  0.56910000  0.38700000  1.0 0.1213222455
H  H98  1  0.18210000  0.06930000  0.61300000  1.0 0.1213222455
H  H99  1  0.54370000  0.93070000  0.11280000  1.0 0.1213222455
H  H100  1  0.81790000  0.43090000  0.88720000  1.0 0.1213222455
H  H101  1  0.38700000  0.45630000  0.56910000  1.0 0.1213222455
H  H102  1  0.88720000  0.81790000  0.43090000  1.0 0.1213222455
H  H103  1  0.61300000  0.18210000  0.06930000  1.0 0.1213222455
H  H104  1  0.11280000  0.54370000  0.93070000  1.0 0.1213222455
H  H105  1  0.56910000  0.38700000  0.45630000  1.0 0.1213222455
H  H106  1  0.43090000  0.88720000  0.81790000  1.0 0.1213222455
H  H107  1  0.06930000  0.61300000  0.18210000  1.0 0.1213222455
H  H108  1  0.93070000  0.11280000  0.54370000  1.0 0.1213222455
H  H109  1  0.54370000  0.43090000  0.61300000  1.0 0.1213222455
H  H110  1  0.81790000  0.93070000  0.38700000  1.0 0.1213222455
H  H111  1  0.45630000  0.06930000  0.88720000  1.0 0.1213222455
H  H112  1  0.18210000  0.56910000  0.11280000  1.0 0.1213222455
H  H113  1  0.61300000  0.54370000  0.43090000  1.0 0.1213222455
H  H114  1  0.11280000  0.18210000  0.56910000  1.0 0.1213222455
H  H115  1  0.38700000  0.81790000  0.93070000  1.0 0.1213222455
H  H116  1  0.88720000  0.45630000  0.06930000  1.0 0.1213222455
H  H117  1  0.43090000  0.61300000  0.54370000  1.0 0.1213222455
H  H118  1  0.56910000  0.11280000  0.18210000  1.0 0.1213222455
H  H119  1  0.93070000  0.38700000  0.81790000  1.0 0.1213222455
H  H120  1  0.06930000  0.88720000  0.45630000  1.0 0.1213222455
C  C1  1  0.46545000  0.40949000  0.39844000  1.0 -0.1925282598
C  C2  1  0.01105000  0.06701000  0.60156000  1.0 -0.1925282598
C  C3  1  0.53455000  0.93299000  0.94404000  1.0 -0.1925282598
C  C4  1  0.98895000  0.59051000  0.05596000  1.0 -0.1925282598
C  C5  1  0.39844000  0.46545000  0.40949000  1.0 -0.1925282598
C  C6  1  0.05596000  0.98895000  0.59051000  1.0 -0.1925282598
C  C7  1  0.60156000  0.01105000  0.06701000  1.0 -0.1925282598
C  C8  1  0.94404000  0.53455000  0.93299000  1.0 -0.1925282598
C  C9  1  0.40949000  0.39844000  0.46545000  1.0 -0.1925282598
C  C10  1  0.59051000  0.05596000  0.98895000  1.0 -0.1925282598
C  C11  1  0.06701000  0.60156000  0.01105000  1.0 -0.1925282598
C  C12  1  0.93299000  0.94404000  0.53455000  1.0 -0.1925282598
C  C13  1  0.53455000  0.59051000  0.60156000  1.0 -0.1925282598
C  C14  1  0.98895000  0.93299000  0.39844000  1.0 -0.1925282598
C  C15  1  0.46545000  0.06701000  0.05596000  1.0 -0.1925282598
C  C16  1  0.01105000  0.40949000  0.94404000  1.0 -0.1925282598
C  C17  1  0.60156000  0.53455000  0.59051000  1.0 -0.1925282598
C  C18  1  0.94404000  0.01105000  0.40949000  1.0 -0.1925282598
C  C19  1  0.39844000  0.98895000  0.93299000  1.0 -0.1925282598
C  C20  1  0.05596000  0.46545000  0.06701000  1.0 -0.1925282598
C  C21  1  0.59051000  0.60156000  0.53455000  1.0 -0.1925282598
C  C22  1  0.40949000  0.94404000  0.01105000  1.0 -0.1925282598
C  C23  1  0.93299000  0.39844000  0.98895000  1.0 -0.1925282598
C  C24  1  0.06701000  0.05596000  0.46545000  1.0 -0.1925282598
C  C25  1  0.43848000  0.45077000  0.38209000  1.0 0.0793205125
C  C26  1  0.06868000  0.05639000  0.61791000  1.0 0.0793205125
C  C27  1  0.56152000  0.94361000  0.01229000  1.0 0.0793205125
C  C28  1  0.93132000  0.54923000  0.98771000  1.0 0.0793205125
C  C29  1  0.38209000  0.43848000  0.45077000  1.0 0.0793205125
C  C30  1  0.98771000  0.93132000  0.54923000  1.0 0.0793205125
C  C31  1  0.61791000  0.06868000  0.05639000  1.0 0.0793205125
C  C32  1  0.01229000  0.56152000  0.94361000  1.0 0.0793205125
C  C33  1  0.45077000  0.38209000  0.43848000  1.0 0.0793205125
C  C34  1  0.54923000  0.98771000  0.93132000  1.0 0.0793205125
C  C35  1  0.05639000  0.61791000  0.06868000  1.0 0.0793205125
C  C36  1  0.94361000  0.01229000  0.56152000  1.0 0.0793205125
C  C37  1  0.56152000  0.54923000  0.61791000  1.0 0.0793205125
C  C38  1  0.93132000  0.94361000  0.38209000  1.0 0.0793205125
C  C39  1  0.43848000  0.05639000  0.98771000  1.0 0.0793205125
C  C40  1  0.06868000  0.45077000  0.01229000  1.0 0.0793205125
C  C41  1  0.61791000  0.56152000  0.54923000  1.0 0.0793205125
C  C42  1  0.01229000  0.06868000  0.45077000  1.0 0.0793205125
C  C43  1  0.38209000  0.93132000  0.94361000  1.0 0.0793205125
C  C44  1  0.98771000  0.43848000  0.05639000  1.0 0.0793205125
C  C45  1  0.54923000  0.61791000  0.56152000  1.0 0.0793205125
C  C46  1  0.45077000  0.01229000  0.06868000  1.0 0.0793205125
C  C47  1  0.94361000  0.38209000  0.93132000  1.0 0.0793205125
C  C48  1  0.05639000  0.98771000  0.43848000  1.0 0.0793205125
C  C49  1  0.45561000  0.47984000  0.34033000  1.0 0.0715761502
C  C50  1  0.13951000  0.11528000  0.65967000  1.0 0.0715761502
C  C51  1  0.54439000  0.88472000  0.02423000  1.0 0.0715761502
C  C52  1  0.86049000  0.52016000  0.97577000  1.0 0.0715761502
C  C53  1  0.34033000  0.45561000  0.47984000  1.0 0.0715761502
C  C54  1  0.97577000  0.86049000  0.52016000  1.0 0.0715761502
C  C55  1  0.65967000  0.13951000  0.11528000  1.0 0.0715761502
C  C56  1  0.02423000  0.54439000  0.88472000  1.0 0.0715761502
C  C57  1  0.47984000  0.34033000  0.45561000  1.0 0.0715761502
C  C58  1  0.52016000  0.97577000  0.86049000  1.0 0.0715761502
C  C59  1  0.11528000  0.65967000  0.13951000  1.0 0.0715761502
C  C60  1  0.88472000  0.02423000  0.54439000  1.0 0.0715761502
C  C61  1  0.54439000  0.52016000  0.65967000  1.0 0.0715761502
C  C62  1  0.86049000  0.88472000  0.34033000  1.0 0.0715761502
C  C63  1  0.45561000  0.11528000  0.97577000  1.0 0.0715761502
C  C64  1  0.13951000  0.47984000  0.02423000  1.0 0.0715761502
C  C65  1  0.65967000  0.54439000  0.52016000  1.0 0.0715761502
C  C66  1  0.02423000  0.13951000  0.47984000  1.0 0.0715761502
C  C67  1  0.34033000  0.86049000  0.88472000  1.0 0.0715761502
C  C68  1  0.97577000  0.45561000  0.11528000  1.0 0.0715761502
C  C69  1  0.52016000  0.65967000  0.54439000  1.0 0.0715761502
C  C70  1  0.47984000  0.02423000  0.13951000  1.0 0.0715761502
C  C71  1  0.88472000  0.34033000  0.86049000  1.0 0.0715761502
C  C72  1  0.11528000  0.97577000  0.45561000  1.0 0.0715761502
C  C73  1  0.46475000  0.44330000  0.28637000  1.0 -0.1525872228
C  C74  1  0.15693000  0.17838000  0.71363000  1.0 -0.1525872228
C  C75  1  0.53525000  0.82162000  0.97855000  1.0 -0.1525872228
C  C76  1  0.84307000  0.55670000  0.02145000  1.0 -0.1525872228
C  C77  1  0.28637000  0.46475000  0.44330000  1.0 -0.1525872228
C  C78  1  0.02145000  0.84307000  0.55670000  1.0 -0.1525872228
C  C79  1  0.71363000  0.15693000  0.17838000  1.0 -0.1525872228
C  C80  1  0.97855000  0.53525000  0.82162000  1.0 -0.1525872228
C  C81  1  0.44330000  0.28637000  0.46475000  1.0 -0.1525872228
C  C82  1  0.55670000  0.02145000  0.84307000  1.0 -0.1525872228
C  C83  1  0.17838000  0.71363000  0.15693000  1.0 -0.1525872228
C  C84  1  0.82162000  0.97855000  0.53525000  1.0 -0.1525872228
C  C85  1  0.53525000  0.55670000  0.71363000  1.0 -0.1525872228
C  C86  1  0.84307000  0.82162000  0.28637000  1.0 -0.1525872228
C  C87  1  0.46475000  0.17838000  0.02145000  1.0 -0.1525872228
C  C88  1  0.15693000  0.44330000  0.97855000  1.0 -0.1525872228
C  C89  1  0.71363000  0.53525000  0.55670000  1.0 -0.1525872228
C  C90  1  0.97855000  0.15693000  0.44330000  1.0 -0.1525872228
C  C91  1  0.28637000  0.84307000  0.82162000  1.0 -0.1525872228
C  C92  1  0.02145000  0.46475000  0.17838000  1.0 -0.1525872228
C  C93  1  0.55670000  0.71363000  0.53525000  1.0 -0.1525872228
C  C94  1  0.44330000  0.97855000  0.15693000  1.0 -0.1525872228
C  C95  1  0.82162000  0.28637000  0.84307000  1.0 -0.1525872228
C  C96  1  0.17838000  0.02145000  0.46475000  1.0 -0.1525872228
C  C97  1  0.48071000  0.47076000  0.24759000  1.0 -0.08947385
C  C98  1  0.22317000  0.23312000  0.75241000  1.0 -0.08947385
C  C99  1  0.51929000  0.76688000  0.99005000  1.0 -0.08947385
C  C100  1  0.77683000  0.52924000  0.00995000  1.0 -0.08947385
C  C101  1  0.24759000  0.48071000  0.47076000  1.0 -0.08947385
C  C102  1  0.00995000  0.77683000  0.52924000  1.0 -0.08947385
C  C103  1  0.75241000  0.22317000  0.23312000  1.0 -0.08947385
C  C104  1  0.99005000  0.51929000  0.76688000  1.0 -0.08947385
C  C105  1  0.47076000  0.24759000  0.48071000  1.0 -0.08947385
C  C106  1  0.52924000  0.00995000  0.77683000  1.0 -0.08947385
C  C107  1  0.23312000  0.75241000  0.22317000  1.0 -0.08947385
C  C108  1  0.76688000  0.99005000  0.51929000  1.0 -0.08947385
C  C109  1  0.51929000  0.52924000  0.75241000  1.0 -0.08947385
C  C110  1  0.77683000  0.76688000  0.24759000  1.0 -0.08947385
C  C111  1  0.48071000  0.23312000  0.00995000  1.0 -0.08947385
C  C112  1  0.22317000  0.47076000  0.99005000  1.0 -0.08947385
C  C113  1  0.75241000  0.51929000  0.52924000  1.0 -0.08947385
C  C114  1  0.99005000  0.22317000  0.47076000  1.0 -0.08947385
C  C115  1  0.24759000  0.77683000  0.76688000  1.0 -0.08947385
C  C116  1  0.00995000  0.48071000  0.23312000  1.0 -0.08947385
C  C117  1  0.52924000  0.75241000  0.51929000  1.0 -0.08947385
C  C118  1  0.47076000  0.99005000  0.22317000  1.0 -0.08947385
C  C119  1  0.76688000  0.24759000  0.77683000  1.0 -0.08947385
C  C120  1  0.23312000  0.00995000  0.48071000  1.0 -0.08947385
C  C121  1  0.48640000  0.53472000  0.25972000  1.0 -0.0276570866
C  C122  1  0.27500000  0.22668000  0.74028000  1.0 -0.0276570866
C  C123  1  0.51360000  0.77332000  0.04832000  1.0 -0.0276570866
C  C124  1  0.72500000  0.46528000  0.95168000  1.0 -0.0276570866
C  C125  1  0.25972000  0.48640000  0.53472000  1.0 -0.0276570866
C  C126  1  0.95168000  0.72500000  0.46528000  1.0 -0.0276570866
C  C127  1  0.74028000  0.27500000  0.22668000  1.0 -0.0276570866
C  C128  1  0.04832000  0.51360000  0.77332000  1.0 -0.0276570866
C  C129  1  0.53472000  0.25972000  0.48640000  1.0 -0.0276570866
C  C130  1  0.46528000  0.95168000  0.72500000  1.0 -0.0276570866
C  C131  1  0.22668000  0.74028000  0.27500000  1.0 -0.0276570866
C  C132  1  0.77332000  0.04832000  0.51360000  1.0 -0.0276570866
C  C133  1  0.51360000  0.46528000  0.74028000  1.0 -0.0276570866
C  C134  1  0.72500000  0.77332000  0.25972000  1.0 -0.0276570866
C  C135  1  0.48640000  0.22668000  0.95168000  1.0 -0.0276570866
C  C136  1  0.27500000  0.53472000  0.04832000  1.0 -0.0276570866
C  C137  1  0.74028000  0.51360000  0.46528000  1.0 -0.0276570866
C  C138  1  0.04832000  0.27500000  0.53472000  1.0 -0.0276570866
C  C139  1  0.25972000  0.72500000  0.77332000  1.0 -0.0276570866
C  C140  1  0.95168000  0.48640000  0.22668000  1.0 -0.0276570866
C  C141  1  0.46528000  0.74028000  0.51360000  1.0 -0.0276570866
C  C142  1  0.53472000  0.04832000  0.27500000  1.0 -0.0276570866
C  C143  1  0.77332000  0.25972000  0.72500000  1.0 -0.0276570866
C  C144  1  0.22668000  0.95168000  0.48640000  1.0 -0.0276570866
C  C145  1  0.47919000  0.57140000  0.31295000  1.0 -0.08947385
C  C146  1  0.25845000  0.16624000  0.68705000  1.0 -0.08947385
C  C147  1  0.52081000  0.83376000  0.09221000  1.0 -0.08947385
C  C148  1  0.74155000  0.42860000  0.90779000  1.0 -0.08947385
C  C149  1  0.31295000  0.47919000  0.57140000  1.0 -0.08947385
C  C150  1  0.90779000  0.74155000  0.42860000  1.0 -0.08947385
C  C151  1  0.68705000  0.25845000  0.16624000  1.0 -0.08947385
C  C152  1  0.09221000  0.52081000  0.83376000  1.0 -0.08947385
C  C153  1  0.57140000  0.31295000  0.47919000  1.0 -0.08947385
C  C154  1  0.42860000  0.90779000  0.74155000  1.0 -0.08947385
C  C155  1  0.16624000  0.68705000  0.25845000  1.0 -0.08947385
C  C156  1  0.83376000  0.09221000  0.52081000  1.0 -0.08947385
C  C157  1  0.52081000  0.42860000  0.68705000  1.0 -0.08947385
C  C158  1  0.74155000  0.83376000  0.31295000  1.0 -0.08947385
C  C159  1  0.47919000  0.16624000  0.90779000  1.0 -0.08947385
C  C160  1  0.25845000  0.57140000  0.09221000  1.0 -0.08947385
C  C161  1  0.68705000  0.52081000  0.42860000  1.0 -0.08947385
C  C162  1  0.09221000  0.25845000  0.57140000  1.0 -0.08947385
C  C163  1  0.31295000  0.74155000  0.83376000  1.0 -0.08947385
C  C164  1  0.90779000  0.47919000  0.16624000  1.0 -0.08947385
C  C165  1  0.42860000  0.68705000  0.52081000  1.0 -0.08947385
C  C166  1  0.57140000  0.09221000  0.25845000  1.0 -0.08947385
C  C167  1  0.83376000  0.31295000  0.74155000  1.0 -0.08947385
C  C168  1  0.16624000  0.90779000  0.47919000  1.0 -0.08947385
C  C169  1  0.46268000  0.54423000  0.35233000  1.0 -0.1582244681
C  C170  1  0.19190000  0.11035000  0.64767000  1.0 -0.1582244681
C  C171  1  0.53732000  0.88965000  0.08155000  1.0 -0.1582244681
C  C172  1  0.80810000  0.45577000  0.91845000  1.0 -0.1582244681
C  C173  1  0.35233000  0.46268000  0.54423000  1.0 -0.1582244681
C  C174  1  0.91845000  0.80810000  0.45577000  1.0 -0.1582244681
C  C175  1  0.64767000  0.19190000  0.11035000  1.0 -0.1582244681
C  C176  1  0.08155000  0.53732000  0.88965000  1.0 -0.1582244681
C  C177  1  0.54423000  0.35233000  0.46268000  1.0 -0.1582244681
C  C178  1  0.45577000  0.91845000  0.80810000  1.0 -0.1582244681
C  C179  1  0.11035000  0.64767000  0.19190000  1.0 -0.1582244681
C  C180  1  0.88965000  0.08155000  0.53732000  1.0 -0.1582244681
C  C181  1  0.53732000  0.45577000  0.64767000  1.0 -0.1582244681
C  C182  1  0.80810000  0.88965000  0.35233000  1.0 -0.1582244681
C  C183  1  0.46268000  0.11035000  0.91845000  1.0 -0.1582244681
C  C184  1  0.19190000  0.54423000  0.08155000  1.0 -0.1582244681
C  C185  1  0.64767000  0.53732000  0.45577000  1.0 -0.1582244681
C  C186  1  0.08155000  0.19190000  0.54423000  1.0 -0.1582244681
C  C187  1  0.35233000  0.80810000  0.88965000  1.0 -0.1582244681
C  C188  1  0.91845000  0.46268000  0.11035000  1.0 -0.1582244681
C  C189  1  0.45577000  0.64767000  0.53732000  1.0 -0.1582244681
C  C190  1  0.54423000  0.08155000  0.19190000  1.0 -0.1582244681
C  C191  1  0.88965000  0.35233000  0.80810000  1.0 -0.1582244681
C  C192  1  0.11035000  0.91845000  0.46268000  1.0 -0.1582244681
C  C193  1  0.50116000  0.56348000  0.21538000  1.0 0.6053639977
C  C194  1  0.34810000  0.28578000  0.78462000  1.0 0.6053639977
C  C195  1  0.49884000  0.71422000  0.06232000  1.0 0.6048872202
C  C196  1  0.65190000  0.43652000  0.93768000  1.0 0.6053639977
C  C197  1  0.21538000  0.50116000  0.56348000  1.0 0.6053639977
C  C198  1  0.93768000  0.65190000  0.43652000  1.0 0.6048872202
C  C199  1  0.78462000  0.34810000  0.28578000  1.0 0.6048872202
C  C200  1  0.06232000  0.49884000  0.71422000  1.0 0.6048872202
C  C201  1  0.56348000  0.21538000  0.50116000  1.0 0.6048872202
C  C202  1  0.43652000  0.93768000  0.65190000  1.0 0.6053639977
C  C203  1  0.28578000  0.78462000  0.34810000  1.0 0.6048872202
C  C204  1  0.71422000  0.06232000  0.49884000  1.0 0.6048872202
C  C205  1  0.49884000  0.43652000  0.78462000  1.0 0.6048872202
C  C206  1  0.65190000  0.71422000  0.21538000  1.0 0.6048872202
C  C207  1  0.50116000  0.28578000  0.93768000  1.0 0.6053639977
C  C208  1  0.34810000  0.56348000  0.06232000  1.0 0.6048872202
C  C209  1  0.78462000  0.49884000  0.43652000  1.0 0.6053639977
C  C210  1  0.06232000  0.34810000  0.56348000  1.0 0.6048872202
C  C211  1  0.21538000  0.65190000  0.71422000  1.0 0.6053639977
C  C212  1  0.93768000  0.50116000  0.28578000  1.0 0.6053639977
C  C213  1  0.43652000  0.78462000  0.49884000  1.0 0.6048872202
C  C214  1  0.56348000  0.06232000  0.34810000  1.0 0.6048872202
C  C215  1  0.71422000  0.21538000  0.65190000  1.0 0.6048872202
C  C216  1  0.28578000  0.93768000  0.50116000  1.0 0.6053639977
O  O1  1  0.49996000  0.61711000  0.22455000  1.0 -0.5361359339
O  O2  1  0.39256000  0.27541000  0.77545000  1.0 -0.5361359339
O  O3  1  0.50004000  0.72459000  0.11715000  1.0 -0.5361359339
O  O4  1  0.60744000  0.38289000  0.88285000  1.0 -0.5361359339
O  O5  1  0.22455000  0.49996000  0.61711000  1.0 -0.5361359339
O  O6  1  0.88285000  0.60744000  0.38289000  1.0 -0.5361359339
O  O7  1  0.77545000  0.39256000  0.27541000  1.0 -0.5361359339
O  O8  1  0.11715000  0.50004000  0.72459000  1.0 -0.5361359339
O  O9  1  0.61711000  0.22455000  0.49996000  1.0 -0.5361359339
O  O10  1  0.38289000  0.88285000  0.60744000  1.0 -0.5361359339
O  O11  1  0.27541000  0.77545000  0.39256000  1.0 -0.5361359339
O  O12  1  0.72459000  0.11715000  0.50004000  1.0 -0.5361359339
O  O13  1  0.50004000  0.38289000  0.77545000  1.0 -0.5361359339
O  O14  1  0.60744000  0.72459000  0.22455000  1.0 -0.5361359339
O  O15  1  0.49996000  0.27541000  0.88285000  1.0 -0.5361359339
O  O16  1  0.39256000  0.61711000  0.11715000  1.0 -0.5361359339
O  O17  1  0.77545000  0.50004000  0.38289000  1.0 -0.5361359339
O  O18  1  0.11715000  0.39256000  0.61711000  1.0 -0.5361359339
O  O19  1  0.22455000  0.60744000  0.72459000  1.0 -0.5361359339
O  O20  1  0.88285000  0.49996000  0.27541000  1.0 -0.5361359339
O  O21  1  0.38289000  0.77545000  0.50004000  1.0 -0.5361359339
O  O22  1  0.61711000  0.11715000  0.39256000  1.0 -0.5361359339
O  O23  1  0.72459000  0.22455000  0.60744000  1.0 -0.5361359339
O  O24  1  0.27541000  0.88285000  0.49996000  1.0 -0.5361359339
O  O25  1  0.51807000  0.53255000  0.17400000  1.0 -0.5524924294
O  O26  1  0.35855000  0.34407000  0.82600000  1.0 -0.5524924294
O  O27  1  0.48193000  0.65593000  0.01448000  1.0 -0.5524924294
O  O28  1  0.64145000  0.46745000  0.98552000  1.0 -0.5524924294
O  O29  1  0.17400000  0.51807000  0.53255000  1.0 -0.5524924294
O  O30  1  0.98552000  0.64145000  0.46745000  1.0 -0.5524924294
O  O31  1  0.82600000  0.35855000  0.34407000  1.0 -0.5524924294
O  O32  1  0.01448000  0.48193000  0.65593000  1.0 -0.5524924294
O  O33  1  0.53255000  0.17400000  0.51807000  1.0 -0.5524924294
O  O34  1  0.46745000  0.98552000  0.64145000  1.0 -0.5524924294
O  O35  1  0.34407000  0.82600000  0.35855000  1.0 -0.5524924294
O  O36  1  0.65593000  0.01448000  0.48193000  1.0 -0.5524924294
O  O37  1  0.48193000  0.46745000  0.82600000  1.0 -0.5524924294
O  O38  1  0.64145000  0.65593000  0.17400000  1.0 -0.5524924294
O  O39  1  0.51807000  0.34407000  0.98552000  1.0 -0.5524924294
O  O40  1  0.35855000  0.53255000  0.01448000  1.0 -0.5524924294
O  O41  1  0.82600000  0.48193000  0.46745000  1.0 -0.5524924294
O  O42  1  0.01448000  0.35855000  0.53255000  1.0 -0.5524924294
O  O43  1  0.17400000  0.64145000  0.65593000  1.0 -0.5524924294
O  O44  1  0.98552000  0.51807000  0.34407000  1.0 -0.5524924294
O  O45  1  0.46745000  0.82600000  0.48193000  1.0 -0.5524924294
O  O46  1  0.53255000  0.01448000  0.35855000  1.0 -0.5524924294
O  O47  1  0.65593000  0.17400000  0.64145000  1.0 -0.5524924294
O  O48  1  0.34407000  0.98552000  0.51807000  1.0 -0.5524924294
O  O49  1  0.60111000  0.50000000  0.10111000  1.0 -0.6933307222
O  O50  1  0.39889000  0.50000000  0.89889000  1.0 -0.6933307222
O  O51  1  0.10111000  0.60111000  0.50000000  1.0 -0.6933307222
O  O52  1  0.89889000  0.39889000  0.50000000  1.0 -0.6933307222
O  O53  1  0.50000000  0.10111000  0.60111000  1.0 -0.6933307222
O  O54  1  0.50000000  0.89889000  0.39889000  1.0 -0.6933307222
O  O55  1  0.50000000  0.50000000  0.00000000  1.0 -0.8000204832
O  O56  1  0.00000000  0.50000000  0.50000000  1.0 -0.8000204832
O  O57  1  0.50000000  0.00000000  0.50000000  1.0 -0.8000204832
O  O58  1  0.50000000  0.58965000  0.08965000  1.0 -0.7026267023
O  O59  1  0.50000000  0.41035000  0.91035000  1.0 -0.7026267023
O  O60  1  0.08965000  0.50000000  0.58965000  1.0 -0.7026267023
O  O61  1  0.91035000  0.50000000  0.41035000  1.0 -0.7026267023
O  O62  1  0.58965000  0.08965000  0.50000000  1.0 -0.7026267023
O  O63  1  0.41035000  0.91035000  0.50000000  1.0 -0.7026267023
