# DDEC6 charges by PACMAN v1.1 (https://github.com/mtap-research/PACMAN-charge/)
data_NIJMOL_ASR_pacman
_symmetry_space_group_name_H-M   'P 1'
_cell_length_a   12.34880000
_cell_length_b   12.57540000
_cell_length_c   14.18960000
_cell_angle_alpha   106.01600000
_cell_angle_beta   103.86400000
_cell_angle_gamma   99.01800000
_symmetry_Int_Tables_number   1
_chemical_formula_structural   Li2CoH15C24NO8
_chemical_formula_sum   'Li4 Co2 H30 C48 N2 O16'
_cell_volume   1996.78769170
_cell_formula_units_Z   2
loop_
 _symmetry_equiv_pos_site_id
 _symmetry_equiv_pos_as_xyz
  1  'x, y, z'
loop_
 _atom_site_type_symbol
 _atom_site_label
 _atom_site_symmetry_multiplicity
 _atom_site_fract_x
 _atom_site_fract_y
 _atom_site_fract_z
 _atom_site_occupancy
 _atom_site_charge
Li  Li1  1  0.78590000  0.67520000  0.78690000  1.0 0.7699073031
Li  Li2  1  0.56540000  0.95650000  0.93980000  1.0 0.8150189295
Li  Li3  1  0.21410000  0.32480000  0.21310000  1.0 0.7699073031
Li  Li4  1  0.43460000  0.04350000  0.06020000  1.0 0.8150189295
Co  Co1  1  0.57266000  0.69952000  0.85828000  1.0 0.9695011749
Co  Co2  1  0.42734000  0.30048000  0.14172000  1.0 0.9695011749
H  H1  1  0.46190000  0.61710000  0.08030000  1.0 0.1386063173
H  H2  1  0.28060000  0.67850000  0.28130000  1.0 0.1117847543
H  H3  1  0.36720000  0.91390000  0.15270000  1.0 0.1182643464
H  H4  1  0.18870000  0.66666667  0.42090000  1.0 0.1182643464
H  H5  1  0.38510000  0.98190000  0.49780000  1.0 0.1182643464
H  H6  1  0.48860000  0.96520000  0.64980000  1.0 0.1117847543
H  H7  1  0.30130000  0.64400000  0.56660000  1.0 0.129584752
H  H8  1  0.10160000  0.78360000  0.11980000  1.0 0.1182643464
H  H9  1  0.09050000  0.11050000  0.22240000  1.0 0.1117847543
H  H10  1  0.91020000  0.06960000  0.10820000  1.0 0.1182643464
H  H11  1  0.92230000  0.74270000  0.00350000  1.0 0.1182643464
H  H12  1  0.29000000  0.01280000  0.23280000  1.0 0.129584752
H  H13  1  0.23530000  0.04050000  0.32280000  1.0 0.1182643464
H  H14  1  0.14980000  0.76880000  0.30530000  1.0 0.1117847543
H  H15  1  0.15370000  0.89350000  0.36930000  1.0 0.1182643464
H  H16  1  0.53810000  0.38290000  0.91970000  1.0 0.1386063173
H  H17  1  0.71940000  0.32150000  0.71870000  1.0 0.1117847543
H  H18  1  0.63280000  0.08610000  0.84730000  1.0 0.1182643464
H  H19  1  0.81130000  0.33333333  0.57910000  1.0 0.1182643464
H  H20  1  0.61490000  0.01810000  0.50220000  1.0 0.1182643464
H  H21  1  0.51140000  0.03480000  0.35020000  1.0 0.1117847543
H  H22  1  0.69870000  0.35600000  0.43340000  1.0 0.129584752
H  H23  1  0.89840000  0.21640000  0.88020000  1.0 0.1182643464
H  H24  1  0.90950000  0.88950000  0.77760000  1.0 0.1117847543
H  H25  1  0.08980000  0.93040000  0.89180000  1.0 0.1182643464
H  H26  1  0.07770000  0.25730000  0.99650000  1.0 0.1182643464
H  H27  1  0.71000000  0.98720000  0.76720000  1.0 0.129584752
H  H28  1  0.76470000  0.95950000  0.67720000  1.0 0.1182643464
H  H29  1  0.85020000  0.23120000  0.69470000  1.0 0.1117847543
H  H30  1  0.84630000  0.10650000  0.63070000  1.0 0.1182643464
C  C1  1  0.47120000  0.80220000  0.02690000  1.0 0.6314733996
C  C2  1  0.42060000  0.76990000  0.10420000  1.0 -0.0104607479
C  C3  1  0.42400000  0.66450000  0.11610000  1.0 -0.1199860611
C  C4  1  0.37040000  0.63070000  0.18200000  1.0 -0.0104607479
C  C5  1  0.31690000  0.70290000  0.23800000  1.0 -0.2071839497
C  C6  1  0.36810000  0.84320000  0.16100000  1.0 -0.2163789794
C  C7  1  0.31670000  0.81180000  0.23040000  1.0 0.170645602
C  C8  1  0.27430000  0.82660000  0.44430000  1.0 0.0993267669
C  C9  1  0.24990000  0.72590000  0.46600000  1.0 -0.1612309553
C  C10  1  0.36620000  0.91520000  0.51300000  1.0 -0.1612309553
C  C11  1  0.42940000  0.90470000  0.60340000  1.0 -0.1019506436
C  C12  1  0.31610000  0.71300000  0.55450000  1.0 -0.0886188026
C  C13  1  0.11580000  0.95170000  0.18420000  1.0 0.1182643464
C  C14  1  0.06350000  0.84140000  0.11770000  1.0 -0.1524324343
C  C15  1  0.05670000  0.03610000  0.17900000  1.0 -0.1777408422
C  C16  1  0.36650000  0.51350000  0.19010000  1.0 0.6066745296
C  C17  1  0.77650000  0.87520000  0.97490000  1.0 0.6159142032
C  C18  1  0.89570000  0.90090000  0.04410000  1.0 -0.0512010754
C  C19  1  0.94830000  0.01170000  0.11030000  1.0 -0.0886188026
C  C20  1  0.95530000  0.81670000  0.04810000  1.0 -0.1019506436
C  C21  1  0.46990000  0.79220000  0.72300000  1.0 0.593414463
C  C22  1  0.40420000  0.80300000  0.62490000  1.0 -0.0341486484
C  C23  1  0.23360000  0.98150000  0.26130000  1.0 -0.1859115884
C  C24  1  0.20090000  0.84180000  0.34910000  1.0 -0.1777408422
C  C25  1  0.52880000  0.19780000  0.97310000  1.0 0.6314733996
C  C26  1  0.57940000  0.23010000  0.89580000  1.0 -0.0104607479
C  C27  1  0.57600000  0.33550000  0.88390000  1.0 -0.1199860611
C  C28  1  0.62960000  0.36930000  0.81800000  1.0 -0.0104607479
C  C29  1  0.68310000  0.29710000  0.76200000  1.0 -0.2071839497
C  C30  1  0.63190000  0.15680000  0.83900000  1.0 -0.2163789794
C  C31  1  0.68330000  0.18820000  0.76960000  1.0 0.170645602
C  C32  1  0.72570000  0.17340000  0.55570000  1.0 0.0993267669
C  C33  1  0.75010000  0.27410000  0.53400000  1.0 -0.1612309553
C  C34  1  0.63380000  0.08480000  0.48700000  1.0 -0.1612309553
C  C35  1  0.57060000  0.09530000  0.39660000  1.0 -0.1019506436
C  C36  1  0.68390000  0.28700000  0.44550000  1.0 -0.0886188026
C  C37  1  0.88420000  0.04830000  0.81580000  1.0 0.1182643464
C  C38  1  0.93650000  0.15860000  0.88230000  1.0 -0.1524324343
C  C39  1  0.94330000  0.96390000  0.82100000  1.0 -0.1777408422
C  C40  1  0.63350000  0.48650000  0.80990000  1.0 0.6066745296
C  C41  1  0.22350000  0.12480000  0.02510000  1.0 0.6159142032
C  C42  1  0.10430000  0.09910000  0.95590000  1.0 -0.0512010754
C  C43  1  0.05170000  0.98830000  0.88970000  1.0 -0.0886188026
C  C44  1  0.04470000  0.18330000  0.95190000  1.0 -0.1019506436
C  C45  1  0.53010000  0.20780000  0.27700000  1.0 0.593414463
C  C46  1  0.59580000  0.19700000  0.37510000  1.0 -0.0341486484
C  C47  1  0.76640000  0.01850000  0.73870000  1.0 -0.1859115884
C  C48  1  0.79910000  0.15820000  0.65090000  1.0 -0.1777408422
N  N1  1  0.26730000  0.88590000  0.29040000  1.0 -0.0886188026
N  N2  1  0.73270000  0.11410000  0.70960000  1.0 -0.0886188026
O  O1  1  0.73841000  0.77455000  0.90582000  1.0 -0.7013369129
O  O2  1  0.71920000  0.94690000  0.98824000  1.0 -0.6049723849
O  O3  1  0.43090000  0.45973000  0.15039000  1.0 -0.5402471051
O  O4  1  0.29820000  0.47400000  0.23100000  1.0 -0.6926328168
O  O5  1  0.51020000  0.72711000  0.97562000  1.0 -0.5684727953
O  O6  1  0.47091000  0.89798000  0.01594000  1.0 -0.7060880885
O  O7  1  0.47130000  0.69220000  0.72602000  1.0 -0.5684727953
O  O8  1  0.51970000  0.87960000  0.79765000  1.0 -0.6630819068
O  O9  1  0.26159000  0.22545000  0.09418000  1.0 -0.7013369129
O  O10  1  0.28080000  0.05310000  0.01176000  1.0 -0.6049723849
O  O11  1  0.56910000  0.54027000  0.84961000  1.0 -0.5402471051
O  O12  1  0.70180000  0.52600000  0.76900000  1.0 -0.6926328168
O  O13  1  0.48980000  0.27289000  0.02438000  1.0 -0.5684727953
O  O14  1  0.52909000  0.10202000  0.98406000  1.0 -0.7060880885
O  O15  1  0.52870000  0.30780000  0.27398000  1.0 -0.5684727953
O  O16  1  0.48030000  0.12040000  0.20235000  1.0 -0.6630819068
