# DDEC6 charges by PACMAN v1.1 (https://github.com/mtap-research/PACMAN-charge/)
data_NIJZOV_ASR_pacman
_symmetry_space_group_name_H-M   'P 1'
_cell_length_a   14.51600000
_cell_length_b   14.51600000
_cell_length_c   15.27900000
_cell_angle_alpha   90.00000000
_cell_angle_beta   90.00000000
_cell_angle_gamma   120.00000000
_symmetry_Int_Tables_number   1
_chemical_formula_structural   Er5Cu3(C4O5)6
_chemical_formula_sum   'Er10 Cu6 C48 O60'
_cell_volume   2788.17148725
_cell_formula_units_Z   2
loop_
 _symmetry_equiv_pos_site_id
 _symmetry_equiv_pos_as_xyz
  1  'x, y, z'
loop_
 _atom_site_type_symbol
 _atom_site_label
 _atom_site_symmetry_multiplicity
 _atom_site_fract_x
 _atom_site_fract_y
 _atom_site_fract_z
 _atom_site_occupancy
 _atom_site_charge
Er  Er1  1  0.33300000  0.66700000  0.25000000  1.0 2.0301802521
Er  Er2  1  0.66600000  0.33300000  0.25000000  1.0 2.0228342896
Er  Er3  1  0.33300000  0.66600000  0.25000000  1.0 2.0301802521
Er  Er4  1  0.66700000  0.33300000  0.25000000  1.0 2.0228342896
Er  Er5  1  0.66700000  0.33400000  0.25000000  1.0 2.0301802521
Er  Er6  1  0.66700000  0.33300000  0.75000000  1.0 2.0228342896
Er  Er7  1  0.33400000  0.66700000  0.75000000  1.0 2.0301802521
Er  Er8  1  0.66700000  0.33400000  0.75000000  1.0 2.0228342896
Er  Er9  1  0.66600000  0.33300000  0.75000000  1.0 2.0228342896
Er  Er10  1  0.33300000  0.66600000  0.75000000  1.0 2.0301802521
Cu  Cu1  1  0.50000000  0.00000000  0.50000000  1.0 0.8961346751
Cu  Cu2  1  0.50000000  0.50000000  0.50000000  1.0 0.8927949553
Cu  Cu3  1  0.00000000  0.50000000  0.00000000  1.0 0.8961346751
Cu  Cu4  1  0.00000000  0.50000000  0.50000000  1.0 0.8961346751
Cu  Cu5  1  0.50000000  0.00000000  0.00000000  1.0 0.8961346751
Cu  Cu6  1  0.50000000  0.50000000  0.00000000  1.0 0.8961346751
C  C1  1  0.26290000  0.85160000  0.30570000  1.0 -0.0351818736
C  C2  1  0.41130000  0.26290000  0.30570000  1.0 -0.0762969807
C  C3  1  0.14840000  0.73710000  0.19430000  1.0 -0.0338610409
C  C4  1  0.14840000  0.41130000  0.30570000  1.0 -0.0338610409
C  C5  1  0.41130000  0.14840000  0.19430000  1.0 -0.0762969807
C  C6  1  0.73710000  0.14840000  0.30570000  1.0 -0.0762969807
C  C7  1  0.26290000  0.41130000  0.19430000  1.0 -0.0338610409
C  C8  1  0.58870000  0.73710000  0.30570000  1.0 -0.0338610409
C  C9  1  0.85160000  0.26290000  0.19430000  1.0 -0.0762969807
C  C10  1  0.85160000  0.58870000  0.30570000  1.0 -0.0762969807
C  C11  1  0.58870000  0.85160000  0.19430000  1.0 -0.0338610409
C  C12  1  0.73710000  0.58870000  0.19430000  1.0 -0.0762969807
C  C13  1  0.73710000  0.14840000  0.69430000  1.0 -0.0762969807
C  C14  1  0.58870000  0.73710000  0.69430000  1.0 -0.0338610409
C  C15  1  0.85160000  0.26290000  0.80570000  1.0 -0.0762969807
C  C16  1  0.85160000  0.58870000  0.69430000  1.0 -0.0762969807
C  C17  1  0.58870000  0.85160000  0.80570000  1.0 -0.0351818736
C  C18  1  0.26290000  0.85160000  0.69430000  1.0 -0.0338610409
C  C19  1  0.73710000  0.58870000  0.80570000  1.0 -0.0762969807
C  C20  1  0.41130000  0.26290000  0.69430000  1.0 -0.0762969807
C  C21  1  0.14840000  0.73710000  0.80570000  1.0 -0.0338610409
C  C22  1  0.14840000  0.41130000  0.69430000  1.0 -0.0338610409
C  C23  1  0.41130000  0.14840000  0.80570000  1.0 -0.0762969807
C  C24  1  0.26290000  0.41130000  0.80570000  1.0 -0.0338610409
C  C25  1  0.35410000  0.86780000  0.36190000  1.0 0.5804363574
C  C26  1  0.48630000  0.35410000  0.36190000  1.0 0.5631868129
C  C27  1  0.13220000  0.64590000  0.13810000  1.0 0.5804363574
C  C28  1  0.13220000  0.48630000  0.36190000  1.0 0.5804363574
C  C29  1  0.48630000  0.13220000  0.13810000  1.0 0.5631868129
C  C30  1  0.64590000  0.13220000  0.36190000  1.0 0.5631868129
C  C31  1  0.35410000  0.48630000  0.13810000  1.0 0.5804363574
C  C32  1  0.51370000  0.64590000  0.36190000  1.0 0.5804363574
C  C33  1  0.86780000  0.35410000  0.13810000  1.0 0.5631868129
C  C34  1  0.86780000  0.51370000  0.36190000  1.0 0.5631868129
C  C35  1  0.51370000  0.86780000  0.13810000  1.0 0.5804363574
C  C36  1  0.64590000  0.51370000  0.13810000  1.0 0.5631868129
C  C37  1  0.64590000  0.13220000  0.63810000  1.0 0.5631868129
C  C38  1  0.51370000  0.64590000  0.63810000  1.0 0.5804363574
C  C39  1  0.86780000  0.35410000  0.86190000  1.0 0.5631868129
C  C40  1  0.86780000  0.51370000  0.63810000  1.0 0.5631868129
C  C41  1  0.51370000  0.86780000  0.86190000  1.0 0.5804363574
C  C42  1  0.35410000  0.86780000  0.63810000  1.0 0.5804363574
C  C43  1  0.64590000  0.51370000  0.86190000  1.0 0.5631868129
C  C44  1  0.48630000  0.35410000  0.63810000  1.0 0.5631868129
C  C45  1  0.13220000  0.64590000  0.86190000  1.0 0.5804363574
C  C46  1  0.13220000  0.48630000  0.63810000  1.0 0.5804363574
C  C47  1  0.48630000  0.13220000  0.86190000  1.0 0.5631868129
C  C48  1  0.35410000  0.48630000  0.86190000  1.0 0.5804363574
O  O1  1  0.23720000  0.76280000  0.25000000  1.0 -0.4775998349
O  O2  1  0.47440000  0.23720000  0.25000000  1.0 -0.6731514647
O  O3  1  0.23720000  0.47440000  0.25000000  1.0 -0.4775998349
O  O4  1  0.76280000  0.23720000  0.25000000  1.0 -0.6731514647
O  O5  1  0.52560000  0.76280000  0.25000000  1.0 -0.4775998349
O  O6  1  0.76280000  0.52560000  0.25000000  1.0 -0.6731514647
O  O7  1  0.76280000  0.23720000  0.75000000  1.0 -0.6731514647
O  O8  1  0.52560000  0.76280000  0.75000000  1.0 -0.4775998349
O  O9  1  0.76280000  0.52560000  0.75000000  1.0 -0.6731514647
O  O10  1  0.23720000  0.76280000  0.75000000  1.0 -0.4732636924
O  O11  1  0.47440000  0.23720000  0.75000000  1.0 -0.6731514647
O  O12  1  0.23720000  0.47440000  0.75000000  1.0 -0.4775998349
O  O13  1  0.38750000  0.80310000  0.35530000  1.0 -0.7794718956
O  O14  1  0.58440000  0.38750000  0.35530000  1.0 -0.8960563903
O  O15  1  0.19690000  0.61250000  0.14470000  1.0 -0.7794718956
O  O16  1  0.19690000  0.58440000  0.35530000  1.0 -0.7794718956
O  O17  1  0.58440000  0.19690000  0.14470000  1.0 -0.8960563903
O  O18  1  0.61250000  0.19690000  0.35530000  1.0 -0.8960563903
O  O19  1  0.38750000  0.58440000  0.14470000  1.0 -0.7794718956
O  O20  1  0.41560000  0.61250000  0.35530000  1.0 -0.7794718956
O  O21  1  0.80310000  0.38750000  0.14470000  1.0 -0.8960563903
O  O22  1  0.80310000  0.41560000  0.35530000  1.0 -0.8960563903
O  O23  1  0.41560000  0.80310000  0.14470000  1.0 -0.7794718956
O  O24  1  0.61250000  0.41560000  0.14470000  1.0 -0.8960563903
O  O25  1  0.61250000  0.19690000  0.64470000  1.0 -0.8960563903
O  O26  1  0.41560000  0.61250000  0.64470000  1.0 -0.7794718956
O  O27  1  0.80310000  0.38750000  0.85530000  1.0 -0.8960563903
O  O28  1  0.80310000  0.41560000  0.64470000  1.0 -0.8960563903
O  O29  1  0.41560000  0.80310000  0.85530000  1.0 -0.7794718956
O  O30  1  0.38750000  0.80310000  0.64470000  1.0 -0.7794718956
O  O31  1  0.61250000  0.41560000  0.85530000  1.0 -0.8960563903
O  O32  1  0.58440000  0.38750000  0.64470000  1.0 -0.8960563903
O  O33  1  0.19690000  0.61250000  0.85530000  1.0 -0.7794718956
O  O34  1  0.19690000  0.58440000  0.64470000  1.0 -0.7794718956
O  O35  1  0.58440000  0.19690000  0.85530000  1.0 -0.8960563903
O  O36  1  0.38750000  0.58440000  0.85530000  1.0 -0.7794718956
O  O37  1  0.38910000  0.94600000  0.41140000  1.0 -0.4732636924
O  O38  1  0.44310000  0.38910000  0.41140000  1.0 -0.4459838137
O  O39  1  0.05400000  0.61090000  0.08860000  1.0 -0.4732636924
O  O40  1  0.05400000  0.44310000  0.41140000  1.0 -0.4732636924
O  O41  1  0.44310000  0.05400000  0.08860000  1.0 -0.4459838137
O  O42  1  0.61090000  0.05400000  0.41140000  1.0 -0.4459838137
O  O43  1  0.38910000  0.44310000  0.08860000  1.0 -0.4732636924
O  O44  1  0.55690000  0.61090000  0.41140000  1.0 -0.4732636924
O  O45  1  0.94600000  0.38910000  0.08860000  1.0 -0.4459838137
O  O46  1  0.94600000  0.55690000  0.41140000  1.0 -0.4459838137
O  O47  1  0.55690000  0.94600000  0.08860000  1.0 -0.4732636924
O  O48  1  0.61090000  0.55690000  0.08860000  1.0 -0.4459838137
O  O49  1  0.61090000  0.05400000  0.58860000  1.0 -0.4459838137
O  O50  1  0.55690000  0.61090000  0.58860000  1.0 -0.4732636924
O  O51  1  0.94600000  0.38910000  0.91140000  1.0 -0.4459838137
O  O52  1  0.94600000  0.55690000  0.58860000  1.0 -0.4459838137
O  O53  1  0.55690000  0.94600000  0.91140000  1.0 -0.4732636924
O  O54  1  0.38910000  0.94600000  0.58860000  1.0 -0.4732636924
O  O55  1  0.61090000  0.55690000  0.91140000  1.0 -0.4459838137
O  O56  1  0.44310000  0.38910000  0.58860000  1.0 -0.4459838137
O  O57  1  0.05400000  0.61090000  0.91140000  1.0 -0.4732636924
O  O58  1  0.05400000  0.44310000  0.58860000  1.0 -0.4732636924
O  O59  1  0.44310000  0.05400000  0.91140000  1.0 -0.4459838137
O  O60  1  0.38910000  0.44310000  0.91140000  1.0 -0.4732636924
