# DDEC6 charges by PACMAN v1.1 (https://github.com/mtap-research/PACMAN-charge/)
data_NIKJOH_ASR_pacman
_symmetry_space_group_name_H-M   'P 1'
_cell_length_a   16.15960000
_cell_length_b   16.15960000
_cell_length_c   31.23270000
_cell_angle_alpha   80.04530000
_cell_angle_beta   99.95470000
_cell_angle_gamma   83.68560000
_symmetry_Int_Tables_number   1
_chemical_formula_structural   Sm2H42C73N6O17
_chemical_formula_sum   'Sm8 H168 C292 N24 O68'
_cell_volume   7829.48297662
_cell_formula_units_Z   4
loop_
 _symmetry_equiv_pos_site_id
 _symmetry_equiv_pos_as_xyz
  1  'x, y, z'
loop_
 _atom_site_type_symbol
 _atom_site_label
 _atom_site_symmetry_multiplicity
 _atom_site_fract_x
 _atom_site_fract_y
 _atom_site_fract_z
 _atom_site_occupancy
 _atom_site_charge
Sm  Sm1  1  0.85603000  0.68479000  0.80073000  1.0 2.1319081873
Sm  Sm2  1  0.68479000  0.85603000  0.69927000  1.0 2.1319081873
Sm  Sm3  1  0.14397000  0.31521000  0.19927000  1.0 2.1319081873
Sm  Sm4  1  0.31521000  0.14397000  0.30073000  1.0 2.1319081873
Sm  Sm5  1  0.51744000  0.86272000  0.58687000  1.0 1.604542622
Sm  Sm6  1  0.86272000  0.51744000  0.91313000  1.0 1.6073373645
Sm  Sm7  1  0.48256000  0.13728000  0.41313000  1.0 1.6073373645
Sm  Sm8  1  0.13728000  0.48256000  0.08687000  1.0 1.604542622
H  H1  1  0.12920000  0.47900000  0.43060000  1.0 0.1280497663
H  H2  1  0.47900000  0.12920000  0.06940000  1.0 0.1280497663
H  H3  1  0.87080000  0.52100000  0.56940000  1.0 0.1280497663
H  H4  1  0.52100000  0.87080000  0.93060000  1.0 0.1280497663
H  H5  1  0.18280000  0.56440000  0.48420000  1.0 0.1206924132
H  H6  1  0.56440000  0.18280000  0.01580000  1.0 0.1206924132
H  H7  1  0.81720000  0.43560000  0.51580000  1.0 0.1206924132
H  H8  1  0.43560000  0.81720000  0.98420000  1.0 0.1206924132
H  H9  1  0.22090000  0.51370000  0.66350000  1.0 0.1206924132
H  H10  1  0.51370000  0.22090000  0.83650000  1.0 0.1206924132
H  H11  1  0.77910000  0.48630000  0.33650000  1.0 0.1206924132
H  H12  1  0.48630000  0.77910000  0.16350000  1.0 0.1206924132
H  H13  1  0.13610000  0.45210000  0.71570000  1.0 0.1206924132
H  H14  1  0.45210000  0.13610000  0.78430000  1.0 0.1206924132
H  H15  1  0.86390000  0.54790000  0.28430000  1.0 0.1206924132
H  H16  1  0.54790000  0.86390000  0.21570000  1.0 0.1206924132
H  H17  1  0.85480000  0.29800000  0.69420000  1.0 0.1206924132
H  H18  1  0.29800000  0.85480000  0.80580000  1.0 0.1206924132
H  H19  1  0.14520000  0.70200000  0.30580000  1.0 0.1206924132
H  H20  1  0.70200000  0.14520000  0.19420000  1.0 0.1206924132
H  H21  1  0.80250000  0.20950000  0.64090000  1.0 0.1206924132
H  H22  1  0.20950000  0.80250000  0.85910000  1.0 0.1206924132
H  H23  1  0.19750000  0.79050000  0.35910000  1.0 0.1206924132
H  H24  1  0.79050000  0.19750000  0.14090000  1.0 0.1206924132
H  H25  1  0.89490000  0.13230000  0.49460000  1.0 0.1206924132
H  H26  1  0.13230000  0.89490000  0.00540000  1.0 0.1206924132
H  H27  1  0.10510000  0.86770000  0.50540000  1.0 0.1206924132
H  H28  1  0.86770000  0.10510000  0.99460000  1.0 0.1206924132
H  H29  1  0.97480000  0.19880000  0.44080000  1.0 0.1206924132
H  H30  1  0.19880000  0.97480000  0.05920000  1.0 0.1206924132
H  H31  1  0.02520000  0.80120000  0.55920000  1.0 0.1206924132
H  H32  1  0.80120000  0.02520000  0.94080000  1.0 0.1206924132
H  H33  1  0.06200000  0.38960000  0.54580000  1.0 0.2685676307
H  H34  1  0.38960000  0.06200000  0.95420000  1.0 0.2685676307
H  H35  1  0.93800000  0.61040000  0.45420000  1.0 0.2685676307
H  H36  1  0.61040000  0.93800000  0.04580000  1.0 0.2685676307
H  H37  1  0.98630000  0.32830000  0.59510000  1.0 0.2628777117
H  H38  1  0.32830000  0.98630000  0.90490000  1.0 0.2628777117
H  H39  1  0.01370000  0.67170000  0.40490000  1.0 0.2628777117
H  H40  1  0.67170000  0.01370000  0.09510000  1.0 0.2628777117
H  H41  1  0.31240000  0.50020000  0.54730000  1.0 0.1115691172
H  H42  1  0.50020000  0.31240000  0.95270000  1.0 0.1115691172
H  H43  1  0.68760000  0.49980000  0.45270000  1.0 0.1115691172
H  H44  1  0.49980000  0.68760000  0.04730000  1.0 0.1115691172
H  H45  1  0.41190000  0.59650000  0.55130000  1.0 0.1115691172
H  H46  1  0.59650000  0.41190000  0.94870000  1.0 0.1115691172
H  H47  1  0.58810000  0.40350000  0.44870000  1.0 0.1115691172
H  H48  1  0.40350000  0.58810000  0.05130000  1.0 0.1115691172
H  H49  1  0.25670000  0.74210000  0.60730000  1.0 0.1115691172
H  H50  1  0.74210000  0.25670000  0.89270000  1.0 0.1115691172
H  H51  1  0.74330000  0.25790000  0.39270000  1.0 0.1115691172
H  H52  1  0.25790000  0.74330000  0.10730000  1.0 0.1115691172
H  H53  1  0.15800000  0.64720000  0.60130000  1.0 0.1206924132
H  H54  1  0.64720000  0.15800000  0.89870000  1.0 0.1206924132
H  H55  1  0.84200000  0.35280000  0.39870000  1.0 0.1206924132
H  H56  1  0.35280000  0.84200000  0.10130000  1.0 0.1206924132
H  H57  1  0.86310000  0.46690000  0.69130000  1.0 0.1115691172
H  H58  1  0.46690000  0.86310000  0.80870000  1.0 0.1115691172
H  H59  1  0.13690000  0.53310000  0.30870000  1.0 0.1115691172
H  H60  1  0.53310000  0.13690000  0.19130000  1.0 0.1115691172
H  H61  1  0.83100000  0.50300000  0.75600000  1.0 0.1206924132
H  H62  1  0.50300000  0.83100000  0.74400000  1.0 0.1206924132
H  H63  1  0.16900000  0.49700000  0.24400000  1.0 0.1206924132
H  H64  1  0.49700000  0.16900000  0.25600000  1.0 0.1206924132
H  H65  1  0.05210000  0.35990000  0.82480000  1.0 0.1016399806
H  H66  1  0.35990000  0.05210000  0.67520000  1.0 0.1016399806
H  H67  1  0.94790000  0.64010000  0.17520000  1.0 0.1115691172
H  H68  1  0.64010000  0.94790000  0.32480000  1.0 0.1115691172
H  H69  1  0.08440000  0.32620000  0.75940000  1.0 0.1115691172
H  H70  1  0.32620000  0.08440000  0.74060000  1.0 0.1115691172
H  H71  1  0.91560000  0.67380000  0.24060000  1.0 0.1115691172
H  H72  1  0.67380000  0.91560000  0.25940000  1.0 0.1115691172
H  H73  1  0.91610000  0.04990000  0.60980000  1.0 0.1206924132
H  H74  1  0.04990000  0.91610000  0.89020000  1.0 0.1206924132
H  H75  1  0.08390000  0.95010000  0.39020000  1.0 0.1206924132
H  H76  1  0.95010000  0.08390000  0.10980000  1.0 0.1206924132
H  H77  1  0.81870000  0.95550000  0.62210000  1.0 0.1206924132
H  H78  1  0.95550000  0.81870000  0.87790000  1.0 0.1206924132
H  H79  1  0.18130000  0.04450000  0.37790000  1.0 0.1206924132
H  H80  1  0.04450000  0.18130000  0.12210000  1.0 0.1206924132
H  H81  1  0.62980000  0.12540000  0.54240000  1.0 0.1115691172
H  H82  1  0.12540000  0.62980000  0.95760000  1.0 0.1115691172
H  H83  1  0.37020000  0.87460000  0.45760000  1.0 0.1115691172
H  H84  1  0.87460000  0.37020000  0.04240000  1.0 0.1115691172
H  H85  1  0.72550000  0.21910000  0.52900000  1.0 0.1206924132
H  H86  1  0.21910000  0.72550000  0.97100000  1.0 0.1115691172
H  H87  1  0.27450000  0.78090000  0.47100000  1.0 0.1206924132
H  H88  1  0.78090000  0.27450000  0.02900000  1.0 0.1206924132
H  H89  1  0.16340000  0.22460000  0.44690000  1.0 0.1016399806
H  H90  1  0.22460000  0.16340000  0.05310000  1.0 0.1016399806
H  H91  1  0.83660000  0.77540000  0.55310000  1.0 0.1016399806
H  H92  1  0.77540000  0.83660000  0.94690000  1.0 0.1016399806
H  H93  1  0.20100000  0.20960000  0.37990000  1.0 0.1016399806
H  H94  1  0.20960000  0.20100000  0.12010000  1.0 0.1016399806
H  H95  1  0.79900000  0.79040000  0.62010000  1.0 0.1016399806
H  H96  1  0.79040000  0.79900000  0.87990000  1.0 0.1016399806
H  H97  1  0.02070000  0.40830000  0.31620000  1.0 0.1115691172
H  H98  1  0.40830000  0.02070000  0.18380000  1.0 0.1115691172
H  H99  1  0.97930000  0.59170000  0.68380000  1.0 0.1115691172
H  H100  1  0.59170000  0.97930000  0.81620000  1.0 0.1115691172
H  H101  1  0.98370000  0.42230000  0.38340000  1.0 0.1115691172
H  H102  1  0.42230000  0.98370000  0.11660000  1.0 0.1115691172
H  H103  1  0.01630000  0.57770000  0.61660000  1.0 0.1115691172
H  H104  1  0.57770000  0.01630000  0.88340000  1.0 0.1115691172
H  H105  1  0.08110000  0.09470000  0.83460000  1.0 0.1280497663
H  H106  1  0.09470000  0.08110000  0.66540000  1.0 0.1280497663
H  H107  1  0.91890000  0.90530000  0.16540000  1.0 0.1280497663
H  H108  1  0.90530000  0.91890000  0.33460000  1.0 0.1280497663
H  H109  1  0.14090000  0.18150000  0.88700000  1.0 0.1368248552
H  H110  1  0.18150000  0.14090000  0.61300000  1.0 0.1368248552
H  H111  1  0.85910000  0.81850000  0.11300000  1.0 0.1368248552
H  H112  1  0.81850000  0.85910000  0.38700000  1.0 0.1368248552
H  H113  1  0.35560000  0.40860000  0.88610000  1.0 0.1280497663
H  H114  1  0.40860000  0.35560000  0.61390000  1.0 0.1280497663
H  H115  1  0.64440000  0.59140000  0.11390000  1.0 0.1280497663
H  H116  1  0.59140000  0.64440000  0.38610000  1.0 0.1280497663
H  H117  1  0.44580000  0.46400000  0.83310000  1.0 0.1280497663
H  H118  1  0.46400000  0.44580000  0.66690000  1.0 0.1280497663
H  H119  1  0.55420000  0.53600000  0.16690000  1.0 0.1280497663
H  H120  1  0.53600000  0.55420000  0.33310000  1.0 0.1280497663
H  H121  1  0.13550000  0.97210000  0.79960000  1.0 0.1115691172
H  H122  1  0.97210000  0.13550000  0.70040000  1.0 0.1115691172
H  H123  1  0.86450000  0.02790000  0.20040000  1.0 0.1115691172
H  H124  1  0.02790000  0.86450000  0.29960000  1.0 0.1115691172
H  H125  1  0.04180000  0.87300000  0.79830000  1.0 0.1115691172
H  H126  1  0.87300000  0.04180000  0.70170000  1.0 0.1115691172
H  H127  1  0.95820000  0.12700000  0.20170000  1.0 0.1115691172
H  H128  1  0.12700000  0.95820000  0.29830000  1.0 0.1115691172
H  H129  1  0.14800000  0.41460000  0.87150000  1.0 0.1206924132
H  H130  1  0.41460000  0.14800000  0.62850000  1.0 0.1206924132
H  H131  1  0.85200000  0.58540000  0.12850000  1.0 0.1206924132
H  H132  1  0.58540000  0.85200000  0.37150000  1.0 0.1206924132
H  H133  1  0.12390000  0.44890000  0.93820000  1.0 0.1206924132
H  H134  1  0.44890000  0.12390000  0.56180000  1.0 0.1206924132
H  H135  1  0.87610000  0.55110000  0.06180000  1.0 0.1206924132
H  H136  1  0.55110000  0.87610000  0.43820000  1.0 0.1206924132
H  H137  1  0.29660000  0.25340000  0.00450000  1.0 0.1016399806
H  H138  1  0.25340000  0.29660000  0.49550000  1.0 0.1016399806
H  H139  1  0.70340000  0.74660000  0.99550000  1.0 0.1016399806
H  H140  1  0.74660000  0.70340000  0.50450000  1.0 0.1016399806
H  H141  1  0.31860000  0.21540000  0.93880000  1.0 0.1206924132
H  H142  1  0.21540000  0.31860000  0.56120000  1.0 0.1206924132
H  H143  1  0.68140000  0.78460000  0.06120000  1.0 0.1206924132
H  H144  1  0.78460000  0.68140000  0.43880000  1.0 0.1206924132
H  H145  1  0.57840000  0.39640000  0.79080000  1.0 0.1115691172
H  H146  1  0.39640000  0.57840000  0.70920000  1.0 0.1115691172
H  H147  1  0.42160000  0.60360000  0.20920000  1.0 0.1115691172
H  H148  1  0.60360000  0.42160000  0.29080000  1.0 0.1115691172
H  H149  1  0.67610000  0.49670000  0.79040000  1.0 0.1115691172
H  H150  1  0.49670000  0.67610000  0.70960000  1.0 0.1115691172
H  H151  1  0.32390000  0.50330000  0.20960000  1.0 0.1115691172
H  H152  1  0.50330000  0.32390000  0.29040000  1.0 0.1115691172
H  H153  1  0.58990000  0.71370000  0.65500000  1.0 0.3875780195
H  H154  1  0.71370000  0.58990000  0.84500000  1.0 0.3875780195
H  H155  1  0.41010000  0.28630000  0.34500000  1.0 0.3875780195
H  H156  1  0.28630000  0.41010000  0.15500000  1.0 0.3875780195
H  H157  1  0.64270000  0.71070000  0.61810000  1.0 0.3793679044
H  H158  1  0.71070000  0.64270000  0.88190000  1.0 0.3793679044
H  H159  1  0.35730000  0.28930000  0.38190000  1.0 0.3793679044
H  H160  1  0.28930000  0.35730000  0.11810000  1.0 0.3793679044
H  H161  1  0.23800000  0.23460000  0.77650000  1.0 0.2141796216
H  H162  1  0.23460000  0.23800000  0.72350000  1.0 0.2141796216
H  H163  1  0.76200000  0.76540000  0.22350000  1.0 0.2141796216
H  H164  1  0.76540000  0.76200000  0.27650000  1.0 0.2141796216
H  H165  1  0.30250000  0.31290000  0.77470000  1.0 0.2179376871
H  H166  1  0.31290000  0.30250000  0.72530000  1.0 0.2179376871
H  H167  1  0.69750000  0.68710000  0.22530000  1.0 0.2179376871
H  H168  1  0.68710000  0.69750000  0.27470000  1.0 0.2179376871
C  C1  1  0.08250000  0.40790000  0.48330000  1.0 0.1687111971
C  C2  1  0.40790000  0.08250000  0.01670000  1.0 0.1687111971
C  C3  1  0.91750000  0.59210000  0.51670000  1.0 0.1687111971
C  C4  1  0.59210000  0.91750000  0.98330000  1.0 0.1687111971
C  C5  1  0.12390000  0.47110000  0.46090000  1.0 -0.1895320693
C  C6  1  0.47110000  0.12390000  0.03910000  1.0 -0.1895320693
C  C7  1  0.87610000  0.52890000  0.53910000  1.0 -0.1895320693
C  C8  1  0.52890000  0.87610000  0.96090000  1.0 -0.1895320693
C  C9  1  0.15370000  0.51690000  0.49000000  1.0 -0.1895320693
C  C10  1  0.51690000  0.15370000  0.01000000  1.0 -0.1895320693
C  C11  1  0.84630000  0.48310000  0.51000000  1.0 -0.1895320693
C  C12  1  0.48310000  0.84630000  0.99000000  1.0 -0.1895320693
C  C13  1  0.13380000  0.48140000  0.53210000  1.0 0.1599093672
C  C14  1  0.48140000  0.13380000  0.96790000  1.0 0.1599093672
C  C15  1  0.86620000  0.51860000  0.46790000  1.0 0.1599093672
C  C16  1  0.51860000  0.86620000  0.03210000  1.0 0.1599093672
C  C17  1  0.16460000  0.50160000  0.57300000  1.0 -0.0894340369
C  C18  1  0.50160000  0.16460000  0.92700000  1.0 -0.0894340369
C  C19  1  0.83540000  0.49840000  0.42700000  1.0 -0.0894340369
C  C20  1  0.49840000  0.83540000  0.07300000  1.0 -0.0894340369
C  C21  1  0.14110000  0.46770000  0.61310000  1.0 0.1687111971
C  C22  1  0.46770000  0.14110000  0.88690000  1.0 0.1687111971
C  C23  1  0.85890000  0.53230000  0.38690000  1.0 0.1687111971
C  C24  1  0.53230000  0.85890000  0.11310000  1.0 0.1687111971
C  C25  1  0.17440000  0.48400000  0.65650000  1.0 -0.2093166931
C  C26  1  0.48400000  0.17440000  0.84350000  1.0 -0.2093166931
C  C27  1  0.82560000  0.51600000  0.34350000  1.0 -0.2093166931
C  C28  1  0.51600000  0.82560000  0.15650000  1.0 -0.2093166931
C  C29  1  0.12840000  0.45040000  0.68500000  1.0 -0.2093166931
C  C30  1  0.45040000  0.12840000  0.81500000  1.0 -0.2093166931
C  C31  1  0.87160000  0.54960000  0.31500000  1.0 -0.2093166931
C  C32  1  0.54960000  0.87160000  0.18500000  1.0 -0.2093166931
C  C33  1  0.06520000  0.41120000  0.66040000  1.0 0.1599093672
C  C34  1  0.41120000  0.06520000  0.83960000  1.0 0.1599093672
C  C35  1  0.93480000  0.58880000  0.33960000  1.0 0.1599093672
C  C36  1  0.58880000  0.93480000  0.16040000  1.0 0.1599093672
C  C37  1  0.99760000  0.37820000  0.67519000  1.0 -0.0894340369
C  C38  1  0.37820000  0.99760000  0.82481000  1.0 -0.0894340369
C  C39  1  0.00240000  0.62180000  0.32481000  1.0 -0.0894340369
C  C40  1  0.62180000  0.00240000  0.17519000  1.0 -0.0894340369
C  C41  1  0.94250000  0.33130000  0.65230000  1.0 0.1599093672
C  C42  1  0.33130000  0.94250000  0.84770000  1.0 0.1599093672
C  C43  1  0.05750000  0.66870000  0.34770000  1.0 0.1599093672
C  C44  1  0.66870000  0.05750000  0.15230000  1.0 0.1599093672
C  C45  1  0.87520000  0.29160000  0.66807000  1.0 -0.2150635928
C  C46  1  0.29160000  0.87520000  0.83193000  1.0 -0.2150635928
C  C47  1  0.12480000  0.70840000  0.33193000  1.0 -0.2150635928
C  C48  1  0.70840000  0.12480000  0.16807000  1.0 -0.2150635928
C  C49  1  0.84630000  0.24370000  0.63895000  1.0 -0.200950025
C  C50  1  0.24370000  0.84630000  0.86105000  1.0 -0.200950025
C  C51  1  0.15370000  0.75630000  0.36105000  1.0 -0.200950025
C  C52  1  0.75630000  0.15370000  0.13895000  1.0 -0.200950025
C  C53  1  0.89500000  0.25480000  0.60411000  1.0 0.1687111971
C  C54  1  0.25480000  0.89500000  0.89589000  1.0 0.1687111971
C  C55  1  0.10500000  0.74520000  0.39589000  1.0 0.1687111971
C  C56  1  0.74520000  0.10500000  0.10411000  1.0 0.1687111971
C  C57  1  0.88740000  0.21220000  0.56850000  1.0 -0.0894340369
C  C58  1  0.21220000  0.88740000  0.93150000  1.0 -0.0994318502
C  C59  1  0.11260000  0.78780000  0.43150000  1.0 -0.0994318502
C  C60  1  0.78780000  0.11260000  0.06850000  1.0 -0.0894340369
C  C61  1  0.93000000  0.22460000  0.53310000  1.0 0.1799534376
C  C62  1  0.22460000  0.93000000  0.96690000  1.0 0.1799534376
C  C63  1  0.07000000  0.77540000  0.46690000  1.0 0.1799534376
C  C64  1  0.77540000  0.07000000  0.03310000  1.0 0.1799534376
C  C65  1  0.92460000  0.17920000  0.49720000  1.0 -0.200950025
C  C66  1  0.17920000  0.92460000  0.00280000  1.0 -0.200950025
C  C67  1  0.07540000  0.82080000  0.50280000  1.0 -0.200950025
C  C68  1  0.82080000  0.07540000  0.99720000  1.0 -0.200950025
C  C69  1  0.96870000  0.21470000  0.46810000  1.0 -0.1895320693
C  C70  1  0.21470000  0.96870000  0.03190000  1.0 -0.1895320693
C  C71  1  0.03130000  0.78530000  0.53190000  1.0 -0.1895320693
C  C72  1  0.78530000  0.03130000  0.96810000  1.0 -0.1895320693
C  C73  1  0.00540000  0.28240000  0.48657000  1.0 0.1799534376
C  C74  1  0.28240000  0.00540000  0.01343000  1.0 0.1687111971
C  C75  1  0.99460000  0.71760000  0.51343000  1.0 0.1687111971
C  C76  1  0.71760000  0.99460000  0.98657000  1.0 0.1799534376
C  C77  1  0.05110000  0.33970000  0.46558000  1.0 -0.0801994078
C  C78  1  0.33970000  0.05110000  0.03442000  1.0 -0.0801994078
C  C79  1  0.94890000  0.66030000  0.53442000  1.0 -0.0801994078
C  C80  1  0.66030000  0.94890000  0.96558000  1.0 -0.0801994078
C  C81  1  0.22580000  0.56440000  0.57510000  1.0 0.0893749684
C  C82  1  0.56440000  0.22580000  0.92490000  1.0 0.0893749684
C  C83  1  0.77420000  0.43560000  0.42490000  1.0 0.0893749684
C  C84  1  0.43560000  0.77420000  0.07510000  1.0 0.0893749684
C  C85  1  0.30130000  0.54930000  0.55940000  1.0 -0.1512369013
C  C86  1  0.54930000  0.30130000  0.94060000  1.0 -0.1512369013
C  C87  1  0.69870000  0.45070000  0.44060000  1.0 -0.1512369013
C  C88  1  0.45070000  0.69870000  0.05940000  1.0 -0.1512369013
C  C89  1  0.36060000  0.60680000  0.56180000  1.0 -0.1076780004
C  C90  1  0.60680000  0.36060000  0.93820000  1.0 -0.1076780004
C  C91  1  0.63940000  0.39320000  0.43820000  1.0 -0.1076780004
C  C92  1  0.39320000  0.63940000  0.06180000  1.0 -0.1076780004
C  C93  1  0.34330000  0.68050000  0.57990000  1.0 -0.0725700915
C  C94  1  0.68050000  0.34330000  0.92010000  1.0 -0.0725700915
C  C95  1  0.65670000  0.31950000  0.42010000  1.0 -0.0725700915
C  C96  1  0.31950000  0.65670000  0.07990000  1.0 -0.0725700915
C  C97  1  0.26860000  0.69360000  0.59480000  1.0 -0.1076780004
C  C98  1  0.69360000  0.26860000  0.90520000  1.0 -0.1076780004
C  C99  1  0.73140000  0.30640000  0.40520000  1.0 -0.1076780004
C  C100  1  0.30640000  0.73140000  0.09480000  1.0 -0.1076780004
C  C101  1  0.20990000  0.63610000  0.59160000  1.0 -0.1512369013
C  C102  1  0.63610000  0.20990000  0.90840000  1.0 -0.1512369013
C  C103  1  0.79010000  0.36390000  0.40840000  1.0 -0.1512369013
C  C104  1  0.36390000  0.79010000  0.09160000  1.0 -0.1512369013
C  C105  1  0.40510000  0.74410000  0.58300000  1.0 0.402572693
C  C106  1  0.74410000  0.40510000  0.91700000  1.0 0.402572693
C  C107  1  0.59490000  0.25590000  0.41700000  1.0 0.402572693
C  C108  1  0.25590000  0.59490000  0.08300000  1.0 0.402572693
C  C109  1  0.97730000  0.39450000  0.71861000  1.0 0.0893749684
C  C110  1  0.39450000  0.97730000  0.78139000  1.0 0.0893749684
C  C111  1  0.02270000  0.60550000  0.28139000  1.0 0.0893749684
C  C112  1  0.60550000  0.02270000  0.21861000  1.0 0.0893749684
C  C113  1  0.90210000  0.44630000  0.71860000  1.0 -0.1512369013
C  C114  1  0.44630000  0.90210000  0.78140000  1.0 -0.1512369013
C  C115  1  0.09790000  0.55370000  0.28140000  1.0 -0.1512369013
C  C116  1  0.55370000  0.09790000  0.21860000  1.0 -0.1512369013
C  C117  1  0.88280000  0.46820000  0.75670000  1.0 -0.0894340369
C  C118  1  0.46820000  0.88280000  0.74330000  1.0 -0.0894340369
C  C119  1  0.11720000  0.53180000  0.24330000  1.0 -0.0894340369
C  C120  1  0.53180000  0.11720000  0.25670000  1.0 -0.0894340369
C  C121  1  0.94160000  0.43760000  0.79699000  1.0 -0.0289824615
C  C122  1  0.43760000  0.94160000  0.70301000  1.0 -0.0289824615
C  C123  1  0.05840000  0.56240000  0.20301000  1.0 -0.0289824615
C  C124  1  0.56240000  0.05840000  0.29699000  1.0 -0.0289824615
C  C125  1  0.01450000  0.38330000  0.79740000  1.0 -0.0994318502
C  C126  1  0.38330000  0.01450000  0.70260000  1.0 -0.0994318502
C  C127  1  0.98550000  0.61670000  0.20260000  1.0 -0.0994318502
C  C128  1  0.61670000  0.98550000  0.29740000  1.0 -0.0994318502
C  C129  1  0.03340000  0.36220000  0.75860000  1.0 -0.1575565062
C  C130  1  0.36220000  0.03340000  0.74140000  1.0 -0.1575565062
C  C131  1  0.96660000  0.63780000  0.24140000  1.0 -0.1575565062
C  C132  1  0.63780000  0.96660000  0.25860000  1.0 -0.1575565062
C  C133  1  0.92600000  0.46700000  0.83786000  1.0 0.5880999356
C  C134  1  0.46700000  0.92600000  0.66214000  1.0 0.5880999356
C  C135  1  0.07400000  0.53300000  0.16214000  1.0 0.5880999356
C  C136  1  0.53300000  0.07400000  0.33786000  1.0 0.5880999356
C  C137  1  0.82880000  0.14580000  0.57041000  1.0 0.0893749684
C  C138  1  0.14580000  0.82880000  0.92959000  1.0 0.0893749684
C  C139  1  0.17120000  0.85420000  0.42959000  1.0 0.0893749684
C  C140  1  0.85420000  0.17120000  0.07041000  1.0 0.0893749684
C  C141  1  0.85780000  0.06600000  0.59670000  1.0 -0.1512369013
C  C142  1  0.06600000  0.85780000  0.90330000  1.0 -0.1512369013
C  C143  1  0.14220000  0.93400000  0.40330000  1.0 -0.1512369013
C  C144  1  0.93400000  0.14220000  0.09670000  1.0 -0.1512369013
C  C145  1  0.79950000  0.00990000  0.60370000  1.0 -0.0994318502
C  C146  1  0.00990000  0.79950000  0.89630000  1.0 -0.0994318502
C  C147  1  0.20050000  0.99010000  0.39630000  1.0 -0.0994318502
C  C148  1  0.99010000  0.20050000  0.10370000  1.0 -0.0994318502
C  C149  1  0.71510000  0.03130000  0.58454000  1.0 -0.0189203977
C  C150  1  0.03130000  0.71510000  0.91546000  1.0 -0.0189203977
C  C151  1  0.28490000  0.96870000  0.41546000  1.0 -0.0189203977
C  C152  1  0.96870000  0.28490000  0.08454000  1.0 -0.0189203977
C  C153  1  0.68790000  0.11030000  0.55650000  1.0 -0.0994318502
C  C154  1  0.11030000  0.68790000  0.94350000  1.0 -0.0994318502
C  C155  1  0.31210000  0.88970000  0.44350000  1.0 -0.0994318502
C  C156  1  0.88970000  0.31210000  0.05650000  1.0 -0.0994318502
C  C157  1  0.74420000  0.16620000  0.54900000  1.0 -0.1575565062
C  C158  1  0.16620000  0.74420000  0.95100000  1.0 -0.1575565062
C  C159  1  0.25580000  0.83380000  0.45100000  1.0 -0.1575565062
C  C160  1  0.83380000  0.25580000  0.04900000  1.0 -0.1575565062
C  C161  1  0.65170000  0.97330000  0.59400000  1.0 0.5880999356
C  C162  1  0.97330000  0.65170000  0.90600000  1.0 0.5880999356
C  C163  1  0.34830000  0.02670000  0.40600000  1.0 0.5880999356
C  C164  1  0.02670000  0.34830000  0.09400000  1.0 0.5880999356
C  C165  1  0.07060000  0.32760000  0.42177000  1.0 0.0846137494
C  C166  1  0.32760000  0.07060000  0.07823000  1.0 0.0846137494
C  C167  1  0.92940000  0.67240000  0.57823000  1.0 0.0846137494
C  C168  1  0.67240000  0.92940000  0.92177000  1.0 0.0846137494
C  C169  1  0.13520000  0.26240000  0.42040000  1.0 -0.1575565062
C  C170  1  0.26240000  0.13520000  0.07960000  1.0 -0.1575565062
C  C171  1  0.86480000  0.73760000  0.57960000  1.0 -0.1575565062
C  C172  1  0.73760000  0.86480000  0.92040000  1.0 -0.1575565062
C  C173  1  0.15750000  0.25350000  0.38060000  1.0 -0.1076780004
C  C174  1  0.25350000  0.15750000  0.11940000  1.0 -0.1076780004
C  C175  1  0.84250000  0.74650000  0.61940000  1.0 -0.1076780004
C  C176  1  0.74650000  0.84250000  0.88060000  1.0 -0.1076780004
C  C177  1  0.11620000  0.30880000  0.34131000  1.0 -0.0491608284
C  C178  1  0.30880000  0.11620000  0.15869000  1.0 -0.0491608284
C  C179  1  0.88380000  0.69120000  0.65869000  1.0 -0.0491608284
C  C180  1  0.69120000  0.88380000  0.84131000  1.0 -0.0491608284
C  C181  1  0.05040000  0.37140000  0.34270000  1.0 -0.0894340369
C  C182  1  0.37140000  0.05040000  0.15730000  1.0 -0.0894340369
C  C183  1  0.94960000  0.62860000  0.65730000  1.0 -0.0894340369
C  C184  1  0.62860000  0.94960000  0.84270000  1.0 -0.0894340369
C  C185  1  0.02870000  0.37970000  0.38280000  1.0 -0.1575565062
C  C186  1  0.37970000  0.02870000  0.11720000  1.0 -0.1575565062
C  C187  1  0.97130000  0.62030000  0.61720000  1.0 -0.1575565062
C  C188  1  0.62030000  0.97130000  0.88280000  1.0 -0.1575565062
C  C189  1  0.14170000  0.30050000  0.29920000  1.0 0.6425921411
C  C190  1  0.30050000  0.14170000  0.20080000  1.0 0.6425921411
C  C191  1  0.85830000  0.69950000  0.70080000  1.0 0.6425921411
C  C192  1  0.69950000  0.85830000  0.79920000  1.0 0.6425921411
C  C193  1  0.15230000  0.15410000  0.78952000  1.0 0.1511072495
C  C194  1  0.15410000  0.15230000  0.71048000  1.0 0.1511072495
C  C195  1  0.84770000  0.84590000  0.21048000  1.0 0.1511072495
C  C196  1  0.84590000  0.84770000  0.28952000  1.0 0.1511072495
C  C197  1  0.11940000  0.13420000  0.82940000  1.0 -0.1895320693
C  C198  1  0.13420000  0.11940000  0.67060000  1.0 -0.1895320693
C  C199  1  0.88060000  0.86580000  0.17060000  1.0 -0.1895320693
C  C200  1  0.86580000  0.88060000  0.32940000  1.0 -0.1895320693
C  C201  1  0.15240000  0.18120000  0.85820000  1.0 -0.1895320693
C  C202  1  0.18120000  0.15240000  0.64180000  1.0 -0.1895320693
C  C203  1  0.84760000  0.81880000  0.14180000  1.0 -0.1895320693
C  C204  1  0.81880000  0.84760000  0.35820000  1.0 -0.1895320693
C  C205  1  0.20880000  0.23120000  0.83698000  1.0 0.1687111971
C  C206  1  0.23120000  0.20880000  0.66302000  1.0 0.1687111971
C  C207  1  0.79120000  0.76880000  0.16302000  1.0 0.1687111971
C  C208  1  0.76880000  0.79120000  0.33698000  1.0 0.1687111971
C  C209  1  0.25220000  0.29140000  0.85491000  1.0 -0.1076780004
C  C210  1  0.29140000  0.25220000  0.64509000  1.0 -0.1076780004
C  C211  1  0.74780000  0.70860000  0.14509000  1.0 -0.1076780004
C  C212  1  0.70860000  0.74780000  0.35491000  1.0 -0.1076780004
C  C213  1  0.30730000  0.33910000  0.83601000  1.0 0.1599093672
C  C214  1  0.33910000  0.30730000  0.66399000  1.0 0.1599093672
C  C215  1  0.69270000  0.66090000  0.16399000  1.0 0.1599093672
C  C216  1  0.66090000  0.69270000  0.33601000  1.0 0.1599093672
C  C217  1  0.35660000  0.39580000  0.85770000  1.0 -0.1776502788
C  C218  1  0.39580000  0.35660000  0.64230000  1.0 -0.1776502788
C  C219  1  0.64340000  0.60420000  0.14230000  1.0 -0.1895320693
C  C220  1  0.60420000  0.64340000  0.35770000  1.0 -0.1895320693
C  C221  1  0.40510000  0.42690000  0.82810000  1.0 -0.2093166931
C  C222  1  0.42690000  0.40510000  0.67190000  1.0 -0.2093166931
C  C223  1  0.59490000  0.57310000  0.17190000  1.0 -0.2093166931
C  C224  1  0.57310000  0.59490000  0.32810000  1.0 -0.2150635928
C  C225  1  0.38420000  0.39440000  0.78870000  1.0 0.1687111971
C  C226  1  0.39440000  0.38420000  0.71130000  1.0 0.1687111971
C  C227  1  0.61580000  0.60560000  0.21130000  1.0 0.1687111971
C  C228  1  0.60560000  0.61580000  0.28870000  1.0 0.1687111971
C  C229  1  0.41590000  0.41590000  0.75000000  1.0 -0.1306382899
C  C230  1  0.58410000  0.58410000  0.25000000  1.0 -0.1306382899
C  C231  1  0.12620000  0.12620000  0.75000000  1.0 -0.1076780004
C  C232  1  0.87380000  0.87380000  0.25000000  1.0 -0.1076780004
C  C233  1  0.06430000  0.06430000  0.75000000  1.0 0.0893749684
C  C234  1  0.93570000  0.93570000  0.25000000  1.0 0.0893749684
C  C235  1  0.08280000  0.98560000  0.77910000  1.0 -0.1512369013
C  C236  1  0.98560000  0.08280000  0.72090000  1.0 -0.1512369013
C  C237  1  0.91720000  0.01440000  0.22090000  1.0 -0.1512369013
C  C238  1  0.01440000  0.91720000  0.27910000  1.0 -0.1512369013
C  C239  1  0.02690000  0.92690000  0.77900000  1.0 -0.1076780004
C  C240  1  0.92690000  0.02690000  0.72100000  1.0 -0.1076780004
C  C241  1  0.97310000  0.07310000  0.22100000  1.0 -0.1076780004
C  C242  1  0.07310000  0.97310000  0.27900000  1.0 -0.1076780004
C  C243  1  0.94750000  0.94750000  0.75000000  1.0 -0.0289824615
C  C244  1  0.05250000  0.05250000  0.25000000  1.0 -0.0289824615
C  C245  1  0.88520000  0.88520000  0.75000000  1.0 0.6481657416
C  C246  1  0.11480000  0.11480000  0.25000000  1.0 0.6481657416
C  C247  1  0.23610000  0.31010000  0.89880000  1.0 0.0893749684
C  C248  1  0.31010000  0.23610000  0.60120000  1.0 0.0893749684
C  C249  1  0.76390000  0.68990000  0.10120000  1.0 0.0893749684
C  C250  1  0.68990000  0.76390000  0.39880000  1.0 0.0893749684
C  C251  1  0.17830000  0.38070000  0.89880000  1.0 -0.1306382899
C  C252  1  0.38070000  0.17830000  0.60120000  1.0 -0.1306382899
C  C253  1  0.82170000  0.61930000  0.10120000  1.0 -0.1306382899
C  C254  1  0.61930000  0.82170000  0.39880000  1.0 -0.1306382899
C  C255  1  0.16480000  0.40180000  0.93850000  1.0 -0.169128038
C  C256  1  0.40180000  0.16480000  0.56150000  1.0 -0.169128038
C  C257  1  0.83520000  0.59820000  0.06150000  1.0 -0.169128038
C  C258  1  0.59820000  0.83520000  0.43850000  1.0 -0.169128038
C  C259  1  0.21100000  0.35420000  0.97860000  1.0 -0.0033156043
C  C260  1  0.35420000  0.21100000  0.52140000  1.0 -0.0033156043
C  C261  1  0.78900000  0.64580000  0.02140000  1.0 -0.0033156043
C  C262  1  0.64580000  0.78900000  0.47860000  1.0 -0.0033156043
C  C263  1  0.26560000  0.28700000  0.97730000  1.0 -0.1512369013
C  C264  1  0.28700000  0.26560000  0.52270000  1.0 -0.1512369013
C  C265  1  0.73440000  0.71300000  0.02270000  1.0 -0.1512369013
C  C266  1  0.71300000  0.73440000  0.47730000  1.0 -0.1512369013
C  C267  1  0.27900000  0.26380000  0.93810000  1.0 -0.1389146824
C  C268  1  0.26380000  0.27900000  0.56190000  1.0 -0.1389146824
C  C269  1  0.72100000  0.73620000  0.06190000  1.0 -0.1389146824
C  C270  1  0.73620000  0.72100000  0.43810000  1.0 -0.1389146824
C  C271  1  0.21160000  0.36600000  0.02470000  1.0 0.2819030136
C  C272  1  0.36600000  0.21160000  0.47530000  1.0 0.2864804258
C  C273  1  0.78840000  0.63400000  0.97530000  1.0 0.2864804258
C  C274  1  0.63400000  0.78840000  0.52470000  1.0 0.2864804258
C  C275  1  0.47870000  0.47870000  0.75000000  1.0 0.1016399806
C  C276  1  0.52130000  0.52130000  0.25000000  1.0 0.1016399806
C  C277  1  0.56140000  0.45280000  0.77440000  1.0 -0.169128038
C  C278  1  0.45280000  0.56140000  0.72560000  1.0 -0.1776502788
C  C279  1  0.43860000  0.54720000  0.22560000  1.0 -0.1776502788
C  C280  1  0.54720000  0.43860000  0.27440000  1.0 -0.1776502788
C  C281  1  0.61960000  0.51320000  0.77390000  1.0 -0.0994318502
C  C282  1  0.51320000  0.61960000  0.72610000  1.0 -0.0994318502
C  C283  1  0.38040000  0.48680000  0.22610000  1.0 -0.0994318502
C  C284  1  0.48680000  0.38040000  0.27390000  1.0 -0.0994318502
C  C285  1  0.59530000  0.59530000  0.75000000  1.0 -0.0598824195
C  C286  1  0.40470000  0.40470000  0.25000000  1.0 -0.0598824195
C  C287  1  0.65680000  0.65680000  0.75000000  1.0 0.6481657416
C  C288  1  0.34320000  0.34320000  0.25000000  1.0 0.6481657416
C  C289  1  0.17880000  0.40240000  0.01230000  1.0 0.2819030136
C  C290  1  0.40240000  0.17880000  0.48770000  1.0 0.2819030136
C  C291  1  0.82120000  0.59760000  0.98770000  1.0 0.2819030136
C  C292  1  0.59760000  0.82120000  0.51230000  1.0 0.2819030136
N  N1  1  0.08604000  0.41824000  0.52596000  1.0 -0.2798751354
N  N2  1  0.41824000  0.08604000  0.97404000  1.0 -0.2798751354
N  N3  1  0.91396000  0.58176000  0.47404000  1.0 -0.2798751354
N  N4  1  0.58176000  0.91396000  0.02596000  1.0 -0.2798751354
N  N5  1  0.07927000  0.41787000  0.61770000  1.0 -0.4374145478
N  N6  1  0.41787000  0.07927000  0.88230000  1.0 -0.4374145478
N  N7  1  0.92073000  0.58213000  0.38230000  1.0 -0.4338448554
N  N8  1  0.58213000  0.92073000  0.11770000  1.0 -0.4374145478
N  N9  1  0.95142000  0.31002000  0.61206000  1.0 -0.2964090317
N  N10  1  0.31002000  0.95142000  0.88794000  1.0 -0.2964090317
N  N11  1  0.04858000  0.68998000  0.38794000  1.0 -0.2964090317
N  N12  1  0.68998000  0.04858000  0.11206000  1.0 -0.2964090317
N  N13  1  0.98165000  0.28485000  0.52649000  1.0 -0.4374145478
N  N14  1  0.28485000  0.98165000  0.97351000  1.0 -0.4374145478
N  N15  1  0.01835000  0.71515000  0.47351000  1.0 -0.4374145478
N  N16  1  0.71515000  0.01835000  0.02649000  1.0 -0.4374145478
N  N17  1  0.20828000  0.21308000  0.79567000  1.0 -0.3251677662
N  N18  1  0.21308000  0.20828000  0.70433000  1.0 -0.3251677662
N  N19  1  0.79172000  0.78692000  0.20433000  1.0 -0.3244228571
N  N20  1  0.78692000  0.79172000  0.29567000  1.0 -0.3251677662
N  N21  1  0.32527000  0.34107000  0.79435000  1.0 -0.3090845257
N  N22  1  0.34107000  0.32527000  0.70565000  1.0 -0.3090845257
N  N23  1  0.67473000  0.65893000  0.20565000  1.0 -0.3090845257
N  N24  1  0.65893000  0.67473000  0.29435000  1.0 -0.3090845257
O  O1  1  0.47090000  0.73190000  0.56380000  1.0 -0.169128038
O  O2  1  0.73190000  0.47090000  0.93620000  1.0 -0.169128038
O  O3  1  0.52910000  0.26810000  0.43620000  1.0 -0.169128038
O  O4  1  0.26810000  0.52910000  0.06380000  1.0 -0.169128038
O  O5  1  0.39390000  0.79970000  0.60510000  1.0 -0.1389146824
O  O6  1  0.79970000  0.39390000  0.89490000  1.0 -0.1389146824
O  O7  1  0.60610000  0.20030000  0.39490000  1.0 -0.1389146824
O  O8  1  0.20030000  0.60610000  0.10510000  1.0 -0.1512369013
O  O9  1  0.87365000  0.53613000  0.83351000  1.0 -0.7747084111
O  O10  1  0.53613000  0.87365000  0.66649000  1.0 -0.7747084111
O  O11  1  0.12635000  0.46387000  0.16649000  1.0 -0.7747084111
O  O12  1  0.46387000  0.12635000  0.33351000  1.0 -0.7747084111
O  O13  1  0.96251000  0.42751000  0.87532000  1.0 -0.5657934457
O  O14  1  0.42751000  0.96251000  0.62468000  1.0 -0.5657934457
O  O15  1  0.03749000  0.57249000  0.12468000  1.0 -0.5657934457
O  O16  1  0.57249000  0.03749000  0.37532000  1.0 -0.5657934457
O  O17  1  0.57734000  0.99534000  0.57385000  1.0 -0.5880079478
O  O18  1  0.99534000  0.57734000  0.92615000  1.0 -0.5880079478
O  O19  1  0.42266000  0.00466000  0.42615000  1.0 -0.5880079478
O  O20  1  0.00466000  0.42266000  0.07385000  1.0 -0.5880079478
O  O21  1  0.67596000  0.90376000  0.62149000  1.0 -0.7335004717
O  O22  1  0.90376000  0.67596000  0.87851000  1.0 -0.7335004717
O  O23  1  0.32404000  0.09624000  0.37851000  1.0 -0.7335004717
O  O24  1  0.09624000  0.32404000  0.12149000  1.0 -0.7335004717
O  O25  1  0.20569000  0.24869000  0.29873000  1.0 -0.7362849176
O  O26  1  0.24869000  0.20569000  0.20127000  1.0 -0.7362849176
O  O27  1  0.79431000  0.75131000  0.70127000  1.0 -0.7362849176
O  O28  1  0.75131000  0.79431000  0.79873000  1.0 -0.7362849176
O  O29  1  0.09897000  0.34837000  0.26413000  1.0 -0.6561632663
O  O30  1  0.34837000  0.09897000  0.23587000  1.0 -0.6561632663
O  O31  1  0.90103000  0.65163000  0.73587000  1.0 -0.6561632663
O  O32  1  0.65163000  0.90103000  0.76413000  1.0 -0.6561632663
O  O33  1  0.90898000  0.81318000  0.77466000  1.0 -0.6873930603
O  O34  1  0.81318000  0.90898000  0.72534000  1.0 -0.6873930603
O  O35  1  0.09102000  0.18682000  0.22534000  1.0 -0.6873930603
O  O36  1  0.18682000  0.09102000  0.27466000  1.0 -0.6873930603
O  O37  1  0.26440000  0.33180000  0.05770000  1.0 -0.1389146824
O  O38  1  0.33180000  0.26440000  0.44230000  1.0 -0.1389146824
O  O39  1  0.73560000  0.66820000  0.94230000  1.0 -0.1389146824
O  O40  1  0.66820000  0.73560000  0.55770000  1.0 -0.1389146824
O  O41  1  0.15070000  0.40870000  0.03200000  1.0 -0.0444656123
O  O42  1  0.40870000  0.15070000  0.46800000  1.0 -0.0444656123
O  O43  1  0.84930000  0.59130000  0.96800000  1.0 -0.0444656123
O  O44  1  0.59130000  0.84930000  0.53200000  1.0 -0.0491608284
O  O45  1  0.73181000  0.63091000  0.77160000  1.0 -0.6789873153
O  O46  1  0.63091000  0.73181000  0.72840000  1.0 -0.6789873153
O  O47  1  0.26819000  0.36909000  0.22840000  1.0 -0.6789873153
O  O48  1  0.36909000  0.26819000  0.27160000  1.0 -0.6789873153
O  O49  1  0.61900000  0.74600000  0.63560000  1.0 -0.8373271137
O  O50  1  0.74600000  0.61900000  0.86440000  1.0 -0.8373271137
O  O51  1  0.38100000  0.25400000  0.36440000  1.0 -0.8373271137
O  O52  1  0.25400000  0.38100000  0.13560000  1.0 -0.8373271137
O  O53  1  0.55700000  0.23720000  0.45130000  1.0 -0.1895320693
O  O54  1  0.23720000  0.55700000  0.04870000  1.0 -0.1895320693
O  O55  1  0.44300000  0.76280000  0.54870000  1.0 -0.1895320693
O  O56  1  0.76280000  0.44300000  0.95130000  1.0 -0.1895320693
O  O57  1  0.57830000  0.23010000  0.38160000  1.0 -0.1389146824
O  O58  1  0.23010000  0.57830000  0.11840000  1.0 -0.1389146824
O  O59  1  0.42170000  0.76990000  0.61840000  1.0 -0.1389146824
O  O60  1  0.76990000  0.42170000  0.88160000  1.0 -0.1389146824
O  O61  1  0.20620000  0.36460000  0.04890000  1.0 0.0377556603
O  O62  1  0.36460000  0.20620000  0.45110000  1.0 0.0377556603
O  O63  1  0.79380000  0.63540000  0.95110000  1.0 0.0377556603
O  O64  1  0.63540000  0.79380000  0.54890000  1.0 0.0377556603
O  O65  1  0.12320000  0.45960000  0.00960000  1.0 -0.169128038
O  O66  1  0.45960000  0.12320000  0.49040000  1.0 -0.1776502788
O  O67  1  0.87680000  0.54040000  0.99040000  1.0 -0.1776502788
O  O68  1  0.54040000  0.87680000  0.50960000  1.0 -0.1776502788
