# DDEC6 charges by PACMAN v1.1 (https://github.com/mtap-research/PACMAN-charge/)
data_NIKTUZ_FSR_pacman
_symmetry_space_group_name_H-M   'P 1'
_cell_length_a   13.38980000
_cell_length_b   14.13550000
_cell_length_c   19.46670000
_cell_angle_alpha   90.00000000
_cell_angle_beta   90.00000000
_cell_angle_gamma   90.00000000
_symmetry_Int_Tables_number   1
_chemical_formula_structural   Zr3C10N4O17
_chemical_formula_sum   'Zr12 C40 N16 O68'
_cell_volume   3684.49185750
_cell_formula_units_Z   4
loop_
 _symmetry_equiv_pos_site_id
 _symmetry_equiv_pos_as_xyz
  1  'x, y, z'
loop_
 _atom_site_type_symbol
 _atom_site_label
 _atom_site_symmetry_multiplicity
 _atom_site_fract_x
 _atom_site_fract_y
 _atom_site_fract_z
 _atom_site_occupancy
 _atom_site_charge
Zr  Zr1  1  0.62809000  0.87311000  0.53036000  1.0 2.4821482327
Zr  Zr2  1  0.37191000  0.87311000  0.46964000  1.0 2.4821482327
Zr  Zr3  1  0.87191000  0.62689000  0.03036000  1.0 2.4873406487
Zr  Zr4  1  0.12809000  0.62689000  0.96964000  1.0 2.4821482327
Zr  Zr5  1  0.37191000  0.12689000  0.46964000  1.0 2.4821482327
Zr  Zr6  1  0.62809000  0.12689000  0.53036000  1.0 2.4821482327
Zr  Zr7  1  0.12809000  0.37311000  0.96964000  1.0 2.4821482327
Zr  Zr8  1  0.87191000  0.37311000  0.03036000  1.0 2.4821482327
Zr  Zr9  1  0.56239000  0.00000000  0.37497000  1.0 2.3742851811
Zr  Zr10  1  0.43761000  0.00000000  0.62503000  1.0 2.3755664426
Zr  Zr11  1  0.93761000  0.50000000  0.87497000  1.0 2.3742851811
Zr  Zr12  1  0.06239000  0.50000000  0.12503000  1.0 2.3755664426
C  C1  1  0.71269000  0.84159000  0.37687000  1.0 0.6315918463
C  C2  1  0.78373000  0.78053000  0.33637000  1.0 0.0320632652
C  C3  1  0.78845000  0.76230000  0.26513000  1.0 -0.0346691263
C  C4  1  0.86726000  0.69634000  0.25959000  1.0 0.0373480156
C  C5  1  0.90922000  0.64586000  0.19775000  1.0 0.6819644916
C  C6  1  0.28731000  0.84159000  0.62313000  1.0 0.6315918463
C  C7  1  0.21627000  0.78053000  0.66363000  1.0 0.0320632652
C  C8  1  0.21155000  0.76230000  0.73487000  1.0 -0.0346691263
C  C9  1  0.13274000  0.69634000  0.74041000  1.0 0.0373480156
C  C10  1  0.09078000  0.64586000  0.80225000  1.0 0.6819644916
C  C11  1  0.78731000  0.65841000  0.87687000  1.0 0.6315918463
C  C12  1  0.71627000  0.71947000  0.83637000  1.0 0.0320632652
C  C13  1  0.71155000  0.73770000  0.76513000  1.0 -0.0346691263
C  C14  1  0.63274000  0.80366000  0.75959000  1.0 0.0373480156
C  C15  1  0.59078000  0.85414000  0.69775000  1.0 0.6819644916
C  C16  1  0.21269000  0.65841000  0.12313000  1.0 0.6315918463
C  C17  1  0.28373000  0.71947000  0.16363000  1.0 0.0320632652
C  C18  1  0.28845000  0.73770000  0.23487000  1.0 -0.0359348924
C  C19  1  0.36726000  0.80366000  0.24041000  1.0 0.0373480156
C  C20  1  0.40922000  0.85414000  0.30225000  1.0 0.6819644916
C  C21  1  0.28731000  0.15841000  0.62313000  1.0 0.6315918463
C  C22  1  0.21627000  0.21947000  0.66363000  1.0 0.0320632652
C  C23  1  0.21155000  0.23770000  0.73487000  1.0 -0.0346691263
C  C24  1  0.13274000  0.30366000  0.74041000  1.0 0.0373480156
C  C25  1  0.09078000  0.35414000  0.80225000  1.0 0.6819644916
C  C26  1  0.71269000  0.15841000  0.37687000  1.0 0.6315918463
C  C27  1  0.78373000  0.21947000  0.33637000  1.0 0.0320632652
C  C28  1  0.78845000  0.23770000  0.26513000  1.0 -0.0359348924
C  C29  1  0.86726000  0.30366000  0.25959000  1.0 0.0373480156
C  C30  1  0.90922000  0.35414000  0.19775000  1.0 0.6819644916
C  C31  1  0.21269000  0.34159000  0.12313000  1.0 0.6315918463
C  C32  1  0.28373000  0.28053000  0.16363000  1.0 0.0320632652
C  C33  1  0.28845000  0.26230000  0.23487000  1.0 -0.0359348924
C  C34  1  0.36726000  0.19634000  0.24041000  1.0 0.0373480156
C  C35  1  0.40922000  0.14586000  0.30225000  1.0 0.6819644916
C  C36  1  0.78731000  0.34159000  0.87687000  1.0 0.6315918463
C  C37  1  0.71627000  0.28053000  0.83637000  1.0 0.0320632652
C  C38  1  0.71155000  0.26230000  0.76513000  1.0 -0.0359348924
C  C39  1  0.63274000  0.19634000  0.75959000  1.0 0.0373480156
C  C40  1  0.59078000  0.14586000  0.69775000  1.0 0.6819644916
N  N1  1  0.85403000  0.72882000  0.36852000  1.0 0.0043568137
N  N2  1  0.90399000  0.67876000  0.32270000  1.0 -0.1429647181
N  N3  1  0.14597000  0.72882000  0.63148000  1.0 -0.0070088607
N  N4  1  0.09601000  0.67876000  0.67730000  1.0 -0.1429647181
N  N5  1  0.64597000  0.77118000  0.86852000  1.0 0.0043568137
N  N6  1  0.59601000  0.82124000  0.82270000  1.0 -0.1429647181
N  N7  1  0.35403000  0.77118000  0.13148000  1.0 0.0043568137
N  N8  1  0.40399000  0.82124000  0.17730000  1.0 -0.1429647181
N  N9  1  0.14597000  0.27118000  0.63148000  1.0 0.0067018401
N  N10  1  0.09601000  0.32124000  0.67730000  1.0 -0.1456104023
N  N11  1  0.85403000  0.27118000  0.36852000  1.0 0.0067018401
N  N12  1  0.90399000  0.32124000  0.32270000  1.0 -0.1429647181
N  N13  1  0.35403000  0.22882000  0.13148000  1.0 0.0067018401
N  N14  1  0.40399000  0.17876000  0.17730000  1.0 -0.1429647181
N  N15  1  0.64597000  0.22882000  0.86852000  1.0 0.0067018401
N  N16  1  0.59601000  0.17876000  0.82270000  1.0 -0.1429647181
O  O1  1  0.66510000  0.89220000  0.33750000  1.0 -0.5171476257
O  O2  1  0.71600000  0.82970000  0.43930000  1.0 -0.5171476257
O  O3  1  0.52570000  0.11050000  0.44750000  1.0 -0.8974622813
O  O4  1  0.98760000  0.59470000  0.19700000  1.0 -0.526971708
O  O5  1  0.85660000  0.66200000  0.14380000  1.0 -0.5447478098
O  O6  1  0.58830000  0.72940000  0.53250000  1.0 -0.6545884532
O  O7  1  0.78710000  0.90770000  0.55480000  1.0 -0.6230358583
O  O8  1  0.33490000  0.89220000  0.66250000  1.0 -0.5171476257
O  O9  1  0.28400000  0.82970000  0.56070000  1.0 -0.5171476257
O  O10  1  0.47430000  0.11050000  0.55250000  1.0 -0.8974622813
O  O11  1  0.01240000  0.59470000  0.80300000  1.0 -0.526971708
O  O12  1  0.14340000  0.66200000  0.85620000  1.0 -0.5469524903
O  O13  1  0.41170000  0.72940000  0.46750000  1.0 -0.6545884532
O  O14  1  0.21290000  0.90770000  0.44520000  1.0 -0.6230358583
O  O15  1  0.83490000  0.60780000  0.83750000  1.0 -0.5171476257
O  O16  1  0.78400000  0.67030000  0.93930000  1.0 -0.5171476257
O  O17  1  0.97430000  0.38950000  0.94750000  1.0 -0.8974622813
O  O18  1  0.51240000  0.90530000  0.69700000  1.0 -0.526971708
O  O19  1  0.64340000  0.83800000  0.64380000  1.0 -0.5469524903
O  O20  1  0.91170000  0.77060000  0.03250000  1.0 -0.6554371518
O  O21  1  0.71290000  0.59230000  0.05480000  1.0 -0.6230358583
O  O22  1  0.16510000  0.60780000  0.16250000  1.0 -0.5171476257
O  O23  1  0.21600000  0.67030000  0.06070000  1.0 -0.5171476257
O  O24  1  0.02570000  0.38950000  0.05250000  1.0 -0.8974622813
O  O25  1  0.48760000  0.90530000  0.30300000  1.0 -0.526971708
O  O26  1  0.35660000  0.83800000  0.35620000  1.0 -0.5447478098
O  O27  1  0.08830000  0.77060000  0.96750000  1.0 -0.6545884532
O  O28  1  0.28710000  0.59230000  0.94520000  1.0 -0.6230358583
O  O29  1  0.33490000  0.10780000  0.66250000  1.0 -0.5171476257
O  O30  1  0.28400000  0.17030000  0.56070000  1.0 -0.5171476257
O  O31  1  0.47430000  0.88950000  0.55250000  1.0 -0.8974622813
O  O32  1  0.01240000  0.40530000  0.80300000  1.0 -0.526971708
O  O33  1  0.14340000  0.33800000  0.85620000  1.0 -0.5469524903
O  O34  1  0.41170000  0.27060000  0.46750000  1.0 -0.6554371518
O  O35  1  0.21290000  0.09230000  0.44520000  1.0 -0.6230358583
O  O36  1  0.66510000  0.10780000  0.33750000  1.0 -0.5171476257
O  O37  1  0.71600000  0.17030000  0.43930000  1.0 -0.5171476257
O  O38  1  0.52570000  0.88950000  0.44750000  1.0 -0.8974622813
O  O39  1  0.98760000  0.40530000  0.19700000  1.0 -0.526971708
O  O40  1  0.85660000  0.33800000  0.14380000  1.0 -0.5469524903
O  O41  1  0.58830000  0.27060000  0.53250000  1.0 -0.6554371518
O  O42  1  0.78710000  0.09230000  0.55480000  1.0 -0.6230358583
O  O43  1  0.16510000  0.39220000  0.16250000  1.0 -0.5171476257
O  O44  1  0.21600000  0.32970000  0.06070000  1.0 -0.5171476257
O  O45  1  0.02570000  0.61050000  0.05250000  1.0 -0.8974622813
O  O46  1  0.48760000  0.09470000  0.30300000  1.0 -0.526971708
O  O47  1  0.35660000  0.16200000  0.35620000  1.0 -0.5447478098
O  O48  1  0.08830000  0.22940000  0.96750000  1.0 -0.6545884532
O  O49  1  0.28710000  0.40770000  0.94520000  1.0 -0.6230358583
O  O50  1  0.83490000  0.39220000  0.83750000  1.0 -0.5171476257
O  O51  1  0.78400000  0.32970000  0.93930000  1.0 -0.5171476257
O  O52  1  0.97430000  0.61050000  0.94750000  1.0 -0.8974622813
O  O53  1  0.51240000  0.09470000  0.69700000  1.0 -0.526971708
O  O54  1  0.64340000  0.16200000  0.64380000  1.0 -0.5469524903
O  O55  1  0.91170000  0.22940000  0.03250000  1.0 -0.6545884532
O  O56  1  0.71290000  0.40770000  0.05480000  1.0 -0.6230358583
O  O57  1  0.65710000  0.00000000  0.46660000  1.0 -1.0699752174
O  O58  1  0.41190000  0.00000000  0.41020000  1.0 -1.0057132644
O  O59  1  0.82800000  0.00000000  0.61240000  1.0 0.8872221309
O  O60  1  0.34290000  0.00000000  0.53340000  1.0 -1.0765285892
O  O61  1  0.58810000  0.00000000  0.58980000  1.0 -1.0018978519
O  O62  1  0.17200000  0.00000000  0.38760000  1.0 0.8810358045
O  O63  1  0.84290000  0.50000000  0.96660000  1.0 -1.0699752174
O  O64  1  0.08810000  0.50000000  0.91020000  1.0 -1.0018978519
O  O65  1  0.67200000  0.50000000  0.11240000  1.0 0.8810358045
O  O66  1  0.15710000  0.50000000  0.03340000  1.0 -1.0699752174
O  O67  1  0.91190000  0.50000000  0.08980000  1.0 -1.0018978519
O  O68  1  0.32800000  0.50000000  0.88760000  1.0 0.8810358045
