# DDEC6 charges by PACMAN v1.1 (https://github.com/mtap-research/PACMAN-charge/)
data_NILFAS_FSR_pacman
_symmetry_space_group_name_H-M   'P 1'
_cell_length_a   13.09220000
_cell_length_b   13.09220000
_cell_length_c   62.12710000
_cell_angle_alpha   89.59580000
_cell_angle_beta   90.40420000
_cell_angle_gamma   93.04010000
_symmetry_Int_Tables_number   1
_chemical_formula_structural   Zn4H53C84(N3O10)2
_chemical_formula_sum   'Zn16 H212 C336 N24 O80'
_cell_volume   10633.44987734
_cell_formula_units_Z   4
loop_
 _symmetry_equiv_pos_site_id
 _symmetry_equiv_pos_as_xyz
  1  'x, y, z'
loop_
 _atom_site_type_symbol
 _atom_site_label
 _atom_site_symmetry_multiplicity
 _atom_site_fract_x
 _atom_site_fract_y
 _atom_site_fract_z
 _atom_site_occupancy
 _atom_site_charge
Zn  Zn1  1  0.34288000  0.62800000  0.51595000  1.0 0.8378697899
Zn  Zn2  1  0.32256000  0.64440000  0.56332000  1.0 0.8378697899
Zn  Zn3  1  0.09812000  0.96004000  0.09527000  1.0 0.9173566741
Zn  Zn4  1  0.07991000  0.97861000  0.14262000  1.0 0.8478965206
Zn  Zn5  1  0.62800000  0.34288000  0.98405000  1.0 0.8378697899
Zn  Zn6  1  0.64440000  0.32256000  0.93668000  1.0 0.8378697899
Zn  Zn7  1  0.96004000  0.09812000  0.40473000  1.0 0.9173566741
Zn  Zn8  1  0.97861000  0.07991000  0.35738000  1.0 0.8478965206
Zn  Zn9  1  0.65712000  0.37200000  0.48405000  1.0 0.8378697899
Zn  Zn10  1  0.67744000  0.35560000  0.43668000  1.0 0.8378697899
Zn  Zn11  1  0.90188000  0.03996000  0.90473000  1.0 0.9173566741
Zn  Zn12  1  0.92009000  0.02139000  0.85738000  1.0 0.8478965206
Zn  Zn13  1  0.37200000  0.65712000  0.01595000  1.0 0.8378697899
Zn  Zn14  1  0.35560000  0.67744000  0.06332000  1.0 0.8378697899
Zn  Zn15  1  0.03996000  0.90188000  0.59527000  1.0 0.9173566741
Zn  Zn16  1  0.02139000  0.92009000  0.64262000  1.0 0.8478965206
H  H1  1  0.01990000  0.59470000  0.50260000  1.0 0.1210221907
H  H2  1  0.18890000  0.93030000  0.06120000  1.0 0.3563988996
H  H3  1  0.09810000  0.96990000  0.05550000  1.0 0.3485458834
H  H4  1  0.23030000  0.71470000  0.41320000  1.0 0.2786287782
H  H5  1  0.98920000  0.66960000  0.56510000  1.0 0.1210221907
H  H6  1  0.18490000  0.64490000  0.48040000  1.0 0.1210221907
H  H7  1  0.48550000  0.59750000  0.47890000  1.0 0.1210221907
H  H8  1  0.47830000  0.59030000  0.44160000  1.0 0.1374441428
H  H9  1  0.17780000  0.63780000  0.44310000  1.0 0.1287128278
H  H10  1  0.67270000  0.60730000  0.51270000  1.0 0.1287128278
H  H11  1  0.84730000  0.60090000  0.49750000  1.0 0.1374441428
H  H12  1  0.36930000  0.29610000  0.51580000  1.0 0.1210221907
H  H13  1  0.41860000  0.12500000  0.50250000  1.0 0.1287128278
H  H14  1  0.81430000  0.67830000  0.58020000  1.0 0.1287128278
H  H15  1  0.64190000  0.67510000  0.57570000  1.0 0.1210221907
H  H16  1  0.13760000  0.28140000  0.08380000  1.0 0.1210221907
H  H17  1  0.60190000  0.97150000  0.07570000  1.0 0.1287128278
H  H18  1  0.11630000  0.63050000  0.09390000  1.0 0.1287128278
H  H19  1  0.40720000  0.95140000  0.50570000  1.0 0.1210221907
H  H20  1  0.28150000  0.97870000  0.56540000  1.0 0.1374441428
H  H21  1  0.23200000  0.14920000  0.57800000  1.0 0.1287128278
H  H22  1  0.28930000  0.55910000  0.37130000  1.0 0.1374441428
H  H23  1  0.26700000  0.59920000  0.33520000  1.0 0.1078621511
H  H24  1  0.19550000  0.88330000  0.35130000  1.0 0.1210221907
H  H25  1  0.21780000  0.84320000  0.38740000  1.0 0.1287128278
H  H26  1  0.14080000  0.46060000  0.07950000  1.0 0.1287128278
H  H27  1  0.05340000  0.30460000  0.14470000  1.0 0.1287128278
H  H28  1  0.43170000  0.97370000  0.09170000  1.0 0.1287128278
H  H29  1  0.23560000  0.32120000  0.57320000  1.0 0.1210221907
H  H30  1  0.40980000  0.99720000  0.15660000  1.0 0.1287128278
H  H31  1  0.78010000  0.96990000  0.07870000  1.0 0.1210221907
H  H32  1  0.03920000  0.65720000  0.15640000  1.0 0.1287128278
H  H33  1  0.75380000  0.96900000  0.14390000  1.0 0.1287128278
H  H34  1  0.02910000  0.48570000  0.16020000  1.0 0.1287128278
H  H35  1  0.46630000  0.52910000  0.63380000  1.0 0.1287128278
H  H36  1  0.45860000  0.54680000  0.59660000  1.0 0.1287128278
H  H37  1  0.21210000  0.71470000  0.60220000  1.0 0.1210221907
H  H38  1  0.21980000  0.69700000  0.63930000  1.0 0.1287128278
H  H39  1  0.57780000  0.00220000  0.15960000  1.0 0.1210221907
H  H40  1  0.03970000  0.10430000  0.18430000  1.0 0.0998242279
H  H41  1  0.07660000  0.08820000  0.22070000  1.0 0.1287128278
H  H42  1  0.19720000  0.81760000  0.20970000  1.0 0.1210221907
H  H43  1  0.16010000  0.83370000  0.17330000  1.0 0.1287128278
H  H44  1  0.24420000  0.82620000  0.24370000  1.0 0.2629700234
H  H45  1  0.43990000  0.51210000  0.66470000  1.0 0.2629700234
H  H46  1  0.21700000  0.63860000  0.30440000  1.0 0.1078621511
H  H47  1  0.20390000  0.93270000  0.32170000  1.0 0.1210221907
H  H48  1  0.20670000  0.98170000  0.28570000  1.0 0.1210221907
H  H49  1  0.21980000  0.68760000  0.26840000  1.0 0.1210221907
H  H50  1  0.38730000  0.61870000  0.74320000  1.0 0.0998242279
H  H51  1  0.60360000  0.43120000  0.72500000  1.0 0.1078621511
H  H52  1  0.54860000  0.44400000  0.68950000  1.0 0.1210221907
H  H53  1  0.33220000  0.63140000  0.70780000  1.0 0.1374441428
H  H54  1  0.59470000  0.01990000  0.99740000  1.0 0.1210221907
H  H55  1  0.93030000  0.18890000  0.43880000  1.0 0.3563988996
H  H56  1  0.96990000  0.09810000  0.44450000  1.0 0.3485458834
H  H57  1  0.71470000  0.23030000  0.08680000  1.0 0.2786287782
H  H58  1  0.66960000  0.98920000  0.93490000  1.0 0.1210221907
H  H59  1  0.64490000  0.18490000  0.01960000  1.0 0.1210221907
H  H60  1  0.59750000  0.48550000  0.02110000  1.0 0.1210221907
H  H61  1  0.59030000  0.47830000  0.05840000  1.0 0.1374441428
H  H62  1  0.63780000  0.17780000  0.05690000  1.0 0.1287128278
H  H63  1  0.60730000  0.67270000  0.98730000  1.0 0.1287128278
H  H64  1  0.60090000  0.84730000  0.00250000  1.0 0.1374441428
H  H65  1  0.29610000  0.36930000  0.98420000  1.0 0.1210221907
H  H66  1  0.12500000  0.41860000  0.99750000  1.0 0.1287128278
H  H67  1  0.67830000  0.81430000  0.91980000  1.0 0.1287128278
H  H68  1  0.67510000  0.64190000  0.92430000  1.0 0.1210221907
H  H69  1  0.28140000  0.13760000  0.41620000  1.0 0.1210221907
H  H70  1  0.97150000  0.60190000  0.42430000  1.0 0.1287128278
H  H71  1  0.63050000  0.11630000  0.40610000  1.0 0.1287128278
H  H72  1  0.95140000  0.40720000  0.99430000  1.0 0.1210221907
H  H73  1  0.97870000  0.28150000  0.93460000  1.0 0.1374441428
H  H74  1  0.14920000  0.23200000  0.92200000  1.0 0.1287128278
H  H75  1  0.55910000  0.28930000  0.12870000  1.0 0.1374441428
H  H76  1  0.59920000  0.26700000  0.16480000  1.0 0.1078621511
H  H77  1  0.88330000  0.19550000  0.14870000  1.0 0.1210221907
H  H78  1  0.84320000  0.21780000  0.11260000  1.0 0.1287128278
H  H79  1  0.46060000  0.14080000  0.42050000  1.0 0.1287128278
H  H80  1  0.30460000  0.05340000  0.35530000  1.0 0.1287128278
H  H81  1  0.97370000  0.43170000  0.40830000  1.0 0.1287128278
H  H82  1  0.32120000  0.23560000  0.92680000  1.0 0.1210221907
H  H83  1  0.99720000  0.40980000  0.34340000  1.0 0.1287128278
H  H84  1  0.96990000  0.78010000  0.42130000  1.0 0.1210221907
H  H85  1  0.65720000  0.03920000  0.34360000  1.0 0.1287128278
H  H86  1  0.96900000  0.75380000  0.35610000  1.0 0.1287128278
H  H87  1  0.48570000  0.02910000  0.33980000  1.0 0.1287128278
H  H88  1  0.52910000  0.46630000  0.86620000  1.0 0.1287128278
H  H89  1  0.54680000  0.45860000  0.90340000  1.0 0.1287128278
H  H90  1  0.71470000  0.21210000  0.89780000  1.0 0.1210221907
H  H91  1  0.69700000  0.21980000  0.86070000  1.0 0.1287128278
H  H92  1  0.00220000  0.57780000  0.34040000  1.0 0.1210221907
H  H93  1  0.10430000  0.03970000  0.31570000  1.0 0.1078621511
H  H94  1  0.08820000  0.07660000  0.27930000  1.0 0.1287128278
H  H95  1  0.81760000  0.19720000  0.29030000  1.0 0.1210221907
H  H96  1  0.83370000  0.16010000  0.32670000  1.0 0.1287128278
H  H97  1  0.82620000  0.24420000  0.25630000  1.0 0.2629700234
H  H98  1  0.51210000  0.43990000  0.83530000  1.0 0.2629700234
H  H99  1  0.63860000  0.21700000  0.19560000  1.0 0.1078621511
H  H100  1  0.93270000  0.20390000  0.17830000  1.0 0.1210221907
H  H101  1  0.98170000  0.20670000  0.21430000  1.0 0.1210221907
H  H102  1  0.68760000  0.21980000  0.23160000  1.0 0.1210221907
H  H103  1  0.61870000  0.38730000  0.75680000  1.0 0.0998242279
H  H104  1  0.43120000  0.60360000  0.77500000  1.0 0.1078621511
H  H105  1  0.44400000  0.54860000  0.81050000  1.0 0.1210221907
H  H106  1  0.63140000  0.33220000  0.79220000  1.0 0.1374441428
H  H107  1  0.98010000  0.40530000  0.49740000  1.0 0.1210221907
H  H108  1  0.81110000  0.06970000  0.93880000  1.0 0.3563988996
H  H109  1  0.90190000  0.03010000  0.94450000  1.0 0.3485458834
H  H110  1  0.76970000  0.28530000  0.58680000  1.0 0.2786287782
H  H111  1  0.01080000  0.33040000  0.43490000  1.0 0.1210221907
H  H112  1  0.81510000  0.35510000  0.51960000  1.0 0.1210221907
H  H113  1  0.51450000  0.40250000  0.52110000  1.0 0.1210221907
H  H114  1  0.52170000  0.40970000  0.55840000  1.0 0.1374441428
H  H115  1  0.82220000  0.36220000  0.55690000  1.0 0.1287128278
H  H116  1  0.32730000  0.39270000  0.48730000  1.0 0.1287128278
H  H117  1  0.15270000  0.39910000  0.50250000  1.0 0.1374441428
H  H118  1  0.63070000  0.70390000  0.48420000  1.0 0.1210221907
H  H119  1  0.58140000  0.87500000  0.49750000  1.0 0.1287128278
H  H120  1  0.18570000  0.32170000  0.41980000  1.0 0.1287128278
H  H121  1  0.35810000  0.32490000  0.42430000  1.0 0.1210221907
H  H122  1  0.86240000  0.71860000  0.91620000  1.0 0.1210221907
H  H123  1  0.39810000  0.02850000  0.92430000  1.0 0.1287128278
H  H124  1  0.88370000  0.36950000  0.90610000  1.0 0.1287128278
H  H125  1  0.59280000  0.04860000  0.49430000  1.0 0.1210221907
H  H126  1  0.71850000  0.02130000  0.43460000  1.0 0.1374441428
H  H127  1  0.76800000  0.85080000  0.42200000  1.0 0.1287128278
H  H128  1  0.71070000  0.44090000  0.62870000  1.0 0.1374441428
H  H129  1  0.73300000  0.40080000  0.66480000  1.0 0.1078621511
H  H130  1  0.80450000  0.11670000  0.64870000  1.0 0.1210221907
H  H131  1  0.78220000  0.15680000  0.61260000  1.0 0.1287128278
H  H132  1  0.85920000  0.53940000  0.92050000  1.0 0.1287128278
H  H133  1  0.94660000  0.69540000  0.85530000  1.0 0.1287128278
H  H134  1  0.56830000  0.02630000  0.90830000  1.0 0.1287128278
H  H135  1  0.76440000  0.67880000  0.42680000  1.0 0.1210221907
H  H136  1  0.59020000  0.00280000  0.84340000  1.0 0.1287128278
H  H137  1  0.21990000  0.03010000  0.92130000  1.0 0.1210221907
H  H138  1  0.96080000  0.34280000  0.84360000  1.0 0.1287128278
H  H139  1  0.24620000  0.03100000  0.85610000  1.0 0.1287128278
H  H140  1  0.97090000  0.51430000  0.83980000  1.0 0.1287128278
H  H141  1  0.53370000  0.47090000  0.36620000  1.0 0.1287128278
H  H142  1  0.54140000  0.45320000  0.40340000  1.0 0.1287128278
H  H143  1  0.78790000  0.28530000  0.39780000  1.0 0.1210221907
H  H144  1  0.78020000  0.30300000  0.36070000  1.0 0.1287128278
H  H145  1  0.42220000  0.99780000  0.84040000  1.0 0.1210221907
H  H146  1  0.96030000  0.89570000  0.81570000  1.0 0.1078621511
H  H147  1  0.92340000  0.91180000  0.77930000  1.0 0.1287128278
H  H148  1  0.80280000  0.18240000  0.79030000  1.0 0.1210221907
H  H149  1  0.83990000  0.16630000  0.82670000  1.0 0.1287128278
H  H150  1  0.75580000  0.17380000  0.75630000  1.0 0.2629700234
H  H151  1  0.56010000  0.48790000  0.33530000  1.0 0.2629700234
H  H152  1  0.78300000  0.36140000  0.69560000  1.0 0.1078621511
H  H153  1  0.79610000  0.06730000  0.67830000  1.0 0.1210221907
H  H154  1  0.79330000  0.01830000  0.71430000  1.0 0.1210221907
H  H155  1  0.78020000  0.31240000  0.73160000  1.0 0.1210221907
H  H156  1  0.61270000  0.38130000  0.25680000  1.0 0.0998242279
H  H157  1  0.39640000  0.56880000  0.27500000  1.0 0.1078621511
H  H158  1  0.45140000  0.55600000  0.31050000  1.0 0.1210221907
H  H159  1  0.66780000  0.36860000  0.29220000  1.0 0.1374441428
H  H160  1  0.40530000  0.98010000  0.00260000  1.0 0.1210221907
H  H161  1  0.06970000  0.81110000  0.56120000  1.0 0.3563988996
H  H162  1  0.03010000  0.90190000  0.55550000  1.0 0.3485458834
H  H163  1  0.28530000  0.76970000  0.91320000  1.0 0.2786287782
H  H164  1  0.33040000  0.01080000  0.06510000  1.0 0.1210221907
H  H165  1  0.35510000  0.81510000  0.98040000  1.0 0.1210221907
H  H166  1  0.40250000  0.51450000  0.97890000  1.0 0.1210221907
H  H167  1  0.40970000  0.52170000  0.94160000  1.0 0.1374441428
H  H168  1  0.36220000  0.82220000  0.94310000  1.0 0.1287128278
H  H169  1  0.39270000  0.32730000  0.01270000  1.0 0.1287128278
H  H170  1  0.39910000  0.15270000  0.99750000  1.0 0.1374441428
H  H171  1  0.70390000  0.63070000  0.01580000  1.0 0.1210221907
H  H172  1  0.87500000  0.58140000  0.00250000  1.0 0.1287128278
H  H173  1  0.32170000  0.18570000  0.08020000  1.0 0.1287128278
H  H174  1  0.32490000  0.35810000  0.07570000  1.0 0.1210221907
H  H175  1  0.71860000  0.86240000  0.58380000  1.0 0.1210221907
H  H176  1  0.02850000  0.39810000  0.57570000  1.0 0.1287128278
H  H177  1  0.36950000  0.88370000  0.59390000  1.0 0.1287128278
H  H178  1  0.04860000  0.59280000  0.00570000  1.0 0.1210221907
H  H179  1  0.02130000  0.71850000  0.06540000  1.0 0.1374441428
H  H180  1  0.85080000  0.76800000  0.07800000  1.0 0.1287128278
H  H181  1  0.44090000  0.71070000  0.87130000  1.0 0.1374441428
H  H182  1  0.40080000  0.73300000  0.83520000  1.0 0.1078621511
H  H183  1  0.11670000  0.80450000  0.85130000  1.0 0.1210221907
H  H184  1  0.15680000  0.78220000  0.88740000  1.0 0.1287128278
H  H185  1  0.53940000  0.85920000  0.57950000  1.0 0.1287128278
H  H186  1  0.69540000  0.94660000  0.64470000  1.0 0.1287128278
H  H187  1  0.02630000  0.56830000  0.59170000  1.0 0.1287128278
H  H188  1  0.67880000  0.76440000  0.07320000  1.0 0.1210221907
H  H189  1  0.00280000  0.59020000  0.65660000  1.0 0.1287128278
H  H190  1  0.03010000  0.21990000  0.57870000  1.0 0.1210221907
H  H191  1  0.34280000  0.96080000  0.65640000  1.0 0.1287128278
H  H192  1  0.03100000  0.24620000  0.64390000  1.0 0.1287128278
H  H193  1  0.51430000  0.97090000  0.66020000  1.0 0.1287128278
H  H194  1  0.47090000  0.53370000  0.13380000  1.0 0.1287128278
H  H195  1  0.45320000  0.54140000  0.09660000  1.0 0.1287128278
H  H196  1  0.28530000  0.78790000  0.10220000  1.0 0.1210221907
H  H197  1  0.30300000  0.78020000  0.13930000  1.0 0.1287128278
H  H198  1  0.99780000  0.42220000  0.65960000  1.0 0.1210221907
H  H199  1  0.89570000  0.96030000  0.68430000  1.0 0.1078621511
H  H200  1  0.91180000  0.92340000  0.72070000  1.0 0.1287128278
H  H201  1  0.18240000  0.80280000  0.70970000  1.0 0.1210221907
H  H202  1  0.16630000  0.83990000  0.67330000  1.0 0.1287128278
H  H203  1  0.17380000  0.75580000  0.74370000  1.0 0.2629700234
H  H204  1  0.48790000  0.56010000  0.16470000  1.0 0.2629700234
H  H205  1  0.36140000  0.78300000  0.80440000  1.0 0.1078621511
H  H206  1  0.06730000  0.79610000  0.82170000  1.0 0.1210221907
H  H207  1  0.01830000  0.79330000  0.78570000  1.0 0.1210221907
H  H208  1  0.31240000  0.78020000  0.76840000  1.0 0.1210221907
H  H209  1  0.38130000  0.61270000  0.24320000  1.0 0.0998242279
H  H210  1  0.56880000  0.39640000  0.22500000  1.0 0.0998242279
H  H211  1  0.55600000  0.45140000  0.18950000  1.0 0.1210221907
H  H212  1  0.36860000  0.66780000  0.20780000  1.0 0.1374441428
C  C1  1  0.13890000  0.64310000  0.53750000  1.0 0.5804036451
C  C2  1  0.52910000  0.63850000  0.53999000  1.0 0.5804036451
C  C3  1  0.97850000  0.61230000  0.51389000  1.0 -0.1196405817
C  C4  1  0.31330000  0.44070000  0.54220000  1.0 0.5804036451
C  C5  1  0.02230000  0.63930000  0.53406000  1.0 -0.0108299552
C  C6  1  0.96000000  0.65600000  0.55165000  1.0 -0.206762548
C  C7  1  0.24380000  0.63400000  0.47260000  1.0 0.0797269414
C  C8  1  0.42380000  0.60560000  0.47169000  1.0 0.0797269414
C  C9  1  0.41960000  0.60120000  0.44935000  1.0 -0.1412216876
C  C10  1  0.32730000  0.61330000  0.43864000  1.0 0.0073503074
C  C11  1  0.23950000  0.62970000  0.45026000  1.0 -0.1897515538
C  C12  1  0.85300000  0.65240000  0.54914000  1.0 0.0797269414
C  C13  1  0.34460000  0.94520000  0.53623000  1.0 0.0035202527
C  C14  1  0.70220000  0.62440000  0.52598000  1.0 -0.1412216876
C  C15  1  0.87530000  0.61230000  0.51112000  1.0 -0.1310139448
C  C16  1  0.30580000  0.32700000  0.54441000  1.0 -0.031773348
C  C17  1  0.80980000  0.62940000  0.52853000  1.0 0.0736979293
C  C18  1  0.34500000  0.26540000  0.52840000  1.0 -0.170370234
C  C19  1  0.38880000  0.09520000  0.51470000  1.0 -0.1412216876
C  C20  1  0.08960000  0.27980000  0.11460000  1.0 -0.0108299552
C  C21  1  0.34320000  0.83020000  0.53836000  1.0 0.5695126695
C  C22  1  0.09500000  0.49220000  0.10940000  1.0 0.0797269414
C  C23  1  0.08100000  0.77240000  0.12220000  1.0 0.5804036451
C  C24  1  0.78640000  0.66680000  0.56660000  1.0 -0.1412216876
C  C25  1  0.68420000  0.66440000  0.56400000  1.0 -0.110492404
C  C26  1  0.11930000  0.32270000  0.09510000  1.0 -0.110492404
C  C27  1  0.63190000  0.97270000  0.08930000  1.0 -0.1592704177
C  C28  1  0.64190000  0.64490000  0.54308000  1.0 -0.031773348
C  C29  1  0.09780000  0.60000000  0.10700000  1.0 -0.1310139448
C  C30  1  0.34920000  0.15940000  0.53080000  1.0 0.0797269414
C  C31  1  0.38440000  0.99180000  0.51680000  1.0 -0.1310139448
C  C32  1  0.30390000  0.00850000  0.55260000  1.0 -0.170370234
C  C33  1  0.25940000  0.17780000  0.56540000  1.0 -0.1310139448
C  C34  1  0.29710000  0.11290000  0.54950000  1.0 0.0862229285
C  C35  1  0.25580000  0.69720000  0.38293000  1.0 0.2383687948
C  C36  1  0.27050000  0.62410000  0.36730000  1.0 -0.1778191621
C  C37  1  0.25710000  0.64810000  0.34567000  1.0 -0.1503496087
C  C38  1  0.22900000  0.74520000  0.33967000  1.0 0.0619411337
C  C39  1  0.21430000  0.81830000  0.35531000  1.0 -0.1196405817
C  C40  1  0.22770000  0.79430000  0.37694000  1.0 -0.1897515538
C  C41  1  0.12150000  0.43090000  0.09260000  1.0 -0.1310139448
C  C42  1  0.32990000  0.61190000  0.41470000  1.0 0.4492865049
C  C43  1  0.78370000  0.96670000  0.11150000  1.0 -0.0589459627
C  C44  1  0.06920000  0.33640000  0.13160000  1.0 -0.1592704177
C  C45  1  0.28450000  0.98270000  0.12050000  1.0 0.5695126695
C  C46  1  0.46210000  0.97730000  0.10520000  1.0 -0.1592704177
C  C47  1  0.40230000  0.98290000  0.12310000  1.0 -0.0108299552
C  C48  1  0.26270000  0.28070000  0.56270000  1.0 -0.110492404
C  C49  1  0.09120000  0.16500000  0.11760000  1.0 0.5932611418
C  C50  1  0.56940000  0.97720000  0.10720000  1.0 0.0797269414
C  C51  1  0.07310000  0.65930000  0.12420000  1.0 -0.0424194405
C  C52  1  0.44990000  0.99210000  0.14440000  1.0 -0.1011128504
C  C53  1  0.73960000  0.96980000  0.09100000  1.0 -0.1310139448
C  C54  1  0.61310000  0.98190000  0.12820000  1.0 0.0736979293
C  C55  1  0.07130000  0.44750000  0.12990000  1.0 0.0862229285
C  C56  1  0.89450000  0.96570000  0.11420000  1.0 0.5804036451
C  C57  1  0.05120000  0.61560000  0.14470000  1.0 -0.1011128504
C  C58  1  0.72340000  0.97200000  0.13030000  1.0 -0.1592704177
C  C59  1  0.04770000  0.51410000  0.14690000  1.0 -0.1592704177
C  C60  1  0.41530000  0.56630000  0.62742000  1.0 -0.170370234
C  C61  1  0.41070000  0.57690000  0.60516000  1.0 0.0998242279
C  C62  1  0.26300000  0.67760000  0.60850000  1.0 0.0619411337
C  C63  1  0.26770000  0.66690000  0.63076000  1.0 -0.1412216876
C  C64  1  0.34370000  0.61130000  0.64022000  1.0 -0.0227241925
C  C65  1  0.54810000  0.99330000  0.14610000  1.0 -0.1412216876
C  C66  1  0.07120000  0.04680000  0.18940000  1.0 0.0619411337
C  C67  1  0.09340000  0.03720000  0.21119000  1.0 -0.1310139448
C  C68  1  0.14050000  0.95130000  0.21881000  1.0 -0.0424194405
C  C69  1  0.16550000  0.87510000  0.20460000  1.0 -0.1592704177
C  C70  1  0.14340000  0.88480000  0.18281000  1.0 0.0998242279
C  C71  1  0.17000000  0.94400000  0.24030000  1.0 0.3956519109
C  C72  1  0.34900000  0.62040000  0.66350000  1.0 0.4445698303
C  C73  1  0.21500000  0.70740000  0.30060000  1.0 -0.1503496087
C  C74  1  0.21020000  0.78080000  0.31660000  1.0 0.0736979293
C  C75  1  0.20720000  0.88360000  0.31100000  1.0 -0.1503496087
C  C76  1  0.20870000  0.91290000  0.28950000  1.0 -0.170370234
C  C77  1  0.21350000  0.83950000  0.27350000  1.0 0.2160958392
C  C78  1  0.21650000  0.73670000  0.27910000  1.0 -0.2011456336
C  C79  1  0.42000000  0.58400000  0.73250000  1.0 -0.1503496087
C  C80  1  0.50060000  0.52340000  0.73760000  1.0 0.0736979293
C  C81  1  0.54890000  0.47110000  0.72150000  1.0 -0.1503496087
C  C82  1  0.51660000  0.47940000  0.70030000  1.0 -0.2011456336
C  C83  1  0.43500000  0.53900000  0.69510000  1.0 0.2383687948
C  C84  1  0.38670000  0.59130000  0.71120000  1.0 -0.170370234
C  C85  1  0.64310000  0.13890000  0.96250000  1.0 0.5804036451
C  C86  1  0.63850000  0.52910000  0.96001000  1.0 0.5804036451
C  C87  1  0.61230000  0.97850000  0.98611000  1.0 -0.1196405817
C  C88  1  0.44070000  0.31330000  0.95780000  1.0 0.5804036451
C  C89  1  0.63930000  0.02230000  0.96594000  1.0 -0.0108299552
C  C90  1  0.65600000  0.96000000  0.94835000  1.0 -0.206762548
C  C91  1  0.63400000  0.24380000  0.02740000  1.0 0.0797269414
C  C92  1  0.60560000  0.42380000  0.02831000  1.0 0.0797269414
C  C93  1  0.60120000  0.41960000  0.05065000  1.0 -0.1412216876
C  C94  1  0.61330000  0.32730000  0.06136000  1.0 0.0073503074
C  C95  1  0.62970000  0.23950000  0.04974000  1.0 -0.1897515538
C  C96  1  0.65240000  0.85300000  0.95086000  1.0 0.0797269414
C  C97  1  0.94520000  0.34460000  0.96377000  1.0 0.0035202527
C  C98  1  0.62440000  0.70220000  0.97402000  1.0 -0.1412216876
C  C99  1  0.61230000  0.87530000  0.98888000  1.0 -0.1310139448
C  C100  1  0.32700000  0.30580000  0.95559000  1.0 -0.031773348
C  C101  1  0.62940000  0.80980000  0.97147000  1.0 0.0736979293
C  C102  1  0.26540000  0.34500000  0.97160000  1.0 -0.170370234
C  C103  1  0.09520000  0.38880000  0.98530000  1.0 -0.1412216876
C  C104  1  0.27980000  0.08960000  0.38540000  1.0 -0.0108299552
C  C105  1  0.83020000  0.34320000  0.96164000  1.0 0.5695126695
C  C106  1  0.49220000  0.09500000  0.39060000  1.0 0.0797269414
C  C107  1  0.77240000  0.08100000  0.37780000  1.0 0.5804036451
C  C108  1  0.66680000  0.78640000  0.93340000  1.0 -0.1412216876
C  C109  1  0.66440000  0.68420000  0.93600000  1.0 -0.110492404
C  C110  1  0.32270000  0.11930000  0.40490000  1.0 -0.110492404
C  C111  1  0.97270000  0.63190000  0.41070000  1.0 -0.1592704177
C  C112  1  0.64490000  0.64190000  0.95692000  1.0 -0.031773348
C  C113  1  0.60000000  0.09780000  0.39300000  1.0 -0.1310139448
C  C114  1  0.15940000  0.34920000  0.96920000  1.0 0.0797269414
C  C115  1  0.99180000  0.38440000  0.98320000  1.0 -0.1310139448
C  C116  1  0.00850000  0.30390000  0.94740000  1.0 -0.170370234
C  C117  1  0.17780000  0.25940000  0.93460000  1.0 -0.1310139448
C  C118  1  0.11290000  0.29710000  0.95050000  1.0 0.0862229285
C  C119  1  0.69720000  0.25580000  0.11707000  1.0 0.2383687948
C  C120  1  0.62410000  0.27050000  0.13270000  1.0 -0.1778191621
C  C121  1  0.64810000  0.25710000  0.15433000  1.0 -0.1503496087
C  C122  1  0.74520000  0.22900000  0.16033000  1.0 0.0619411337
C  C123  1  0.81830000  0.21430000  0.14469000  1.0 -0.1196405817
C  C124  1  0.79430000  0.22770000  0.12306000  1.0 -0.1897515538
C  C125  1  0.43090000  0.12150000  0.40740000  1.0 -0.1310139448
C  C126  1  0.61190000  0.32990000  0.08530000  1.0 0.4492865049
C  C127  1  0.96670000  0.78370000  0.38850000  1.0 -0.0589459627
C  C128  1  0.33640000  0.06920000  0.36840000  1.0 -0.1592704177
C  C129  1  0.98270000  0.28450000  0.37950000  1.0 0.5695126695
C  C130  1  0.97730000  0.46210000  0.39480000  1.0 -0.1592704177
C  C131  1  0.98290000  0.40230000  0.37690000  1.0 -0.0108299552
C  C132  1  0.28070000  0.26270000  0.93730000  1.0 -0.110492404
C  C133  1  0.16500000  0.09120000  0.38240000  1.0 0.5932611418
C  C134  1  0.97720000  0.56940000  0.39280000  1.0 0.0797269414
C  C135  1  0.65930000  0.07310000  0.37580000  1.0 -0.0424194405
C  C136  1  0.99210000  0.44990000  0.35560000  1.0 -0.1011128504
C  C137  1  0.96980000  0.73960000  0.40900000  1.0 -0.1310139448
C  C138  1  0.98190000  0.61310000  0.37180000  1.0 0.0736979293
C  C139  1  0.44750000  0.07130000  0.37010000  1.0 0.0862229285
C  C140  1  0.96570000  0.89450000  0.38580000  1.0 0.5804036451
C  C141  1  0.61560000  0.05120000  0.35530000  1.0 -0.1011128504
C  C142  1  0.97200000  0.72340000  0.36970000  1.0 -0.1592704177
C  C143  1  0.51410000  0.04770000  0.35310000  1.0 -0.1592704177
C  C144  1  0.56630000  0.41530000  0.87258000  1.0 -0.170370234
C  C145  1  0.57690000  0.41070000  0.89484000  1.0 0.0998242279
C  C146  1  0.67760000  0.26300000  0.89150000  1.0 0.0619411337
C  C147  1  0.66690000  0.26770000  0.86924000  1.0 -0.1412216876
C  C148  1  0.61130000  0.34370000  0.85978000  1.0 -0.0227241925
C  C149  1  0.99330000  0.54810000  0.35390000  1.0 -0.1412216876
C  C150  1  0.04680000  0.07120000  0.31060000  1.0 0.0619411337
C  C151  1  0.03720000  0.09340000  0.28881000  1.0 -0.1310139448
C  C152  1  0.95130000  0.14050000  0.28119000  1.0 -0.0424194405
C  C153  1  0.87510000  0.16550000  0.29540000  1.0 -0.1592704177
C  C154  1  0.88480000  0.14340000  0.31719000  1.0 0.0998242279
C  C155  1  0.94400000  0.17000000  0.25970000  1.0 0.3946217639
C  C156  1  0.62040000  0.34900000  0.83650000  1.0 0.4492865049
C  C157  1  0.70740000  0.21500000  0.19940000  1.0 -0.1412216876
C  C158  1  0.78080000  0.21020000  0.18340000  1.0 0.0736979293
C  C159  1  0.88360000  0.20720000  0.18900000  1.0 -0.1503496087
C  C160  1  0.91290000  0.20870000  0.21050000  1.0 -0.170370234
C  C161  1  0.83950000  0.21350000  0.22650000  1.0 0.2160958392
C  C162  1  0.73670000  0.21650000  0.22090000  1.0 -0.2011456336
C  C163  1  0.58400000  0.42000000  0.76750000  1.0 -0.1503496087
C  C164  1  0.52340000  0.50060000  0.76240000  1.0 0.0736979293
C  C165  1  0.47110000  0.54890000  0.77850000  1.0 -0.1503496087
C  C166  1  0.47940000  0.51660000  0.79970000  1.0 -0.2011456336
C  C167  1  0.53900000  0.43500000  0.80490000  1.0 0.2383687948
C  C168  1  0.59130000  0.38670000  0.78880000  1.0 -0.170370234
C  C169  1  0.86110000  0.35690000  0.46250000  1.0 0.5804036451
C  C170  1  0.47090000  0.36150000  0.46001000  1.0 0.5804036451
C  C171  1  0.02150000  0.38770000  0.48611000  1.0 -0.1196405817
C  C172  1  0.68670000  0.55930000  0.45780000  1.0 0.5804036451
C  C173  1  0.97770000  0.36070000  0.46594000  1.0 -0.0108299552
C  C174  1  0.04000000  0.34400000  0.44835000  1.0 -0.206762548
C  C175  1  0.75620000  0.36600000  0.52740000  1.0 0.0797269414
C  C176  1  0.57620000  0.39440000  0.52831000  1.0 0.0797269414
C  C177  1  0.58040000  0.39880000  0.55065000  1.0 -0.1412216876
C  C178  1  0.67270000  0.38670000  0.56136000  1.0 0.0073503074
C  C179  1  0.76050000  0.37030000  0.54974000  1.0 -0.1897515538
C  C180  1  0.14700000  0.34760000  0.45086000  1.0 0.0797269414
C  C181  1  0.65540000  0.05480000  0.46377000  1.0 0.0035202527
C  C182  1  0.29780000  0.37560000  0.47402000  1.0 -0.1412216876
C  C183  1  0.12470000  0.38770000  0.48888000  1.0 -0.1310139448
C  C184  1  0.69420000  0.67300000  0.45559000  1.0 -0.0424194405
C  C185  1  0.19020000  0.37060000  0.47147000  1.0 0.0736979293
C  C186  1  0.65500000  0.73460000  0.47160000  1.0 -0.170370234
C  C187  1  0.61120000  0.90480000  0.48530000  1.0 -0.1503496087
C  C188  1  0.91040000  0.72020000  0.88540000  1.0 -0.0108299552
C  C189  1  0.65680000  0.16980000  0.46164000  1.0 0.5695126695
C  C190  1  0.90500000  0.50780000  0.89060000  1.0 0.0797269414
C  C191  1  0.91900000  0.22760000  0.87780000  1.0 0.5804036451
C  C192  1  0.21360000  0.33320000  0.43340000  1.0 -0.1412216876
C  C193  1  0.31580000  0.33560000  0.43600000  1.0 -0.110492404
C  C194  1  0.88070000  0.67730000  0.90490000  1.0 -0.110492404
C  C195  1  0.36810000  0.02730000  0.91070000  1.0 -0.1592704177
C  C196  1  0.35810000  0.35510000  0.45692000  1.0 -0.031773348
C  C197  1  0.90220000  0.40000000  0.89300000  1.0 -0.1310139448
C  C198  1  0.65080000  0.84060000  0.46920000  1.0 0.0797269414
C  C199  1  0.61560000  0.00820000  0.48320000  1.0 -0.1310139448
C  C200  1  0.69610000  0.99150000  0.44740000  1.0 -0.170370234
C  C201  1  0.74060000  0.82220000  0.43460000  1.0 -0.1310139448
C  C202  1  0.70290000  0.88710000  0.45050000  1.0 0.0862229285
C  C203  1  0.74420000  0.30280000  0.61707000  1.0 0.2383687948
C  C204  1  0.72950000  0.37590000  0.63270000  1.0 -0.1778191621
C  C205  1  0.74290000  0.35190000  0.65433000  1.0 -0.1503496087
C  C206  1  0.77100000  0.25480000  0.66033000  1.0 0.0619411337
C  C207  1  0.78570000  0.18170000  0.64469000  1.0 -0.1196405817
C  C208  1  0.77230000  0.20570000  0.62306000  1.0 -0.1897515538
C  C209  1  0.87850000  0.56910000  0.90740000  1.0 -0.1310139448
C  C210  1  0.67010000  0.38810000  0.58530000  1.0 0.4492865049
C  C211  1  0.21630000  0.03330000  0.88850000  1.0 -0.0589459627
C  C212  1  0.93080000  0.66360000  0.86840000  1.0 -0.1592704177
C  C213  1  0.71550000  0.01730000  0.87950000  1.0 0.5695126695
C  C214  1  0.53790000  0.02270000  0.89480000  1.0 -0.1592704177
C  C215  1  0.59770000  0.01710000  0.87690000  1.0 -0.0108299552
C  C216  1  0.73730000  0.71930000  0.43730000  1.0 -0.110492404
C  C217  1  0.90880000  0.83500000  0.88240000  1.0 0.5932611418
C  C218  1  0.43060000  0.02280000  0.89280000  1.0 0.0797269414
C  C219  1  0.92690000  0.34070000  0.87580000  1.0 -0.0424194405
C  C220  1  0.55010000  0.00790000  0.85560000  1.0 -0.1011128504
C  C221  1  0.26040000  0.03020000  0.90900000  1.0 -0.1310139448
C  C222  1  0.38690000  0.01810000  0.87180000  1.0 0.0736979293
C  C223  1  0.92870000  0.55250000  0.87010000  1.0 0.0862229285
C  C224  1  0.10550000  0.03430000  0.88580000  1.0 0.5804036451
C  C225  1  0.94880000  0.38440000  0.85530000  1.0 -0.1011128504
C  C226  1  0.27660000  0.02800000  0.86970000  1.0 -0.1592704177
C  C227  1  0.95230000  0.48590000  0.85310000  1.0 -0.1592704177
C  C228  1  0.58470000  0.43370000  0.37258000  1.0 -0.170370234
C  C229  1  0.58930000  0.42310000  0.39484000  1.0 0.0998242279
C  C230  1  0.73700000  0.32240000  0.39150000  1.0 0.0619411337
C  C231  1  0.73230000  0.33310000  0.36924000  1.0 -0.1412216876
C  C232  1  0.65630000  0.38870000  0.35978000  1.0 -0.0227241925
C  C233  1  0.45190000  0.00670000  0.85390000  1.0 -0.1412216876
C  C234  1  0.92880000  0.95320000  0.81060000  1.0 0.0619411337
C  C235  1  0.90660000  0.96280000  0.78881000  1.0 -0.1310139448
C  C236  1  0.85950000  0.04870000  0.78119000  1.0 -0.0424194405
C  C237  1  0.83450000  0.12490000  0.79540000  1.0 -0.1592704177
C  C238  1  0.85660000  0.11520000  0.81719000  1.0 0.0998242279
C  C239  1  0.83000000  0.05600000  0.75970000  1.0 0.3956519109
C  C240  1  0.65100000  0.37960000  0.33650000  1.0 0.4445698303
C  C241  1  0.78500000  0.29260000  0.69940000  1.0 -0.1412216876
C  C242  1  0.78980000  0.21920000  0.68340000  1.0 0.0736979293
C  C243  1  0.79280000  0.11640000  0.68900000  1.0 -0.1503496087
C  C244  1  0.79130000  0.08710000  0.71050000  1.0 -0.170370234
C  C245  1  0.78650000  0.16050000  0.72650000  1.0 0.2160958392
C  C246  1  0.78350000  0.26330000  0.72090000  1.0 -0.2011456336
C  C247  1  0.58000000  0.41600000  0.26750000  1.0 -0.1503496087
C  C248  1  0.49940000  0.47660000  0.26240000  1.0 0.0736979293
C  C249  1  0.45110000  0.52890000  0.27850000  1.0 -0.1503496087
C  C250  1  0.48340000  0.52060000  0.29970000  1.0 -0.2011456336
C  C251  1  0.56500000  0.46100000  0.30490000  1.0 0.2383687948
C  C252  1  0.61330000  0.40870000  0.28880000  1.0 -0.170370234
C  C253  1  0.35690000  0.86110000  0.03750000  1.0 0.5804036451
C  C254  1  0.36150000  0.47090000  0.03999000  1.0 0.5804036451
C  C255  1  0.38770000  0.02150000  0.01389000  1.0 -0.1196405817
C  C256  1  0.55930000  0.68670000  0.04220000  1.0 0.5804036451
C  C257  1  0.36070000  0.97770000  0.03406000  1.0 -0.0108299552
C  C258  1  0.34400000  0.04000000  0.05165000  1.0 -0.206762548
C  C259  1  0.36600000  0.75620000  0.97260000  1.0 0.0797269414
C  C260  1  0.39440000  0.57620000  0.97169000  1.0 0.0797269414
C  C261  1  0.39880000  0.58040000  0.94935000  1.0 -0.1412216876
C  C262  1  0.38670000  0.67270000  0.93864000  1.0 0.0073503074
C  C263  1  0.37030000  0.76050000  0.95026000  1.0 -0.1897515538
C  C264  1  0.34760000  0.14700000  0.04914000  1.0 0.0797269414
C  C265  1  0.05480000  0.65540000  0.03623000  1.0 0.0035202527
C  C266  1  0.37560000  0.29780000  0.02598000  1.0 -0.1412216876
C  C267  1  0.38770000  0.12470000  0.01112000  1.0 -0.1310139448
C  C268  1  0.67300000  0.69420000  0.04441000  1.0 -0.031773348
C  C269  1  0.37060000  0.19020000  0.02853000  1.0 0.0736979293
C  C270  1  0.73460000  0.65500000  0.02840000  1.0 -0.170370234
C  C271  1  0.90480000  0.61120000  0.01470000  1.0 -0.1412216876
C  C272  1  0.72020000  0.91040000  0.61460000  1.0 -0.0227241925
C  C273  1  0.16980000  0.65680000  0.03836000  1.0 0.5695126695
C  C274  1  0.50780000  0.90500000  0.60940000  1.0 0.0797269414
C  C275  1  0.22760000  0.91900000  0.62220000  1.0 0.5804036451
C  C276  1  0.33320000  0.21360000  0.06660000  1.0 -0.1412216876
C  C277  1  0.33560000  0.31580000  0.06400000  1.0 -0.110492404
C  C278  1  0.67730000  0.88070000  0.59510000  1.0 -0.110492404
C  C279  1  0.02730000  0.36810000  0.58930000  1.0 -0.1592704177
C  C280  1  0.35510000  0.35810000  0.04308000  1.0 -0.031773348
C  C281  1  0.40000000  0.90220000  0.60700000  1.0 -0.1310139448
C  C282  1  0.84060000  0.65080000  0.03080000  1.0 0.0797269414
C  C283  1  0.00820000  0.61560000  0.01680000  1.0 -0.1310139448
C  C284  1  0.99150000  0.69610000  0.05260000  1.0 -0.170370234
C  C285  1  0.82220000  0.74060000  0.06540000  1.0 -0.1310139448
C  C286  1  0.88710000  0.70290000  0.04950000  1.0 0.0862229285
C  C287  1  0.30280000  0.74420000  0.88293000  1.0 0.2383687948
C  C288  1  0.37590000  0.72950000  0.86730000  1.0 -0.1778191621
C  C289  1  0.35190000  0.74290000  0.84567000  1.0 -0.1503496087
C  C290  1  0.25480000  0.77100000  0.83967000  1.0 0.0619411337
C  C291  1  0.18170000  0.78570000  0.85531000  1.0 -0.1196405817
C  C292  1  0.20570000  0.77230000  0.87694000  1.0 -0.1897515538
C  C293  1  0.56910000  0.87850000  0.59260000  1.0 -0.1310139448
C  C294  1  0.38810000  0.67010000  0.91470000  1.0 0.4492865049
C  C295  1  0.03330000  0.21630000  0.61150000  1.0 -0.0589459627
C  C296  1  0.66360000  0.93080000  0.63160000  1.0 -0.1592704177
C  C297  1  0.01730000  0.71550000  0.62050000  1.0 0.5695126695
C  C298  1  0.02270000  0.53790000  0.60520000  1.0 -0.1592704177
C  C299  1  0.01710000  0.59770000  0.62310000  1.0 -0.0108299552
C  C300  1  0.71930000  0.73730000  0.06270000  1.0 -0.110492404
C  C301  1  0.83500000  0.90880000  0.61760000  1.0 0.5932611418
C  C302  1  0.02280000  0.43060000  0.60720000  1.0 0.0797269414
C  C303  1  0.34070000  0.92690000  0.62420000  1.0 -0.0424194405
C  C304  1  0.00790000  0.55010000  0.64440000  1.0 -0.1011128504
C  C305  1  0.03020000  0.26040000  0.59100000  1.0 -0.1310139448
C  C306  1  0.01810000  0.38690000  0.62820000  1.0 0.0736979293
C  C307  1  0.55250000  0.92870000  0.62990000  1.0 0.0862229285
C  C308  1  0.03430000  0.10550000  0.61420000  1.0 0.5804036451
C  C309  1  0.38440000  0.94880000  0.64470000  1.0 -0.1011128504
C  C310  1  0.02800000  0.27660000  0.63030000  1.0 -0.1592704177
C  C311  1  0.48590000  0.95230000  0.64690000  1.0 -0.1592704177
C  C312  1  0.43370000  0.58470000  0.12742000  1.0 -0.170370234
C  C313  1  0.42310000  0.58930000  0.10516000  1.0 0.0998242279
C  C314  1  0.32240000  0.73700000  0.10850000  1.0 0.0619411337
C  C315  1  0.33310000  0.73230000  0.13076000  1.0 -0.1412216876
C  C316  1  0.38870000  0.65630000  0.14022000  1.0 -0.0227241925
C  C317  1  0.00670000  0.45190000  0.64610000  1.0 -0.1412216876
C  C318  1  0.95320000  0.92880000  0.68940000  1.0 0.0619411337
C  C319  1  0.96280000  0.90660000  0.71119000  1.0 -0.1310139448
C  C320  1  0.04870000  0.85950000  0.71881000  1.0 -0.0424194405
C  C321  1  0.12490000  0.83450000  0.70460000  1.0 -0.1592704177
C  C322  1  0.11520000  0.85660000  0.68281000  1.0 0.0998242279
C  C323  1  0.05600000  0.83000000  0.74030000  1.0 0.3956519109
C  C324  1  0.37960000  0.65100000  0.16350000  1.0 0.4492865049
C  C325  1  0.29260000  0.78500000  0.80060000  1.0 -0.1412216876
C  C326  1  0.21920000  0.78980000  0.81660000  1.0 0.0736979293
C  C327  1  0.11640000  0.79280000  0.81100000  1.0 -0.1503496087
C  C328  1  0.08710000  0.79130000  0.78950000  1.0 -0.170370234
C  C329  1  0.16050000  0.78650000  0.77350000  1.0 0.2160958392
C  C330  1  0.26330000  0.78350000  0.77910000  1.0 -0.2011456336
C  C331  1  0.41600000  0.58000000  0.23250000  1.0 -0.1503496087
C  C332  1  0.47660000  0.49940000  0.23760000  1.0 0.0736979293
C  C333  1  0.52890000  0.45110000  0.22150000  1.0 -0.1503496087
C  C334  1  0.52060000  0.48340000  0.20030000  1.0 -0.2011456336
C  C335  1  0.46100000  0.56500000  0.19510000  1.0 0.2383687948
C  C336  1  0.40870000  0.61330000  0.21120000  1.0 -0.170370234
N  N1  1  0.26680000  0.67960000  0.40480000  1.0 -0.3572747479
N  N2  1  0.33590000  0.62190000  0.48332000  1.0 -0.2418471831
N  N3  1  0.33450000  0.63250000  0.59570000  1.0 -0.2513345289
N  N4  1  0.09620000  0.97060000  0.17519000  1.0 -0.2309268
N  N5  1  0.21100000  0.86700000  0.25170000  1.0 -0.3268820527
N  N6  1  0.41100000  0.55260000  0.67330000  1.0 -0.3572747479
N  N7  1  0.67960000  0.26680000  0.09520000  1.0 -0.3572747479
N  N8  1  0.62190000  0.33590000  0.01668000  1.0 -0.2418471831
N  N9  1  0.63250000  0.33450000  0.90430000  1.0 -0.2513345289
N  N10  1  0.97060000  0.09620000  0.32481000  1.0 -0.2309268
N  N11  1  0.86700000  0.21100000  0.24830000  1.0 -0.3268820527
N  N12  1  0.55260000  0.41100000  0.82670000  1.0 -0.3572747479
N  N13  1  0.73320000  0.32040000  0.59520000  1.0 -0.3572747479
N  N14  1  0.66410000  0.37810000  0.51668000  1.0 -0.2418471831
N  N15  1  0.66550000  0.36750000  0.40430000  1.0 -0.2513345289
N  N16  1  0.90380000  0.02940000  0.82481000  1.0 -0.2309268
N  N17  1  0.78900000  0.13300000  0.74830000  1.0 -0.3268820527
N  N18  1  0.58900000  0.44740000  0.32670000  1.0 -0.3572747479
N  N19  1  0.32040000  0.73320000  0.90480000  1.0 -0.3572747479
N  N20  1  0.37810000  0.66410000  0.98332000  1.0 -0.2418471831
N  N21  1  0.36750000  0.66550000  0.09570000  1.0 -0.2513345289
N  N22  1  0.02940000  0.90380000  0.67519000  1.0 -0.2309268
N  N23  1  0.13300000  0.78900000  0.75170000  1.0 -0.3268820527
N  N24  1  0.44740000  0.58900000  0.17330000  1.0 -0.3572747479
O  O1  1  0.34210000  0.47710000  0.52372000  1.0 -0.558468752
O  O2  1  0.47220000  0.63080000  0.55647000  1.0 -0.558468752
O  O3  1  0.49580000  0.63820000  0.52067000  1.0 -0.5310249585
O  O4  1  0.17130000  0.66790000  0.55564000  1.0 -0.5310249585
O  O5  1  0.34460000  0.79600000  0.55718000  1.0 -0.5210097688
O  O6  1  0.18900000  0.61720000  0.52116000  1.0 -0.558468752
O  O7  1  0.24880000  0.97120000  0.10206000  1.0 -0.5478363591
O  O8  1  0.29140000  0.49320000  0.55834000  1.0 -0.538944866
O  O9  1  0.09150000  0.81090000  0.10284000  1.0 -0.558468752
O  O10  1  0.07090000  0.82830000  0.13914000  1.0 -0.5673882068
O  O11  1  0.33730000  0.78190000  0.52139000  1.0 -0.5310249585
O  O12  1  0.23690000  0.98270000  0.13787000  1.0 -0.538944866
O  O13  1  0.38600000  0.56000000  0.40471000  1.0 -0.4447256881
O  O14  1  0.94730000  0.95610000  0.09680000  1.0 -0.558468752
O  O15  1  0.09910000  0.11390000  0.10040000  1.0 -0.558468752
O  O16  1  0.08050000  0.12810000  0.13630000  1.0 -0.5310249585
O  O17  1  0.12370000  0.92470000  0.06405000  1.0 -0.6080733496
O  O18  1  0.93290000  0.97410000  0.13290000  1.0 -0.538944866
O  O19  1  0.17800000  0.02200000  0.25070000  1.0 -0.3534100609
O  O20  1  0.30490000  0.68050000  0.67430000  1.0 -0.4447256881
O  O21  1  0.47710000  0.34210000  0.97628000  1.0 -0.558468752
O  O22  1  0.63080000  0.47220000  0.94353000  1.0 -0.558468752
O  O23  1  0.63820000  0.49580000  0.97933000  1.0 -0.5310249585
O  O24  1  0.66790000  0.17130000  0.94436000  1.0 -0.5310249585
O  O25  1  0.79600000  0.34460000  0.94282000  1.0 -0.5210097688
O  O26  1  0.61720000  0.18900000  0.97884000  1.0 -0.558468752
O  O27  1  0.97120000  0.24880000  0.39794000  1.0 -0.5478363591
O  O28  1  0.49320000  0.29140000  0.94166000  1.0 -0.538944866
O  O29  1  0.81090000  0.09150000  0.39716000  1.0 -0.558468752
O  O30  1  0.82830000  0.07090000  0.36086000  1.0 -0.5673882068
O  O31  1  0.78190000  0.33730000  0.97861000  1.0 -0.5310249585
O  O32  1  0.98270000  0.23690000  0.36213000  1.0 -0.538944866
O  O33  1  0.56000000  0.38600000  0.09529000  1.0 -0.4447256881
O  O34  1  0.95610000  0.94730000  0.40320000  1.0 -0.558468752
O  O35  1  0.11390000  0.09910000  0.39960000  1.0 -0.5673882068
O  O36  1  0.12810000  0.08050000  0.36370000  1.0 -0.5310249585
O  O37  1  0.92470000  0.12370000  0.43595000  1.0 -0.6080733496
O  O38  1  0.97410000  0.93290000  0.36710000  1.0 -0.538944866
O  O39  1  0.02200000  0.17800000  0.24930000  1.0 -0.3534100609
O  O40  1  0.68050000  0.30490000  0.82570000  1.0 -0.445463981
O  O41  1  0.65790000  0.52290000  0.47628000  1.0 -0.558468752
O  O42  1  0.52780000  0.36920000  0.44353000  1.0 -0.558468752
O  O43  1  0.50420000  0.36180000  0.47933000  1.0 -0.5310249585
O  O44  1  0.82870000  0.33210000  0.44436000  1.0 -0.5310249585
O  O45  1  0.65540000  0.20400000  0.44282000  1.0 -0.5210097688
O  O46  1  0.81100000  0.38280000  0.47884000  1.0 -0.558468752
O  O47  1  0.75120000  0.02880000  0.89794000  1.0 -0.5478363591
O  O48  1  0.70860000  0.50680000  0.44166000  1.0 -0.538944866
O  O49  1  0.90850000  0.18910000  0.89716000  1.0 -0.558468752
O  O50  1  0.92910000  0.17170000  0.86086000  1.0 -0.5673882068
O  O51  1  0.66270000  0.21810000  0.47861000  1.0 -0.5310249585
O  O52  1  0.76310000  0.01730000  0.86213000  1.0 -0.538944866
O  O53  1  0.61400000  0.44000000  0.59529000  1.0 -0.445463981
O  O54  1  0.05270000  0.04390000  0.90320000  1.0 -0.558468752
O  O55  1  0.90090000  0.88610000  0.89960000  1.0 -0.5673882068
O  O56  1  0.91950000  0.87190000  0.86370000  1.0 -0.5310249585
O  O57  1  0.87630000  0.07530000  0.93595000  1.0 -0.6080733496
O  O58  1  0.06710000  0.02590000  0.86710000  1.0 -0.538944866
O  O59  1  0.82200000  0.97800000  0.74930000  1.0 -0.3534100609
O  O60  1  0.69510000  0.31950000  0.32570000  1.0 -0.4447256881
O  O61  1  0.52290000  0.65790000  0.02372000  1.0 -0.558468752
O  O62  1  0.36920000  0.52780000  0.05647000  1.0 -0.558468752
O  O63  1  0.36180000  0.50420000  0.02067000  1.0 -0.5310249585
O  O64  1  0.33210000  0.82870000  0.05564000  1.0 -0.5310249585
O  O65  1  0.20400000  0.65540000  0.05718000  1.0 -0.5210097688
O  O66  1  0.38280000  0.81100000  0.02116000  1.0 -0.558468752
O  O67  1  0.02880000  0.75120000  0.60206000  1.0 -0.5478363591
O  O68  1  0.50680000  0.70860000  0.05834000  1.0 -0.538944866
O  O69  1  0.18910000  0.90850000  0.60284000  1.0 -0.558468752
O  O70  1  0.17170000  0.92910000  0.63914000  1.0 -0.5673882068
O  O71  1  0.21810000  0.66270000  0.02139000  1.0 -0.5310249585
O  O72  1  0.01730000  0.76310000  0.63787000  1.0 -0.538944866
O  O73  1  0.44000000  0.61400000  0.90471000  1.0 -0.4447256881
O  O74  1  0.04390000  0.05270000  0.59680000  1.0 -0.558468752
O  O75  1  0.88610000  0.90090000  0.60040000  1.0 -0.5673882068
O  O76  1  0.87190000  0.91950000  0.63630000  1.0 -0.5310249585
O  O77  1  0.07530000  0.87630000  0.56405000  1.0 -0.6080733496
O  O78  1  0.02590000  0.06710000  0.63290000  1.0 -0.538944866
O  O79  1  0.97800000  0.82200000  0.75070000  1.0 -0.3534100609
O  O80  1  0.31950000  0.69510000  0.17430000  1.0 -0.445463981
