# DDEC6 charges by PACMAN v1.1 (https://github.com/mtap-research/PACMAN-charge/)
data_NILFEW_ASR_pacman
_symmetry_space_group_name_H-M   'P 1'
_cell_length_a   19.54210000
_cell_length_b   17.38480000
_cell_length_c   31.78700000
_cell_angle_alpha   90.00000000
_cell_angle_beta   97.34400000
_cell_angle_gamma   90.00000000
_symmetry_Int_Tables_number   1
_chemical_formula_structural   Zn3H38C84N7(OF)16
_chemical_formula_sum   'Zn12 H152 C336 N28 O64 F64'
_cell_volume   10710.58210294
_cell_formula_units_Z   4
loop_
 _symmetry_equiv_pos_site_id
 _symmetry_equiv_pos_as_xyz
  1  'x, y, z'
loop_
 _atom_site_type_symbol
 _atom_site_label
 _atom_site_symmetry_multiplicity
 _atom_site_fract_x
 _atom_site_fract_y
 _atom_site_fract_z
 _atom_site_occupancy
 _atom_site_charge
Zn  Zn1  1  0.50064000  0.49807000  0.04643000  1.0 0.7903077183
Zn  Zn2  1  0.77112000  0.49870000  0.89126000  1.0 0.9026491073
Zn  Zn3  1  0.77120000  0.50209000  0.79828000  1.0 0.7502191839
Zn  Zn4  1  0.99936000  0.99807000  0.95357000  1.0 0.7903077183
Zn  Zn5  1  0.72888000  0.99870000  0.10874000  1.0 0.9026491073
Zn  Zn6  1  0.72880000  0.00209000  0.20172000  1.0 0.7502191839
Zn  Zn7  1  0.49936000  0.50193000  0.95357000  1.0 0.7903077183
Zn  Zn8  1  0.22888000  0.50130000  0.10874000  1.0 0.9026491073
Zn  Zn9  1  0.22880000  0.49791000  0.20172000  1.0 0.7502191839
Zn  Zn10  1  0.00064000  0.00193000  0.04643000  1.0 0.7903077183
Zn  Zn11  1  0.27112000  0.00130000  0.89126000  1.0 0.9026491073
Zn  Zn12  1  0.27120000  0.99791000  0.79828000  1.0 0.7502191839
H  H1  1  0.30500000  0.37290000  0.04510000  1.0 0.1191788301
H  H2  1  0.44020000  0.84520000  0.92060000  1.0 0.1191788301
H  H3  1  0.17150000  0.15300000  0.95090000  1.0 0.1191788301
H  H4  1  0.35640000  0.31090000  0.93000000  1.0 0.1091536544
H  H5  1  0.53180000  0.76000000  0.93060000  1.0 0.125949737
H  H6  1  0.26960000  0.21910000  0.92210000  1.0 0.1191788301
H  H7  1  0.11980000  0.21580000  0.06570000  1.0 0.1191788301
H  H8  1  0.62320000  0.68500000  0.90040000  1.0 0.1191788301
H  H9  1  0.00410000  0.22430000  0.92440000  1.0 0.125949737
H  H10  1  0.20430000  0.31060000  0.07230000  1.0 0.1191788301
H  H11  1  0.91530000  0.31270000  0.91610000  1.0 0.1191788301
H  H12  1  0.09360000  0.14890000  0.89360000  1.0 0.1191788301
H  H13  1  0.45960000  0.86390000  0.79530000  1.0 0.1191788301
H  H14  1  0.91900000  0.31800000  0.78890000  1.0 0.125949737
H  H15  1  0.09740000  0.15080000  0.76570000  1.0 0.0999799622
H  H16  1  0.00550000  0.23510000  0.75680000  1.0 0.0999799622
H  H17  1  0.64140000  0.70040000  0.77510000  1.0 0.1191788301
H  H18  1  0.55150000  0.78880000  0.76520000  1.0 0.1191788301
H  H19  1  0.42960000  0.44520000  0.18860000  1.0 0.1091536544
H  H20  1  0.42060000  0.44420000  0.11450000  1.0 0.125949737
H  H21  1  0.60150000  0.56000000  0.12000000  1.0 0.1425193959
H  H22  1  0.61050000  0.56100000  0.19410000  1.0 0.0799734671
H  H23  1  0.60840000  0.56030000  0.25350000  1.0 0.125949737
H  H24  1  0.62610000  0.50530000  0.66060000  1.0 0.0799734671
H  H25  1  0.65210000  0.50540000  0.73450000  1.0 0.1091536544
H  H26  1  0.85630000  0.50260000  0.72300000  1.0 0.0799734671
H  H27  1  0.83020000  0.50250000  0.64910000  1.0 0.0799734671
H  H28  1  0.61990000  0.54100000  0.60040000  1.0 0.1455605505
H  H29  1  0.60720000  0.59640000  0.25160000  1.0 0.1191788301
H  H30  1  0.61660000  0.59090000  0.60060000  1.0 0.1425193959
H  H31  1  0.62450000  0.53990000  0.65460000  1.0 0.0419726502
H  H32  1  0.64390000  0.50770000  0.72660000  1.0 0.1091536544
H  H33  1  0.84970000  0.53450000  0.72530000  1.0 0.0999799622
H  H34  1  0.83030000  0.56660000  0.65330000  1.0 0.0799734671
H  H35  1  0.44230000  0.45580000  0.19450000  1.0 0.1191788301
H  H36  1  0.43300000  0.44570000  0.12230000  1.0 0.1425193959
H  H37  1  0.58800000  0.57370000  0.11510000  1.0 0.1455605505
H  H38  1  0.60120000  0.59480000  0.18830000  1.0 0.0799734671
H  H39  1  0.19500000  0.87290000  0.95490000  1.0 0.1191788301
H  H40  1  0.05980000  0.34520000  0.07940000  1.0 0.1191788301
H  H41  1  0.32850000  0.65300000  0.04910000  1.0 0.1191788301
H  H42  1  0.14360000  0.81090000  0.07000000  1.0 0.1091536544
H  H43  1  0.96820000  0.26000000  0.06940000  1.0 0.125949737
H  H44  1  0.23040000  0.71910000  0.07790000  1.0 0.1191788301
H  H45  1  0.38020000  0.71580000  0.93430000  1.0 0.1191788301
H  H46  1  0.87680000  0.18500000  0.09960000  1.0 0.1191788301
H  H47  1  0.49590000  0.72430000  0.07560000  1.0 0.125949737
H  H48  1  0.29570000  0.81060000  0.92770000  1.0 0.1191788301
H  H49  1  0.58470000  0.81270000  0.08390000  1.0 0.1191788301
H  H50  1  0.40640000  0.64890000  0.10640000  1.0 0.1191788301
H  H51  1  0.04040000  0.36390000  0.20470000  1.0 0.1191788301
H  H52  1  0.58100000  0.81800000  0.21110000  1.0 0.125949737
H  H53  1  0.40260000  0.65080000  0.23430000  1.0 0.0999799622
H  H54  1  0.49450000  0.73510000  0.24320000  1.0 0.0999799622
H  H55  1  0.85860000  0.20040000  0.22490000  1.0 0.1191788301
H  H56  1  0.94850000  0.28880000  0.23480000  1.0 0.1191788301
H  H57  1  0.07040000  0.94520000  0.81140000  1.0 0.1091536544
H  H58  1  0.07940000  0.94420000  0.88550000  1.0 0.125949737
H  H59  1  0.89850000  0.06000000  0.88000000  1.0 0.1425193959
H  H60  1  0.88950000  0.06100000  0.80590000  1.0 0.0799734671
H  H61  1  0.89160000  0.06030000  0.74650000  1.0 0.125949737
H  H62  1  0.87390000  0.00530000  0.33940000  1.0 0.0799734671
H  H63  1  0.84790000  0.00540000  0.26550000  1.0 0.1091536544
H  H64  1  0.64370000  0.00260000  0.27700000  1.0 0.0799734671
H  H65  1  0.66980000  0.00250000  0.35090000  1.0 0.0799734671
H  H66  1  0.88010000  0.04100000  0.39960000  1.0 0.1425193959
H  H67  1  0.89280000  0.09640000  0.74840000  1.0 0.1191788301
H  H68  1  0.88340000  0.09090000  0.39940000  1.0 0.1425193959
H  H69  1  0.87550000  0.03990000  0.34540000  1.0 0.0419726502
H  H70  1  0.85610000  0.00770000  0.27340000  1.0 0.1091536544
H  H71  1  0.65030000  0.03450000  0.27470000  1.0 0.0999799622
H  H72  1  0.66970000  0.06660000  0.34670000  1.0 0.0799734671
H  H73  1  0.05770000  0.95580000  0.80550000  1.0 0.1191788301
H  H74  1  0.06700000  0.94570000  0.87770000  1.0 0.1425193959
H  H75  1  0.91200000  0.07370000  0.88490000  1.0 0.1455605505
H  H76  1  0.89880000  0.09480000  0.81170000  1.0 0.0799734671
H  H77  1  0.69500000  0.62710000  0.95490000  1.0 0.1191788301
H  H78  1  0.55980000  0.15480000  0.07940000  1.0 0.1191788301
H  H79  1  0.82850000  0.84700000  0.04910000  1.0 0.1191788301
H  H80  1  0.64360000  0.68910000  0.07000000  1.0 0.1091536544
H  H81  1  0.46820000  0.24000000  0.06940000  1.0 0.125949737
H  H82  1  0.73040000  0.78090000  0.07790000  1.0 0.1191788301
H  H83  1  0.88020000  0.78420000  0.93430000  1.0 0.1191788301
H  H84  1  0.37680000  0.31500000  0.09960000  1.0 0.1191788301
H  H85  1  0.99590000  0.77570000  0.07560000  1.0 0.125949737
H  H86  1  0.79570000  0.68940000  0.92770000  1.0 0.1191788301
H  H87  1  0.08470000  0.68730000  0.08390000  1.0 0.1191788301
H  H88  1  0.90640000  0.85110000  0.10640000  1.0 0.1191788301
H  H89  1  0.54040000  0.13610000  0.20470000  1.0 0.1191788301
H  H90  1  0.08100000  0.68200000  0.21110000  1.0 0.125949737
H  H91  1  0.90260000  0.84920000  0.23430000  1.0 0.0999799622
H  H92  1  0.99450000  0.76490000  0.24320000  1.0 0.0999799622
H  H93  1  0.35860000  0.29960000  0.22490000  1.0 0.1191788301
H  H94  1  0.44850000  0.21120000  0.23480000  1.0 0.1191788301
H  H95  1  0.57040000  0.55480000  0.81140000  1.0 0.1091536544
H  H96  1  0.57940000  0.55580000  0.88550000  1.0 0.125949737
H  H97  1  0.39850000  0.44000000  0.88000000  1.0 0.1425193959
H  H98  1  0.38950000  0.43900000  0.80590000  1.0 0.0799734671
H  H99  1  0.39160000  0.43970000  0.74650000  1.0 0.125949737
H  H100  1  0.37390000  0.49470000  0.33940000  1.0 0.0799734671
H  H101  1  0.34790000  0.49460000  0.26550000  1.0 0.1091536544
H  H102  1  0.14370000  0.49740000  0.27700000  1.0 0.0799734671
H  H103  1  0.16980000  0.49750000  0.35090000  1.0 0.0799734671
H  H104  1  0.38010000  0.45900000  0.39960000  1.0 0.1425193959
H  H105  1  0.39280000  0.40360000  0.74840000  1.0 0.1191788301
H  H106  1  0.38340000  0.40910000  0.39940000  1.0 0.1425193959
H  H107  1  0.37550000  0.46010000  0.34540000  1.0 0.0419726502
H  H108  1  0.35610000  0.49230000  0.27340000  1.0 0.1091536544
H  H109  1  0.15030000  0.46550000  0.27470000  1.0 0.0999799622
H  H110  1  0.16970000  0.43340000  0.34670000  1.0 0.0799734671
H  H111  1  0.55770000  0.54420000  0.80550000  1.0 0.1191788301
H  H112  1  0.56700000  0.55430000  0.87770000  1.0 0.1425193959
H  H113  1  0.41200000  0.42630000  0.88490000  1.0 0.1455605505
H  H114  1  0.39880000  0.40520000  0.81170000  1.0 0.0799734671
H  H115  1  0.80500000  0.12710000  0.04510000  1.0 0.1191788301
H  H116  1  0.94020000  0.65480000  0.92060000  1.0 0.1191788301
H  H117  1  0.67150000  0.34700000  0.95090000  1.0 0.1191788301
H  H118  1  0.85640000  0.18910000  0.93000000  1.0 0.1091536544
H  H119  1  0.03180000  0.74000000  0.93060000  1.0 0.125949737
H  H120  1  0.76960000  0.28090000  0.92210000  1.0 0.1191788301
H  H121  1  0.61980000  0.28420000  0.06570000  1.0 0.1191788301
H  H122  1  0.12320000  0.81500000  0.90040000  1.0 0.1191788301
H  H123  1  0.50410000  0.27570000  0.92440000  1.0 0.125949737
H  H124  1  0.70430000  0.18940000  0.07230000  1.0 0.1191788301
H  H125  1  0.41530000  0.18730000  0.91610000  1.0 0.1191788301
H  H126  1  0.59360000  0.35110000  0.89360000  1.0 0.1191788301
H  H127  1  0.95960000  0.63610000  0.79530000  1.0 0.1191788301
H  H128  1  0.41900000  0.18200000  0.78890000  1.0 0.125949737
H  H129  1  0.59740000  0.34920000  0.76570000  1.0 0.0999799622
H  H130  1  0.50550000  0.26490000  0.75680000  1.0 0.0999799622
H  H131  1  0.14140000  0.79960000  0.77510000  1.0 0.1191788301
H  H132  1  0.05150000  0.71120000  0.76520000  1.0 0.1191788301
H  H133  1  0.92960000  0.05480000  0.18860000  1.0 0.1091536544
H  H134  1  0.92060000  0.05580000  0.11450000  1.0 0.125949737
H  H135  1  0.10150000  0.94000000  0.12000000  1.0 0.1425193959
H  H136  1  0.11050000  0.93900000  0.19410000  1.0 0.0799734671
H  H137  1  0.10840000  0.93970000  0.25350000  1.0 0.125949737
H  H138  1  0.12610000  0.99470000  0.66060000  1.0 0.0799734671
H  H139  1  0.15210000  0.99460000  0.73450000  1.0 0.1091536544
H  H140  1  0.35630000  0.99740000  0.72300000  1.0 0.0799734671
H  H141  1  0.33020000  0.99750000  0.64910000  1.0 0.0799734671
H  H142  1  0.11990000  0.95900000  0.60040000  1.0 0.1455605505
H  H143  1  0.10720000  0.90360000  0.25160000  1.0 0.1191788301
H  H144  1  0.11660000  0.90910000  0.60060000  1.0 0.1425193959
H  H145  1  0.12450000  0.96010000  0.65460000  1.0 0.0419726502
H  H146  1  0.14390000  0.99230000  0.72660000  1.0 0.1091536544
H  H147  1  0.34970000  0.96550000  0.72530000  1.0 0.0999799622
H  H148  1  0.33030000  0.93340000  0.65330000  1.0 0.0799734671
H  H149  1  0.94230000  0.04420000  0.19450000  1.0 0.1191788301
H  H150  1  0.93300000  0.05430000  0.12230000  1.0 0.1425193959
H  H151  1  0.08800000  0.92630000  0.11510000  1.0 0.1455605505
H  H152  1  0.10120000  0.90520000  0.18830000  1.0 0.0799734671
C  C1  1  0.33955000  0.34895000  0.98913000  1.0 -0.0280333186
C  C2  1  0.29731000  0.34167000  0.02041000  1.0 -0.1686299291
C  C3  1  0.46314000  0.83081000  0.89717000  1.0 -0.1108524477
C  C4  1  0.17917000  0.18434000  0.97550000  1.0 -0.1686299291
C  C5  1  0.32805000  0.30384000  0.95181000  1.0 -0.1289664815
C  C6  1  0.23239000  0.24024000  0.97904000  1.0 0.0799734671
C  C7  1  0.51759000  0.78064000  0.90320000  1.0 -0.1492186524
C  C8  1  0.39807000  0.40525000  0.99479000  1.0 0.5702313138
C  C9  1  0.44078000  0.86127000  0.85676000  1.0 -0.0110992616
C  C10  1  0.27621000  0.24992000  0.94692000  1.0 -0.1492186524
C  C11  1  0.14833000  0.22259000  0.04394000  1.0 -0.1222221507
C  C12  1  0.13877000  0.17517000  0.00735000  1.0 -0.0203501824
C  C13  1  0.60803000  0.70593000  0.87315000  1.0 -0.1788994742
C  C14  1  0.98813000  0.24380000  0.89702000  1.0 -0.1409135526
C  C15  1  0.63990000  0.68379000  0.83896000  1.0 -0.0280333186
C  C16  1  0.91037000  0.32476000  0.85160000  1.0 -0.0203501824
C  C17  1  0.19866000  0.27832000  0.04800000  1.0 -0.1492186524
C  C18  1  0.93540000  0.29582000  0.89199000  1.0 -0.1222221507
C  C19  1  0.24223000  0.28770000  0.01592000  1.0 0.0799734671
C  C20  1  0.16558000  0.08885000  0.83716000  1.0 0.5598093746
C  C21  1  0.08533000  0.11253000  0.00393000  1.0 0.5702313138
C  C22  1  0.85456000  0.38532000  0.84744000  1.0 0.5903108446
C  C23  1  0.07585000  0.16708000  0.86619000  1.0 -0.1788994742
C  C24  1  0.47444000  0.84222000  0.82235000  1.0 -0.1686299291
C  C25  1  0.37813000  0.91294000  0.85039000  1.0 0.5833283244
C  C26  1  0.69205000  0.61946000  0.84361000  1.0 0.5598093746
C  C27  1  0.01902000  0.21884000  0.86138000  1.0 0.0799734671
C  C28  1  0.55302000  0.75934000  0.86845000  1.0 0.0799734671
C  C29  1  0.10520000  0.14322000  0.83131000  1.0 -0.002088449
C  C30  1  0.53079000  0.79072000  0.82745000  1.0 0.072946432
C  C31  1  0.93744000  0.29944000  0.81612000  1.0 -0.1928007277
C  C32  1  0.99292000  0.24551000  0.81997000  1.0 0.0799734671
C  C33  1  0.07773000  0.16860000  0.78971000  1.0 -0.2265839326
C  C34  1  0.02329000  0.21840000  0.78453000  1.0 -0.2015726166
C  C35  1  0.61871000  0.71540000  0.79851000  1.0 -0.1289664815
C  C36  1  0.56527000  0.76790000  0.79261000  1.0 -0.1586151133
C  C37  1  0.52090000  0.50320000  0.19832000  1.0 0.0419726502
C  C38  1  0.46450000  0.46850000  0.17468000  1.0 -0.1289664815
C  C39  1  0.45913000  0.46790000  0.13065000  1.0 -0.0603965319
C  C40  1  0.56662000  0.53670000  0.13392000  1.0 -0.1492186524
C  C41  1  0.57200000  0.53730000  0.17794000  1.0 -0.0603965319
C  C42  1  0.52120000  0.50090000  0.24590000  1.0 0.2299056528
C  C43  1  0.72570000  0.50390000  0.64790000  1.0 0.021152202
C  C44  1  0.67280000  0.50480000  0.67326000  1.0 -0.070943707
C  C45  1  0.68830000  0.50480000  0.71718000  1.0 0.0501216087
C  C46  1  0.80960000  0.50310000  0.71036000  1.0 0.072946432
C  C47  1  0.79410000  0.50310000  0.66645000  1.0 -0.070943707
C  C48  1  0.71550000  0.50510000  0.59990000  1.0 0.2098757839
C  C49  1  0.60050000  0.54140000  0.40045000  1.0 -0.070943707
C  C50  1  0.65270000  0.51340000  0.37877000  1.0 0.0911723254
C  C51  1  0.64430000  0.51370000  0.33468000  1.0 0.0911723254
C  C52  1  0.58380000  0.54200000  0.31228000  1.0 -0.0110992616
C  C53  1  0.53170000  0.57010000  0.33397000  1.0 0.013065358
C  C54  1  0.54000000  0.56980000  0.37805000  1.0 0.030086236
C  C55  1  0.61010000  0.53420000  0.44894000  1.0 -0.0203501824
C  C56  1  0.60390000  0.60120000  0.47210000  1.0 0.0600698187
C  C57  1  0.61370000  0.59900000  0.51610000  1.0 0.0600698187
C  C58  1  0.62970000  0.52990000  0.53708000  1.0 0.0419726502
C  C59  1  0.63590000  0.46290000  0.51395000  1.0 -0.070943707
C  C60  1  0.62610000  0.46510000  0.46988000  1.0 0.013065358
C  C61  1  0.60280000  0.59930000  0.40020000  1.0 -0.077739277
C  C62  1  0.54130000  0.62360000  0.37730000  1.0 0.0999799622
C  C63  1  0.53200000  0.61820000  0.33333333  1.0 0.125949737
C  C64  1  0.58430000  0.58850000  0.31220000  1.0 -0.0203501824
C  C65  1  0.64580000  0.56420000  0.33520000  1.0 0.021152202
C  C66  1  0.65510000  0.56960000  0.37920000  1.0 0.0501216087
C  C67  1  0.64190000  0.59250000  0.53730000  1.0 0.0911723254
C  C68  1  0.58500000  0.55380000  0.51670000  1.0 0.030086236
C  C69  1  0.57160000  0.55520000  0.47270000  1.0 0.030086236
C  C70  1  0.61520000  0.59530000  0.44930000  1.0 0.0600698187
C  C71  1  0.67210000  0.63400000  0.46980000  1.0 0.0501216087
C  C72  1  0.68550000  0.63260000  0.51380000  1.0 -0.002088449
C  C73  1  0.52280000  0.53440000  0.24650000  1.0 0.2098757839
C  C74  1  0.71550000  0.56560000  0.59980000  1.0 0.2001629537
C  C75  1  0.72550000  0.55630000  0.64710000  1.0 0.021152202
C  C76  1  0.67020000  0.53880000  0.66890000  1.0 -0.0506230739
C  C77  1  0.68180000  0.51970000  0.71170000  1.0 -0.0203501824
C  C78  1  0.80400000  0.53560000  0.71090000  1.0 0.0600698187
C  C79  1  0.79240000  0.55460000  0.66820000  1.0 -0.070943707
C  C80  1  0.52080000  0.52630000  0.19910000  1.0 -0.002088449
C  C81  1  0.47390000  0.48250000  0.17940000  1.0 -0.1108524477
C  C82  1  0.47070000  0.47530000  0.13540000  1.0 -0.0603965319
C  C83  1  0.55730000  0.54800000  0.13130000  1.0 -0.1108524477
C  C84  1  0.56580000  0.56200000  0.17540000  1.0 -0.077739277
C  C85  1  0.16045000  0.84895000  0.01087000  1.0 -0.0280333186
C  C86  1  0.20269000  0.84167000  0.97959000  1.0 -0.1686299291
C  C87  1  0.03686000  0.33081000  0.10283000  1.0 -0.1108524477
C  C88  1  0.32083000  0.68434000  0.02450000  1.0 -0.1686299291
C  C89  1  0.17195000  0.80384000  0.04819000  1.0 -0.1289664815
C  C90  1  0.26761000  0.74024000  0.02096000  1.0 0.0799734671
C  C91  1  0.98241000  0.28064000  0.09680000  1.0 -0.1492186524
C  C92  1  0.10193000  0.90525000  0.00521000  1.0 0.5702313138
C  C93  1  0.05922000  0.36127000  0.14324000  1.0 -0.0110992616
C  C94  1  0.22379000  0.74992000  0.05308000  1.0 -0.1492186524
C  C95  1  0.35167000  0.72259000  0.95606000  1.0 -0.1222221507
C  C96  1  0.36123000  0.67517000  0.99265000  1.0 -0.0203501824
C  C97  1  0.89197000  0.20593000  0.12685000  1.0 -0.1788994742
C  C98  1  0.51187000  0.74380000  0.10298000  1.0 -0.1409135526
C  C99  1  0.86010000  0.18379000  0.16104000  1.0 -0.0280333186
C  C100  1  0.58963000  0.82476000  0.14840000  1.0 -0.0203501824
C  C101  1  0.30134000  0.77832000  0.95200000  1.0 -0.1492186524
C  C102  1  0.56460000  0.79582000  0.10801000  1.0 -0.1222221507
C  C103  1  0.25777000  0.78770000  0.98408000  1.0 0.0799734671
C  C104  1  0.33442000  0.58885000  0.16284000  1.0 0.5598093746
C  C105  1  0.41467000  0.61253000  0.99607000  1.0 0.5702313138
C  C106  1  0.64544000  0.88532000  0.15256000  1.0 0.5903108446
C  C107  1  0.42415000  0.66708000  0.13381000  1.0 -0.1788994742
C  C108  1  0.02556000  0.34222000  0.17765000  1.0 -0.1686299291
C  C109  1  0.12187000  0.41294000  0.14961000  1.0 0.5833283244
C  C110  1  0.80795000  0.11946000  0.15639000  1.0 0.5598093746
C  C111  1  0.48098000  0.71884000  0.13862000  1.0 0.0799734671
C  C112  1  0.94698000  0.25934000  0.13155000  1.0 0.0799734671
C  C113  1  0.39480000  0.64322000  0.16869000  1.0 -0.002088449
C  C114  1  0.96921000  0.29072000  0.17255000  1.0 0.072946432
C  C115  1  0.56256000  0.79944000  0.18388000  1.0 -0.1928007277
C  C116  1  0.50708000  0.74551000  0.18003000  1.0 0.0799734671
C  C117  1  0.42227000  0.66860000  0.21029000  1.0 -0.2265839326
C  C118  1  0.47671000  0.71840000  0.21547000  1.0 -0.2015726166
C  C119  1  0.88129000  0.21540000  0.20149000  1.0 -0.1289664815
C  C120  1  0.93473000  0.26790000  0.20739000  1.0 -0.1586151133
C  C121  1  0.97910000  0.00320000  0.80168000  1.0 0.0419726502
C  C122  1  0.03550000  0.96850000  0.82532000  1.0 -0.1289664815
C  C123  1  0.04087000  0.96790000  0.86935000  1.0 -0.0603965319
C  C124  1  0.93338000  0.03670000  0.86608000  1.0 -0.1492186524
C  C125  1  0.92800000  0.03730000  0.82206000  1.0 -0.0603965319
C  C126  1  0.97880000  0.00090000  0.75410000  1.0 0.2299056528
C  C127  1  0.77430000  0.00390000  0.35210000  1.0 0.021152202
C  C128  1  0.82720000  0.00480000  0.32674000  1.0 -0.070943707
C  C129  1  0.81170000  0.00480000  0.28282000  1.0 0.0501216087
C  C130  1  0.69040000  0.00310000  0.28964000  1.0 0.072946432
C  C131  1  0.70590000  0.00310000  0.33355000  1.0 -0.070943707
C  C132  1  0.78450000  0.00510000  0.40010000  1.0 0.2098757839
C  C133  1  0.89950000  0.04140000  0.59955000  1.0 -0.070943707
C  C134  1  0.84730000  0.01340000  0.62123000  1.0 0.0911723254
C  C135  1  0.85570000  0.01370000  0.66532000  1.0 0.0911723254
C  C136  1  0.91620000  0.04200000  0.68772000  1.0 -0.0110992616
C  C137  1  0.96830000  0.07010000  0.66603000  1.0 0.013065358
C  C138  1  0.96000000  0.06980000  0.62195000  1.0 0.030086236
C  C139  1  0.88990000  0.03420000  0.55106000  1.0 -0.0203501824
C  C140  1  0.89610000  0.10120000  0.52790000  1.0 0.0600698187
C  C141  1  0.88630000  0.09900000  0.48390000  1.0 0.0600698187
C  C142  1  0.87030000  0.02990000  0.46292000  1.0 0.0419726502
C  C143  1  0.86410000  0.96290000  0.48605000  1.0 -0.070943707
C  C144  1  0.87390000  0.96510000  0.53012000  1.0 0.013065358
C  C145  1  0.89720000  0.09930000  0.59980000  1.0 -0.077739277
C  C146  1  0.95870000  0.12360000  0.62270000  1.0 0.0999799622
C  C147  1  0.96800000  0.11820000  0.66666667  1.0 0.125949737
C  C148  1  0.91570000  0.08850000  0.68780000  1.0 -0.0203501824
C  C149  1  0.85420000  0.06420000  0.66480000  1.0 0.021152202
C  C150  1  0.84490000  0.06960000  0.62080000  1.0 0.0501216087
C  C151  1  0.85810000  0.09250000  0.46270000  1.0 0.0911723254
C  C152  1  0.91500000  0.05380000  0.48330000  1.0 0.030086236
C  C153  1  0.92840000  0.05520000  0.52730000  1.0 0.030086236
C  C154  1  0.88480000  0.09530000  0.55070000  1.0 0.0600698187
C  C155  1  0.82790000  0.13400000  0.53020000  1.0 0.0501216087
C  C156  1  0.81450000  0.13260000  0.48620000  1.0 -0.002088449
C  C157  1  0.97720000  0.03440000  0.75350000  1.0 0.2098757839
C  C158  1  0.78450000  0.06560000  0.40020000  1.0 0.2001629537
C  C159  1  0.77450000  0.05630000  0.35290000  1.0 0.021152202
C  C160  1  0.82980000  0.03880000  0.33110000  1.0 -0.0506230739
C  C161  1  0.81820000  0.01970000  0.28830000  1.0 -0.0203501824
C  C162  1  0.69600000  0.03560000  0.28910000  1.0 0.0600698187
C  C163  1  0.70760000  0.05460000  0.33180000  1.0 -0.070943707
C  C164  1  0.97920000  0.02630000  0.80090000  1.0 -0.002088449
C  C165  1  0.02610000  0.98250000  0.82060000  1.0 -0.1108524477
C  C166  1  0.02930000  0.97530000  0.86460000  1.0 -0.0603965319
C  C167  1  0.94270000  0.04800000  0.86870000  1.0 -0.1108524477
C  C168  1  0.93420000  0.06200000  0.82460000  1.0 -0.077739277
C  C169  1  0.66045000  0.65105000  0.01087000  1.0 -0.0280333186
C  C170  1  0.70269000  0.65833000  0.97959000  1.0 -0.1686299291
C  C171  1  0.53686000  0.16919000  0.10283000  1.0 -0.1108524477
C  C172  1  0.82083000  0.81566000  0.02450000  1.0 -0.1686299291
C  C173  1  0.67195000  0.69616000  0.04819000  1.0 -0.1289664815
C  C174  1  0.76761000  0.75976000  0.02096000  1.0 0.0799734671
C  C175  1  0.48241000  0.21936000  0.09680000  1.0 -0.1492186524
C  C176  1  0.60193000  0.59475000  0.00521000  1.0 0.5702313138
C  C177  1  0.55922000  0.13873000  0.14324000  1.0 -0.0110992616
C  C178  1  0.72379000  0.75008000  0.05308000  1.0 -0.1492186524
C  C179  1  0.85167000  0.77741000  0.95606000  1.0 -0.1222221507
C  C180  1  0.86123000  0.82483000  0.99265000  1.0 -0.0203501824
C  C181  1  0.39197000  0.29407000  0.12685000  1.0 -0.1788994742
C  C182  1  0.01187000  0.75620000  0.10298000  1.0 -0.1409135526
C  C183  1  0.36010000  0.31621000  0.16104000  1.0 -0.0280333186
C  C184  1  0.08963000  0.67524000  0.14840000  1.0 -0.0203501824
C  C185  1  0.80134000  0.72168000  0.95200000  1.0 -0.1492186524
C  C186  1  0.06460000  0.70418000  0.10801000  1.0 -0.1222221507
C  C187  1  0.75777000  0.71230000  0.98408000  1.0 0.0799734671
C  C188  1  0.83442000  0.91115000  0.16284000  1.0 0.5598093746
C  C189  1  0.91467000  0.88747000  0.99607000  1.0 0.5702313138
C  C190  1  0.14544000  0.61468000  0.15256000  1.0 0.5903108446
C  C191  1  0.92415000  0.83292000  0.13381000  1.0 -0.1788994742
C  C192  1  0.52556000  0.15778000  0.17765000  1.0 -0.1686299291
C  C193  1  0.62187000  0.08706000  0.14961000  1.0 0.5833283244
C  C194  1  0.30795000  0.38054000  0.15639000  1.0 0.5598093746
C  C195  1  0.98098000  0.78116000  0.13862000  1.0 0.0799734671
C  C196  1  0.44698000  0.24066000  0.13155000  1.0 0.0799734671
C  C197  1  0.89480000  0.85678000  0.16869000  1.0 -0.002088449
C  C198  1  0.46921000  0.20928000  0.17255000  1.0 0.072946432
C  C199  1  0.06256000  0.70056000  0.18388000  1.0 -0.1928007277
C  C200  1  0.00708000  0.75449000  0.18003000  1.0 0.0799734671
C  C201  1  0.92227000  0.83140000  0.21029000  1.0 -0.2265839326
C  C202  1  0.97671000  0.78160000  0.21547000  1.0 -0.2015726166
C  C203  1  0.38129000  0.28460000  0.20149000  1.0 -0.1289664815
C  C204  1  0.43473000  0.23210000  0.20739000  1.0 -0.1586151133
C  C205  1  0.47910000  0.49680000  0.80168000  1.0 0.0419726502
C  C206  1  0.53550000  0.53150000  0.82532000  1.0 -0.1289664815
C  C207  1  0.54087000  0.53210000  0.86935000  1.0 -0.0603965319
C  C208  1  0.43338000  0.46330000  0.86608000  1.0 -0.1492186524
C  C209  1  0.42800000  0.46270000  0.82206000  1.0 -0.0603965319
C  C210  1  0.47880000  0.49910000  0.75410000  1.0 0.2299056528
C  C211  1  0.27430000  0.49610000  0.35210000  1.0 0.021152202
C  C212  1  0.32720000  0.49520000  0.32674000  1.0 -0.070943707
C  C213  1  0.31170000  0.49520000  0.28282000  1.0 0.0501216087
C  C214  1  0.19040000  0.49690000  0.28964000  1.0 0.072946432
C  C215  1  0.20590000  0.49690000  0.33355000  1.0 -0.070943707
C  C216  1  0.28450000  0.49490000  0.40010000  1.0 0.2098757839
C  C217  1  0.39950000  0.45860000  0.59955000  1.0 -0.070943707
C  C218  1  0.34730000  0.48660000  0.62123000  1.0 0.0911723254
C  C219  1  0.35570000  0.48630000  0.66532000  1.0 0.0911723254
C  C220  1  0.41620000  0.45800000  0.68772000  1.0 -0.0110992616
C  C221  1  0.46830000  0.42990000  0.66603000  1.0 0.013065358
C  C222  1  0.46000000  0.43020000  0.62195000  1.0 0.030086236
C  C223  1  0.38990000  0.46580000  0.55106000  1.0 -0.0203501824
C  C224  1  0.39610000  0.39880000  0.52790000  1.0 0.0600698187
C  C225  1  0.38630000  0.40100000  0.48390000  1.0 0.0600698187
C  C226  1  0.37030000  0.47010000  0.46292000  1.0 0.0419726502
C  C227  1  0.36410000  0.53710000  0.48605000  1.0 -0.070943707
C  C228  1  0.37390000  0.53490000  0.53012000  1.0 0.013065358
C  C229  1  0.39720000  0.40070000  0.59980000  1.0 -0.077739277
C  C230  1  0.45870000  0.37640000  0.62270000  1.0 0.0999799622
C  C231  1  0.46800000  0.38180000  0.66666667  1.0 0.125949737
C  C232  1  0.41570000  0.41150000  0.68780000  1.0 -0.0203501824
C  C233  1  0.35420000  0.43580000  0.66480000  1.0 0.021152202
C  C234  1  0.34490000  0.43040000  0.62080000  1.0 0.0501216087
C  C235  1  0.35810000  0.40750000  0.46270000  1.0 0.0911723254
C  C236  1  0.41500000  0.44620000  0.48330000  1.0 0.030086236
C  C237  1  0.42840000  0.44480000  0.52730000  1.0 0.030086236
C  C238  1  0.38480000  0.40470000  0.55070000  1.0 0.0600698187
C  C239  1  0.32790000  0.36600000  0.53020000  1.0 0.0501216087
C  C240  1  0.31450000  0.36740000  0.48620000  1.0 -0.002088449
C  C241  1  0.47720000  0.46560000  0.75350000  1.0 0.2098757839
C  C242  1  0.28450000  0.43440000  0.40020000  1.0 0.2001629537
C  C243  1  0.27450000  0.44370000  0.35290000  1.0 0.021152202
C  C244  1  0.32980000  0.46120000  0.33110000  1.0 -0.0506230739
C  C245  1  0.31820000  0.48030000  0.28830000  1.0 -0.0280333186
C  C246  1  0.19600000  0.46440000  0.28910000  1.0 0.0600698187
C  C247  1  0.20760000  0.44540000  0.33180000  1.0 -0.070943707
C  C248  1  0.47920000  0.47370000  0.80090000  1.0 -0.002088449
C  C249  1  0.52610000  0.51750000  0.82060000  1.0 -0.1108524477
C  C250  1  0.52930000  0.52470000  0.86460000  1.0 -0.0603965319
C  C251  1  0.44270000  0.45200000  0.86870000  1.0 -0.1108524477
C  C252  1  0.43420000  0.43800000  0.82460000  1.0 -0.077739277
C  C253  1  0.83955000  0.15105000  0.98913000  1.0 -0.0280333186
C  C254  1  0.79731000  0.15833000  0.02041000  1.0 -0.1686299291
C  C255  1  0.96314000  0.66919000  0.89717000  1.0 -0.1108524477
C  C256  1  0.67917000  0.31566000  0.97550000  1.0 -0.1686299291
C  C257  1  0.82805000  0.19616000  0.95181000  1.0 -0.1289664815
C  C258  1  0.73239000  0.25976000  0.97904000  1.0 0.0799734671
C  C259  1  0.01759000  0.71936000  0.90320000  1.0 -0.1492186524
C  C260  1  0.89807000  0.09475000  0.99479000  1.0 0.5702313138
C  C261  1  0.94078000  0.63873000  0.85676000  1.0 -0.0110992616
C  C262  1  0.77621000  0.25008000  0.94692000  1.0 -0.1492186524
C  C263  1  0.64833000  0.27741000  0.04394000  1.0 -0.1222221507
C  C264  1  0.63877000  0.32483000  0.00735000  1.0 -0.0203501824
C  C265  1  0.10803000  0.79407000  0.87315000  1.0 -0.1788994742
C  C266  1  0.48813000  0.25620000  0.89702000  1.0 -0.1409135526
C  C267  1  0.13990000  0.81621000  0.83896000  1.0 -0.0280333186
C  C268  1  0.41037000  0.17524000  0.85160000  1.0 -0.0203501824
C  C269  1  0.69866000  0.22168000  0.04800000  1.0 -0.1492186524
C  C270  1  0.43540000  0.20418000  0.89199000  1.0 -0.1222221507
C  C271  1  0.74223000  0.21230000  0.01592000  1.0 0.0799734671
C  C272  1  0.66558000  0.41115000  0.83716000  1.0 0.5598093746
C  C273  1  0.58533000  0.38747000  0.00393000  1.0 0.5702313138
C  C274  1  0.35456000  0.11468000  0.84744000  1.0 0.5903108446
C  C275  1  0.57585000  0.33292000  0.86619000  1.0 -0.1788994742
C  C276  1  0.97444000  0.65778000  0.82235000  1.0 -0.1686299291
C  C277  1  0.87813000  0.58706000  0.85039000  1.0 0.5833283244
C  C278  1  0.19205000  0.88054000  0.84361000  1.0 0.5598093746
C  C279  1  0.51902000  0.28116000  0.86138000  1.0 0.0799734671
C  C280  1  0.05302000  0.74066000  0.86845000  1.0 0.0799734671
C  C281  1  0.60520000  0.35678000  0.83131000  1.0 -0.002088449
C  C282  1  0.03079000  0.70928000  0.82745000  1.0 0.072946432
C  C283  1  0.43744000  0.20056000  0.81612000  1.0 -0.1928007277
C  C284  1  0.49292000  0.25449000  0.81997000  1.0 0.0799734671
C  C285  1  0.57773000  0.33140000  0.78971000  1.0 -0.2265839326
C  C286  1  0.52329000  0.28160000  0.78453000  1.0 -0.2015726166
C  C287  1  0.11871000  0.78460000  0.79851000  1.0 -0.1289664815
C  C288  1  0.06527000  0.73210000  0.79261000  1.0 -0.1586151133
C  C289  1  0.02090000  0.99680000  0.19832000  1.0 0.0419726502
C  C290  1  0.96450000  0.03150000  0.17468000  1.0 -0.1289664815
C  C291  1  0.95913000  0.03210000  0.13065000  1.0 -0.0603965319
C  C292  1  0.06662000  0.96330000  0.13392000  1.0 -0.1492186524
C  C293  1  0.07200000  0.96270000  0.17794000  1.0 -0.0603965319
C  C294  1  0.02120000  0.99910000  0.24590000  1.0 0.2299056528
C  C295  1  0.22570000  0.99610000  0.64790000  1.0 0.021152202
C  C296  1  0.17280000  0.99520000  0.67326000  1.0 -0.070943707
C  C297  1  0.18830000  0.99520000  0.71718000  1.0 0.0501216087
C  C298  1  0.30960000  0.99690000  0.71036000  1.0 0.072946432
C  C299  1  0.29410000  0.99690000  0.66645000  1.0 -0.070943707
C  C300  1  0.21550000  0.99490000  0.59990000  1.0 0.2098757839
C  C301  1  0.10050000  0.95860000  0.40045000  1.0 -0.070943707
C  C302  1  0.15270000  0.98660000  0.37877000  1.0 0.0911723254
C  C303  1  0.14430000  0.98630000  0.33468000  1.0 0.0911723254
C  C304  1  0.08380000  0.95800000  0.31228000  1.0 -0.0110992616
C  C305  1  0.03170000  0.92990000  0.33397000  1.0 0.013065358
C  C306  1  0.04000000  0.93020000  0.37805000  1.0 0.030086236
C  C307  1  0.11010000  0.96580000  0.44894000  1.0 -0.0203501824
C  C308  1  0.10390000  0.89880000  0.47210000  1.0 0.0600698187
C  C309  1  0.11370000  0.90100000  0.51610000  1.0 0.0600698187
C  C310  1  0.12970000  0.97010000  0.53708000  1.0 0.0419726502
C  C311  1  0.13590000  0.03710000  0.51395000  1.0 -0.070943707
C  C312  1  0.12610000  0.03490000  0.46988000  1.0 0.013065358
C  C313  1  0.10280000  0.90070000  0.40020000  1.0 -0.077739277
C  C314  1  0.04130000  0.87640000  0.37730000  1.0 0.0999799622
C  C315  1  0.03200000  0.88180000  0.33333333  1.0 0.125949737
C  C316  1  0.08430000  0.91150000  0.31220000  1.0 -0.0203501824
C  C317  1  0.14580000  0.93580000  0.33520000  1.0 0.021152202
C  C318  1  0.15510000  0.93040000  0.37920000  1.0 0.0501216087
C  C319  1  0.14190000  0.90750000  0.53730000  1.0 0.0911723254
C  C320  1  0.08500000  0.94620000  0.51670000  1.0 0.030086236
C  C321  1  0.07160000  0.94480000  0.47270000  1.0 0.030086236
C  C322  1  0.11520000  0.90470000  0.44930000  1.0 0.0600698187
C  C323  1  0.17210000  0.86600000  0.46980000  1.0 0.0501216087
C  C324  1  0.18550000  0.86740000  0.51380000  1.0 -0.002088449
C  C325  1  0.02280000  0.96560000  0.24650000  1.0 0.2098757839
C  C326  1  0.21550000  0.93440000  0.59980000  1.0 0.2001629537
C  C327  1  0.22550000  0.94370000  0.64710000  1.0 0.021152202
C  C328  1  0.17020000  0.96120000  0.66890000  1.0 -0.0506230739
C  C329  1  0.18180000  0.98030000  0.71170000  1.0 -0.0280333186
C  C330  1  0.30400000  0.96440000  0.71090000  1.0 0.0600698187
C  C331  1  0.29240000  0.94540000  0.66820000  1.0 -0.070943707
C  C332  1  0.02080000  0.97370000  0.19910000  1.0 -0.002088449
C  C333  1  0.97390000  0.01750000  0.17940000  1.0 -0.1108524477
C  C334  1  0.97070000  0.02470000  0.13540000  1.0 -0.0603965319
C  C335  1  0.05730000  0.95200000  0.13130000  1.0 -0.1108524477
C  C336  1  0.06580000  0.93800000  0.17540000  1.0 -0.077739277
N  N1  1  0.51020000  0.50199000  0.11027000  1.0 0.0419726502
N  N2  1  0.57730000  0.53870000  0.26740000  1.0 -0.0603965319
N  N3  1  0.75670000  0.50400000  0.73573000  1.0 -0.1928007277
N  N4  1  0.64990000  0.52770000  0.58320000  1.0 -0.1289664815
N  N5  1  0.57670000  0.57640000  0.26660000  1.0 -0.0869360203
N  N6  1  0.65000000  0.58430000  0.58480000  1.0 -0.1108524477
N  N7  1  0.74870000  0.51810000  0.73270000  1.0 -0.1788994742
N  N8  1  0.98980000  0.00199000  0.88973000  1.0 0.0419726502
N  N9  1  0.92270000  0.03870000  0.73260000  1.0 -0.0603965319
N  N10  1  0.74330000  0.00400000  0.26427000  1.0 -0.1928007277
N  N11  1  0.85010000  0.02770000  0.41680000  1.0 -0.1289664815
N  N12  1  0.92330000  0.07640000  0.73340000  1.0 -0.0869360203
N  N13  1  0.85000000  0.08430000  0.41520000  1.0 -0.1108524477
N  N14  1  0.75130000  0.01810000  0.26730000  1.0 -0.1788994742
N  N15  1  0.48980000  0.49801000  0.88973000  1.0 0.0419726502
N  N16  1  0.42270000  0.46130000  0.73260000  1.0 -0.0603965319
N  N17  1  0.24330000  0.49600000  0.26427000  1.0 -0.1928007277
N  N18  1  0.35010000  0.47230000  0.41680000  1.0 -0.1289664815
N  N19  1  0.42330000  0.42360000  0.73340000  1.0 -0.0869360203
N  N20  1  0.35000000  0.41570000  0.41520000  1.0 -0.1108524477
N  N21  1  0.25130000  0.48190000  0.26730000  1.0 -0.1788994742
N  N22  1  0.01020000  0.99801000  0.11027000  1.0 0.0419726502
N  N23  1  0.07730000  0.96130000  0.26740000  1.0 -0.0603965319
N  N24  1  0.25670000  0.99600000  0.73573000  1.0 -0.1928007277
N  N25  1  0.14990000  0.97230000  0.58320000  1.0 -0.1289664815
N  N26  1  0.07670000  0.92360000  0.26660000  1.0 -0.0869360203
N  N27  1  0.15000000  0.91570000  0.58480000  1.0 -0.1108524477
N  N28  1  0.24870000  0.98190000  0.73270000  1.0 -0.1788994742
O  O1  1  0.42014000  0.42522000  0.03211000  1.0 -0.5405555414
O  O2  1  0.83579000  0.40963000  0.88136000  1.0 -0.5506450298
O  O3  1  0.70686000  0.59039000  0.87966000  1.0 -0.5405555414
O  O4  1  0.35169000  0.92988000  0.88304000  1.0 -0.5506450298
O  O5  1  0.06537000  0.09084000  0.03810000  1.0 -0.5506450298
O  O6  1  0.42085000  0.42782000  0.96177000  1.0 -0.558963758
O  O7  1  0.19024000  0.07298000  0.87455000  1.0 -0.5287596109
O  O8  1  0.06596000  0.08633000  0.96784000  1.0 -0.5405555414
O  O9  1  0.35800000  0.93533000  0.81300000  1.0 -0.5506450298
O  O10  1  0.83098000  0.40679000  0.81059000  1.0 -0.5405555414
O  O11  1  0.71532000  0.59827000  0.81021000  1.0 -0.5506450298
O  O12  1  0.18652000  0.06295000  0.80421000  1.0 -0.558963758
O  O13  1  0.75860000  0.48910000  0.57960000  1.0 -0.0869360203
O  O14  1  0.47630000  0.46850000  0.26160000  1.0 -0.1586151133
O  O15  1  0.47860000  0.50510000  0.26570000  1.0 -0.0869360203
O  O16  1  0.76120000  0.55750000  0.57750000  1.0 -0.1108524477
O  O17  1  0.07986000  0.92522000  0.96789000  1.0 -0.5405555414
O  O18  1  0.66421000  0.90963000  0.11864000  1.0 -0.5506450298
O  O19  1  0.79314000  0.09039000  0.12034000  1.0 -0.5405555414
O  O20  1  0.14831000  0.42988000  0.11696000  1.0 -0.5506450298
O  O21  1  0.43463000  0.59084000  0.96190000  1.0 -0.5506450298
O  O22  1  0.07915000  0.92782000  0.03823000  1.0 -0.558963758
O  O23  1  0.30976000  0.57298000  0.12545000  1.0 -0.5287596109
O  O24  1  0.43404000  0.58633000  0.03216000  1.0 -0.5405555414
O  O25  1  0.14200000  0.43533000  0.18700000  1.0 -0.5506450298
O  O26  1  0.66902000  0.90679000  0.18941000  1.0 -0.5405555414
O  O27  1  0.78468000  0.09827000  0.18979000  1.0 -0.5506450298
O  O28  1  0.31348000  0.56295000  0.19579000  1.0 -0.558963758
O  O29  1  0.74140000  0.98910000  0.42040000  1.0 -0.0869360203
O  O30  1  0.02370000  0.96850000  0.73840000  1.0 -0.1586151133
O  O31  1  0.02140000  0.00510000  0.73430000  1.0 -0.0869360203
O  O32  1  0.73880000  0.05750000  0.42250000  1.0 -0.1108524477
O  O33  1  0.57986000  0.57478000  0.96789000  1.0 -0.5405555414
O  O34  1  0.16421000  0.59037000  0.11864000  1.0 -0.5506450298
O  O35  1  0.29314000  0.40961000  0.12034000  1.0 -0.5405555414
O  O36  1  0.64831000  0.07012000  0.11696000  1.0 -0.5506450298
O  O37  1  0.93463000  0.90916000  0.96190000  1.0 -0.5506450298
O  O38  1  0.57915000  0.57218000  0.03823000  1.0 -0.558963758
O  O39  1  0.80976000  0.92702000  0.12545000  1.0 -0.5287596109
O  O40  1  0.93404000  0.91367000  0.03216000  1.0 -0.5405555414
O  O41  1  0.64200000  0.06467000  0.18700000  1.0 -0.5506450298
O  O42  1  0.16902000  0.59321000  0.18941000  1.0 -0.5405555414
O  O43  1  0.28468000  0.40173000  0.18979000  1.0 -0.5506450298
O  O44  1  0.81348000  0.93705000  0.19579000  1.0 -0.558963758
O  O45  1  0.24140000  0.51090000  0.42040000  1.0 -0.0869360203
O  O46  1  0.52370000  0.53150000  0.73840000  1.0 -0.1586151133
O  O47  1  0.52140000  0.49490000  0.73430000  1.0 -0.0869360203
O  O48  1  0.23880000  0.44250000  0.42250000  1.0 -0.1108524477
O  O49  1  0.92014000  0.07478000  0.03211000  1.0 -0.5405555414
O  O50  1  0.33579000  0.09037000  0.88136000  1.0 -0.5506450298
O  O51  1  0.20686000  0.90961000  0.87966000  1.0 -0.5405555414
O  O52  1  0.85169000  0.57012000  0.88304000  1.0 -0.5506450298
O  O53  1  0.56537000  0.40916000  0.03810000  1.0 -0.5506450298
O  O54  1  0.92085000  0.07218000  0.96177000  1.0 -0.558963758
O  O55  1  0.69024000  0.42702000  0.87455000  1.0 -0.5287596109
O  O56  1  0.56596000  0.41367000  0.96784000  1.0 -0.5405555414
O  O57  1  0.85800000  0.56467000  0.81300000  1.0 -0.5506450298
O  O58  1  0.33098000  0.09321000  0.81059000  1.0 -0.5405555414
O  O59  1  0.21532000  0.90173000  0.81021000  1.0 -0.5506450298
O  O60  1  0.68652000  0.43705000  0.80421000  1.0 -0.558963758
O  O61  1  0.25860000  0.01090000  0.57960000  1.0 -0.0869360203
O  O62  1  0.97630000  0.03150000  0.26160000  1.0 -0.1586151133
O  O63  1  0.97860000  0.99490000  0.26570000  1.0 -0.0869360203
O  O64  1  0.26120000  0.94250000  0.57750000  1.0 -0.1108524477
F  F1  1  0.69550000  0.48570000  0.31510000  1.0 -0.0110992616
F  F2  1  0.71160000  0.48570000  0.39900000  1.0 0.021152202
F  F3  1  0.47300000  0.59820000  0.31440000  1.0 -0.0110992616
F  F4  1  0.48720000  0.59700000  0.39831000  1.0 -0.0203501824
F  F5  1  0.63310000  0.40330000  0.44858000  1.0 -0.070943707
F  F6  1  0.65100000  0.39460000  0.53328000  1.0 -0.1108524477
F  F7  1  0.60750000  0.66310000  0.53780000  1.0 -0.1014157255
F  F8  1  0.58920000  0.67000000  0.45345000  1.0 -0.0869360203
F  F9  1  0.51690000  0.51790000  0.45350000  1.0 -0.0506230739
F  F10  1  0.54080000  0.51390000  0.53790000  1.0 -0.0506230739
F  F11  1  0.74490000  0.67370000  0.53260000  1.0 -0.1409135526
F  F12  1  0.71480000  0.67280000  0.44850000  1.0 -0.1014157255
F  F13  1  0.69660000  0.53570000  0.31640000  1.0 -0.0110992616
F  F14  1  0.48840000  0.65270000  0.39430000  1.0 -0.0110992616
F  F15  1  0.71450000  0.54620000  0.40110000  1.0 0.0501216087
F  F16  1  0.47570000  0.64030000  0.31180000  1.0 0.0015208283
F  F17  1  0.80450000  0.98570000  0.68490000  1.0 -0.0110992616
F  F18  1  0.78840000  0.98570000  0.60100000  1.0 0.021152202
F  F19  1  0.02700000  0.09820000  0.68560000  1.0 -0.0110992616
F  F20  1  0.01280000  0.09700000  0.60169000  1.0 -0.0203501824
F  F21  1  0.86690000  0.90330000  0.55142000  1.0 -0.070943707
F  F22  1  0.84900000  0.89460000  0.46672000  1.0 -0.1108524477
F  F23  1  0.89250000  0.16310000  0.46220000  1.0 -0.1014157255
F  F24  1  0.91080000  0.17000000  0.54655000  1.0 -0.0869360203
F  F25  1  0.98310000  0.01790000  0.54650000  1.0 -0.0506230739
F  F26  1  0.95920000  0.01390000  0.46210000  1.0 -0.0506230739
F  F27  1  0.75510000  0.17370000  0.46740000  1.0 -0.1409135526
F  F28  1  0.78520000  0.17280000  0.55150000  1.0 -0.1014157255
F  F29  1  0.80340000  0.03570000  0.68360000  1.0 -0.0110992616
F  F30  1  0.01160000  0.15270000  0.60570000  1.0 -0.0110992616
F  F31  1  0.78550000  0.04620000  0.59890000  1.0 0.0600698187
F  F32  1  0.02430000  0.14030000  0.68820000  1.0 0.0015208283
F  F33  1  0.30450000  0.51430000  0.68490000  1.0 -0.0110992616
F  F34  1  0.28840000  0.51430000  0.60100000  1.0 0.021152202
F  F35  1  0.52700000  0.40180000  0.68560000  1.0 -0.0110992616
F  F36  1  0.51280000  0.40300000  0.60169000  1.0 -0.0203501824
F  F37  1  0.36690000  0.59670000  0.55142000  1.0 -0.070943707
F  F38  1  0.34900000  0.60540000  0.46672000  1.0 -0.1108524477
F  F39  1  0.39250000  0.33690000  0.46220000  1.0 -0.1014157255
F  F40  1  0.41080000  0.33000000  0.54655000  1.0 -0.0869360203
F  F41  1  0.48310000  0.48210000  0.54650000  1.0 -0.0506230739
F  F42  1  0.45920000  0.48610000  0.46210000  1.0 -0.0506230739
F  F43  1  0.25510000  0.32630000  0.46740000  1.0 -0.1409135526
F  F44  1  0.28520000  0.32720000  0.55150000  1.0 -0.1014157255
F  F45  1  0.30340000  0.46430000  0.68360000  1.0 -0.0110992616
F  F46  1  0.51160000  0.34730000  0.60570000  1.0 -0.0110992616
F  F47  1  0.28550000  0.45380000  0.59890000  1.0 0.0600698187
F  F48  1  0.52430000  0.35970000  0.68820000  1.0 0.0015208283
F  F49  1  0.19550000  0.01430000  0.31510000  1.0 -0.0110992616
F  F50  1  0.21160000  0.01430000  0.39900000  1.0 0.021152202
F  F51  1  0.97300000  0.90180000  0.31440000  1.0 -0.0110992616
F  F52  1  0.98720000  0.90300000  0.39831000  1.0 -0.0203501824
F  F53  1  0.13310000  0.09670000  0.44858000  1.0 -0.070943707
F  F54  1  0.15100000  0.10540000  0.53328000  1.0 -0.1108524477
F  F55  1  0.10750000  0.83690000  0.53780000  1.0 -0.1014157255
F  F56  1  0.08920000  0.83000000  0.45345000  1.0 -0.0869360203
F  F57  1  0.01690000  0.98210000  0.45350000  1.0 -0.0506230739
F  F58  1  0.04080000  0.98610000  0.53790000  1.0 -0.0506230739
F  F59  1  0.24490000  0.82630000  0.53260000  1.0 -0.1409135526
F  F60  1  0.21480000  0.82720000  0.44850000  1.0 -0.1014157255
F  F61  1  0.19660000  0.96430000  0.31640000  1.0 -0.0110992616
F  F62  1  0.98840000  0.84730000  0.39430000  1.0 -0.0110992616
F  F63  1  0.21450000  0.95380000  0.40110000  1.0 0.0501216087
F  F64  1  0.97570000  0.85970000  0.31180000  1.0 0.0015208283
