# DDEC6 charges by PACMAN v1.1 (https://github.com/mtap-research/PACMAN-charge/)
data_NILFIA_FSR_pacman
_symmetry_space_group_name_H-M   'P 1'
_cell_length_a   19.47960000
_cell_length_b   17.46340000
_cell_length_c   31.67810000
_cell_angle_alpha   90.00000000
_cell_angle_beta   97.17200000
_cell_angle_gamma   90.00000000
_symmetry_Int_Tables_number   1
_chemical_formula_structural   Cu3H45C87N9O17F16
_chemical_formula_sum   'Cu12 H180 C348 N36 O68 F64'
_cell_volume   10691.94228843
_cell_formula_units_Z   4
loop_
 _symmetry_equiv_pos_site_id
 _symmetry_equiv_pos_as_xyz
  1  'x, y, z'
loop_
 _atom_site_type_symbol
 _atom_site_label
 _atom_site_symmetry_multiplicity
 _atom_site_fract_x
 _atom_site_fract_y
 _atom_site_fract_z
 _atom_site_occupancy
 _atom_site_charge
Cu  Cu1  1  0.50069000  0.49892000  0.04674000  1.0 0.687284207
Cu  Cu2  1  0.77454000  0.49863000  0.89070000  1.0 0.8409333328
Cu  Cu3  1  0.77454000  0.50139000  0.80202000  1.0 0.687284207
Cu  Cu4  1  0.99931000  0.99892000  0.95326000  1.0 0.687284207
Cu  Cu5  1  0.72546000  0.99863000  0.10930000  1.0 0.8409333328
Cu  Cu6  1  0.72546000  0.00139000  0.19798000  1.0 0.687284207
Cu  Cu7  1  0.49931000  0.50108000  0.95326000  1.0 0.687284207
Cu  Cu8  1  0.22546000  0.50137000  0.10930000  1.0 0.8409333328
Cu  Cu9  1  0.22546000  0.49861000  0.19798000  1.0 0.687284207
Cu  Cu10  1  0.00069000  0.00108000  0.04674000  1.0 0.687284207
Cu  Cu11  1  0.27454000  0.00137000  0.89070000  1.0 0.8409333328
Cu  Cu12  1  0.27454000  0.99861000  0.80202000  1.0 0.6847610572
H  H1  1  0.44520000  0.84660000  0.92070000  1.0 0.1202344412
H  H2  1  0.82610000  0.84830000  0.04780000  1.0 0.1295820539
H  H3  1  0.88140000  0.78350000  0.93370000  1.0 0.1202344412
H  H4  1  0.62640000  0.68470000  0.89930000  1.0 0.1202344412
H  H5  1  0.69570000  0.62750000  0.95400000  1.0 0.1295820539
H  H6  1  0.79870000  0.68780000  0.92740000  1.0 0.1295820539
H  H7  1  0.72610000  0.78400000  0.07540000  1.0 0.1295820539
H  H8  1  0.00490000  0.22100000  0.92350000  1.0 0.1295820539
H  H9  1  0.53750000  0.76350000  0.93010000  1.0 0.1202344412
H  H10  1  0.91780000  0.31030000  0.91540000  1.0 0.1107487053
H  H11  1  0.09640000  0.14910000  0.89220000  1.0 0.1202344412
H  H12  1  0.64030000  0.69280000  0.06790000  1.0 0.1107487053
H  H13  1  0.93290000  0.33000000  0.78950000  1.0 0.1295820539
H  H14  1  0.45180000  0.84990000  0.79310000  1.0 0.1202344412
H  H15  1  0.63200000  0.68610000  0.77060000  1.0 0.1202344412
H  H16  1  0.85000000  0.42110000  0.96740000  1.0 0.1107487053
H  H17  1  0.01910000  0.24940000  0.75700000  1.0 0.0990546429
H  H18  1  0.82070000  0.34100000  0.05200000  1.0 0.1295820539
H  H19  1  0.86960000  0.40980000  0.07070000  1.0 0.1405742317
H  H20  1  0.88540000  0.36600000  0.02860000  1.0 0.1295820539
H  H21  1  0.11180000  0.16470000  0.76580000  1.0 0.1107487053
H  H22  1  0.71680000  0.49490000  0.01340000  1.0 0.1405742317
H  H23  1  0.77150000  0.52140000  0.05260000  1.0 0.1405742317
H  H24  1  0.73090000  0.44220000  0.05490000  1.0 0.1295820539
H  H25  1  0.54150000  0.77360000  0.76190000  1.0 0.1202344412
H  H26  1  0.65260000  0.49130000  0.73440000  1.0 0.0901916736
H  H27  1  0.62670000  0.49820000  0.66030000  1.0 0.0608429858
H  H28  1  0.83090000  0.51980000  0.64930000  1.0 0.0901916736
H  H29  1  0.85680000  0.51300000  0.72340000  1.0 0.0901916736
H  H30  1  0.61620000  0.54700000  0.60140000  1.0 0.1295820539
H  H31  1  0.60530000  0.57450000  0.25290000  1.0 0.1585499259
H  H32  1  0.42870000  0.45330000  0.18960000  1.0 0.1202344412
H  H33  1  0.42140000  0.44430000  0.11540000  1.0 0.1107487053
H  H34  1  0.59940000  0.56520000  0.11790000  1.0 0.0990546429
H  H35  1  0.60680000  0.57420000  0.19210000  1.0 0.0990546429
H  H36  1  0.57200000  0.58800000  0.11100000  1.0 0.0901916736
H  H37  1  0.59900000  0.60890000  0.18750000  1.0 0.0901916736
H  H38  1  0.44310000  0.46160000  0.19600000  1.0 0.1295820539
H  H39  1  0.42550000  0.45280000  0.11990000  1.0 0.1295820539
H  H40  1  0.59580000  0.61930000  0.25330000  1.0 0.1585499259
H  H41  1  0.61300000  0.61480000  0.60040000  1.0 0.1487480799
H  H42  1  0.82620000  0.59030000  0.64960000  1.0 0.0901916736
H  H43  1  0.85510000  0.55370000  0.72060000  1.0 0.0901916736
H  H44  1  0.65360000  0.50560000  0.72880000  1.0 0.1107487053
H  H45  1  0.62480000  0.54230000  0.65770000  1.0 0.0494407588
H  H46  1  0.05480000  0.34660000  0.07930000  1.0 0.1202344412
H  H47  1  0.67390000  0.34830000  0.95220000  1.0 0.1295820539
H  H48  1  0.61860000  0.28350000  0.06630000  1.0 0.1202344412
H  H49  1  0.87360000  0.18470000  0.10070000  1.0 0.1202344412
H  H50  1  0.80430000  0.12750000  0.04600000  1.0 0.1295820539
H  H51  1  0.70130000  0.18780000  0.07260000  1.0 0.1295820539
H  H52  1  0.77390000  0.28400000  0.92460000  1.0 0.1295820539
H  H53  1  0.49510000  0.72100000  0.07650000  1.0 0.1295820539
H  H54  1  0.96250000  0.26350000  0.06990000  1.0 0.1202344412
H  H55  1  0.58220000  0.81030000  0.08460000  1.0 0.1107487053
H  H56  1  0.40360000  0.64910000  0.10780000  1.0 0.1202344412
H  H57  1  0.85970000  0.19280000  0.93210000  1.0 0.1107487053
H  H58  1  0.56710000  0.83000000  0.21050000  1.0 0.1295820539
H  H59  1  0.04820000  0.34990000  0.20690000  1.0 0.1202344412
H  H60  1  0.86800000  0.18610000  0.22940000  1.0 0.1202344412
H  H61  1  0.65000000  0.92110000  0.03260000  1.0 0.1107487053
H  H62  1  0.48090000  0.74940000  0.24300000  1.0 0.0990546429
H  H63  1  0.67930000  0.84100000  0.94800000  1.0 0.1295820539
H  H64  1  0.63040000  0.90980000  0.92930000  1.0 0.1405742317
H  H65  1  0.61460000  0.86600000  0.97140000  1.0 0.1295820539
H  H66  1  0.38820000  0.66470000  0.23420000  1.0 0.1107487053
H  H67  1  0.78320000  0.99490000  0.98660000  1.0 0.1405742317
H  H68  1  0.72850000  0.02140000  0.94740000  1.0 0.1405742317
H  H69  1  0.76910000  0.94220000  0.94510000  1.0 0.1295820539
H  H70  1  0.95850000  0.27360000  0.23810000  1.0 0.1202344412
H  H71  1  0.84740000  0.99130000  0.26560000  1.0 0.0901916736
H  H72  1  0.87330000  0.99820000  0.33970000  1.0 0.0608429858
H  H73  1  0.66910000  0.01980000  0.35070000  1.0 0.0901916736
H  H74  1  0.64320000  0.01300000  0.27660000  1.0 0.0901916736
H  H75  1  0.88380000  0.04700000  0.39860000  1.0 0.1295820539
H  H76  1  0.89470000  0.07450000  0.74710000  1.0 0.1585499259
H  H77  1  0.07130000  0.95330000  0.81040000  1.0 0.1202344412
H  H78  1  0.07860000  0.94430000  0.88460000  1.0 0.1107487053
H  H79  1  0.90060000  0.06520000  0.88210000  1.0 0.0990546429
H  H80  1  0.89320000  0.07420000  0.80790000  1.0 0.0990546429
H  H81  1  0.92800000  0.08800000  0.88900000  1.0 0.0901916736
H  H82  1  0.90100000  0.10890000  0.81250000  1.0 0.0901916736
H  H83  1  0.05690000  0.96160000  0.80400000  1.0 0.1295820539
H  H84  1  0.07450000  0.95280000  0.88010000  1.0 0.1295820539
H  H85  1  0.90420000  0.11930000  0.74670000  1.0 0.1585499259
H  H86  1  0.88700000  0.11480000  0.39960000  1.0 0.1487480799
H  H87  1  0.67380000  0.09030000  0.35040000  1.0 0.0901916736
H  H88  1  0.64490000  0.05370000  0.27940000  1.0 0.0901916736
H  H89  1  0.84640000  0.00560000  0.27120000  1.0 0.1107487053
H  H90  1  0.87520000  0.04230000  0.34230000  1.0 0.0494407588
H  H91  1  0.55480000  0.15340000  0.07930000  1.0 0.1202344412
H  H92  1  0.17390000  0.15170000  0.95220000  1.0 0.1295820539
H  H93  1  0.11860000  0.21650000  0.06630000  1.0 0.1202344412
H  H94  1  0.37360000  0.31530000  0.10070000  1.0 0.1202344412
H  H95  1  0.30430000  0.37250000  0.04600000  1.0 0.1295820539
H  H96  1  0.20130000  0.31220000  0.07260000  1.0 0.1295820539
H  H97  1  0.27390000  0.21600000  0.92460000  1.0 0.1295820539
H  H98  1  0.99510000  0.77900000  0.07650000  1.0 0.1295820539
H  H99  1  0.46250000  0.23650000  0.06990000  1.0 0.1202344412
H  H100  1  0.08220000  0.68970000  0.08460000  1.0 0.1107487053
H  H101  1  0.90360000  0.85090000  0.10780000  1.0 0.1202344412
H  H102  1  0.35970000  0.30720000  0.93210000  1.0 0.1107487053
H  H103  1  0.06710000  0.67000000  0.21050000  1.0 0.1295820539
H  H104  1  0.54820000  0.15010000  0.20690000  1.0 0.1202344412
H  H105  1  0.36800000  0.31390000  0.22940000  1.0 0.1202344412
H  H106  1  0.15000000  0.57890000  0.03260000  1.0 0.1107487053
H  H107  1  0.98090000  0.75060000  0.24300000  1.0 0.0990546429
H  H108  1  0.17930000  0.65900000  0.94800000  1.0 0.1295820539
H  H109  1  0.13040000  0.59020000  0.92930000  1.0 0.1405742317
H  H110  1  0.11460000  0.63400000  0.97140000  1.0 0.1295820539
H  H111  1  0.88820000  0.83530000  0.23420000  1.0 0.1107487053
H  H112  1  0.28320000  0.50510000  0.98660000  1.0 0.1405742317
H  H113  1  0.22850000  0.47860000  0.94740000  1.0 0.1405742317
H  H114  1  0.26910000  0.55780000  0.94510000  1.0 0.1295820539
H  H115  1  0.45850000  0.22640000  0.23810000  1.0 0.1202344412
H  H116  1  0.34740000  0.50870000  0.26560000  1.0 0.0901916736
H  H117  1  0.37330000  0.50180000  0.33970000  1.0 0.0608429858
H  H118  1  0.16910000  0.48020000  0.35070000  1.0 0.0901916736
H  H119  1  0.14320000  0.48700000  0.27660000  1.0 0.0901916736
H  H120  1  0.38380000  0.45300000  0.39860000  1.0 0.1295820539
H  H121  1  0.39470000  0.42550000  0.74710000  1.0 0.1585499259
H  H122  1  0.57130000  0.54670000  0.81040000  1.0 0.1202344412
H  H123  1  0.57860000  0.55570000  0.88460000  1.0 0.1107487053
H  H124  1  0.40060000  0.43480000  0.88210000  1.0 0.0990546429
H  H125  1  0.39320000  0.42580000  0.80790000  1.0 0.0990546429
H  H126  1  0.42800000  0.41200000  0.88900000  1.0 0.0901916736
H  H127  1  0.40100000  0.39110000  0.81250000  1.0 0.0901916736
H  H128  1  0.55690000  0.53840000  0.80400000  1.0 0.1295820539
H  H129  1  0.57450000  0.54720000  0.88010000  1.0 0.1295820539
H  H130  1  0.40420000  0.38070000  0.74670000  1.0 0.1585499259
H  H131  1  0.38700000  0.38520000  0.39960000  1.0 0.1487480799
H  H132  1  0.17380000  0.40970000  0.35040000  1.0 0.0901916736
H  H133  1  0.14490000  0.44630000  0.27940000  1.0 0.0901916736
H  H134  1  0.34640000  0.49440000  0.27120000  1.0 0.1107487053
H  H135  1  0.37520000  0.45770000  0.34230000  1.0 0.0494407588
H  H136  1  0.94520000  0.65340000  0.92070000  1.0 0.1202344412
H  H137  1  0.32610000  0.65170000  0.04780000  1.0 0.1295820539
H  H138  1  0.38140000  0.71650000  0.93370000  1.0 0.1202344412
H  H139  1  0.12640000  0.81530000  0.89930000  1.0 0.1202344412
H  H140  1  0.19570000  0.87250000  0.95400000  1.0 0.1295820539
H  H141  1  0.29870000  0.81220000  0.92740000  1.0 0.1295820539
H  H142  1  0.22610000  0.71600000  0.07540000  1.0 0.1295820539
H  H143  1  0.50490000  0.27900000  0.92350000  1.0 0.1295820539
H  H144  1  0.03750000  0.73650000  0.93010000  1.0 0.1202344412
H  H145  1  0.41780000  0.18970000  0.91540000  1.0 0.1107487053
H  H146  1  0.59640000  0.35090000  0.89220000  1.0 0.1202344412
H  H147  1  0.14030000  0.80720000  0.06790000  1.0 0.1107487053
H  H148  1  0.43290000  0.17000000  0.78950000  1.0 0.1295820539
H  H149  1  0.95180000  0.65010000  0.79310000  1.0 0.1202344412
H  H150  1  0.13200000  0.81390000  0.77060000  1.0 0.1202344412
H  H151  1  0.35000000  0.07890000  0.96740000  1.0 0.1107487053
H  H152  1  0.51910000  0.25060000  0.75700000  1.0 0.0990546429
H  H153  1  0.32070000  0.15900000  0.05200000  1.0 0.1295820539
H  H154  1  0.36960000  0.09020000  0.07070000  1.0 0.1405742317
H  H155  1  0.38540000  0.13400000  0.02860000  1.0 0.1295820539
H  H156  1  0.61180000  0.33530000  0.76580000  1.0 0.1107487053
H  H157  1  0.21680000  0.00510000  0.01340000  1.0 0.1405742317
H  H158  1  0.27150000  0.97860000  0.05260000  1.0 0.1405742317
H  H159  1  0.23090000  0.05780000  0.05490000  1.0 0.1295820539
H  H160  1  0.04150000  0.72640000  0.76190000  1.0 0.1202344412
H  H161  1  0.15260000  0.00870000  0.73440000  1.0 0.0901916736
H  H162  1  0.12670000  0.00180000  0.66030000  1.0 0.0608429858
H  H163  1  0.33090000  0.98020000  0.64930000  1.0 0.0901916736
H  H164  1  0.35680000  0.98700000  0.72340000  1.0 0.0901916736
H  H165  1  0.11620000  0.95300000  0.60140000  1.0 0.1295820539
H  H166  1  0.10530000  0.92550000  0.25290000  1.0 0.1585499259
H  H167  1  0.92870000  0.04670000  0.18960000  1.0 0.1202344412
H  H168  1  0.92140000  0.05570000  0.11540000  1.0 0.1107487053
H  H169  1  0.09940000  0.93480000  0.11790000  1.0 0.0990546429
H  H170  1  0.10680000  0.92580000  0.19210000  1.0 0.0990546429
H  H171  1  0.07200000  0.91200000  0.11100000  1.0 0.0901916736
H  H172  1  0.09900000  0.89110000  0.18750000  1.0 0.0901916736
H  H173  1  0.94310000  0.03840000  0.19600000  1.0 0.1295820539
H  H174  1  0.92550000  0.04720000  0.11990000  1.0 0.1295820539
H  H175  1  0.09580000  0.88070000  0.25330000  1.0 0.1585499259
H  H176  1  0.11300000  0.88520000  0.60040000  1.0 0.1487480799
H  H177  1  0.32620000  0.90970000  0.64960000  1.0 0.0901916736
H  H178  1  0.35510000  0.94630000  0.72060000  1.0 0.0901916736
H  H179  1  0.15360000  0.99440000  0.72880000  1.0 0.1107487053
H  H180  1  0.12480000  0.95770000  0.65770000  1.0 0.0494407588
C  C1  1  0.46597000  0.82990000  0.89672000  1.0 -0.1196679514
C  C2  1  0.81913000  0.81670000  0.02321000  1.0 -0.1670625707
C  C3  1  0.65952000  0.65200000  0.00921000  1.0 -0.021148441
C  C4  1  0.85241000  0.77700000  0.95550000  1.0 -0.1196679514
C  C5  1  0.60836000  0.70230000  0.87174000  1.0 -0.2046032747
C  C6  1  0.43959000  0.85630000  0.85552000  1.0 0.0009150946
C  C7  1  0.75799000  0.71210000  0.98320000  1.0 0.0701350054
C  C8  1  0.70275000  0.65890000  0.97866000  1.0 -0.1570177417
C  C9  1  0.80299000  0.72090000  0.95140000  1.0 -0.1413277798
C  C10  1  0.60163000  0.59526000  0.00406000  1.0 0.5595709631
C  C11  1  0.86111000  0.82520000  0.99125000  1.0 -0.021148441
C  C12  1  0.72070000  0.75230000  0.05087000  1.0 -0.1495547121
C  C13  1  0.99150000  0.24330000  0.89637000  1.0 -0.1570177417
C  C14  1  0.52063000  0.78090000  0.90231000  1.0 -0.1495547121
C  C15  1  0.76637000  0.76150000  0.01921000  1.0 0.0701350054
C  C16  1  0.93970000  0.29570000  0.89143000  1.0 -0.1299836183
C  C17  1  0.17270000  0.09280000  0.83685000  1.0 0.5413768763
C  C18  1  0.91388000  0.88750000  0.99518000  1.0 0.5595709631
C  C19  1  0.69104000  0.61400000  0.84149000  1.0 0.5413768763
C  C20  1  0.63610000  0.67620000  0.83617000  1.0 -0.021148441
C  C21  1  0.91760000  0.32910000  0.85118000  1.0 -0.0085210889
C  C22  1  0.08100000  0.17020000  0.86505000  1.0 -0.1875756415
C  C23  1  0.66960000  0.69890000  0.04624000  1.0 -0.1413277798
C  C24  1  0.86040000  0.38840000  0.84762000  1.0 0.5751890043
C  C25  1  0.55261000  0.75560000  0.86675000  1.0 0.0760524483
C  C26  1  0.94820000  0.30800000  0.81642000  1.0 -0.1875756415
C  C27  1  0.02590000  0.22160000  0.86090000  1.0 0.0701350054
C  C28  1  0.11340000  0.14930000  0.83085000  1.0 0.0058542179
C  C29  1  0.46970000  0.83220000  0.82067000  1.0 -0.1670625707
C  C30  1  0.52620000  0.78210000  0.82528000  1.0 0.0701350054
C  C31  1  0.61160000  0.70340000  0.79455000  1.0 -0.1495547121
C  C32  1  0.81410000  0.44940000  0.97793000  1.0 0.2745276788
C  C33  1  0.37800000  0.91020000  0.85047000  1.0 0.5595709631
C  C34  1  0.00240000  0.25390000  0.82002000  1.0 0.0701350054
C  C35  1  0.03510000  0.23020000  0.78454000  1.0 -0.2187317288
C  C36  1  0.84880000  0.38440000  0.04460000  1.0 -0.3607398545
C  C37  1  0.08980000  0.17950000  0.78966000  1.0 -0.2350088557
C  C38  1  0.75200000  0.47730000  0.03620000  1.0 -0.3030106178
C  C39  1  0.55790000  0.75520000  0.78959000  1.0 -0.1495547121
C  C40  1  0.68880000  0.49710000  0.71710000  1.0 0.0188611015
C  C41  1  0.67340000  0.50120000  0.67310000  1.0 -0.0904334151
C  C42  1  0.72640000  0.50970000  0.64786000  1.0 0.0188611015
C  C43  1  0.79470000  0.51400000  0.66666667  1.0 -0.0808650767
C  C44  1  0.81010000  0.51000000  0.71060000  1.0 0.0295447465
C  C45  1  0.62660000  0.53850000  0.53880000  1.0 0.0401283266
C  C46  1  0.63680000  0.47450000  0.51420000  1.0 -0.0514822881
C  C47  1  0.62680000  0.47950000  0.47010000  1.0 0.0295447465
C  C48  1  0.60650000  0.54850000  0.45050000  1.0 -0.0388171369
C  C49  1  0.59630000  0.61250000  0.47510000  1.0 0.0494407588
C  C50  1  0.60630000  0.60750000  0.51920000  1.0 0.0701350054
C  C51  1  0.58030000  0.55760000  0.31350000  1.0 -0.0015156675
C  C52  1  0.64270000  0.53400000  0.33590000  1.0 0.0701350054
C  C53  1  0.65100000  0.53340000  0.38010000  1.0 0.0295447465
C  C54  1  0.59690000  0.55630000  0.40194000  1.0 -0.1002196018
C  C55  1  0.53450000  0.57980000  0.37960000  1.0 0.0401283266
C  C56  1  0.52620000  0.58050000  0.33540000  1.0 0.0188611015
C  C57  1  0.71180000  0.51250000  0.60110000  1.0 0.1903430024
C  C58  1  0.46340000  0.47600000  0.17500000  1.0 -0.1759485355
C  C59  1  0.45900000  0.47070000  0.13100000  1.0 0.0701350054
C  C60  1  0.56480000  0.54250000  0.13250000  1.0 0.0990546429
C  C61  1  0.56910000  0.54790000  0.17650000  1.0 -0.1002196018
C  C62  1  0.51840000  0.51460000  0.19780000  1.0 0.0701350054
C  C63  1  0.52030000  0.51370000  0.24730000  1.0 0.2384865532
C  C64  1  0.51980000  0.54700000  0.24690000  1.0 0.2139771307
C  C65  1  0.55460000  0.55820000  0.13260000  1.0 0.0901916736
C  C66  1  0.56400000  0.57420000  0.17600000  1.0 -0.0904334151
C  C67  1  0.52110000  0.53850000  0.20210000  1.0 -0.0085210889
C  C68  1  0.47210000  0.49040000  0.18000000  1.0 -0.1413277798
C  C69  1  0.46260000  0.48150000  0.13440000  1.0 0.0701350054
C  C70  1  0.70890000  0.58290000  0.59790000  1.0 0.1809179882
C  C71  1  0.63270000  0.61750000  0.53810000  1.0 0.1107487053
C  C72  1  0.58060000  0.57220000  0.51710000  1.0 0.0188611015
C  C73  1  0.56300000  0.57950000  0.47330000  1.0 0.0295447465
C  C74  1  0.59770000  0.63210000  0.45070000  1.0 0.0901916736
C  C75  1  0.64980000  0.67730000  0.47180000  1.0 0.0701350054
C  C76  1  0.66730000  0.67010000  0.51550000  1.0 -0.021148441
C  C77  1  0.79120000  0.57310000  0.66560000  1.0 -0.0703898011
C  C78  1  0.80830000  0.55140000  0.70780000  1.0 0.0295447465
C  C79  1  0.68870000  0.52280000  0.71270000  1.0 0.0188611015
C  C80  1  0.67150000  0.54460000  0.67050000  1.0 -0.0514822881
C  C81  1  0.72280000  0.56970000  0.64700000  1.0 0.0188611015
C  C82  1  0.59120000  0.62770000  0.40020000  1.0 -0.1495547121
C  C83  1  0.52650000  0.63770000  0.37700000  1.0 0.0990546429
C  C84  1  0.51830000  0.62850000  0.33300000  1.0 0.1809179882
C  C85  1  0.57480000  0.60930000  0.31240000  1.0 -0.0388171369
C  C86  1  0.63950000  0.59930000  0.33570000  1.0 0.0295447465
C  C87  1  0.64770000  0.60850000  0.37960000  1.0 0.0701350054
C  C88  1  0.03403000  0.32990000  0.10328000  1.0 -0.1196679514
C  C89  1  0.68087000  0.31670000  0.97679000  1.0 -0.1670625707
C  C90  1  0.84048000  0.15200000  0.99079000  1.0 -0.021148441
C  C91  1  0.64759000  0.27700000  0.04450000  1.0 -0.1196679514
C  C92  1  0.89164000  0.20230000  0.12826000  1.0 -0.2046032747
C  C93  1  0.06041000  0.35630000  0.14448000  1.0 0.0009150946
C  C94  1  0.74201000  0.21210000  0.01680000  1.0 0.0701350054
C  C95  1  0.79725000  0.15890000  0.02134000  1.0 -0.1570177417
C  C96  1  0.69701000  0.22090000  0.04860000  1.0 -0.1413277798
C  C97  1  0.89837000  0.09526000  0.99594000  1.0 0.5595709631
C  C98  1  0.63889000  0.32520000  0.00875000  1.0 -0.021148441
C  C99  1  0.77930000  0.25230000  0.94913000  1.0 -0.1495547121
C  C100  1  0.50850000  0.74330000  0.10363000  1.0 -0.1570177417
C  C101  1  0.97937000  0.28090000  0.09769000  1.0 -0.1495547121
C  C102  1  0.73363000  0.26150000  0.98079000  1.0 0.0701350054
C  C103  1  0.56030000  0.79570000  0.10857000  1.0 -0.1299836183
C  C104  1  0.32730000  0.59280000  0.16315000  1.0 0.5413768763
C  C105  1  0.58612000  0.38750000  0.00482000  1.0 0.5595709631
C  C106  1  0.80896000  0.11400000  0.15851000  1.0 0.5413768763
C  C107  1  0.86390000  0.17620000  0.16383000  1.0 -0.021148441
C  C108  1  0.58240000  0.82910000  0.14882000  1.0 -0.0085210889
C  C109  1  0.41900000  0.67020000  0.13495000  1.0 -0.1875756415
C  C110  1  0.83040000  0.19890000  0.95376000  1.0 -0.1413277798
C  C111  1  0.63960000  0.88840000  0.15238000  1.0 0.5751890043
C  C112  1  0.94739000  0.25560000  0.13325000  1.0 0.0760524483
C  C113  1  0.55180000  0.80800000  0.18358000  1.0 -0.1875756415
C  C114  1  0.47410000  0.72160000  0.13910000  1.0 0.0701350054
C  C115  1  0.38660000  0.64930000  0.16915000  1.0 0.0058542179
C  C116  1  0.03030000  0.33220000  0.17933000  1.0 -0.1670625707
C  C117  1  0.97380000  0.28210000  0.17472000  1.0 0.0701350054
C  C118  1  0.88840000  0.20340000  0.20545000  1.0 -0.1495547121
C  C119  1  0.68590000  0.94940000  0.02207000  1.0 0.2745276788
C  C120  1  0.12200000  0.41020000  0.14953000  1.0 0.5595709631
C  C121  1  0.49760000  0.75390000  0.17998000  1.0 0.0701350054
C  C122  1  0.46490000  0.73020000  0.21546000  1.0 -0.2187317288
C  C123  1  0.65120000  0.88440000  0.95540000  1.0 -0.3607398545
C  C124  1  0.41020000  0.67950000  0.21034000  1.0 -0.2339796772
C  C125  1  0.74800000  0.97730000  0.96380000  1.0 -0.3030106178
C  C126  1  0.94210000  0.25520000  0.21041000  1.0 -0.1495547121
C  C127  1  0.81120000  0.99710000  0.28290000  1.0 0.0188611015
C  C128  1  0.82660000  0.00120000  0.32690000  1.0 -0.0904334151
C  C129  1  0.77360000  0.00970000  0.35214000  1.0 0.0188611015
C  C130  1  0.70530000  0.01400000  0.33340000  1.0 -0.0808650767
C  C131  1  0.68990000  0.01000000  0.28940000  1.0 0.0295447465
C  C132  1  0.87340000  0.03850000  0.46120000  1.0 0.0401283266
C  C133  1  0.86320000  0.97450000  0.48580000  1.0 -0.0514822881
C  C134  1  0.87320000  0.97950000  0.52990000  1.0 0.0295447465
C  C135  1  0.89350000  0.04850000  0.54950000  1.0 -0.0388171369
C  C136  1  0.90370000  0.11250000  0.52490000  1.0 0.0494407588
C  C137  1  0.89370000  0.10750000  0.48080000  1.0 0.0701350054
C  C138  1  0.91970000  0.05760000  0.68650000  1.0 -0.0015156675
C  C139  1  0.85730000  0.03400000  0.66410000  1.0 0.0701350054
C  C140  1  0.84900000  0.03340000  0.61990000  1.0 0.0295447465
C  C141  1  0.90310000  0.05630000  0.59806000  1.0 -0.0904334151
C  C142  1  0.96550000  0.07980000  0.62040000  1.0 0.0401283266
C  C143  1  0.97380000  0.08050000  0.66460000  1.0 0.0188611015
C  C144  1  0.78820000  0.01250000  0.39890000  1.0 0.1903430024
C  C145  1  0.03660000  0.97600000  0.82500000  1.0 -0.1759485355
C  C146  1  0.04100000  0.97070000  0.86900000  1.0 0.0701350054
C  C147  1  0.93520000  0.04250000  0.86750000  1.0 0.0990546429
C  C148  1  0.93090000  0.04790000  0.82350000  1.0 -0.1002196018
C  C149  1  0.98160000  0.01460000  0.80220000  1.0 0.0701350054
C  C150  1  0.97970000  0.01370000  0.75270000  1.0 0.2384865532
C  C151  1  0.98020000  0.04700000  0.75310000  1.0 0.2139771307
C  C152  1  0.94540000  0.05820000  0.86740000  1.0 0.0901916736
C  C153  1  0.93600000  0.07420000  0.82400000  1.0 -0.0904334151
C  C154  1  0.97890000  0.03850000  0.79790000  1.0 -0.0085210889
C  C155  1  0.02790000  0.99040000  0.82000000  1.0 -0.1413277798
C  C156  1  0.03740000  0.98150000  0.86560000  1.0 0.0701350054
C  C157  1  0.79110000  0.08290000  0.40210000  1.0 0.1809179882
C  C158  1  0.86730000  0.11750000  0.46190000  1.0 0.1107487053
C  C159  1  0.91940000  0.07220000  0.48290000  1.0 0.0188611015
C  C160  1  0.93700000  0.07950000  0.52670000  1.0 0.0295447465
C  C161  1  0.90230000  0.13210000  0.54930000  1.0 0.0901916736
C  C162  1  0.85020000  0.17730000  0.52820000  1.0 0.0701350054
C  C163  1  0.83270000  0.17010000  0.48450000  1.0 -0.021148441
C  C164  1  0.70880000  0.07310000  0.33440000  1.0 -0.0703898011
C  C165  1  0.69170000  0.05140000  0.29220000  1.0 0.0295447465
C  C166  1  0.81130000  0.02280000  0.28730000  1.0 0.0188611015
C  C167  1  0.82850000  0.04460000  0.32950000  1.0 -0.0514822881
C  C168  1  0.77720000  0.06970000  0.35300000  1.0 0.0188611015
C  C169  1  0.90880000  0.12770000  0.59980000  1.0 -0.1495547121
C  C170  1  0.97350000  0.13770000  0.62300000  1.0 0.0990546429
C  C171  1  0.98170000  0.12850000  0.66700000  1.0 0.1809179882
C  C172  1  0.92520000  0.10930000  0.68760000  1.0 -0.0388171369
C  C173  1  0.86050000  0.09930000  0.66430000  1.0 0.0295447465
C  C174  1  0.85230000  0.10850000  0.62040000  1.0 0.0701350054
C  C175  1  0.53403000  0.17010000  0.10328000  1.0 -0.1196679514
C  C176  1  0.18087000  0.18330000  0.97679000  1.0 -0.1670625707
C  C177  1  0.34048000  0.34800000  0.99079000  1.0 -0.021148441
C  C178  1  0.14759000  0.22300000  0.04450000  1.0 -0.1196679514
C  C179  1  0.39164000  0.29770000  0.12826000  1.0 -0.2046032747
C  C180  1  0.56041000  0.14370000  0.14448000  1.0 0.0009150946
C  C181  1  0.24201000  0.28790000  0.01680000  1.0 0.0701350054
C  C182  1  0.29725000  0.34110000  0.02134000  1.0 -0.1570177417
C  C183  1  0.19701000  0.27910000  0.04860000  1.0 -0.1413277798
C  C184  1  0.39837000  0.40474000  0.99594000  1.0 0.5595709631
C  C185  1  0.13889000  0.17480000  0.00875000  1.0 -0.021148441
C  C186  1  0.27930000  0.24770000  0.94913000  1.0 -0.1495547121
C  C187  1  0.00850000  0.75670000  0.10363000  1.0 -0.1570177417
C  C188  1  0.47937000  0.21910000  0.09769000  1.0 -0.1495547121
C  C189  1  0.23363000  0.23850000  0.98079000  1.0 0.0701350054
C  C190  1  0.06030000  0.70430000  0.10857000  1.0 -0.1299836183
C  C191  1  0.82730000  0.90720000  0.16315000  1.0 0.5413768763
C  C192  1  0.08612000  0.11250000  0.00482000  1.0 0.5595709631
C  C193  1  0.30896000  0.38600000  0.15851000  1.0 0.5413768763
C  C194  1  0.36390000  0.32380000  0.16383000  1.0 -0.021148441
C  C195  1  0.08240000  0.67090000  0.14882000  1.0 -0.0085210889
C  C196  1  0.91900000  0.82980000  0.13495000  1.0 -0.1875756415
C  C197  1  0.33040000  0.30110000  0.95376000  1.0 -0.1413277798
C  C198  1  0.13960000  0.61160000  0.15238000  1.0 0.5751890043
C  C199  1  0.44739000  0.24440000  0.13325000  1.0 0.0760524483
C  C200  1  0.05180000  0.69200000  0.18358000  1.0 -0.1875756415
C  C201  1  0.97410000  0.77840000  0.13910000  1.0 0.0701350054
C  C202  1  0.88660000  0.85070000  0.16915000  1.0 0.0058542179
C  C203  1  0.53030000  0.16780000  0.17933000  1.0 -0.1670625707
C  C204  1  0.47380000  0.21790000  0.17472000  1.0 0.0701350054
C  C205  1  0.38840000  0.29660000  0.20545000  1.0 -0.1495547121
C  C206  1  0.18590000  0.55060000  0.02207000  1.0 0.2745276788
C  C207  1  0.62200000  0.08980000  0.14953000  1.0 0.5595709631
C  C208  1  0.99760000  0.74610000  0.17998000  1.0 0.0701350054
C  C209  1  0.96490000  0.76980000  0.21546000  1.0 -0.2187317288
C  C210  1  0.15120000  0.61560000  0.95540000  1.0 -0.3607398545
C  C211  1  0.91020000  0.82050000  0.21034000  1.0 -0.2339796772
C  C212  1  0.24800000  0.52270000  0.96380000  1.0 -0.3030106178
C  C213  1  0.44210000  0.24480000  0.21041000  1.0 -0.1495547121
C  C214  1  0.31120000  0.50290000  0.28290000  1.0 0.0188611015
C  C215  1  0.32660000  0.49880000  0.32690000  1.0 -0.0904334151
C  C216  1  0.27360000  0.49030000  0.35214000  1.0 0.0188611015
C  C217  1  0.20530000  0.48600000  0.33340000  1.0 -0.0808650767
C  C218  1  0.18990000  0.49000000  0.28940000  1.0 0.0295447465
C  C219  1  0.37340000  0.46150000  0.46120000  1.0 0.0401283266
C  C220  1  0.36320000  0.52550000  0.48580000  1.0 -0.0514822881
C  C221  1  0.37320000  0.52050000  0.52990000  1.0 0.0295447465
C  C222  1  0.39350000  0.45150000  0.54950000  1.0 -0.0388171369
C  C223  1  0.40370000  0.38750000  0.52490000  1.0 0.0494407588
C  C224  1  0.39370000  0.39250000  0.48080000  1.0 0.0701350054
C  C225  1  0.41970000  0.44240000  0.68650000  1.0 -0.0015156675
C  C226  1  0.35730000  0.46600000  0.66410000  1.0 0.0701350054
C  C227  1  0.34900000  0.46660000  0.61990000  1.0 0.0295447465
C  C228  1  0.40310000  0.44370000  0.59806000  1.0 -0.0904334151
C  C229  1  0.46550000  0.42020000  0.62040000  1.0 0.0401283266
C  C230  1  0.47380000  0.41950000  0.66460000  1.0 0.0188611015
C  C231  1  0.28820000  0.48750000  0.39890000  1.0 0.1903430024
C  C232  1  0.53660000  0.52400000  0.82500000  1.0 -0.1759485355
C  C233  1  0.54100000  0.52930000  0.86900000  1.0 0.0701350054
C  C234  1  0.43520000  0.45750000  0.86750000  1.0 0.0990546429
C  C235  1  0.43090000  0.45210000  0.82350000  1.0 -0.1002196018
C  C236  1  0.48160000  0.48540000  0.80220000  1.0 0.0701350054
C  C237  1  0.47970000  0.48630000  0.75270000  1.0 0.2384865532
C  C238  1  0.48020000  0.45300000  0.75310000  1.0 0.2139771307
C  C239  1  0.44540000  0.44180000  0.86740000  1.0 0.0901916736
C  C240  1  0.43600000  0.42580000  0.82400000  1.0 -0.1002196018
C  C241  1  0.47890000  0.46150000  0.79790000  1.0 -0.0085210889
C  C242  1  0.52790000  0.50960000  0.82000000  1.0 -0.1413277798
C  C243  1  0.53740000  0.51850000  0.86560000  1.0 0.0701350054
C  C244  1  0.29110000  0.41710000  0.40210000  1.0 0.1809179882
C  C245  1  0.36730000  0.38250000  0.46190000  1.0 0.1107487053
C  C246  1  0.41940000  0.42780000  0.48290000  1.0 0.0188611015
C  C247  1  0.43700000  0.42050000  0.52670000  1.0 0.0295447465
C  C248  1  0.40230000  0.36790000  0.54930000  1.0 0.0901916736
C  C249  1  0.35020000  0.32270000  0.52820000  1.0 0.0701350054
C  C250  1  0.33270000  0.32990000  0.48450000  1.0 -0.021148441
C  C251  1  0.20880000  0.42690000  0.33440000  1.0 -0.0703898011
C  C252  1  0.19170000  0.44860000  0.29220000  1.0 0.0295447465
C  C253  1  0.31130000  0.47720000  0.28730000  1.0 0.0188611015
C  C254  1  0.32850000  0.45540000  0.32950000  1.0 -0.0514822881
C  C255  1  0.27720000  0.43030000  0.35300000  1.0 0.0188611015
C  C256  1  0.40880000  0.37230000  0.59980000  1.0 -0.1495547121
C  C257  1  0.47350000  0.36230000  0.62300000  1.0 0.0990546429
C  C258  1  0.48170000  0.37150000  0.66700000  1.0 0.1809179882
C  C259  1  0.42520000  0.39070000  0.68760000  1.0 -0.0388171369
C  C260  1  0.36050000  0.40070000  0.66430000  1.0 0.0295447465
C  C261  1  0.35230000  0.39150000  0.62040000  1.0 0.0701350054
C  C262  1  0.96597000  0.67010000  0.89672000  1.0 -0.1196679514
C  C263  1  0.31913000  0.68330000  0.02321000  1.0 -0.1670625707
C  C264  1  0.15952000  0.84800000  0.00921000  1.0 -0.021148441
C  C265  1  0.35241000  0.72300000  0.95550000  1.0 -0.1196679514
C  C266  1  0.10836000  0.79770000  0.87174000  1.0 -0.2046032747
C  C267  1  0.93959000  0.64370000  0.85552000  1.0 0.0009150946
C  C268  1  0.25799000  0.78790000  0.98320000  1.0 0.0701350054
C  C269  1  0.20275000  0.84110000  0.97866000  1.0 -0.1570177417
C  C270  1  0.30299000  0.77910000  0.95140000  1.0 -0.1413277798
C  C271  1  0.10163000  0.90474000  0.00406000  1.0 0.5595709631
C  C272  1  0.36111000  0.67480000  0.99125000  1.0 -0.021148441
C  C273  1  0.22070000  0.74770000  0.05087000  1.0 -0.1495547121
C  C274  1  0.49150000  0.25670000  0.89637000  1.0 -0.1570177417
C  C275  1  0.02063000  0.71910000  0.90231000  1.0 -0.1495547121
C  C276  1  0.26637000  0.73850000  0.01921000  1.0 0.0701350054
C  C277  1  0.43970000  0.20430000  0.89143000  1.0 -0.1299836183
C  C278  1  0.67270000  0.40720000  0.83685000  1.0 0.5413768763
C  C279  1  0.41388000  0.61250000  0.99518000  1.0 0.5595709631
C  C280  1  0.19104000  0.88600000  0.84149000  1.0 0.5413768763
C  C281  1  0.13610000  0.82380000  0.83617000  1.0 -0.021148441
C  C282  1  0.41760000  0.17090000  0.85118000  1.0 -0.0085210889
C  C283  1  0.58100000  0.32980000  0.86505000  1.0 -0.1875756415
C  C284  1  0.16960000  0.80110000  0.04624000  1.0 -0.1413277798
C  C285  1  0.36040000  0.11160000  0.84762000  1.0 0.5751890043
C  C286  1  0.05261000  0.74440000  0.86675000  1.0 0.0760524483
C  C287  1  0.44820000  0.19200000  0.81642000  1.0 -0.1875756415
C  C288  1  0.52590000  0.27840000  0.86090000  1.0 0.0701350054
C  C289  1  0.61340000  0.35070000  0.83085000  1.0 0.0058542179
C  C290  1  0.96970000  0.66780000  0.82067000  1.0 -0.1670625707
C  C291  1  0.02620000  0.71790000  0.82528000  1.0 0.0701350054
C  C292  1  0.11160000  0.79660000  0.79455000  1.0 -0.1495547121
C  C293  1  0.31410000  0.05060000  0.97793000  1.0 0.2745276788
C  C294  1  0.87800000  0.58980000  0.85047000  1.0 0.5595709631
C  C295  1  0.50240000  0.24610000  0.82002000  1.0 0.0701350054
C  C296  1  0.53510000  0.26980000  0.78454000  1.0 -0.2187317288
C  C297  1  0.34880000  0.11560000  0.04460000  1.0 -0.3607398545
C  C298  1  0.58980000  0.32050000  0.78966000  1.0 -0.2350088557
C  C299  1  0.25200000  0.02270000  0.03620000  1.0 -0.3030106178
C  C300  1  0.05790000  0.74480000  0.78959000  1.0 -0.1495547121
C  C301  1  0.18880000  0.00290000  0.71710000  1.0 0.0188611015
C  C302  1  0.17340000  0.99880000  0.67310000  1.0 -0.0904334151
C  C303  1  0.22640000  0.99030000  0.64786000  1.0 0.0188611015
C  C304  1  0.29470000  0.98600000  0.66666667  1.0 -0.0808650767
C  C305  1  0.31010000  0.99000000  0.71060000  1.0 0.0295447465
C  C306  1  0.12660000  0.96150000  0.53880000  1.0 0.0401283266
C  C307  1  0.13680000  0.02550000  0.51420000  1.0 -0.0514822881
C  C308  1  0.12680000  0.02050000  0.47010000  1.0 0.0295447465
C  C309  1  0.10650000  0.95150000  0.45050000  1.0 -0.0388171369
C  C310  1  0.09630000  0.88750000  0.47510000  1.0 0.0494407588
C  C311  1  0.10630000  0.89250000  0.51920000  1.0 0.0701350054
C  C312  1  0.08030000  0.94240000  0.31350000  1.0 -0.0015156675
C  C313  1  0.14270000  0.96600000  0.33590000  1.0 0.0701350054
C  C314  1  0.15100000  0.96660000  0.38010000  1.0 0.0295447465
C  C315  1  0.09690000  0.94370000  0.40194000  1.0 -0.1002196018
C  C316  1  0.03450000  0.92020000  0.37960000  1.0 0.0401283266
C  C317  1  0.02620000  0.91950000  0.33540000  1.0 0.0188611015
C  C318  1  0.21180000  0.98750000  0.60110000  1.0 0.1903430024
C  C319  1  0.96340000  0.02400000  0.17500000  1.0 -0.1759485355
C  C320  1  0.95900000  0.02930000  0.13100000  1.0 0.0701350054
C  C321  1  0.06480000  0.95750000  0.13250000  1.0 0.0990546429
C  C322  1  0.06910000  0.95210000  0.17650000  1.0 -0.1002196018
C  C323  1  0.01840000  0.98540000  0.19780000  1.0 0.0701350054
C  C324  1  0.02030000  0.98630000  0.24730000  1.0 0.2384865532
C  C325  1  0.01980000  0.95300000  0.24690000  1.0 0.2139771307
C  C326  1  0.05460000  0.94180000  0.13260000  1.0 0.0901916736
C  C327  1  0.06400000  0.92580000  0.17600000  1.0 -0.1002196018
C  C328  1  0.02110000  0.96150000  0.20210000  1.0 -0.0085210889
C  C329  1  0.97210000  0.00960000  0.18000000  1.0 -0.1413277798
C  C330  1  0.96260000  0.01850000  0.13440000  1.0 0.0701350054
C  C331  1  0.20890000  0.91710000  0.59790000  1.0 0.1809179882
C  C332  1  0.13270000  0.88250000  0.53810000  1.0 0.1107487053
C  C333  1  0.08060000  0.92780000  0.51710000  1.0 0.0188611015
C  C334  1  0.06300000  0.92050000  0.47330000  1.0 0.0295447465
C  C335  1  0.09770000  0.86790000  0.45070000  1.0 0.0901916736
C  C336  1  0.14980000  0.82270000  0.47180000  1.0 0.0701350054
C  C337  1  0.16730000  0.82990000  0.51550000  1.0 -0.021148441
C  C338  1  0.29120000  0.92690000  0.66560000  1.0 -0.0703898011
C  C339  1  0.30830000  0.94860000  0.70780000  1.0 0.0295447465
C  C340  1  0.18870000  0.97720000  0.71270000  1.0 0.0188611015
C  C341  1  0.17150000  0.95540000  0.67050000  1.0 -0.0514822881
C  C342  1  0.22280000  0.93030000  0.64700000  1.0 0.0188611015
C  C343  1  0.09120000  0.87230000  0.40020000  1.0 -0.1495547121
C  C344  1  0.02650000  0.86230000  0.37700000  1.0 0.0990546429
C  C345  1  0.01830000  0.87150000  0.33300000  1.0 0.1809179882
C  C346  1  0.07480000  0.89070000  0.31240000  1.0 -0.0388171369
C  C347  1  0.13950000  0.90070000  0.33570000  1.0 0.0295447465
C  C348  1  0.14770000  0.89150000  0.37960000  1.0 0.0701350054
N  N1  1  0.80450000  0.43930000  0.01833000  1.0 0.0494407588
N  N2  1  0.75710000  0.50150000  0.73584000  1.0 -0.0703898011
N  N3  1  0.64660000  0.53480000  0.58420000  1.0 -0.1495547121
N  N4  1  0.57460000  0.55280000  0.26720000  1.0 -0.1002196018
N  N5  1  0.50970000  0.50390000  0.10970000  1.0 -0.2095424285
N  N6  1  0.50890000  0.51600000  0.11420000  1.0 -0.1570177417
N  N7  1  0.56750000  0.59520000  0.26830000  1.0 -0.1196679514
N  N8  1  0.64490000  0.60660000  0.58360000  1.0 -0.1196679514
N  N9  1  0.75710000  0.52620000  0.73140000  1.0 -0.1002196018
N  N10  1  0.69550000  0.93930000  0.98167000  1.0 0.0494407588
N  N11  1  0.74290000  0.00150000  0.26416000  1.0 -0.0703898011
N  N12  1  0.85340000  0.03480000  0.41580000  1.0 -0.1495547121
N  N13  1  0.92540000  0.05280000  0.73280000  1.0 -0.1002196018
N  N14  1  0.99030000  0.00390000  0.89030000  1.0 -0.2095424285
N  N15  1  0.99110000  0.01600000  0.88580000  1.0 -0.1570177417
N  N16  1  0.93250000  0.09520000  0.73170000  1.0 -0.1196679514
N  N17  1  0.85510000  0.10660000  0.41640000  1.0 -0.1196679514
N  N18  1  0.74290000  0.02620000  0.26860000  1.0 -0.1002196018
N  N19  1  0.19550000  0.56070000  0.98167000  1.0 0.0494407588
N  N20  1  0.24290000  0.49850000  0.26416000  1.0 -0.0808650767
N  N21  1  0.35340000  0.46520000  0.41580000  1.0 -0.1495547121
N  N22  1  0.42540000  0.44720000  0.73280000  1.0 -0.1002196018
N  N23  1  0.49030000  0.49610000  0.89030000  1.0 -0.2095424285
N  N24  1  0.49110000  0.48400000  0.88580000  1.0 -0.1570177417
N  N25  1  0.43250000  0.40480000  0.73170000  1.0 -0.1196679514
N  N26  1  0.35510000  0.39340000  0.41640000  1.0 -0.1196679514
N  N27  1  0.24290000  0.47380000  0.26860000  1.0 -0.1002196018
N  N28  1  0.30450000  0.06070000  0.01833000  1.0 0.0494407588
N  N29  1  0.25710000  0.99850000  0.73584000  1.0 -0.0808650767
N  N30  1  0.14660000  0.96520000  0.58420000  1.0 -0.1495547121
N  N31  1  0.07460000  0.94720000  0.26720000  1.0 -0.1002196018
N  N32  1  0.00970000  0.99610000  0.10970000  1.0 -0.2095424285
N  N33  1  0.00890000  0.98400000  0.11420000  1.0 -0.1570177417
N  N34  1  0.06750000  0.90480000  0.26830000  1.0 -0.1196679514
N  N35  1  0.14490000  0.89340000  0.58360000  1.0 -0.1196679514
N  N36  1  0.25710000  0.97380000  0.73140000  1.0 -0.1085510468
O  O1  1  0.58027000  0.57377000  0.96681000  1.0 -0.5281409423
O  O2  1  0.71111000  0.59127000  0.87867000  1.0 -0.537838926
O  O3  1  0.19201000  0.07106000  0.87373000  1.0 -0.5194932571
O  O4  1  0.83730000  0.40742000  0.88094000  1.0 -0.5510656387
O  O5  1  0.77983000  0.49262000  0.95356000  1.0 -0.4237904003
O  O6  1  0.35669000  0.93222000  0.88382000  1.0 -0.5281409423
O  O7  1  0.93509000  0.91035000  0.96073000  1.0 -0.5510656387
O  O8  1  0.93389000  0.91375000  0.03150000  1.0 -0.537838926
O  O9  1  0.57872000  0.57221000  0.03739000  1.0 -0.5585915049
O  O10  1  0.70998000  0.58792000  0.80754000  1.0 -0.5510656387
O  O11  1  0.19712000  0.07260000  0.80309000  1.0 -0.5585915049
O  O12  1  0.84236000  0.41671000  0.81100000  1.0 -0.5194932571
O  O13  1  0.35327000  0.92739000  0.81278000  1.0 -0.5281409423
O  O14  1  0.75540000  0.49620000  0.57890000  1.0 -0.1495547121
O  O15  1  0.47810000  0.47800000  0.26260000  1.0 -0.1570177417
O  O16  1  0.47850000  0.51470000  0.26720000  1.0 -0.0904334151
O  O17  1  0.75710000  0.57070000  0.57720000  1.0 -0.1299836183
O  O18  1  0.91973000  0.07377000  0.03319000  1.0 -0.5281409423
O  O19  1  0.78889000  0.09127000  0.12133000  1.0 -0.537838926
O  O20  1  0.30799000  0.57106000  0.12627000  1.0 -0.5194932571
O  O21  1  0.66270000  0.90742000  0.11906000  1.0 -0.5510656387
O  O22  1  0.72017000  0.99262000  0.04644000  1.0 -0.4237904003
O  O23  1  0.14331000  0.43222000  0.11618000  1.0 -0.5281409423
O  O24  1  0.56491000  0.41035000  0.03927000  1.0 -0.5510656387
O  O25  1  0.56611000  0.41375000  0.96850000  1.0 -0.537838926
O  O26  1  0.92128000  0.07221000  0.96261000  1.0 -0.5585915049
O  O27  1  0.79002000  0.08792000  0.19246000  1.0 -0.5510656387
O  O28  1  0.30288000  0.57260000  0.19691000  1.0 -0.5585915049
O  O29  1  0.65764000  0.91671000  0.18900000  1.0 -0.5194932571
O  O30  1  0.14673000  0.42739000  0.18722000  1.0 -0.5281409423
O  O31  1  0.74460000  0.99620000  0.42110000  1.0 -0.1495547121
O  O32  1  0.02190000  0.97800000  0.73740000  1.0 -0.1570177417
O  O33  1  0.02150000  0.01470000  0.73280000  1.0 -0.0904334151
O  O34  1  0.74290000  0.07070000  0.42280000  1.0 -0.1299836183
O  O35  1  0.41973000  0.42623000  0.03319000  1.0 -0.5281409423
O  O36  1  0.28889000  0.40873000  0.12133000  1.0 -0.537838926
O  O37  1  0.80799000  0.92894000  0.12627000  1.0 -0.5194932571
O  O38  1  0.16270000  0.59258000  0.11906000  1.0 -0.5510656387
O  O39  1  0.22017000  0.50738000  0.04644000  1.0 -0.4237904003
O  O40  1  0.64331000  0.06778000  0.11618000  1.0 -0.5281409423
O  O41  1  0.06491000  0.08965000  0.03927000  1.0 -0.5510656387
O  O42  1  0.06611000  0.08625000  0.96850000  1.0 -0.537838926
O  O43  1  0.42128000  0.42779000  0.96261000  1.0 -0.5585915049
O  O44  1  0.29002000  0.41208000  0.19246000  1.0 -0.5510656387
O  O45  1  0.80288000  0.92740000  0.19691000  1.0 -0.5585915049
O  O46  1  0.15764000  0.58329000  0.18900000  1.0 -0.5194932571
O  O47  1  0.64673000  0.07261000  0.18722000  1.0 -0.5281409423
O  O48  1  0.24460000  0.50380000  0.42110000  1.0 -0.1495547121
O  O49  1  0.52190000  0.52200000  0.73740000  1.0 -0.1570177417
O  O50  1  0.52150000  0.48530000  0.73280000  1.0 -0.0904334151
O  O51  1  0.24290000  0.42930000  0.42280000  1.0 -0.1299836183
O  O52  1  0.08027000  0.92623000  0.96681000  1.0 -0.5281409423
O  O53  1  0.21111000  0.90873000  0.87867000  1.0 -0.537838926
O  O54  1  0.69201000  0.42894000  0.87373000  1.0 -0.5194932571
O  O55  1  0.33730000  0.09258000  0.88094000  1.0 -0.5510656387
O  O56  1  0.27983000  0.00738000  0.95356000  1.0 -0.4237904003
O  O57  1  0.85669000  0.56778000  0.88382000  1.0 -0.5281409423
O  O58  1  0.43509000  0.58965000  0.96073000  1.0 -0.5510656387
O  O59  1  0.43389000  0.58625000  0.03150000  1.0 -0.537838926
O  O60  1  0.07872000  0.92779000  0.03739000  1.0 -0.5585915049
O  O61  1  0.20998000  0.91208000  0.80754000  1.0 -0.5510656387
O  O62  1  0.69712000  0.42740000  0.80309000  1.0 -0.5585915049
O  O63  1  0.34236000  0.08329000  0.81100000  1.0 -0.5194932571
O  O64  1  0.85327000  0.57261000  0.81278000  1.0 -0.5281409423
O  O65  1  0.25540000  0.00380000  0.57890000  1.0 -0.1495547121
O  O66  1  0.97810000  0.02200000  0.26260000  1.0 -0.1570177417
O  O67  1  0.97850000  0.98530000  0.26720000  1.0 -0.0904334151
O  O68  1  0.25710000  0.92930000  0.57720000  1.0 -0.1299836183
F  F1  1  0.69330000  0.51290000  0.31580000  1.0 -0.021148441
F  F2  1  0.71130000  0.51200000  0.39990000  1.0 -0.0703898011
F  F3  1  0.46530000  0.60300000  0.31540000  1.0 -0.021148441
F  F4  1  0.65610000  0.40550000  0.53190000  1.0 -0.0808650767
F  F5  1  0.48150000  0.59950000  0.40060000  1.0 -0.0085210889
F  F6  1  0.63650000  0.41950000  0.44700000  1.0 -0.0620292476
F  F7  1  0.57650000  0.68310000  0.45810000  1.0 -0.0332622834
F  F8  1  0.59710000  0.66630000  0.54240000  1.0 -0.021148441
F  F9  1  0.54360000  0.52070000  0.53760000  1.0 -0.0514822881
F  F10  1  0.51560000  0.53230000  0.45380000  1.0 -0.0514822881
F  F11  1  0.69080000  0.71790000  0.45160000  1.0 -0.1085510468
F  F12  1  0.71980000  0.70850000  0.53570000  1.0 -0.1002196018
F  F13  1  0.69160000  0.58040000  0.31740000  1.0 -0.0085210889
F  F14  1  0.70440000  0.59910000  0.40100000  1.0 0.0295447465
F  F15  1  0.46800000  0.64830000  0.31390000  1.0 0.0009150946
F  F16  1  0.47650000  0.65820000  0.39730000  1.0 -0.0015156675
F  F17  1  0.80670000  0.01290000  0.68420000  1.0 -0.021148441
F  F18  1  0.78870000  0.01200000  0.60010000  1.0 -0.0703898011
F  F19  1  0.03470000  0.10300000  0.68460000  1.0 -0.021148441
F  F20  1  0.84390000  0.90550000  0.46810000  1.0 -0.0808650767
F  F21  1  0.01850000  0.09950000  0.59940000  1.0 -0.0085210889
F  F22  1  0.86350000  0.91950000  0.55300000  1.0 -0.0620292476
F  F23  1  0.92350000  0.18310000  0.54190000  1.0 -0.0332622834
F  F24  1  0.90290000  0.16630000  0.45760000  1.0 -0.021148441
F  F25  1  0.95640000  0.02070000  0.46240000  1.0 -0.0514822881
F  F26  1  0.98440000  0.03230000  0.54620000  1.0 -0.0514822881
F  F27  1  0.80920000  0.21790000  0.54840000  1.0 -0.1085510468
F  F28  1  0.78020000  0.20850000  0.46430000  1.0 -0.1002196018
F  F29  1  0.80840000  0.08040000  0.68260000  1.0 -0.0085210889
F  F30  1  0.79560000  0.09910000  0.59900000  1.0 0.0295447465
F  F31  1  0.03200000  0.14830000  0.68610000  1.0 0.0009150946
F  F32  1  0.02350000  0.15820000  0.60270000  1.0 -0.0015156675
F  F33  1  0.30670000  0.48710000  0.68420000  1.0 -0.021148441
F  F34  1  0.28870000  0.48800000  0.60010000  1.0 -0.0703898011
F  F35  1  0.53470000  0.39700000  0.68460000  1.0 -0.021148441
F  F36  1  0.34390000  0.59450000  0.46810000  1.0 -0.0808650767
F  F37  1  0.51850000  0.40050000  0.59940000  1.0 -0.0085210889
F  F38  1  0.36350000  0.58050000  0.55300000  1.0 -0.0620292476
F  F39  1  0.42350000  0.31690000  0.54190000  1.0 -0.0332622834
F  F40  1  0.40290000  0.33370000  0.45760000  1.0 -0.021148441
F  F41  1  0.45640000  0.47930000  0.46240000  1.0 -0.0514822881
F  F42  1  0.48440000  0.46770000  0.54620000  1.0 -0.0514822881
F  F43  1  0.30920000  0.28210000  0.54840000  1.0 -0.1085510468
F  F44  1  0.28020000  0.29150000  0.46430000  1.0 -0.1002196018
F  F45  1  0.30840000  0.41960000  0.68260000  1.0 -0.0085210889
F  F46  1  0.29560000  0.40090000  0.59900000  1.0 0.0295447465
F  F47  1  0.53200000  0.35170000  0.68610000  1.0 0.0009150946
F  F48  1  0.52350000  0.34180000  0.60270000  1.0 -0.0015156675
F  F49  1  0.19330000  0.98710000  0.31580000  1.0 -0.021148441
F  F50  1  0.21130000  0.98800000  0.39990000  1.0 -0.0703898011
F  F51  1  0.96530000  0.89700000  0.31540000  1.0 -0.021148441
F  F52  1  0.15610000  0.09450000  0.53190000  1.0 -0.0808650767
F  F53  1  0.98150000  0.90050000  0.40060000  1.0 -0.0085210889
F  F54  1  0.13650000  0.08050000  0.44700000  1.0 -0.0620292476
F  F55  1  0.07650000  0.81690000  0.45810000  1.0 -0.0332622834
F  F56  1  0.09710000  0.83370000  0.54240000  1.0 -0.021148441
F  F57  1  0.04360000  0.97930000  0.53760000  1.0 -0.0514822881
F  F58  1  0.01560000  0.96770000  0.45380000  1.0 -0.0514822881
F  F59  1  0.19080000  0.78210000  0.45160000  1.0 -0.1085510468
F  F60  1  0.21980000  0.79150000  0.53570000  1.0 -0.1002196018
F  F61  1  0.19160000  0.91960000  0.31740000  1.0 -0.0085210889
F  F62  1  0.20440000  0.90090000  0.40100000  1.0 0.0295447465
F  F63  1  0.96800000  0.85170000  0.31390000  1.0 0.0009150946
F  F64  1  0.97650000  0.84180000  0.39730000  1.0 -0.0015156675
