# DDEC6 charges by PACMAN v1.1 (https://github.com/mtap-research/PACMAN-charge/)
data_NILGOG_FSR_pacman
_symmetry_space_group_name_H-M   'P 1'
_cell_length_a   15.06500000
_cell_length_b   22.02400000
_cell_length_c   24.12000000
_cell_angle_alpha   90.00000000
_cell_angle_beta   90.00000000
_cell_angle_gamma   90.00000000
_symmetry_Int_Tables_number   1
_chemical_formula_structural   VCoH28W12C28(NO5)8
_chemical_formula_sum   'V4 Co4 H112 W48 C112 N32 O160'
_cell_volume   8002.81242720
_cell_formula_units_Z   4
loop_
 _symmetry_equiv_pos_site_id
 _symmetry_equiv_pos_as_xyz
  1  'x, y, z'
loop_
 _atom_site_type_symbol
 _atom_site_label
 _atom_site_symmetry_multiplicity
 _atom_site_fract_x
 _atom_site_fract_y
 _atom_site_fract_z
 _atom_site_occupancy
 _atom_site_charge
V  V1  1  0.73400000  0.50000000  0.25000000  1.0 1.4965571679
V  V2  1  0.76600000  0.00000000  0.75000000  1.0 1.4965571679
V  V3  1  0.26600000  0.50000000  0.75000000  1.0 1.4965571679
V  V4  1  0.23400000  0.00000000  0.25000000  1.0 1.4965571679
Co  Co1  1  0.00000000  0.50000000  0.50000000  1.0 0.8162434764
Co  Co2  1  0.50000000  0.00000000  0.00000000  1.0 0.8162434764
Co  Co3  1  0.50000000  0.00000000  0.50000000  1.0 0.8162434764
Co  Co4  1  0.00000000  0.50000000  0.00000000  1.0 0.8162434764
H  H1  1  0.03950000  0.18130000  0.41080000  1.0 0.1348624947
H  H2  1  0.46050000  0.31870000  0.91080000  1.0 0.1348624947
H  H3  1  0.46050000  0.68130000  0.58920000  1.0 0.1348624947
H  H4  1  0.03950000  0.81870000  0.08920000  1.0 0.1348624947
H  H5  1  0.96050000  0.81870000  0.58920000  1.0 0.1348624947
H  H6  1  0.53950000  0.68130000  0.08920000  1.0 0.1348624947
H  H7  1  0.53950000  0.31870000  0.41080000  1.0 0.1348624947
H  H8  1  0.96050000  0.18130000  0.91080000  1.0 0.1348624947
H  H9  1  0.79410000  0.97820000  0.39940000  1.0 0.1486979342
H  H10  1  0.70590000  0.52180000  0.89940000  1.0 0.1486979342
H  H11  1  0.70590000  0.47820000  0.60060000  1.0 0.1486979342
H  H12  1  0.79410000  0.02180000  0.10060000  1.0 0.1486979342
H  H13  1  0.20590000  0.02180000  0.60060000  1.0 0.1486979342
H  H14  1  0.29410000  0.47820000  0.10060000  1.0 0.1486979342
H  H15  1  0.29410000  0.52180000  0.39940000  1.0 0.1486979342
H  H16  1  0.20590000  0.97820000  0.89940000  1.0 0.1486979342
H  H17  1  0.69850000  0.03680000  0.54250000  1.0 0.1200440399
H  H18  1  0.80150000  0.46320000  0.04250000  1.0 0.1200440399
H  H19  1  0.80150000  0.53680000  0.45750000  1.0 0.1200440399
H  H20  1  0.69850000  0.96320000  0.95750000  1.0 0.1200440399
H  H21  1  0.30150000  0.96320000  0.45750000  1.0 0.1200440399
H  H22  1  0.19850000  0.53680000  0.95750000  1.0 0.1200440399
H  H23  1  0.19850000  0.46320000  0.54250000  1.0 0.1200440399
H  H24  1  0.30150000  0.03680000  0.04250000  1.0 0.1200440399
H  H25  1  0.00760000  0.08660000  0.44990000  1.0 0.1407034625
H  H26  1  0.49240000  0.41340000  0.94990000  1.0 0.1407034625
H  H27  1  0.49240000  0.58660000  0.55010000  1.0 0.1407034625
H  H28  1  0.00760000  0.91340000  0.05010000  1.0 0.1407034625
H  H29  1  0.99240000  0.91340000  0.55010000  1.0 0.1407034625
H  H30  1  0.50760000  0.58660000  0.05010000  1.0 0.1407034625
H  H31  1  0.50760000  0.41340000  0.44990000  1.0 0.1407034625
H  H32  1  0.99240000  0.08660000  0.94990000  1.0 0.1407034625
H  H33  1  0.90750000  0.39720000  0.42880000  1.0 0.1200440399
H  H34  1  0.59250000  0.10280000  0.92880000  1.0 0.1200440399
H  H35  1  0.59250000  0.89720000  0.57120000  1.0 0.1200440399
H  H36  1  0.90750000  0.60280000  0.07120000  1.0 0.1200440399
H  H37  1  0.09250000  0.60280000  0.57120000  1.0 0.1200440399
H  H38  1  0.40750000  0.89720000  0.07120000  1.0 0.1200440399
H  H39  1  0.40750000  0.10280000  0.42880000  1.0 0.1200440399
H  H40  1  0.09250000  0.39720000  0.92880000  1.0 0.1200440399
H  H41  1  0.85960000  0.04790000  0.53480000  1.0 0.1486979342
H  H42  1  0.64040000  0.45210000  0.03480000  1.0 0.1486979342
H  H43  1  0.64040000  0.54790000  0.46520000  1.0 0.1486979342
H  H44  1  0.85960000  0.95210000  0.96520000  1.0 0.1486979342
H  H45  1  0.14040000  0.95210000  0.46520000  1.0 0.1486979342
H  H46  1  0.35960000  0.54790000  0.96520000  1.0 0.1486979342
H  H47  1  0.35960000  0.45210000  0.53480000  1.0 0.1486979342
H  H48  1  0.14040000  0.04790000  0.03480000  1.0 0.1486979342
H  H49  1  0.90870000  0.01520000  0.48600000  1.0 0.1407034625
H  H50  1  0.59130000  0.48480000  0.98600000  1.0 0.1407034625
H  H51  1  0.59130000  0.51520000  0.51400000  1.0 0.1407034625
H  H52  1  0.90870000  0.98480000  0.01400000  1.0 0.1407034625
H  H53  1  0.09130000  0.98480000  0.51400000  1.0 0.1407034625
H  H54  1  0.40870000  0.51520000  0.01400000  1.0 0.1407034625
H  H55  1  0.40870000  0.48480000  0.48600000  1.0 0.1407034625
H  H56  1  0.09130000  0.01520000  0.98600000  1.0 0.1407034625
H  H57  1  0.63720000  0.95880000  0.40150000  1.0 0.1486979342
H  H58  1  0.86280000  0.54120000  0.90150000  1.0 0.1486979342
H  H59  1  0.86280000  0.45880000  0.59850000  1.0 0.1486979342
H  H60  1  0.63720000  0.04120000  0.09850000  1.0 0.1486979342
H  H61  1  0.36280000  0.04120000  0.59850000  1.0 0.1486979342
H  H62  1  0.13720000  0.45880000  0.09850000  1.0 0.1486979342
H  H63  1  0.13720000  0.54120000  0.40150000  1.0 0.1486979342
H  H64  1  0.36280000  0.95880000  0.90150000  1.0 0.1486979342
H  H65  1  0.76030000  0.14150000  0.48050000  1.0 0.1200440399
H  H66  1  0.73970000  0.35850000  0.98050000  1.0 0.1200440399
H  H67  1  0.73970000  0.64150000  0.51950000  1.0 0.1200440399
H  H68  1  0.76030000  0.85850000  0.01950000  1.0 0.1200440399
H  H69  1  0.23970000  0.85850000  0.51950000  1.0 0.1200440399
H  H70  1  0.26030000  0.64150000  0.01950000  1.0 0.1200440399
H  H71  1  0.26030000  0.35850000  0.48050000  1.0 0.1200440399
H  H72  1  0.23970000  0.14150000  0.98050000  1.0 0.1200440399
H  H73  1  0.79250000  0.23460000  0.44140000  1.0 0.1348624947
H  H74  1  0.70750000  0.26540000  0.94140000  1.0 0.1348624947
H  H75  1  0.70750000  0.73460000  0.55860000  1.0 0.1348624947
H  H76  1  0.79250000  0.76540000  0.05860000  1.0 0.1348624947
H  H77  1  0.20750000  0.76540000  0.55860000  1.0 0.1348624947
H  H78  1  0.29250000  0.73460000  0.05860000  1.0 0.1348624947
H  H79  1  0.29250000  0.26540000  0.44140000  1.0 0.1348624947
H  H80  1  0.20750000  0.23460000  0.94140000  1.0 0.1348624947
H  H81  1  0.88880000  0.29720000  0.38330000  1.0 0.1486979342
H  H82  1  0.61120000  0.20280000  0.88330000  1.0 0.1486979342
H  H83  1  0.61120000  0.79720000  0.61670000  1.0 0.1486979342
H  H84  1  0.88880000  0.70280000  0.11670000  1.0 0.1486979342
H  H85  1  0.11120000  0.70280000  0.61670000  1.0 0.1486979342
H  H86  1  0.38880000  0.79720000  0.11670000  1.0 0.1486979342
H  H87  1  0.38880000  0.20280000  0.38330000  1.0 0.1486979342
H  H88  1  0.11120000  0.29720000  0.88330000  1.0 0.1486979342
H  H89  1  0.98430000  0.27450000  0.36790000  1.0 0.1486979342
H  H90  1  0.51570000  0.22550000  0.86790000  1.0 0.1486979342
H  H91  1  0.51570000  0.77450000  0.63210000  1.0 0.1486979342
H  H92  1  0.98430000  0.72550000  0.13210000  1.0 0.1486979342
H  H93  1  0.01570000  0.72550000  0.63210000  1.0 0.1486979342
H  H94  1  0.48430000  0.77450000  0.13210000  1.0 0.1486979342
H  H95  1  0.48430000  0.22550000  0.36790000  1.0 0.1486979342
H  H96  1  0.01570000  0.27450000  0.86790000  1.0 0.1486979342
H  H97  1  0.08710000  0.27690000  0.47940000  1.0 0.1486979342
H  H98  1  0.41290000  0.22310000  0.97940000  1.0 0.1486979342
H  H99  1  0.41290000  0.77690000  0.52060000  1.0 0.1486979342
H  H100  1  0.08710000  0.72310000  0.02060000  1.0 0.1486979342
H  H101  1  0.91290000  0.72310000  0.52060000  1.0 0.1486979342
H  H102  1  0.58710000  0.77690000  0.02060000  1.0 0.1486979342
H  H103  1  0.58710000  0.22310000  0.47940000  1.0 0.1486979342
H  H104  1  0.91290000  0.27690000  0.97940000  1.0 0.1486979342
H  H105  1  0.10610000  0.37060000  0.52980000  1.0 0.1407034625
H  H106  1  0.39390000  0.12940000  0.02980000  1.0 0.1407034625
H  H107  1  0.39390000  0.87060000  0.47020000  1.0 0.1407034625
H  H108  1  0.10610000  0.62940000  0.97020000  1.0 0.1407034625
H  H109  1  0.89390000  0.62940000  0.47020000  1.0 0.1407034625
H  H110  1  0.60610000  0.87060000  0.97020000  1.0 0.1407034625
H  H111  1  0.60610000  0.12940000  0.52980000  1.0 0.1407034625
H  H112  1  0.89390000  0.37060000  0.02980000  1.0 0.1407034625
W  W1  1  0.89880000  0.51995000  0.35111000  1.0 2.3838222839
W  W2  1  0.60120000  0.98005000  0.85111000  1.0 2.3838222839
W  W3  1  0.60120000  0.01995000  0.64889000  1.0 2.3838222839
W  W4  1  0.89880000  0.48005000  0.14889000  1.0 2.3838222839
W  W5  1  0.10120000  0.48005000  0.64889000  1.0 2.3838222839
W  W6  1  0.39880000  0.01995000  0.14889000  1.0 2.3838222839
W  W7  1  0.39880000  0.98005000  0.35111000  1.0 2.3838222839
W  W8  1  0.10120000  0.51995000  0.85111000  1.0 2.3838222839
W  W9  1  0.89840000  0.61188000  0.24136000  1.0 2.4273955442
W  W10  1  0.60160000  0.88812000  0.74136000  1.0 2.4273955442
W  W11  1  0.60160000  0.11188000  0.75864000  1.0 2.4273955442
W  W12  1  0.89840000  0.38812000  0.25864000  1.0 2.4273955442
W  W13  1  0.10160000  0.38812000  0.75864000  1.0 2.4273955442
W  W14  1  0.39840000  0.11188000  0.25864000  1.0 2.4273955442
W  W15  1  0.39840000  0.88812000  0.24136000  1.0 2.4273955442
W  W16  1  0.10160000  0.61188000  0.74136000  1.0 2.4273955442
W  W17  1  0.74145000  0.62609000  0.33905000  1.0 2.4003215648
W  W18  1  0.75855000  0.87391000  0.83905000  1.0 2.4003215648
W  W19  1  0.75855000  0.12609000  0.66095000  1.0 2.4003215648
W  W20  1  0.74145000  0.37391000  0.16095000  1.0 2.4003215648
W  W21  1  0.25855000  0.37391000  0.66095000  1.0 2.4003215648
W  W22  1  0.24145000  0.12609000  0.16095000  1.0 2.4003215648
W  W23  1  0.24145000  0.87391000  0.33905000  1.0 2.4003215648
W  W24  1  0.25855000  0.62609000  0.83905000  1.0 2.4003215648
W  W25  1  0.56770000  0.49140000  0.14839000  1.0 2.363656331
W  W26  1  0.93230000  0.00860000  0.64839000  1.0 2.363656331
W  W27  1  0.93230000  0.99140000  0.85161000  1.0 2.363656331
W  W28  1  0.56770000  0.50860000  0.35161000  1.0 2.363656331
W  W29  1  0.43230000  0.50860000  0.85161000  1.0 2.363656331
W  W30  1  0.06770000  0.99140000  0.35161000  1.0 2.363656331
W  W31  1  0.06770000  0.00860000  0.14839000  1.0 2.363656331
W  W32  1  0.43230000  0.49140000  0.64839000  1.0 2.363656331
W  W33  1  0.72435000  0.59691000  0.13469000  1.0 2.3650467015
W  W34  1  0.77565000  0.90309000  0.63469000  1.0 2.363656331
W  W35  1  0.77565000  0.09691000  0.86531000  1.0 2.3650467015
W  W36  1  0.72435000  0.40309000  0.36531000  1.0 2.3650467015
W  W37  1  0.27565000  0.40309000  0.86531000  1.0 2.363656331
W  W38  1  0.22435000  0.09691000  0.36531000  1.0 2.3650467015
W  W39  1  0.22435000  0.90309000  0.13469000  1.0 2.3650467015
W  W40  1  0.27565000  0.59691000  0.63469000  1.0 2.363656331
W  W41  1  0.56872000  0.61176000  0.23194000  1.0 2.4003215648
W  W42  1  0.93128000  0.88824000  0.73194000  1.0 2.4003215648
W  W43  1  0.93128000  0.11176000  0.76806000  1.0 2.4003215648
W  W44  1  0.56872000  0.38824000  0.26806000  1.0 2.4003215648
W  W45  1  0.43128000  0.38824000  0.76806000  1.0 2.4003215648
W  W46  1  0.06872000  0.11176000  0.26806000  1.0 2.4003215648
W  W47  1  0.06872000  0.88824000  0.23194000  1.0 2.4003215648
W  W48  1  0.43128000  0.61176000  0.73194000  1.0 2.4003215648
C  C1  1  0.98310000  0.17380000  0.42490000  1.0 -0.1298144962
C  C2  1  0.51690000  0.32620000  0.92490000  1.0 -0.1298144962
C  C3  1  0.51690000  0.67380000  0.57510000  1.0 -0.1298144962
C  C4  1  0.98310000  0.82620000  0.07510000  1.0 -0.1298144962
C  C5  1  0.01690000  0.82620000  0.57510000  1.0 -0.1298144962
C  C6  1  0.48310000  0.67380000  0.07510000  1.0 -0.1298144962
C  C7  1  0.48310000  0.32620000  0.42490000  1.0 -0.1298144962
C  C8  1  0.01690000  0.17380000  0.92490000  1.0 -0.1298144962
C  C9  1  0.88180000  0.10410000  0.46890000  1.0 0.1066063336
C  C10  1  0.61820000  0.39590000  0.96890000  1.0 0.1066063336
C  C11  1  0.61820000  0.60410000  0.53110000  1.0 0.1066063336
C  C12  1  0.88180000  0.89590000  0.03110000  1.0 0.1066063336
C  C13  1  0.11820000  0.89590000  0.53110000  1.0 0.1066063336
C  C14  1  0.38180000  0.60410000  0.03110000  1.0 0.1066063336
C  C15  1  0.38180000  0.39590000  0.46890000  1.0 0.1066063336
C  C16  1  0.11820000  0.10410000  0.96890000  1.0 0.1066063336
C  C17  1  0.75540000  0.98830000  0.42800000  1.0 -0.0882973167
C  C18  1  0.74460000  0.51170000  0.92800000  1.0 -0.0882973167
C  C19  1  0.74460000  0.48830000  0.57200000  1.0 -0.0882973167
C  C20  1  0.75540000  0.01170000  0.07200000  1.0 -0.0882973167
C  C21  1  0.24460000  0.01170000  0.57200000  1.0 -0.0882973167
C  C22  1  0.25540000  0.48830000  0.07200000  1.0 -0.0882973167
C  C23  1  0.25540000  0.51170000  0.42800000  1.0 -0.0882973167
C  C24  1  0.24460000  0.98830000  0.92800000  1.0 -0.0882973167
C  C25  1  0.70240000  0.02050000  0.50700000  1.0 0.1200440399
C  C26  1  0.79760000  0.47950000  0.00700000  1.0 0.1200440399
C  C27  1  0.79760000  0.52050000  0.49300000  1.0 0.1200440399
C  C28  1  0.70240000  0.97950000  0.99300000  1.0 0.1200440399
C  C29  1  0.29760000  0.97950000  0.49300000  1.0 0.1200440399
C  C30  1  0.20240000  0.52050000  0.99300000  1.0 0.1200440399
C  C31  1  0.20240000  0.47950000  0.50700000  1.0 0.1200440399
C  C32  1  0.29760000  0.02050000  0.00700000  1.0 0.1200440399
C  C33  1  0.96400000  0.11630000  0.44850000  1.0 -0.1212039607
C  C34  1  0.53600000  0.38370000  0.94850000  1.0 -0.1212039607
C  C35  1  0.53600000  0.61630000  0.55150000  1.0 -0.1212039607
C  C36  1  0.96400000  0.88370000  0.05150000  1.0 -0.1212039607
C  C37  1  0.03600000  0.88370000  0.55150000  1.0 -0.1212039607
C  C38  1  0.46400000  0.61630000  0.05150000  1.0 -0.1212039607
C  C39  1  0.46400000  0.38370000  0.44850000  1.0 -0.1212039607
C  C40  1  0.03600000  0.11630000  0.94850000  1.0 -0.1212039607
C  C41  1  0.95410000  0.37890000  0.44770000  1.0 0.1200440399
C  C42  1  0.54590000  0.12110000  0.94770000  1.0 0.1200440399
C  C43  1  0.54590000  0.87890000  0.55230000  1.0 0.1200440399
C  C44  1  0.95410000  0.62110000  0.05230000  1.0 0.1200440399
C  C45  1  0.04590000  0.62110000  0.55230000  1.0 0.1200440399
C  C46  1  0.45410000  0.87890000  0.05230000  1.0 0.1200440399
C  C47  1  0.45410000  0.12110000  0.44770000  1.0 0.1200440399
C  C48  1  0.04590000  0.37890000  0.94770000  1.0 0.1200440399
C  C49  1  0.86120000  0.04330000  0.49480000  1.0 -0.1518789463
C  C50  1  0.63880000  0.45670000  0.99480000  1.0 -0.1518789463
C  C51  1  0.63880000  0.54330000  0.50520000  1.0 -0.1518789463
C  C52  1  0.86120000  0.95670000  0.00520000  1.0 -0.1518789463
C  C53  1  0.13880000  0.95670000  0.50520000  1.0 -0.1518789463
C  C54  1  0.36120000  0.54330000  0.00520000  1.0 -0.1518789463
C  C55  1  0.36120000  0.45670000  0.49480000  1.0 -0.1518789463
C  C56  1  0.13880000  0.04330000  0.99480000  1.0 -0.1518789463
C  C57  1  0.92100000  0.21740000  0.42270000  1.0 0.1034576903
C  C58  1  0.57900000  0.28260000  0.92270000  1.0 0.1034576903
C  C59  1  0.57900000  0.71740000  0.57730000  1.0 0.1034576903
C  C60  1  0.92100000  0.78260000  0.07730000  1.0 0.1034576903
C  C61  1  0.07900000  0.78260000  0.57730000  1.0 0.1034576903
C  C62  1  0.42100000  0.71740000  0.07730000  1.0 0.1034576903
C  C63  1  0.42100000  0.28260000  0.42270000  1.0 0.1034576903
C  C64  1  0.07900000  0.21740000  0.92270000  1.0 0.1034576903
C  C65  1  0.66960000  0.97720000  0.42960000  1.0 -0.0258916718
C  C66  1  0.83040000  0.52280000  0.92960000  1.0 -0.0258916718
C  C67  1  0.83040000  0.47720000  0.57040000  1.0 -0.0258916718
C  C68  1  0.66960000  0.02280000  0.07040000  1.0 -0.0258916718
C  C69  1  0.33040000  0.02280000  0.57040000  1.0 -0.0258916718
C  C70  1  0.16960000  0.47720000  0.07040000  1.0 -0.0258916718
C  C71  1  0.16960000  0.52280000  0.42960000  1.0 -0.0258916718
C  C72  1  0.33040000  0.97720000  0.92960000  1.0 -0.0258916718
C  C73  1  0.81700000  0.14910000  0.46650000  1.0 -0.1396766686
C  C74  1  0.68300000  0.35090000  0.96650000  1.0 -0.1396766686
C  C75  1  0.68300000  0.64910000  0.53350000  1.0 -0.1396766686
C  C76  1  0.81700000  0.85090000  0.03350000  1.0 -0.1396766686
C  C77  1  0.18300000  0.85090000  0.53350000  1.0 -0.1396766686
C  C78  1  0.31700000  0.64910000  0.03350000  1.0 -0.1396766686
C  C79  1  0.31700000  0.35090000  0.46650000  1.0 -0.1396766686
C  C80  1  0.18300000  0.14910000  0.96650000  1.0 -0.1396766686
C  C81  1  0.83630000  0.20500000  0.44330000  1.0 -0.1298144962
C  C82  1  0.66370000  0.29500000  0.94330000  1.0 -0.1298144962
C  C83  1  0.66370000  0.70500000  0.55670000  1.0 -0.1298144962
C  C84  1  0.83630000  0.79500000  0.05670000  1.0 -0.1298144962
C  C85  1  0.16370000  0.79500000  0.55670000  1.0 -0.1298144962
C  C86  1  0.33630000  0.70500000  0.05670000  1.0 -0.1298144962
C  C87  1  0.33630000  0.29500000  0.44330000  1.0 -0.1298144962
C  C88  1  0.16370000  0.20500000  0.94330000  1.0 -0.1298144962
C  C89  1  0.94300000  0.27940000  0.39820000  1.0 -0.1580912963
C  C90  1  0.55700000  0.22060000  0.89820000  1.0 -0.1580912963
C  C91  1  0.55700000  0.77940000  0.60180000  1.0 -0.1580912963
C  C92  1  0.94300000  0.72060000  0.10180000  1.0 -0.1580912963
C  C93  1  0.05700000  0.72060000  0.60180000  1.0 -0.1580912963
C  C94  1  0.44300000  0.77940000  0.10180000  1.0 -0.1580912963
C  C95  1  0.44300000  0.22060000  0.39820000  1.0 -0.1580912963
C  C96  1  0.05700000  0.27940000  0.89820000  1.0 -0.1580912963
C  C97  1  0.05300000  0.31190000  0.47550000  1.0 -0.1212039607
C  C98  1  0.44700000  0.18810000  0.97550000  1.0 -0.1212039607
C  C99  1  0.44700000  0.81190000  0.52450000  1.0 -0.1212039607
C  C100  1  0.05300000  0.68810000  0.02450000  1.0 -0.1212039607
C  C101  1  0.94700000  0.68810000  0.52450000  1.0 -0.1212039607
C  C102  1  0.55300000  0.81190000  0.02450000  1.0 -0.1212039607
C  C103  1  0.55300000  0.18810000  0.47550000  1.0 -0.1212039607
C  C104  1  0.94700000  0.31190000  0.97550000  1.0 -0.1212039607
C  C105  1  0.06300000  0.36410000  0.50270000  1.0 -0.0190234293
C  C106  1  0.43700000  0.13590000  0.00270000  1.0 -0.0190234293
C  C107  1  0.43700000  0.86410000  0.49730000  1.0 -0.0190234293
C  C108  1  0.06300000  0.63590000  0.99730000  1.0 -0.0190234293
C  C109  1  0.93700000  0.63590000  0.49730000  1.0 -0.0190234293
C  C110  1  0.56300000  0.86410000  0.99730000  1.0 -0.0190234293
C  C111  1  0.56300000  0.13590000  0.50270000  1.0 -0.0190234293
C  C112  1  0.93700000  0.36410000  0.00270000  1.0 -0.0190234293
N  N1  1  0.00350000  0.40670000  0.48630000  1.0 -0.2768401083
N  N2  1  0.49650000  0.09330000  0.98630000  1.0 -0.2768401083
N  N3  1  0.49650000  0.90670000  0.51370000  1.0 -0.2768401083
N  N4  1  0.00350000  0.59330000  0.01370000  1.0 -0.2768401083
N  N5  1  0.99650000  0.59330000  0.51370000  1.0 -0.2768401083
N  N6  1  0.50350000  0.90670000  0.01370000  1.0 -0.2768401083
N  N7  1  0.50350000  0.09330000  0.48630000  1.0 -0.2768401083
N  N8  1  0.99650000  0.40670000  0.98630000  1.0 -0.2768401083
N  N9  1  0.98070000  0.32070000  0.43950000  1.0 0.0658157125
N  N10  1  0.51930000  0.17930000  0.93950000  1.0 0.0658157125
N  N11  1  0.51930000  0.82070000  0.56050000  1.0 0.0658157125
N  N12  1  0.98070000  0.67930000  0.06050000  1.0 0.0658157125
N  N13  1  0.01930000  0.67930000  0.56050000  1.0 0.0658157125
N  N14  1  0.48070000  0.82070000  0.06050000  1.0 0.0658157125
N  N15  1  0.48070000  0.17930000  0.43950000  1.0 0.0658157125
N  N16  1  0.01930000  0.32070000  0.93950000  1.0 0.0658157125
N  N17  1  0.63560000  0.99670000  0.47890000  1.0 -0.2768401083
N  N18  1  0.86440000  0.50330000  0.97890000  1.0 -0.2768401083
N  N19  1  0.86440000  0.49670000  0.52110000  1.0 -0.2768401083
N  N20  1  0.63560000  0.00330000  0.02110000  1.0 -0.2768401083
N  N21  1  0.36440000  0.00330000  0.52110000  1.0 -0.2768401083
N  N22  1  0.13560000  0.49670000  0.02110000  1.0 -0.2768401083
N  N23  1  0.13560000  0.50330000  0.47890000  1.0 -0.2768401083
N  N24  1  0.36440000  0.99670000  0.97890000  1.0 -0.2768401083
N  N25  1  0.77720000  0.01750000  0.47630000  1.0 0.0576647805
N  N26  1  0.72280000  0.48250000  0.97630000  1.0 0.0576647805
N  N27  1  0.72280000  0.51750000  0.52370000  1.0 0.0576647805
N  N28  1  0.77720000  0.98250000  0.02370000  1.0 0.0576647805
N  N29  1  0.22280000  0.98250000  0.52370000  1.0 0.0576647805
N  N30  1  0.27720000  0.51750000  0.02370000  1.0 0.0576647805
N  N31  1  0.27720000  0.48250000  0.47630000  1.0 0.0576647805
N  N32  1  0.22280000  0.01750000  0.97630000  1.0 0.0576647805
O  O1  1  0.63580000  0.64340000  0.17110000  1.0 -0.844092057
O  O2  1  0.86420000  0.85660000  0.67110000  1.0 -0.844092057
O  O3  1  0.86420000  0.14340000  0.82890000  1.0 -0.844092057
O  O4  1  0.63580000  0.35660000  0.32890000  1.0 -0.844092057
O  O5  1  0.36420000  0.35660000  0.82890000  1.0 -0.844092057
O  O6  1  0.13580000  0.14340000  0.32890000  1.0 -0.844092057
O  O7  1  0.13580000  0.85660000  0.17110000  1.0 -0.844092057
O  O8  1  0.36420000  0.64340000  0.67110000  1.0 -0.844092057
O  O9  1  0.97670000  0.66460000  0.22220000  1.0 -0.6351460344
O  O10  1  0.52330000  0.83540000  0.72220000  1.0 -0.6287573956
O  O11  1  0.52330000  0.16460000  0.77780000  1.0 -0.6351460344
O  O12  1  0.97670000  0.33540000  0.27780000  1.0 -0.6351460344
O  O13  1  0.02330000  0.33540000  0.77780000  1.0 -0.6351460344
O  O14  1  0.47670000  0.16460000  0.27780000  1.0 -0.6351460344
O  O15  1  0.47670000  0.83540000  0.22220000  1.0 -0.6351460344
O  O16  1  0.02330000  0.66460000  0.72220000  1.0 -0.6351460344
O  O17  1  0.80750000  0.46830000  0.37540000  1.0 -0.8946979426
O  O18  1  0.69250000  0.03170000  0.87540000  1.0 -0.8946979426
O  O19  1  0.69250000  0.96830000  0.62460000  1.0 -0.8946979426
O  O20  1  0.80750000  0.53170000  0.12460000  1.0 -0.8946979426
O  O21  1  0.19250000  0.53170000  0.62460000  1.0 -0.8946979426
O  O22  1  0.30750000  0.96830000  0.12460000  1.0 -0.8946979426
O  O23  1  0.30750000  0.03170000  0.37540000  1.0 -0.8946979426
O  O24  1  0.19250000  0.46830000  0.87540000  1.0 -0.8946979426
O  O25  1  0.66150000  0.64040000  0.28020000  1.0 -0.907085579
O  O26  1  0.83850000  0.85960000  0.78020000  1.0 -0.907085579
O  O27  1  0.83850000  0.14040000  0.71980000  1.0 -0.907085579
O  O28  1  0.66150000  0.35960000  0.21980000  1.0 -0.907085579
O  O29  1  0.33850000  0.35960000  0.71980000  1.0 -0.907085579
O  O30  1  0.16150000  0.14040000  0.21980000  1.0 -0.907085579
O  O31  1  0.16150000  0.85960000  0.28020000  1.0 -0.907085579
O  O32  1  0.33850000  0.64040000  0.78020000  1.0 -0.907085579
O  O33  1  0.65980000  0.43260000  0.13510000  1.0 -0.8996452712
O  O34  1  0.84020000  0.06740000  0.63510000  1.0 -0.8996452712
O  O35  1  0.84020000  0.93260000  0.86490000  1.0 -0.8996452712
O  O36  1  0.65980000  0.56740000  0.36490000  1.0 -0.8996452712
O  O37  1  0.34020000  0.56740000  0.86490000  1.0 -0.8996452712
O  O38  1  0.15980000  0.93260000  0.36490000  1.0 -0.8996452712
O  O39  1  0.15980000  0.06740000  0.13510000  1.0 -0.8996452712
O  O40  1  0.34020000  0.43260000  0.63510000  1.0 -0.8996452712
O  O41  1  0.83180000  0.66020000  0.29210000  1.0 -0.8821182036
O  O42  1  0.66820000  0.83980000  0.79210000  1.0 -0.8821182036
O  O43  1  0.66820000  0.16020000  0.70790000  1.0 -0.8821182036
O  O44  1  0.83180000  0.33980000  0.20790000  1.0 -0.8821182036
O  O45  1  0.16820000  0.33980000  0.70790000  1.0 -0.8821182036
O  O46  1  0.33180000  0.16020000  0.20790000  1.0 -0.8821182036
O  O47  1  0.33180000  0.83980000  0.29210000  1.0 -0.8821182036
O  O48  1  0.16820000  0.66020000  0.79210000  1.0 -0.8821182036
O  O49  1  0.83370000  0.58740000  0.38040000  1.0 -0.8611115449
O  O50  1  0.66630000  0.91260000  0.88040000  1.0 -0.8611115449
O  O51  1  0.66630000  0.08740000  0.61960000  1.0 -0.8611115449
O  O52  1  0.83370000  0.41260000  0.11960000  1.0 -0.8611115449
O  O53  1  0.16630000  0.41260000  0.61960000  1.0 -0.8611115449
O  O54  1  0.33370000  0.08740000  0.11960000  1.0 -0.8611115449
O  O55  1  0.33370000  0.91260000  0.38040000  1.0 -0.8611115449
O  O56  1  0.16630000  0.58740000  0.88040000  1.0 -0.8611115449
O  O57  1  0.95960000  0.57560000  0.30430000  1.0 -0.8821182036
O  O58  1  0.54040000  0.92440000  0.80430000  1.0 -0.8821182036
O  O59  1  0.54040000  0.07560000  0.69570000  1.0 -0.8821182036
O  O60  1  0.95960000  0.42440000  0.19570000  1.0 -0.8821182036
O  O61  1  0.04040000  0.42440000  0.69570000  1.0 -0.8821182036
O  O62  1  0.45960000  0.07560000  0.19570000  1.0 -0.8821182036
O  O63  1  0.45960000  0.92440000  0.30430000  1.0 -0.8821182036
O  O64  1  0.04040000  0.57560000  0.80430000  1.0 -0.8821182036
O  O65  1  0.79570000  0.54710000  0.28350000  1.0 -0.9464036681
O  O66  1  0.70430000  0.95290000  0.78350000  1.0 -0.9464036681
O  O67  1  0.70430000  0.04710000  0.71650000  1.0 -0.9464036681
O  O68  1  0.79570000  0.45290000  0.21650000  1.0 -0.9464036681
O  O69  1  0.20430000  0.45290000  0.71650000  1.0 -0.9464036681
O  O70  1  0.29570000  0.04710000  0.21650000  1.0 -0.9464036681
O  O71  1  0.29570000  0.95290000  0.28350000  1.0 -0.9464036681
O  O72  1  0.20430000  0.54710000  0.78350000  1.0 -0.9464036681
O  O73  1  0.97050000  0.51390000  0.40570000  1.0 -0.6906170108
O  O74  1  0.52950000  0.98610000  0.90570000  1.0 -0.6906170108
O  O75  1  0.52950000  0.01390000  0.59430000  1.0 -0.6906170108
O  O76  1  0.97050000  0.48610000  0.09430000  1.0 -0.6906170108
O  O77  1  0.02950000  0.48610000  0.59430000  1.0 -0.6906170108
O  O78  1  0.47050000  0.01390000  0.09430000  1.0 -0.6906170108
O  O79  1  0.47050000  0.98610000  0.40570000  1.0 -0.6906170108
O  O80  1  0.02950000  0.51390000  0.90570000  1.0 -0.6906170108
O  O81  1  0.93240000  0.45700000  0.30320000  1.0 -0.8996452712
O  O82  1  0.56760000  0.04300000  0.80320000  1.0 -0.8996452712
O  O83  1  0.56760000  0.95700000  0.69680000  1.0 -0.8996452712
O  O84  1  0.93240000  0.54300000  0.19680000  1.0 -0.8996452712
O  O85  1  0.06760000  0.54300000  0.69680000  1.0 -0.8996452712
O  O86  1  0.43240000  0.95700000  0.19680000  1.0 -0.8996452712
O  O87  1  0.43240000  0.04300000  0.30320000  1.0 -0.8996452712
O  O88  1  0.06760000  0.45700000  0.80320000  1.0 -0.8996452712
O  O89  1  0.63510000  0.54580000  0.10350000  1.0 -0.844092057
O  O90  1  0.86490000  0.95420000  0.60350000  1.0 -0.844092057
O  O91  1  0.86490000  0.04580000  0.89650000  1.0 -0.844092057
O  O92  1  0.63510000  0.45420000  0.39650000  1.0 -0.844092057
O  O93  1  0.36490000  0.45420000  0.89650000  1.0 -0.844092057
O  O94  1  0.13510000  0.04580000  0.39650000  1.0 -0.844092057
O  O95  1  0.13510000  0.95420000  0.10350000  1.0 -0.844092057
O  O96  1  0.36490000  0.54580000  0.60350000  1.0 -0.844092057
O  O97  1  0.53680000  0.44150000  0.21100000  1.0 -0.907085579
O  O98  1  0.96320000  0.05850000  0.71100000  1.0 -0.8996452712
O  O99  1  0.96320000  0.94150000  0.78900000  1.0 -0.8996452712
O  O100  1  0.53680000  0.55850000  0.28900000  1.0 -0.907085579
O  O101  1  0.46320000  0.55850000  0.78900000  1.0 -0.8996452712
O  O102  1  0.03680000  0.94150000  0.28900000  1.0 -0.907085579
O  O103  1  0.03680000  0.05850000  0.21100000  1.0 -0.907085579
O  O104  1  0.46320000  0.44150000  0.71100000  1.0 -0.8996452712
O  O105  1  0.50870000  0.55880000  0.18030000  1.0 -0.8611115449
O  O106  1  0.99130000  0.94120000  0.68030000  1.0 -0.8611115449
O  O107  1  0.99130000  0.05880000  0.81970000  1.0 -0.8611115449
O  O108  1  0.50870000  0.44120000  0.31970000  1.0 -0.8611115449
O  O109  1  0.49130000  0.44120000  0.81970000  1.0 -0.8611115449
O  O110  1  0.00870000  0.05880000  0.31970000  1.0 -0.8611115449
O  O111  1  0.00870000  0.94120000  0.18030000  1.0 -0.8611115449
O  O112  1  0.49130000  0.55880000  0.68030000  1.0 -0.8611115449
O  O113  1  0.80790000  0.62570000  0.18850000  1.0 -0.907085579
O  O114  1  0.69210000  0.87430000  0.68850000  1.0 -0.907085579
O  O115  1  0.69210000  0.12570000  0.81150000  1.0 -0.907085579
O  O116  1  0.80790000  0.37430000  0.31150000  1.0 -0.907085579
O  O117  1  0.19210000  0.37430000  0.81150000  1.0 -0.907085579
O  O118  1  0.30790000  0.12570000  0.31150000  1.0 -0.907085579
O  O119  1  0.30790000  0.87430000  0.18850000  1.0 -0.907085579
O  O120  1  0.19210000  0.62570000  0.68850000  1.0 -0.907085579
O  O121  1  0.49180000  0.47000000  0.10070000  1.0 -0.6499131107
O  O122  1  0.00820000  0.03000000  0.60070000  1.0 -0.6499131107
O  O123  1  0.00820000  0.97000000  0.89930000  1.0 -0.6499131107
O  O124  1  0.49180000  0.53000000  0.39930000  1.0 -0.6499131107
O  O125  1  0.50820000  0.53000000  0.89930000  1.0 -0.6499131107
O  O126  1  0.99180000  0.97000000  0.39930000  1.0 -0.6499131107
O  O127  1  0.99180000  0.03000000  0.10070000  1.0 -0.6499131107
O  O128  1  0.50820000  0.47000000  0.60070000  1.0 -0.6499131107
O  O129  1  0.74610000  0.64320000  0.07940000  1.0 -0.6906170108
O  O130  1  0.75390000  0.85680000  0.57940000  1.0 -0.6906170108
O  O131  1  0.75390000  0.14320000  0.92060000  1.0 -0.6906170108
O  O132  1  0.74610000  0.35680000  0.42060000  1.0 -0.6906170108
O  O133  1  0.25390000  0.35680000  0.92060000  1.0 -0.6906170108
O  O134  1  0.24610000  0.14320000  0.42060000  1.0 -0.6906170108
O  O135  1  0.24610000  0.85680000  0.07940000  1.0 -0.6906170108
O  O136  1  0.25390000  0.64320000  0.57940000  1.0 -0.6906170108
O  O137  1  0.67190000  0.53710000  0.20650000  1.0 -0.9590609082
O  O138  1  0.82810000  0.96290000  0.70650000  1.0 -0.9590609082
O  O139  1  0.82810000  0.03710000  0.79350000  1.0 -0.9590609082
O  O140  1  0.67190000  0.46290000  0.29350000  1.0 -0.9590609082
O  O141  1  0.32810000  0.46290000  0.79350000  1.0 -0.9590609082
O  O142  1  0.17190000  0.03710000  0.29350000  1.0 -0.9590609082
O  O143  1  0.17190000  0.96290000  0.20650000  1.0 -0.9590609082
O  O144  1  0.32810000  0.53710000  0.70650000  1.0 -0.9590609082
O  O145  1  0.72010000  0.68530000  0.38200000  1.0 -0.6287573956
O  O146  1  0.77990000  0.81470000  0.88200000  1.0 -0.6287573956
O  O147  1  0.77990000  0.18530000  0.61800000  1.0 -0.6287573956
O  O148  1  0.72010000  0.31470000  0.11800000  1.0 -0.6287573956
O  O149  1  0.27990000  0.31470000  0.61800000  1.0 -0.6287573956
O  O150  1  0.22010000  0.18530000  0.11800000  1.0 -0.6287573956
O  O151  1  0.22010000  0.81470000  0.38200000  1.0 -0.6287573956
O  O152  1  0.27990000  0.68530000  0.88200000  1.0 -0.6287573956
O  O153  1  0.49150000  0.66740000  0.23830000  1.0 -0.5897689246
O  O154  1  0.00850000  0.83260000  0.73830000  1.0 -0.5897689246
O  O155  1  0.00850000  0.16740000  0.76170000  1.0 -0.5897689246
O  O156  1  0.49150000  0.33260000  0.26170000  1.0 -0.5897689246
O  O157  1  0.50850000  0.33260000  0.76170000  1.0 -0.5897689246
O  O158  1  0.99150000  0.16740000  0.26170000  1.0 -0.5897689246
O  O159  1  0.99150000  0.83260000  0.23830000  1.0 -0.5897689246
O  O160  1  0.50850000  0.66740000  0.73830000  1.0 -0.5897689246
