# DDEC6 charges by PACMAN v1.1 (https://github.com/mtap-research/PACMAN-charge/)
data_NILGIA_FSR_pacman
_symmetry_space_group_name_H-M   'P 1'
_cell_length_a   15.00000000
_cell_length_b   22.00000000
_cell_length_c   24.00000000
_cell_angle_alpha   90.00000000
_cell_angle_beta   90.00000000
_cell_angle_gamma   90.00000000
_symmetry_Int_Tables_number   1
_chemical_formula_structural   VNiH28W12C28(NO5)8
_chemical_formula_sum   'V4 Ni4 H112 W48 C112 N32 O160'
_cell_volume   7920.00000000
_cell_formula_units_Z   4
loop_
 _symmetry_equiv_pos_site_id
 _symmetry_equiv_pos_as_xyz
  1  'x, y, z'
loop_
 _atom_site_type_symbol
 _atom_site_label
 _atom_site_symmetry_multiplicity
 _atom_site_fract_x
 _atom_site_fract_y
 _atom_site_fract_z
 _atom_site_occupancy
 _atom_site_charge
V  V1  1  0.76430000  0.00000000  0.25000000  1.0 1.4811492825
V  V2  1  0.73570000  0.50000000  0.75000000  1.0 1.4811492825
V  V3  1  0.23570000  0.00000000  0.75000000  1.0 1.4811492825
V  V4  1  0.26430000  0.50000000  0.25000000  1.0 1.4811492825
Ni  Ni1  1  0.50000000  0.00000000  0.00000000  1.0 0.7255161667
Ni  Ni2  1  0.00000000  0.50000000  0.50000000  1.0 0.7255161667
Ni  Ni3  1  0.00000000  0.50000000  0.00000000  1.0 0.7255161667
Ni  Ni4  1  0.50000000  0.00000000  0.50000000  1.0 0.7255161667
H  H1  1  0.40900000  0.89860000  0.92820000  1.0 0.1200108251
H  H2  1  0.09100000  0.60140000  0.42820000  1.0 0.1200108251
H  H3  1  0.09100000  0.39860000  0.07180000  1.0 0.1200108251
H  H4  1  0.40900000  0.10140000  0.57180000  1.0 0.1200108251
H  H5  1  0.59100000  0.10140000  0.07180000  1.0 0.1200108251
H  H6  1  0.90900000  0.39860000  0.57180000  1.0 0.1200108251
H  H7  1  0.90900000  0.60140000  0.92820000  1.0 0.1200108251
H  H8  1  0.59100000  0.89860000  0.42820000  1.0 0.1200108251
H  H9  1  0.38920000  0.79900000  0.88500000  1.0 0.1418111356
H  H10  1  0.11080000  0.70100000  0.38500000  1.0 0.1418111356
H  H11  1  0.11080000  0.29900000  0.11500000  1.0 0.1418111356
H  H12  1  0.38920000  0.20100000  0.61500000  1.0 0.1418111356
H  H13  1  0.61080000  0.20100000  0.11500000  1.0 0.1418111356
H  H14  1  0.88920000  0.29900000  0.61500000  1.0 0.1418111356
H  H15  1  0.88920000  0.70100000  0.88500000  1.0 0.1418111356
H  H16  1  0.61080000  0.79900000  0.38500000  1.0 0.1418111356
H  H17  1  0.48520000  0.77640000  0.86960000  1.0 0.1496268444
H  H18  1  0.01480000  0.72360000  0.36960000  1.0 0.1496268444
H  H19  1  0.01480000  0.27640000  0.13040000  1.0 0.1496268444
H  H20  1  0.48520000  0.22360000  0.63040000  1.0 0.1496268444
H  H21  1  0.51480000  0.22360000  0.13040000  1.0 0.1496268444
H  H22  1  0.98520000  0.27640000  0.63040000  1.0 0.1496268444
H  H23  1  0.98520000  0.72360000  0.86960000  1.0 0.1496268444
H  H24  1  0.51480000  0.77640000  0.36960000  1.0 0.1496268444
H  H25  1  0.60430000  0.87160000  0.03280000  1.0 0.1320063132
H  H26  1  0.89570000  0.62840000  0.53280000  1.0 0.1320063132
H  H27  1  0.89570000  0.37160000  0.96720000  1.0 0.1320063132
H  H28  1  0.60430000  0.12840000  0.46720000  1.0 0.1320063132
H  H29  1  0.39570000  0.12840000  0.96720000  1.0 0.1320063132
H  H30  1  0.10430000  0.37160000  0.46720000  1.0 0.1320063132
H  H31  1  0.10430000  0.62840000  0.03280000  1.0 0.1320063132
H  H32  1  0.39570000  0.87160000  0.53280000  1.0 0.1320063132
H  H33  1  0.58650000  0.77790000  0.97880000  1.0 0.1418111356
H  H34  1  0.91350000  0.72210000  0.47880000  1.0 0.1418111356
H  H35  1  0.91350000  0.27790000  0.02120000  1.0 0.1418111356
H  H36  1  0.58650000  0.22210000  0.52120000  1.0 0.1418111356
H  H37  1  0.41350000  0.22210000  0.02120000  1.0 0.1418111356
H  H38  1  0.08650000  0.27790000  0.52120000  1.0 0.1418111356
H  H39  1  0.08650000  0.72210000  0.97880000  1.0 0.1418111356
H  H40  1  0.41350000  0.77790000  0.47880000  1.0 0.1418111356
H  H41  1  0.19450000  0.53640000  0.04180000  1.0 0.1200108251
H  H42  1  0.30550000  0.96360000  0.54180000  1.0 0.1200108251
H  H43  1  0.30550000  0.03640000  0.95820000  1.0 0.1200108251
H  H44  1  0.19450000  0.46360000  0.45820000  1.0 0.1200108251
H  H45  1  0.80550000  0.46360000  0.95820000  1.0 0.1200108251
H  H46  1  0.69450000  0.03640000  0.45820000  1.0 0.1200108251
H  H47  1  0.69450000  0.96360000  0.04180000  1.0 0.1200108251
H  H48  1  0.80550000  0.53640000  0.54180000  1.0 0.1200108251
H  H49  1  0.29060000  0.47960000  0.89700000  1.0 0.1496268444
H  H50  1  0.20940000  0.02040000  0.39700000  1.0 0.1496268444
H  H51  1  0.20940000  0.97960000  0.10300000  1.0 0.1496268444
H  H52  1  0.29060000  0.52040000  0.60300000  1.0 0.1496268444
H  H53  1  0.70940000  0.52040000  0.10300000  1.0 0.1496268444
H  H54  1  0.79060000  0.97960000  0.60300000  1.0 0.1496268444
H  H55  1  0.79060000  0.02040000  0.89700000  1.0 0.1496268444
H  H56  1  0.70940000  0.47960000  0.39700000  1.0 0.1496268444
H  H57  1  0.35690000  0.54790000  0.03440000  1.0 0.1418111356
H  H58  1  0.14310000  0.95210000  0.53440000  1.0 0.1418111356
H  H59  1  0.14310000  0.04790000  0.96560000  1.0 0.1418111356
H  H60  1  0.35690000  0.45210000  0.46560000  1.0 0.1418111356
H  H61  1  0.64310000  0.45210000  0.96560000  1.0 0.1418111356
H  H62  1  0.85690000  0.04790000  0.46560000  1.0 0.1418111356
H  H63  1  0.85690000  0.95210000  0.03440000  1.0 0.1418111356
H  H64  1  0.64310000  0.54790000  0.53440000  1.0 0.1418111356
H  H65  1  0.40810000  0.51520000  0.98600000  1.0 0.1418111356
H  H66  1  0.09190000  0.98480000  0.48600000  1.0 0.1418111356
H  H67  1  0.09190000  0.01520000  0.01400000  1.0 0.1418111356
H  H68  1  0.40810000  0.48480000  0.51400000  1.0 0.1418111356
H  H69  1  0.59190000  0.48480000  0.01400000  1.0 0.1418111356
H  H70  1  0.90810000  0.01520000  0.51400000  1.0 0.1418111356
H  H71  1  0.90810000  0.98480000  0.98600000  1.0 0.1418111356
H  H72  1  0.59190000  0.51520000  0.48600000  1.0 0.1418111356
H  H73  1  0.50640000  0.58640000  0.94860000  1.0 0.1418111356
H  H74  1  0.99360000  0.91360000  0.44860000  1.0 0.1418111356
H  H75  1  0.99360000  0.08640000  0.05140000  1.0 0.1418111356
H  H76  1  0.50640000  0.41360000  0.55140000  1.0 0.1418111356
H  H77  1  0.49360000  0.41360000  0.05140000  1.0 0.1418111356
H  H78  1  0.00640000  0.08640000  0.55140000  1.0 0.1418111356
H  H79  1  0.00640000  0.91360000  0.94860000  1.0 0.1418111356
H  H80  1  0.49360000  0.58640000  0.44860000  1.0 0.1418111356
H  H81  1  0.54050000  0.68140000  0.91140000  1.0 0.1320063132
H  H82  1  0.95950000  0.81860000  0.41140000  1.0 0.1320063132
H  H83  1  0.95950000  0.18140000  0.08860000  1.0 0.1320063132
H  H84  1  0.54050000  0.31860000  0.58860000  1.0 0.1320063132
H  H85  1  0.45950000  0.31860000  0.08860000  1.0 0.1320063132
H  H86  1  0.04050000  0.18140000  0.58860000  1.0 0.1320063132
H  H87  1  0.04050000  0.81860000  0.91140000  1.0 0.1320063132
H  H88  1  0.45950000  0.68140000  0.41140000  1.0 0.1320063132
H  H89  1  0.29370000  0.73650000  0.94240000  1.0 0.1320063132
H  H90  1  0.20630000  0.76350000  0.44240000  1.0 0.1320063132
H  H91  1  0.20630000  0.23650000  0.05760000  1.0 0.1320063132
H  H92  1  0.29370000  0.26350000  0.55760000  1.0 0.1320063132
H  H93  1  0.70630000  0.26350000  0.05760000  1.0 0.1320063132
H  H94  1  0.79370000  0.23650000  0.55760000  1.0 0.1320063132
H  H95  1  0.79370000  0.76350000  0.94240000  1.0 0.1320063132
H  H96  1  0.70630000  0.73650000  0.44240000  1.0 0.1320063132
H  H97  1  0.26070000  0.64290000  0.97900000  1.0 0.1200108251
H  H98  1  0.23930000  0.85710000  0.47900000  1.0 0.1200108251
H  H99  1  0.23930000  0.14290000  0.02100000  1.0 0.1200108251
H  H100  1  0.26070000  0.35710000  0.52100000  1.0 0.1200108251
H  H101  1  0.73930000  0.35710000  0.02100000  1.0 0.1200108251
H  H102  1  0.76070000  0.14290000  0.52100000  1.0 0.1200108251
H  H103  1  0.76070000  0.85710000  0.97900000  1.0 0.1200108251
H  H104  1  0.73930000  0.64290000  0.47900000  1.0 0.1200108251
H  H105  1  0.13400000  0.46110000  0.90100000  1.0 0.1496268444
H  H106  1  0.36600000  0.03890000  0.40100000  1.0 0.1496268444
H  H107  1  0.36600000  0.96110000  0.09900000  1.0 0.1496268444
H  H108  1  0.13400000  0.53890000  0.59900000  1.0 0.1496268444
H  H109  1  0.86600000  0.53890000  0.09900000  1.0 0.1496268444
H  H110  1  0.63400000  0.96110000  0.59900000  1.0 0.1496268444
H  H111  1  0.63400000  0.03890000  0.90100000  1.0 0.1496268444
H  H112  1  0.86600000  0.46110000  0.40100000  1.0 0.1496268444
W  W1  1  0.60022000  0.88891000  0.25829000  1.0 2.4167221749
W  W2  1  0.89978000  0.61109000  0.75829000  1.0 2.4167221749
W  W3  1  0.89978000  0.38891000  0.74171000  1.0 2.4167221749
W  W4  1  0.60022000  0.11109000  0.24171000  1.0 2.4167221749
W  W5  1  0.39978000  0.11109000  0.74171000  1.0 2.4167221749
W  W6  1  0.10022000  0.38891000  0.24171000  1.0 2.4167221749
W  W7  1  0.10022000  0.61109000  0.25829000  1.0 2.4167221749
W  W8  1  0.39978000  0.88891000  0.75829000  1.0 2.4167221749
W  W9  1  0.60077000  0.98028000  0.14752000  1.0 2.3791884893
W  W10  1  0.89923000  0.51972000  0.64752000  1.0 2.3791884893
W  W11  1  0.89923000  0.48028000  0.85248000  1.0 2.3791884893
W  W12  1  0.60077000  0.01972000  0.35248000  1.0 2.3791884893
W  W13  1  0.39923000  0.01972000  0.85248000  1.0 2.3791884893
W  W14  1  0.10077000  0.48028000  0.35248000  1.0 2.3791884893
W  W15  1  0.10077000  0.51972000  0.14752000  1.0 2.3791884893
W  W16  1  0.39923000  0.98028000  0.64752000  1.0 2.3791884893
W  W17  1  0.75727000  0.87410000  0.16044000  1.0 2.3864726091
W  W18  1  0.74273000  0.62590000  0.66044000  1.0 2.3864726091
W  W19  1  0.74273000  0.37410000  0.83956000  1.0 2.3864726091
W  W20  1  0.75727000  0.12590000  0.33956000  1.0 2.3864726091
W  W21  1  0.24273000  0.12590000  0.83956000  1.0 2.3864726091
W  W22  1  0.25727000  0.37410000  0.33956000  1.0 2.3864726091
W  W23  1  0.25727000  0.62590000  0.16044000  1.0 2.3864726091
W  W24  1  0.24273000  0.87410000  0.66044000  1.0 2.3864726091
W  W25  1  0.77473000  0.09738000  0.13452000  1.0 2.3506765032
W  W26  1  0.72527000  0.40262000  0.63452000  1.0 2.3506765032
W  W27  1  0.72527000  0.59738000  0.86548000  1.0 2.3506765032
W  W28  1  0.77473000  0.90262000  0.36548000  1.0 2.3506765032
W  W29  1  0.22527000  0.90262000  0.86548000  1.0 2.3506765032
W  W30  1  0.27473000  0.59738000  0.36548000  1.0 2.3506765032
W  W31  1  0.27473000  0.40262000  0.13452000  1.0 2.3506765032
W  W32  1  0.22527000  0.09738000  0.63452000  1.0 2.3506765032
W  W33  1  0.93075000  0.99182000  0.14754000  1.0 2.364597466
W  W34  1  0.56925000  0.50818000  0.64754000  1.0 2.364597466
W  W35  1  0.56925000  0.49182000  0.85246000  1.0 2.364597466
W  W36  1  0.93075000  0.00818000  0.35246000  1.0 2.364597466
W  W37  1  0.06925000  0.00818000  0.85246000  1.0 2.364597466
W  W38  1  0.43075000  0.49182000  0.35246000  1.0 2.364597466
W  W39  1  0.43075000  0.50818000  0.14754000  1.0 2.364597466
W  W40  1  0.06925000  0.99182000  0.64754000  1.0 2.364597466
W  W41  1  0.93056000  0.11132000  0.23197000  1.0 2.3791884893
W  W42  1  0.56944000  0.38868000  0.73197000  1.0 2.3791884893
W  W43  1  0.56944000  0.61132000  0.76803000  1.0 2.3791884893
W  W44  1  0.93056000  0.88868000  0.26803000  1.0 2.3791884893
W  W45  1  0.06944000  0.88868000  0.76803000  1.0 2.3791884893
W  W46  1  0.43056000  0.61132000  0.26803000  1.0 2.3791884893
W  W47  1  0.43056000  0.38868000  0.23197000  1.0 2.3791884893
W  W48  1  0.06944000  0.11132000  0.73197000  1.0 2.3791884893
C  C1  1  0.45490000  0.87970000  0.94780000  1.0 0.1096958752
C  C2  1  0.04510000  0.62030000  0.44780000  1.0 0.1096958752
C  C3  1  0.04510000  0.37970000  0.05220000  1.0 0.1096958752
C  C4  1  0.45490000  0.12030000  0.55220000  1.0 0.1096958752
C  C5  1  0.54510000  0.12030000  0.05220000  1.0 0.1096958752
C  C6  1  0.95490000  0.37970000  0.55220000  1.0 0.1096958752
C  C7  1  0.95490000  0.62030000  0.94780000  1.0 0.1096958752
C  C8  1  0.54510000  0.87970000  0.44780000  1.0 0.1096958752
C  C9  1  0.44320000  0.78100000  0.90000000  1.0 -0.1487669896
C  C10  1  0.05680000  0.71900000  0.40000000  1.0 -0.1487669896
C  C11  1  0.05680000  0.28100000  0.10000000  1.0 -0.1487669896
C  C12  1  0.44320000  0.21900000  0.60000000  1.0 -0.1487669896
C  C13  1  0.55680000  0.21900000  0.10000000  1.0 -0.1487669896
C  C14  1  0.94320000  0.28100000  0.60000000  1.0 -0.1487669896
C  C15  1  0.94320000  0.71900000  0.90000000  1.0 -0.1487669896
C  C16  1  0.55680000  0.78100000  0.40000000  1.0 -0.1487669896
C  C17  1  0.56270000  0.86540000  0.00460000  1.0 -0.0216031855
C  C18  1  0.93730000  0.63460000  0.50460000  1.0 -0.0216031855
C  C19  1  0.93730000  0.36540000  0.99540000  1.0 -0.0216031855
C  C20  1  0.56270000  0.13460000  0.49540000  1.0 -0.0216031855
C  C21  1  0.43730000  0.13460000  0.99540000  1.0 -0.0216031855
C  C22  1  0.06270000  0.36540000  0.49540000  1.0 -0.0216031855
C  C23  1  0.06270000  0.63460000  0.00460000  1.0 -0.0216031855
C  C24  1  0.43730000  0.86540000  0.50460000  1.0 -0.0216031855
C  C25  1  0.55180000  0.81280000  0.97550000  1.0 -0.1148163228
C  C26  1  0.94820000  0.68720000  0.47550000  1.0 -0.1148163228
C  C27  1  0.94820000  0.31280000  0.02450000  1.0 -0.1148163228
C  C28  1  0.55180000  0.18720000  0.52450000  1.0 -0.1148163228
C  C29  1  0.44820000  0.18720000  0.02450000  1.0 -0.1148163228
C  C30  1  0.05180000  0.31280000  0.52450000  1.0 -0.1148163228
C  C31  1  0.05180000  0.68720000  0.97550000  1.0 -0.1148163228
C  C32  1  0.44820000  0.81280000  0.47550000  1.0 -0.1148163228
C  C33  1  0.37940000  0.60450000  0.96760000  1.0 0.1096958752
C  C34  1  0.12060000  0.89550000  0.46760000  1.0 0.1096958752
C  C35  1  0.12060000  0.10450000  0.03240000  1.0 0.1096958752
C  C36  1  0.37940000  0.39550000  0.53240000  1.0 0.1096958752
C  C37  1  0.62060000  0.39550000  0.03240000  1.0 0.1096958752
C  C38  1  0.87940000  0.10450000  0.53240000  1.0 0.1096958752
C  C39  1  0.87940000  0.89550000  0.96760000  1.0 0.1096958752
C  C40  1  0.62060000  0.60450000  0.46760000  1.0 0.1096958752
C  C41  1  0.19890000  0.52030000  0.00610000  1.0 0.1200108251
C  C42  1  0.30110000  0.97970000  0.50610000  1.0 0.1200108251
C  C43  1  0.30110000  0.02030000  0.99390000  1.0 0.1200108251
C  C44  1  0.19890000  0.47970000  0.49390000  1.0 0.1200108251
C  C45  1  0.80110000  0.47970000  0.99390000  1.0 0.1200108251
C  C46  1  0.69890000  0.02030000  0.49390000  1.0 0.1200108251
C  C47  1  0.69890000  0.97970000  0.00610000  1.0 0.1200108251
C  C48  1  0.80110000  0.52030000  0.50610000  1.0 0.1200108251
C  C49  1  0.25280000  0.48940000  0.92630000  1.0 -0.0802945893
C  C50  1  0.24720000  0.01060000  0.42630000  1.0 -0.0802945893
C  C51  1  0.24720000  0.98940000  0.07370000  1.0 -0.0802945893
C  C52  1  0.25280000  0.51060000  0.57370000  1.0 -0.0802945893
C  C53  1  0.74720000  0.51060000  0.07370000  1.0 -0.0802945893
C  C54  1  0.75280000  0.98940000  0.57370000  1.0 -0.0802945893
C  C55  1  0.75280000  0.01060000  0.92630000  1.0 -0.0802945893
C  C56  1  0.74720000  0.48940000  0.42630000  1.0 -0.0802945893
C  C57  1  0.35980000  0.54310000  0.99430000  1.0 -0.1487669896
C  C58  1  0.14020000  0.95690000  0.49430000  1.0 -0.1487669896
C  C59  1  0.14020000  0.04310000  0.00570000  1.0 -0.1487669896
C  C60  1  0.35980000  0.45690000  0.50570000  1.0 -0.1487669896
C  C61  1  0.64020000  0.45690000  0.00570000  1.0 -0.1487669896
C  C62  1  0.85980000  0.04310000  0.50570000  1.0 -0.1487669896
C  C63  1  0.85980000  0.95690000  0.99430000  1.0 -0.1487669896
C  C64  1  0.64020000  0.54310000  0.49430000  1.0 -0.1487669896
C  C65  1  0.46290000  0.61650000  0.94750000  1.0 -0.1171264758
C  C66  1  0.03710000  0.88350000  0.44750000  1.0 -0.1171264758
C  C67  1  0.03710000  0.11650000  0.05250000  1.0 -0.1171264758
C  C68  1  0.46290000  0.38350000  0.55250000  1.0 -0.1171264758
C  C69  1  0.53710000  0.38350000  0.05250000  1.0 -0.1171264758
C  C70  1  0.96290000  0.11650000  0.55250000  1.0 -0.1171264758
C  C71  1  0.96290000  0.88350000  0.94750000  1.0 -0.1171264758
C  C72  1  0.53710000  0.61650000  0.44750000  1.0 -0.1171264758
C  C73  1  0.42130000  0.71870000  0.92370000  1.0 0.093485661
C  C74  1  0.07870000  0.78130000  0.42370000  1.0 0.093485661
C  C75  1  0.07870000  0.21870000  0.07630000  1.0 0.093485661
C  C76  1  0.42130000  0.28130000  0.57630000  1.0 0.093485661
C  C77  1  0.57870000  0.28130000  0.07630000  1.0 0.093485661
C  C78  1  0.92130000  0.21870000  0.57630000  1.0 0.093485661
C  C79  1  0.92130000  0.78130000  0.92370000  1.0 0.093485661
C  C80  1  0.57870000  0.71870000  0.42370000  1.0 0.093485661
C  C81  1  0.48360000  0.67400000  0.92520000  1.0 -0.1286023453
C  C82  1  0.01640000  0.82600000  0.42520000  1.0 -0.1286023453
C  C83  1  0.01640000  0.17400000  0.07480000  1.0 -0.1286023453
C  C84  1  0.48360000  0.32600000  0.57480000  1.0 -0.1286023453
C  C85  1  0.51640000  0.32600000  0.07480000  1.0 -0.1286023453
C  C86  1  0.98360000  0.17400000  0.57480000  1.0 -0.1286023453
C  C87  1  0.98360000  0.82600000  0.92520000  1.0 -0.1286023453
C  C88  1  0.51640000  0.67400000  0.42520000  1.0 -0.1286023453
C  C89  1  0.33750000  0.70660000  0.94360000  1.0 -0.1286023453
C  C90  1  0.16250000  0.79340000  0.44360000  1.0 -0.1286023453
C  C91  1  0.16250000  0.20660000  0.05640000  1.0 -0.1286023453
C  C92  1  0.33750000  0.29340000  0.55640000  1.0 -0.1286023453
C  C93  1  0.66250000  0.29340000  0.05640000  1.0 -0.1286023453
C  C94  1  0.83750000  0.20660000  0.55640000  1.0 -0.1286023453
C  C95  1  0.83750000  0.79340000  0.94360000  1.0 -0.1286023453
C  C96  1  0.66250000  0.70660000  0.44360000  1.0 -0.1286023453
C  C97  1  0.31770000  0.65010000  0.96540000  1.0 -0.1440728342
C  C98  1  0.18230000  0.84990000  0.46540000  1.0 -0.1440728342
C  C99  1  0.18230000  0.15010000  0.03460000  1.0 -0.1440728342
C  C100  1  0.31770000  0.34990000  0.53460000  1.0 -0.1440728342
C  C101  1  0.68230000  0.34990000  0.03460000  1.0 -0.1440728342
C  C102  1  0.81770000  0.15010000  0.53460000  1.0 -0.1440728342
C  C103  1  0.81770000  0.84990000  0.96540000  1.0 -0.1440728342
C  C104  1  0.68230000  0.65010000  0.46540000  1.0 -0.1440728342
C  C105  1  0.16740000  0.47890000  0.92920000  1.0 -0.0216031855
C  C106  1  0.33260000  0.02110000  0.42920000  1.0 -0.0216031855
C  C107  1  0.33260000  0.97890000  0.07080000  1.0 -0.0216031855
C  C108  1  0.16740000  0.52110000  0.57080000  1.0 -0.0216031855
C  C109  1  0.83260000  0.52110000  0.07080000  1.0 -0.0216031855
C  C110  1  0.66740000  0.97890000  0.57080000  1.0 -0.0216031855
C  C111  1  0.66740000  0.02110000  0.92920000  1.0 -0.0216031855
C  C112  1  0.83260000  0.47890000  0.42920000  1.0 -0.0216031855
N  N1  1  0.50330000  0.90730000  0.98620000  1.0 -0.2446664402
N  N2  1  0.99670000  0.59270000  0.48620000  1.0 -0.2446664402
N  N3  1  0.99670000  0.40730000  0.01380000  1.0 -0.2446664402
N  N4  1  0.50330000  0.09270000  0.51380000  1.0 -0.2446664402
N  N5  1  0.49670000  0.09270000  0.01380000  1.0 -0.2446664402
N  N6  1  0.00330000  0.40730000  0.51380000  1.0 -0.2446664402
N  N7  1  0.00330000  0.59270000  0.98620000  1.0 -0.2446664402
N  N8  1  0.49670000  0.90730000  0.48620000  1.0 -0.2446664402
N  N9  1  0.47950000  0.82040000  0.93980000  1.0 0.0627869034
N  N10  1  0.02050000  0.67960000  0.43980000  1.0 0.0627869034
N  N11  1  0.02050000  0.32040000  0.06020000  1.0 0.0627869034
N  N12  1  0.47950000  0.17960000  0.56020000  1.0 0.0627869034
N  N13  1  0.52050000  0.17960000  0.06020000  1.0 0.0627869034
N  N14  1  0.97950000  0.32040000  0.56020000  1.0 0.0627869034
N  N15  1  0.97950000  0.67960000  0.93980000  1.0 0.0627869034
N  N16  1  0.52050000  0.82040000  0.43980000  1.0 0.0627869034
N  N17  1  0.27540000  0.51710000  0.97420000  1.0 0.0670185575
N  N18  1  0.22460000  0.98290000  0.47420000  1.0 0.0670185575
N  N19  1  0.22460000  0.01710000  0.02580000  1.0 0.0670185575
N  N20  1  0.27540000  0.48290000  0.52580000  1.0 0.0670185575
N  N21  1  0.72460000  0.48290000  0.02580000  1.0 0.0670185575
N  N22  1  0.77540000  0.01710000  0.52580000  1.0 0.0670185575
N  N23  1  0.77540000  0.98290000  0.97420000  1.0 0.0670185575
N  N24  1  0.72460000  0.51710000  0.47420000  1.0 0.0670185575
N  N25  1  0.13430000  0.49680000  0.97740000  1.0 -0.2234339824
N  N26  1  0.36570000  0.00320000  0.47740000  1.0 -0.2234339824
N  N27  1  0.36570000  0.99680000  0.02260000  1.0 -0.2234339824
N  N28  1  0.13430000  0.50320000  0.52260000  1.0 -0.2234339824
N  N29  1  0.86570000  0.50320000  0.02260000  1.0 -0.2234339824
N  N30  1  0.63430000  0.99680000  0.52260000  1.0 -0.2234339824
N  N31  1  0.63430000  0.00320000  0.97740000  1.0 -0.2234339824
N  N32  1  0.86570000  0.49680000  0.47740000  1.0 -0.2234339824
O  O1  1  0.00630000  0.97030000  0.09890000  1.0 -0.6551879382
O  O2  1  0.49370000  0.52970000  0.59890000  1.0 -0.6551879382
O  O3  1  0.49370000  0.47030000  0.90110000  1.0 -0.6551879382
O  O4  1  0.00630000  0.02970000  0.40110000  1.0 -0.6551879382
O  O5  1  0.99370000  0.02970000  0.90110000  1.0 -0.6545473671
O  O6  1  0.50630000  0.47030000  0.40110000  1.0 -0.6551879382
O  O7  1  0.50630000  0.52970000  0.09890000  1.0 -0.6551879382
O  O8  1  0.99370000  0.97030000  0.59890000  1.0 -0.6545473671
O  O9  1  0.77800000  0.81520000  0.11770000  1.0 -0.6063353455
O  O10  1  0.72200000  0.68480000  0.61770000  1.0 -0.6063353455
O  O11  1  0.72200000  0.31520000  0.88230000  1.0 -0.6063353455
O  O12  1  0.77800000  0.18480000  0.38230000  1.0 -0.6063353455
O  O13  1  0.22200000  0.18480000  0.88230000  1.0 -0.6063353455
O  O14  1  0.27800000  0.31520000  0.38230000  1.0 -0.6063353455
O  O15  1  0.27800000  0.68480000  0.11770000  1.0 -0.6063353455
O  O16  1  0.22200000  0.81520000  0.61770000  1.0 -0.6063353455
O  O17  1  0.00570000  0.16750000  0.23940000  1.0 -0.5705285257
O  O18  1  0.49430000  0.33250000  0.73940000  1.0 -0.5705285257
O  O19  1  0.49430000  0.66750000  0.76060000  1.0 -0.5705285257
O  O20  1  0.00570000  0.83250000  0.26060000  1.0 -0.5705285257
O  O21  1  0.99430000  0.83250000  0.76060000  1.0 -0.5705285257
O  O22  1  0.50570000  0.66750000  0.26060000  1.0 -0.5705285257
O  O23  1  0.50570000  0.33250000  0.23940000  1.0 -0.5705285257
O  O24  1  0.99430000  0.16750000  0.73940000  1.0 -0.5705285257
O  O25  1  0.75340000  0.14370000  0.07930000  1.0 -0.6815962231
O  O26  1  0.74660000  0.35630000  0.57930000  1.0 -0.6815962231
O  O27  1  0.74660000  0.64370000  0.92070000  1.0 -0.6815962231
O  O28  1  0.75340000  0.85630000  0.42070000  1.0 -0.6815962231
O  O29  1  0.24660000  0.85630000  0.92070000  1.0 -0.6815962231
O  O30  1  0.25340000  0.64370000  0.42070000  1.0 -0.6815962231
O  O31  1  0.25340000  0.35630000  0.07930000  1.0 -0.6815962231
O  O32  1  0.24660000  0.14370000  0.57930000  1.0 -0.6815962231
O  O33  1  0.96120000  0.94260000  0.21060000  1.0 -0.908290797
O  O34  1  0.53880000  0.55740000  0.71060000  1.0 -0.908290797
O  O35  1  0.53880000  0.44260000  0.78940000  1.0 -0.908290797
O  O36  1  0.96120000  0.05740000  0.28940000  1.0 -0.908290797
O  O37  1  0.03880000  0.05740000  0.78940000  1.0 -0.908290797
O  O38  1  0.46120000  0.44260000  0.28940000  1.0 -0.908290797
O  O39  1  0.46120000  0.55740000  0.21060000  1.0 -0.908290797
O  O40  1  0.03880000  0.94260000  0.71060000  1.0 -0.908290797
O  O41  1  0.99120000  0.05900000  0.18020000  1.0 -0.8595239407
O  O42  1  0.50880000  0.44100000  0.68020000  1.0 -0.8595239407
O  O43  1  0.50880000  0.55900000  0.81980000  1.0 -0.8595239407
O  O44  1  0.99120000  0.94100000  0.31980000  1.0 -0.8595239407
O  O45  1  0.00880000  0.94100000  0.81980000  1.0 -0.8595239407
O  O46  1  0.49120000  0.55900000  0.31980000  1.0 -0.8595239407
O  O47  1  0.49120000  0.44100000  0.18020000  1.0 -0.8595239407
O  O48  1  0.00880000  0.05900000  0.68020000  1.0 -0.8595239407
O  O49  1  0.70200000  0.95310000  0.21600000  1.0 -0.9481658151
O  O50  1  0.79800000  0.54690000  0.71600000  1.0 -0.9481658151
O  O51  1  0.79800000  0.45310000  0.78400000  1.0 -0.9481658151
O  O52  1  0.70200000  0.04690000  0.28400000  1.0 -0.9481658151
O  O53  1  0.29800000  0.04690000  0.78400000  1.0 -0.9481658151
O  O54  1  0.20200000  0.45310000  0.28400000  1.0 -0.9481658151
O  O55  1  0.20200000  0.54690000  0.21600000  1.0 -0.9481658151
O  O56  1  0.29800000  0.95310000  0.71600000  1.0 -0.9481658151
O  O57  1  0.82670000  0.03700000  0.20700000  1.0 -0.9481658151
O  O58  1  0.67330000  0.46300000  0.70700000  1.0 -0.9481658151
O  O59  1  0.67330000  0.53700000  0.79300000  1.0 -0.9481658151
O  O60  1  0.82670000  0.96300000  0.29300000  1.0 -0.9481658151
O  O61  1  0.17330000  0.96300000  0.79300000  1.0 -0.9481658151
O  O62  1  0.32670000  0.53700000  0.29300000  1.0 -0.9481658151
O  O63  1  0.32670000  0.46300000  0.20700000  1.0 -0.9481658151
O  O64  1  0.17330000  0.03700000  0.70700000  1.0 -0.9481658151
O  O65  1  0.53040000  0.98710000  0.09160000  1.0 -0.7092968261
O  O66  1  0.96960000  0.51290000  0.59160000  1.0 -0.7092968261
O  O67  1  0.96960000  0.48710000  0.90840000  1.0 -0.7092968261
O  O68  1  0.53040000  0.01290000  0.40840000  1.0 -0.7092968261
O  O69  1  0.46960000  0.01290000  0.90840000  1.0 -0.7092968261
O  O70  1  0.03040000  0.48710000  0.40840000  1.0 -0.7092968261
O  O71  1  0.03040000  0.51290000  0.09160000  1.0 -0.7092968261
O  O72  1  0.46960000  0.98710000  0.59160000  1.0 -0.7092968261
O  O73  1  0.56690000  0.95700000  0.30280000  1.0 -0.8975975188
O  O74  1  0.93310000  0.54300000  0.80280000  1.0 -0.8975975188
O  O75  1  0.93310000  0.45700000  0.69720000  1.0 -0.8975975188
O  O76  1  0.56690000  0.04300000  0.19720000  1.0 -0.8975975188
O  O77  1  0.43310000  0.04300000  0.69720000  1.0 -0.8975975188
O  O78  1  0.06690000  0.45700000  0.19720000  1.0 -0.8975975188
O  O79  1  0.06690000  0.54300000  0.30280000  1.0 -0.8975975188
O  O80  1  0.43310000  0.95700000  0.80280000  1.0 -0.8975975188
O  O81  1  0.52270000  0.83610000  0.27740000  1.0 -0.6212029195
O  O82  1  0.97730000  0.66390000  0.77740000  1.0 -0.6212029195
O  O83  1  0.97730000  0.33610000  0.72260000  1.0 -0.6212029195
O  O84  1  0.52270000  0.16390000  0.22260000  1.0 -0.6212029195
O  O85  1  0.47730000  0.16390000  0.72260000  1.0 -0.6212029195
O  O86  1  0.02270000  0.33610000  0.22260000  1.0 -0.6212029195
O  O87  1  0.02270000  0.66390000  0.27740000  1.0 -0.6212029195
O  O88  1  0.47730000  0.83610000  0.77740000  1.0 -0.6212029195
O  O89  1  0.86350000  0.04760000  0.10240000  1.0 -0.8408234453
O  O90  1  0.63650000  0.45240000  0.60240000  1.0 -0.8408234453
O  O91  1  0.63650000  0.54760000  0.89760000  1.0 -0.8408234453
O  O92  1  0.86350000  0.95240000  0.39760000  1.0 -0.8408234453
O  O93  1  0.13650000  0.95240000  0.89760000  1.0 -0.8408234453
O  O94  1  0.36350000  0.54760000  0.39760000  1.0 -0.8408234453
O  O95  1  0.36350000  0.45240000  0.10240000  1.0 -0.8408234453
O  O96  1  0.13650000  0.04760000  0.60240000  1.0 -0.8408234453
O  O97  1  0.54040000  0.92450000  0.19530000  1.0 -0.8903909247
O  O98  1  0.95960000  0.57550000  0.69530000  1.0 -0.8903909247
O  O99  1  0.95960000  0.42450000  0.80470000  1.0 -0.8903909247
O  O100  1  0.54040000  0.07550000  0.30470000  1.0 -0.8903909247
O  O101  1  0.45960000  0.07550000  0.80470000  1.0 -0.8903909247
O  O102  1  0.04040000  0.42450000  0.30470000  1.0 -0.8903909247
O  O103  1  0.04040000  0.57550000  0.19530000  1.0 -0.8903909247
O  O104  1  0.45960000  0.92450000  0.69530000  1.0 -0.8903909247
O  O105  1  0.66790000  0.83900000  0.20670000  1.0 -0.8844015112
O  O106  1  0.83210000  0.66100000  0.70670000  1.0 -0.8844015112
O  O107  1  0.83210000  0.33900000  0.79330000  1.0 -0.8844015112
O  O108  1  0.66790000  0.16100000  0.29330000  1.0 -0.8844015112
O  O109  1  0.33210000  0.16100000  0.79330000  1.0 -0.8844015112
O  O110  1  0.16790000  0.33900000  0.29330000  1.0 -0.8844015112
O  O111  1  0.16790000  0.66100000  0.20670000  1.0 -0.8844015112
O  O112  1  0.33210000  0.83900000  0.70670000  1.0 -0.8844015112
O  O113  1  0.66690000  0.91360000  0.11860000  1.0 -0.8595239407
O  O114  1  0.83310000  0.58640000  0.61860000  1.0 -0.8595239407
O  O115  1  0.83310000  0.41360000  0.88140000  1.0 -0.8595239407
O  O116  1  0.66690000  0.08640000  0.38140000  1.0 -0.8595239407
O  O117  1  0.33310000  0.08640000  0.88140000  1.0 -0.8595239407
O  O118  1  0.16690000  0.41360000  0.38140000  1.0 -0.8595239407
O  O119  1  0.16690000  0.58640000  0.11860000  1.0 -0.8595239407
O  O120  1  0.33310000  0.91360000  0.61860000  1.0 -0.8595239407
O  O121  1  0.69100000  0.87360000  0.31170000  1.0 -0.908290797
O  O122  1  0.80900000  0.62640000  0.81170000  1.0 -0.908290797
O  O123  1  0.80900000  0.37360000  0.68830000  1.0 -0.908290797
O  O124  1  0.69100000  0.12640000  0.18830000  1.0 -0.908290797
O  O125  1  0.30900000  0.12640000  0.68830000  1.0 -0.908290797
O  O126  1  0.19100000  0.37360000  0.18830000  1.0 -0.908290797
O  O127  1  0.19100000  0.62640000  0.31170000  1.0 -0.908290797
O  O128  1  0.30900000  0.87360000  0.81170000  1.0 -0.908290797
O  O129  1  0.69280000  0.03250000  0.12350000  1.0 -0.8903909247
O  O130  1  0.80720000  0.46750000  0.62350000  1.0 -0.8903909247
O  O131  1  0.80720000  0.53250000  0.87650000  1.0 -0.8903909247
O  O132  1  0.69280000  0.96750000  0.37650000  1.0 -0.8975975188
O  O133  1  0.30720000  0.96750000  0.87650000  1.0 -0.8903909247
O  O134  1  0.19280000  0.53250000  0.37650000  1.0 -0.8975975188
O  O135  1  0.19280000  0.46750000  0.12350000  1.0 -0.8975975188
O  O136  1  0.30720000  0.03250000  0.62350000  1.0 -0.8903909247
O  O137  1  0.83930000  0.93240000  0.13420000  1.0 -0.8975975188
O  O138  1  0.66070000  0.56760000  0.63420000  1.0 -0.8975975188
O  O139  1  0.66070000  0.43240000  0.86580000  1.0 -0.8975975188
O  O140  1  0.83930000  0.06760000  0.36580000  1.0 -0.8975975188
O  O141  1  0.16070000  0.06760000  0.86580000  1.0 -0.8975975188
O  O142  1  0.33930000  0.43240000  0.36580000  1.0 -0.8975975188
O  O143  1  0.33930000  0.56760000  0.13420000  1.0 -0.8975975188
O  O144  1  0.16070000  0.93240000  0.63420000  1.0 -0.8975975188
O  O145  1  0.86440000  0.14360000  0.17030000  1.0 -0.84636024
O  O146  1  0.63560000  0.35640000  0.67030000  1.0 -0.84636024
O  O147  1  0.63560000  0.64360000  0.82970000  1.0 -0.84636024
O  O148  1  0.86440000  0.85640000  0.32970000  1.0 -0.84636024
O  O149  1  0.13560000  0.85640000  0.82970000  1.0 -0.84636024
O  O150  1  0.36440000  0.64360000  0.32970000  1.0 -0.84636024
O  O151  1  0.36440000  0.35640000  0.17030000  1.0 -0.84636024
O  O152  1  0.13560000  0.14360000  0.67030000  1.0 -0.84636024
O  O153  1  0.83940000  0.85880000  0.21960000  1.0 -0.908290797
O  O154  1  0.66060000  0.64120000  0.71960000  1.0 -0.908290797
O  O155  1  0.66060000  0.35880000  0.78040000  1.0 -0.908290797
O  O156  1  0.83940000  0.14120000  0.28040000  1.0 -0.908290797
O  O157  1  0.16060000  0.14120000  0.78040000  1.0 -0.908290797
O  O158  1  0.33940000  0.35880000  0.28040000  1.0 -0.908290797
O  O159  1  0.33940000  0.64120000  0.21960000  1.0 -0.908290797
O  O160  1  0.16060000  0.85880000  0.71960000  1.0 -0.908290797
