# DDEC6 charges by PACMAN v1.1 (https://github.com/mtap-research/PACMAN-charge/)
data_NILSUA_ASR_pacman
_symmetry_space_group_name_H-M   'P 1'
_cell_length_a   18.90100000
_cell_length_b   34.03000000
_cell_length_c   35.62300000
_cell_angle_alpha   90.00000000
_cell_angle_beta   90.00000000
_cell_angle_gamma   90.00000000
_symmetry_Int_Tables_number   1
_chemical_formula_structural   Zr3H46C55O18
_chemical_formula_sum   'Zr24 H368 C440 O144'
_cell_volume   22912.75029169
_cell_formula_units_Z   8
loop_
 _symmetry_equiv_pos_site_id
 _symmetry_equiv_pos_as_xyz
  1  'x, y, z'
loop_
 _atom_site_type_symbol
 _atom_site_label
 _atom_site_symmetry_multiplicity
 _atom_site_fract_x
 _atom_site_fract_y
 _atom_site_fract_z
 _atom_site_occupancy
 _atom_site_charge
Zr  Zr1  1  0.53490000  0.25000000  0.19973000  1.0 2.4713820892
Zr  Zr2  1  0.03490000  0.75000000  0.30027000  1.0 2.4713820892
Zr  Zr3  1  0.46510000  0.75000000  0.80027000  1.0 2.4713820892
Zr  Zr4  1  0.96510000  0.25000000  0.69973000  1.0 2.4713820892
Zr  Zr5  1  0.45680000  0.25000000  0.10902000  1.0 2.461960085
Zr  Zr6  1  0.95680000  0.75000000  0.39098000  1.0 2.461960085
Zr  Zr7  1  0.54320000  0.75000000  0.89098000  1.0 2.461960085
Zr  Zr8  1  0.04320000  0.25000000  0.60902000  1.0 2.461960085
Zr  Zr9  1  0.58078000  0.32238000  0.13375000  1.0 2.3711045164
Zr  Zr10  1  0.08078000  0.67762000  0.36625000  1.0 2.3711045164
Zr  Zr11  1  0.41922000  0.82238000  0.86625000  1.0 2.3711045164
Zr  Zr12  1  0.91922000  0.17762000  0.63375000  1.0 2.3711045164
Zr  Zr13  1  0.41922000  0.67762000  0.86625000  1.0 2.3711045164
Zr  Zr14  1  0.91922000  0.32238000  0.63375000  1.0 2.3711045164
Zr  Zr15  1  0.58078000  0.17762000  0.13375000  1.0 2.3711045164
Zr  Zr16  1  0.08078000  0.82238000  0.36625000  1.0 2.3711045164
Zr  Zr17  1  0.62730000  0.25000000  0.06750000  1.0 2.4877868372
Zr  Zr18  1  0.12730000  0.75000000  0.43250000  1.0 2.4827829876
Zr  Zr19  1  0.37270000  0.75000000  0.93250000  1.0 2.4827829876
Zr  Zr20  1  0.87270000  0.25000000  0.56750000  1.0 2.4827829876
Zr  Zr21  1  0.70500000  0.25000000  0.15874000  1.0 2.5266819674
Zr  Zr22  1  0.20500000  0.75000000  0.34126000  1.0 2.5266819674
Zr  Zr23  1  0.29500000  0.75000000  0.84126000  1.0 2.522732802
Zr  Zr24  1  0.79500000  0.25000000  0.65874000  1.0 2.5266819674
H  H1  1  0.30100000  0.52890000  0.35320000  1.0 0.117686818
H  H2  1  0.80100000  0.47110000  0.14680000  1.0 0.117686818
H  H3  1  0.69900000  0.02890000  0.64680000  1.0 0.117686818
H  H4  1  0.19900000  0.97110000  0.85320000  1.0 0.117686818
H  H5  1  0.69900000  0.47110000  0.64680000  1.0 0.117686818
H  H6  1  0.19900000  0.52890000  0.85320000  1.0 0.117686818
H  H7  1  0.30100000  0.97110000  0.35320000  1.0 0.117686818
H  H8  1  0.80100000  0.02890000  0.14680000  1.0 0.117686818
H  H9  1  0.21990000  0.57990000  0.34960000  1.0 0.117686818
H  H10  1  0.71990000  0.42010000  0.15040000  1.0 0.117686818
H  H11  1  0.78010000  0.07990000  0.65040000  1.0 0.117686818
H  H12  1  0.28010000  0.92010000  0.84960000  1.0 0.117686818
H  H13  1  0.78010000  0.42010000  0.65040000  1.0 0.117686818
H  H14  1  0.28010000  0.57990000  0.84960000  1.0 0.117686818
H  H15  1  0.21990000  0.92010000  0.34960000  1.0 0.117686818
H  H16  1  0.71990000  0.07990000  0.15040000  1.0 0.117686818
H  H17  1  0.37720000  0.65510000  0.32500000  1.0 0.117686818
H  H18  1  0.87720000  0.34490000  0.17500000  1.0 0.117686818
H  H19  1  0.62280000  0.15510000  0.67500000  1.0 0.117686818
H  H20  1  0.12280000  0.84490000  0.82500000  1.0 0.117686818
H  H21  1  0.62280000  0.34490000  0.67500000  1.0 0.117686818
H  H22  1  0.12280000  0.65510000  0.82500000  1.0 0.117686818
H  H23  1  0.37720000  0.84490000  0.32500000  1.0 0.117686818
H  H24  1  0.87720000  0.15510000  0.17500000  1.0 0.117686818
H  H25  1  0.45830000  0.60400000  0.32860000  1.0 0.1090989671
H  H26  1  0.95830000  0.39600000  0.17140000  1.0 0.1090989671
H  H27  1  0.54170000  0.10400000  0.67140000  1.0 0.1090989671
H  H28  1  0.04170000  0.89600000  0.82860000  1.0 0.1090989671
H  H29  1  0.54170000  0.39600000  0.67140000  1.0 0.1090989671
H  H30  1  0.04170000  0.60400000  0.82860000  1.0 0.1090989671
H  H31  1  0.45830000  0.89600000  0.32860000  1.0 0.1090989671
H  H32  1  0.95830000  0.10400000  0.17140000  1.0 0.1090989671
H  H33  1  0.42300000  0.50240000  0.29700000  1.0 0.1090989671
H  H34  1  0.92300000  0.49760000  0.20300000  1.0 0.1090989671
H  H35  1  0.57700000  0.00240000  0.70300000  1.0 0.1090989671
H  H36  1  0.07700000  0.99760000  0.79700000  1.0 0.1090989671
H  H37  1  0.57700000  0.49760000  0.70300000  1.0 0.1090989671
H  H38  1  0.07700000  0.50240000  0.79700000  1.0 0.1090989671
H  H39  1  0.42300000  0.99760000  0.29700000  1.0 0.1090989671
H  H40  1  0.92300000  0.00240000  0.20300000  1.0 0.1090989671
H  H41  1  0.51960000  0.47130000  0.25260000  1.0 0.1007115544
H  H42  1  0.01960000  0.52870000  0.24740000  1.0 0.1007115544
H  H43  1  0.48040000  0.97130000  0.74740000  1.0 0.1007115544
H  H44  1  0.98040000  0.02870000  0.75260000  1.0 0.1007115544
H  H45  1  0.48040000  0.52870000  0.74740000  1.0 0.1007115544
H  H46  1  0.98040000  0.47130000  0.75260000  1.0 0.1007115544
H  H47  1  0.51960000  0.02870000  0.25260000  1.0 0.1007115544
H  H48  1  0.01960000  0.97130000  0.24740000  1.0 0.1007115544
H  H49  1  0.53660000  0.42110000  0.20940000  1.0 0.117686818
H  H50  1  0.03660000  0.57890000  0.29060000  1.0 0.117686818
H  H51  1  0.46340000  0.92110000  0.79060000  1.0 0.117686818
H  H52  1  0.96340000  0.07890000  0.70940000  1.0 0.117686818
H  H53  1  0.46340000  0.57890000  0.79060000  1.0 0.117686818
H  H54  1  0.96340000  0.42110000  0.70940000  1.0 0.117686818
H  H55  1  0.53660000  0.07890000  0.20940000  1.0 0.117686818
H  H56  1  0.03660000  0.92110000  0.29060000  1.0 0.117686818
H  H57  1  0.49600000  0.34130000  0.28970000  1.0 0.1090989671
H  H58  1  0.99600000  0.65870000  0.21030000  1.0 0.1090989671
H  H59  1  0.50400000  0.84130000  0.71030000  1.0 0.1090989671
H  H60  1  0.00400000  0.15870000  0.78970000  1.0 0.1090989671
H  H61  1  0.50400000  0.65870000  0.71030000  1.0 0.1090989671
H  H62  1  0.00400000  0.34130000  0.78970000  1.0 0.1090989671
H  H63  1  0.49600000  0.15870000  0.28970000  1.0 0.1090989671
H  H64  1  0.99600000  0.84130000  0.21030000  1.0 0.1090989671
H  H65  1  0.47900000  0.39150000  0.33280000  1.0 0.117686818
H  H66  1  0.97900000  0.60850000  0.16720000  1.0 0.117686818
H  H67  1  0.52100000  0.89150000  0.66720000  1.0 0.117686818
H  H68  1  0.02100000  0.10850000  0.83280000  1.0 0.117686818
H  H69  1  0.52100000  0.60850000  0.66720000  1.0 0.117686818
H  H70  1  0.02100000  0.39150000  0.83280000  1.0 0.117686818
H  H71  1  0.47900000  0.10850000  0.33280000  1.0 0.117686818
H  H72  1  0.97900000  0.89150000  0.16720000  1.0 0.117686818
H  H73  1  0.49350000  0.43330000  0.43900000  1.0 0.1090989671
H  H74  1  0.99350000  0.56670000  0.06100000  1.0 0.1090989671
H  H75  1  0.50650000  0.93330000  0.56100000  1.0 0.1090989671
H  H76  1  0.00650000  0.06670000  0.93900000  1.0 0.1090989671
H  H77  1  0.50650000  0.56670000  0.56100000  1.0 0.1090989671
H  H78  1  0.00650000  0.43330000  0.93900000  1.0 0.1090989671
H  H79  1  0.49350000  0.06670000  0.43900000  1.0 0.1090989671
H  H80  1  0.99350000  0.93330000  0.06100000  1.0 0.1090989671
H  H81  1  0.49820000  0.45940000  0.47560000  1.0 0.0911907294
H  H82  1  0.99820000  0.54060000  0.02440000  1.0 0.0911907294
H  H83  1  0.50180000  0.95940000  0.52440000  1.0 0.0911907294
H  H84  1  0.00180000  0.04060000  0.97560000  1.0 0.0911907294
H  H85  1  0.50180000  0.54060000  0.52440000  1.0 0.0911907294
H  H86  1  0.00180000  0.45940000  0.97560000  1.0 0.0911907294
H  H87  1  0.49820000  0.04060000  0.47560000  1.0 0.0911907294
H  H88  1  0.99820000  0.95940000  0.02440000  1.0 0.0911907294
H  H89  1  0.60500000  0.41030000  0.44660000  1.0 0.1090989671
H  H90  1  0.10500000  0.58970000  0.05340000  1.0 0.1090989671
H  H91  1  0.39500000  0.91030000  0.55340000  1.0 0.1090989671
H  H92  1  0.89500000  0.08970000  0.94660000  1.0 0.1090989671
H  H93  1  0.39500000  0.58970000  0.55340000  1.0 0.1090989671
H  H94  1  0.89500000  0.41030000  0.94660000  1.0 0.1090989671
H  H95  1  0.60500000  0.08970000  0.44660000  1.0 0.1090989671
H  H96  1  0.10500000  0.91030000  0.05340000  1.0 0.1090989671
H  H97  1  0.59950000  0.42590000  0.48810000  1.0 0.1090989671
H  H98  1  0.09950000  0.57410000  0.01190000  1.0 0.1090989671
H  H99  1  0.40050000  0.92590000  0.51190000  1.0 0.1090989671
H  H100  1  0.90050000  0.07410000  0.98810000  1.0 0.1090989671
H  H101  1  0.40050000  0.57410000  0.51190000  1.0 0.1090989671
H  H102  1  0.90050000  0.42590000  0.98810000  1.0 0.1090989671
H  H103  1  0.59950000  0.07410000  0.48810000  1.0 0.1090989671
H  H104  1  0.09950000  0.92590000  0.01190000  1.0 0.1090989671
H  H105  1  0.72780000  0.38880000  0.45340000  1.0 0.117686818
H  H106  1  0.22780000  0.61120000  0.04660000  1.0 0.117686818
H  H107  1  0.27220000  0.88880000  0.54660000  1.0 0.117686818
H  H108  1  0.77220000  0.11120000  0.95340000  1.0 0.117686818
H  H109  1  0.27220000  0.61120000  0.54660000  1.0 0.117686818
H  H110  1  0.77220000  0.38880000  0.95340000  1.0 0.117686818
H  H111  1  0.72780000  0.11120000  0.45340000  1.0 0.117686818
H  H112  1  0.22780000  0.88880000  0.04660000  1.0 0.117686818
H  H113  1  0.77870000  0.33950000  0.48940000  1.0 0.1090989671
H  H114  1  0.27870000  0.66050000  0.01060000  1.0 0.1090989671
H  H115  1  0.22130000  0.83950000  0.51060000  1.0 0.1090989671
H  H116  1  0.72130000  0.16050000  0.98940000  1.0 0.1090989671
H  H117  1  0.22130000  0.66050000  0.51060000  1.0 0.1090989671
H  H118  1  0.72130000  0.33950000  0.98940000  1.0 0.1090989671
H  H119  1  0.77870000  0.16050000  0.48940000  1.0 0.1090989671
H  H120  1  0.27870000  0.83950000  0.01060000  1.0 0.1090989671
H  H121  1  0.84750000  0.42040000  0.56300000  1.0 0.117686818
H  H122  1  0.34750000  0.57960000  0.93700000  1.0 0.117686818
H  H123  1  0.15250000  0.92040000  0.43700000  1.0 0.117686818
H  H124  1  0.65250000  0.07960000  0.06300000  1.0 0.117686818
H  H125  1  0.15250000  0.57960000  0.43700000  1.0 0.117686818
H  H126  1  0.65250000  0.42040000  0.06300000  1.0 0.117686818
H  H127  1  0.84750000  0.07960000  0.56300000  1.0 0.117686818
H  H128  1  0.34750000  0.92040000  0.93700000  1.0 0.117686818
H  H129  1  0.79660000  0.46970000  0.52700000  1.0 0.117686818
H  H130  1  0.29660000  0.53030000  0.97300000  1.0 0.117686818
H  H131  1  0.20340000  0.96970000  0.47300000  1.0 0.117686818
H  H132  1  0.70340000  0.03030000  0.02700000  1.0 0.117686818
H  H133  1  0.20340000  0.53030000  0.47300000  1.0 0.117686818
H  H134  1  0.70340000  0.46970000  0.02700000  1.0 0.117686818
H  H135  1  0.79660000  0.03030000  0.52700000  1.0 0.117686818
H  H136  1  0.29660000  0.96970000  0.97300000  1.0 0.117686818
H  H137  1  0.81590000  0.49560000  0.45910000  1.0 0.117686818
H  H138  1  0.31590000  0.50440000  0.04090000  1.0 0.117686818
H  H139  1  0.18410000  0.99560000  0.54090000  1.0 0.117686818
H  H140  1  0.68410000  0.00440000  0.95910000  1.0 0.117686818
H  H141  1  0.18410000  0.50440000  0.54090000  1.0 0.117686818
H  H142  1  0.68410000  0.49560000  0.95910000  1.0 0.117686818
H  H143  1  0.81590000  0.00440000  0.45910000  1.0 0.117686818
H  H144  1  0.31590000  0.99560000  0.04090000  1.0 0.117686818
H  H145  1  0.53350000  0.54340000  0.45750000  1.0 0.1090989671
H  H146  1  0.03350000  0.45660000  0.04250000  1.0 0.1090989671
H  H147  1  0.46650000  0.04340000  0.54250000  1.0 0.1090989671
H  H148  1  0.96650000  0.95660000  0.95750000  1.0 0.1090989671
H  H149  1  0.46650000  0.45660000  0.54250000  1.0 0.1090989671
H  H150  1  0.96650000  0.54340000  0.95750000  1.0 0.1090989671
H  H151  1  0.53350000  0.95660000  0.45750000  1.0 0.1090989671
H  H152  1  0.03350000  0.04340000  0.04250000  1.0 0.1090989671
H  H153  1  0.46570000  0.51760000  0.46290000  1.0 0.1090989671
H  H154  1  0.96570000  0.48240000  0.03710000  1.0 0.1090989671
H  H155  1  0.53430000  0.01760000  0.53710000  1.0 0.1090989671
H  H156  1  0.03430000  0.98240000  0.96290000  1.0 0.1090989671
H  H157  1  0.53430000  0.48240000  0.53710000  1.0 0.1090989671
H  H158  1  0.03430000  0.51760000  0.96290000  1.0 0.1090989671
H  H159  1  0.46570000  0.98240000  0.46290000  1.0 0.1090989671
H  H160  1  0.96570000  0.01760000  0.03710000  1.0 0.1090989671
H  H161  1  0.41430000  0.55340000  0.42270000  1.0 0.1090989671
H  H162  1  0.91430000  0.44660000  0.07730000  1.0 0.1090989671
H  H163  1  0.58570000  0.05340000  0.57730000  1.0 0.1090989671
H  H164  1  0.08570000  0.94660000  0.92270000  1.0 0.1090989671
H  H165  1  0.58570000  0.44660000  0.57730000  1.0 0.1090989671
H  H166  1  0.08570000  0.55340000  0.92270000  1.0 0.1090989671
H  H167  1  0.41430000  0.94660000  0.42270000  1.0 0.1090989671
H  H168  1  0.91430000  0.05340000  0.07730000  1.0 0.1090989671
H  H169  1  0.48620000  0.57480000  0.41250000  1.0 0.117686818
H  H170  1  0.98620000  0.42520000  0.08750000  1.0 0.117686818
H  H171  1  0.51380000  0.07480000  0.58750000  1.0 0.117686818
H  H172  1  0.01380000  0.92520000  0.91250000  1.0 0.1090989671
H  H173  1  0.51380000  0.42520000  0.58750000  1.0 0.1090989671
H  H174  1  0.01380000  0.57480000  0.91250000  1.0 0.1090989671
H  H175  1  0.48620000  0.92520000  0.41250000  1.0 0.117686818
H  H176  1  0.98620000  0.07480000  0.08750000  1.0 0.117686818
H  H177  1  0.70220000  0.55310000  0.35990000  1.0 0.0911907294
H  H178  1  0.20220000  0.44690000  0.14010000  1.0 0.0911907294
H  H179  1  0.29780000  0.05310000  0.64010000  1.0 0.0911907294
H  H180  1  0.79780000  0.94690000  0.85990000  1.0 0.0911907294
H  H181  1  0.29780000  0.44690000  0.64010000  1.0 0.0911907294
H  H182  1  0.79780000  0.55310000  0.85990000  1.0 0.0911907294
H  H183  1  0.70220000  0.94690000  0.35990000  1.0 0.0911907294
H  H184  1  0.20220000  0.05310000  0.14010000  1.0 0.0911907294
H  H185  1  0.63210000  0.53000000  0.35190000  1.0 0.082048056
H  H186  1  0.13210000  0.47000000  0.14810000  1.0 0.082048056
H  H187  1  0.36790000  0.03000000  0.64810000  1.0 0.082048056
H  H188  1  0.86790000  0.97000000  0.85190000  1.0 0.082048056
H  H189  1  0.36790000  0.47000000  0.64810000  1.0 0.082048056
H  H190  1  0.86790000  0.53000000  0.85190000  1.0 0.082048056
H  H191  1  0.63210000  0.97000000  0.35190000  1.0 0.082048056
H  H192  1  0.13210000  0.03000000  0.14810000  1.0 0.082048056
H  H193  1  0.94260000  0.57850000  0.39210000  1.0 0.1281883639
H  H194  1  0.44260000  0.42150000  0.10790000  1.0 0.1281883639
H  H195  1  0.05740000  0.07850000  0.60790000  1.0 0.1281883639
H  H196  1  0.55740000  0.92150000  0.89210000  1.0 0.1281883639
H  H197  1  0.05740000  0.42150000  0.60790000  1.0 0.1281883639
H  H198  1  0.55740000  0.57850000  0.89210000  1.0 0.1281883639
H  H199  1  0.94260000  0.92150000  0.39210000  1.0 0.1281883639
H  H200  1  0.44260000  0.07850000  0.10790000  1.0 0.1281883639
H  H201  1  0.86570000  0.52770000  0.40690000  1.0 0.1090989671
H  H202  1  0.36570000  0.47230000  0.09310000  1.0 0.1090989671
H  H203  1  0.13430000  0.02770000  0.59310000  1.0 0.1090989671
H  H204  1  0.63430000  0.97230000  0.90690000  1.0 0.1090989671
H  H205  1  0.13430000  0.47230000  0.59310000  1.0 0.1090989671
H  H206  1  0.63430000  0.52770000  0.90690000  1.0 0.1090989671
H  H207  1  0.86570000  0.97230000  0.40690000  1.0 0.1090989671
H  H208  1  0.36570000  0.02770000  0.09310000  1.0 0.1090989671
H  H209  1  0.71690000  0.60650000  0.43580000  1.0 0.117686818
H  H210  1  0.21690000  0.39350000  0.06420000  1.0 0.117686818
H  H211  1  0.28310000  0.10650000  0.56420000  1.0 0.117686818
H  H212  1  0.78310000  0.89350000  0.93580000  1.0 0.117686818
H  H213  1  0.28310000  0.39350000  0.56420000  1.0 0.117686818
H  H214  1  0.78310000  0.60650000  0.93580000  1.0 0.117686818
H  H215  1  0.71690000  0.89350000  0.43580000  1.0 0.117686818
H  H216  1  0.21690000  0.10650000  0.06420000  1.0 0.117686818
H  H217  1  0.79390000  0.65730000  0.42100000  1.0 0.1090989671
H  H218  1  0.29390000  0.34270000  0.07900000  1.0 0.1090989671
H  H219  1  0.20610000  0.15730000  0.57900000  1.0 0.117686818
H  H220  1  0.70610000  0.84270000  0.92100000  1.0 0.1090989671
H  H221  1  0.20610000  0.34270000  0.57900000  1.0 0.1090989671
H  H222  1  0.70610000  0.65730000  0.92100000  1.0 0.1090989671
H  H223  1  0.79390000  0.84270000  0.42100000  1.0 0.1090989671
H  H224  1  0.29390000  0.15730000  0.07900000  1.0 0.1090989671
H  H225  1  0.64640000  0.61310000  0.34780000  1.0 0.117686818
H  H226  1  0.14640000  0.38690000  0.15220000  1.0 0.117686818
H  H227  1  0.35360000  0.11310000  0.65220000  1.0 0.117686818
H  H228  1  0.85360000  0.88690000  0.84780000  1.0 0.117686818
H  H229  1  0.35360000  0.38690000  0.65220000  1.0 0.117686818
H  H230  1  0.85360000  0.61310000  0.84780000  1.0 0.117686818
H  H231  1  0.64640000  0.88690000  0.34780000  1.0 0.117686818
H  H232  1  0.14640000  0.11310000  0.15220000  1.0 0.117686818
H  H233  1  0.57240000  0.59230000  0.34440000  1.0 0.1090989671
H  H234  1  0.07240000  0.40770000  0.15560000  1.0 0.1090989671
H  H235  1  0.42760000  0.09230000  0.65560000  1.0 0.1090989671
H  H236  1  0.92760000  0.90770000  0.84440000  1.0 0.1090989671
H  H237  1  0.42760000  0.40770000  0.65560000  1.0 0.1090989671
H  H238  1  0.92760000  0.59230000  0.84440000  1.0 0.1090989671
H  H239  1  0.57240000  0.90770000  0.34440000  1.0 0.1090989671
H  H240  1  0.07240000  0.09230000  0.15560000  1.0 0.1090989671
H  H241  1  0.64200000  0.40560000  0.34220000  1.0 0.0911907294
H  H242  1  0.14200000  0.59440000  0.15780000  1.0 0.0911907294
H  H243  1  0.35800000  0.90560000  0.65780000  1.0 0.0911907294
H  H244  1  0.85800000  0.09440000  0.84220000  1.0 0.0911907294
H  H245  1  0.35800000  0.59440000  0.65780000  1.0 0.0911907294
H  H246  1  0.85800000  0.40560000  0.84220000  1.0 0.0911907294
H  H247  1  0.64200000  0.09440000  0.34220000  1.0 0.0911907294
H  H248  1  0.14200000  0.90560000  0.15780000  1.0 0.0911907294
H  H249  1  0.62560000  0.44680000  0.32610000  1.0 0.082048056
H  H250  1  0.12560000  0.55320000  0.17390000  1.0 0.082048056
H  H251  1  0.37440000  0.94680000  0.67390000  1.0 0.082048056
H  H252  1  0.87440000  0.05320000  0.82610000  1.0 0.082048056
H  H253  1  0.37440000  0.55320000  0.67390000  1.0 0.082048056
H  H254  1  0.87440000  0.44680000  0.82610000  1.0 0.082048056
H  H255  1  0.62560000  0.05320000  0.32610000  1.0 0.082048056
H  H256  1  0.12560000  0.94680000  0.17390000  1.0 0.082048056
H  H257  1  0.58560000  0.53550000  0.29280000  1.0 0.1007115544
H  H258  1  0.08560000  0.46450000  0.20720000  1.0 0.1007115544
H  H259  1  0.41440000  0.03550000  0.70720000  1.0 0.1007115544
H  H260  1  0.91440000  0.96450000  0.79280000  1.0 0.1007115544
H  H261  1  0.41440000  0.46450000  0.70720000  1.0 0.1007115544
H  H262  1  0.91440000  0.53550000  0.79280000  1.0 0.1007115544
H  H263  1  0.58560000  0.96450000  0.29280000  1.0 0.1007115544
H  H264  1  0.08560000  0.03550000  0.20720000  1.0 0.1007115544
H  H265  1  0.58880000  0.56360000  0.25850000  1.0 0.1007115544
H  H266  1  0.08880000  0.43640000  0.24150000  1.0 0.1007115544
H  H267  1  0.41120000  0.06360000  0.74150000  1.0 0.1007115544
H  H268  1  0.91120000  0.93640000  0.75850000  1.0 0.1007115544
H  H269  1  0.41120000  0.43640000  0.74150000  1.0 0.1007115544
H  H270  1  0.91120000  0.56360000  0.75850000  1.0 0.1007115544
H  H271  1  0.58880000  0.93640000  0.25850000  1.0 0.1007115544
H  H272  1  0.08880000  0.06360000  0.24150000  1.0 0.1007115544
H  H273  1  0.80580000  0.38180000  0.31490000  1.0 0.1007115544
H  H274  1  0.30580000  0.61820000  0.18510000  1.0 0.1007115544
H  H275  1  0.19420000  0.88180000  0.68510000  1.0 0.1007115544
H  H276  1  0.69420000  0.11820000  0.81490000  1.0 0.1007115544
H  H277  1  0.19420000  0.61820000  0.68510000  1.0 0.1007115544
H  H278  1  0.69420000  0.38180000  0.81490000  1.0 0.1007115544
H  H279  1  0.80580000  0.11820000  0.31490000  1.0 0.1007115544
H  H280  1  0.30580000  0.88180000  0.18510000  1.0 0.1007115544
H  H281  1  0.72740000  0.37750000  0.32830000  1.0 0.1007115544
H  H282  1  0.22740000  0.62250000  0.17170000  1.0 0.1007115544
H  H283  1  0.27260000  0.87750000  0.67170000  1.0 0.1007115544
H  H284  1  0.77260000  0.12250000  0.82830000  1.0 0.1007115544
H  H285  1  0.27260000  0.62250000  0.67170000  1.0 0.1007115544
H  H286  1  0.77260000  0.37750000  0.82830000  1.0 0.1007115544
H  H287  1  0.72740000  0.12250000  0.32830000  1.0 0.1007115544
H  H288  1  0.22740000  0.87750000  0.17170000  1.0 0.1007115544
H  H289  1  0.68560000  0.39820000  0.27560000  1.0 0.1007115544
H  H290  1  0.18560000  0.60180000  0.22440000  1.0 0.1007115544
H  H291  1  0.31440000  0.89820000  0.72440000  1.0 0.1007115544
H  H292  1  0.81440000  0.10180000  0.77560000  1.0 0.1007115544
H  H293  1  0.31440000  0.60180000  0.72440000  1.0 0.1007115544
H  H294  1  0.81440000  0.39820000  0.77560000  1.0 0.1007115544
H  H295  1  0.68560000  0.10180000  0.27560000  1.0 0.1007115544
H  H296  1  0.18560000  0.89820000  0.22440000  1.0 0.1007115544
H  H297  1  0.76060000  0.38940000  0.25980000  1.0 0.1007115544
H  H298  1  0.26060000  0.61060000  0.24020000  1.0 0.1007115544
H  H299  1  0.23940000  0.88940000  0.74020000  1.0 0.1007115544
H  H300  1  0.73940000  0.11060000  0.75980000  1.0 0.1007115544
H  H301  1  0.23940000  0.61060000  0.74020000  1.0 0.1007115544
H  H302  1  0.73940000  0.38940000  0.75980000  1.0 0.1007115544
H  H303  1  0.76060000  0.11060000  0.25980000  1.0 0.1007115544
H  H304  1  0.26060000  0.88940000  0.24020000  1.0 0.1007115544
H  H305  1  0.66560000  0.52890000  0.23210000  1.0 0.1007115544
H  H306  1  0.16560000  0.47110000  0.26790000  1.0 0.1007115544
H  H307  1  0.33440000  0.02890000  0.76790000  1.0 0.1007115544
H  H308  1  0.83440000  0.97110000  0.73210000  1.0 0.1007115544
H  H309  1  0.33440000  0.47110000  0.76790000  1.0 0.1007115544
H  H310  1  0.83440000  0.52890000  0.73210000  1.0 0.1007115544
H  H311  1  0.66560000  0.97110000  0.23210000  1.0 0.1007115544
H  H312  1  0.16560000  0.02890000  0.26790000  1.0 0.1007115544
H  H313  1  0.65290000  0.49770000  0.26330000  1.0 0.1007115544
H  H314  1  0.15290000  0.50230000  0.23670000  1.0 0.1007115544
H  H315  1  0.34710000  0.99770000  0.73670000  1.0 0.1007115544
H  H316  1  0.84710000  0.00230000  0.76330000  1.0 0.1007115544
H  H317  1  0.34710000  0.50230000  0.73670000  1.0 0.1007115544
H  H318  1  0.84710000  0.49770000  0.76330000  1.0 0.1007115544
H  H319  1  0.65290000  0.00230000  0.26330000  1.0 0.1007115544
H  H320  1  0.15290000  0.99770000  0.23670000  1.0 0.1007115544
H  H321  1  0.83880000  0.51960000  0.28270000  1.0 0.1007115544
H  H322  1  0.33880000  0.48040000  0.21730000  1.0 0.1007115544
H  H323  1  0.16120000  0.01960000  0.71730000  1.0 0.1090989671
H  H324  1  0.66120000  0.98040000  0.78270000  1.0 0.1090989671
H  H325  1  0.16120000  0.48040000  0.71730000  1.0 0.1090989671
H  H326  1  0.66120000  0.51960000  0.78270000  1.0 0.1090989671
H  H327  1  0.83880000  0.98040000  0.28270000  1.0 0.1007115544
H  H328  1  0.33880000  0.01960000  0.21730000  1.0 0.1007115544
H  H329  1  0.78450000  0.50210000  0.31150000  1.0 0.1007115544
H  H330  1  0.28450000  0.49790000  0.18850000  1.0 0.1007115544
H  H331  1  0.21550000  0.00210000  0.68850000  1.0 0.1007115544
H  H332  1  0.71550000  0.99790000  0.81150000  1.0 0.1007115544
H  H333  1  0.21550000  0.49790000  0.68850000  1.0 0.1007115544
H  H334  1  0.71550000  0.50210000  0.81150000  1.0 0.1007115544
H  H335  1  0.78450000  0.99790000  0.31150000  1.0 0.1007115544
H  H336  1  0.28450000  0.00210000  0.18850000  1.0 0.1007115544
H  H337  1  0.83440000  0.44720000  0.28500000  1.0 0.082048056
H  H338  1  0.33440000  0.55280000  0.21500000  1.0 0.082048056
H  H339  1  0.16560000  0.94720000  0.71500000  1.0 0.082048056
H  H340  1  0.66560000  0.05280000  0.78500000  1.0 0.082048056
H  H341  1  0.16560000  0.55280000  0.71500000  1.0 0.082048056
H  H342  1  0.66560000  0.44720000  0.78500000  1.0 0.082048056
H  H343  1  0.83440000  0.05280000  0.28500000  1.0 0.082048056
H  H344  1  0.33440000  0.94720000  0.21500000  1.0 0.082048056
H  H345  1  0.83190000  0.46530000  0.24450000  1.0 0.0911907294
H  H346  1  0.33190000  0.53470000  0.25550000  1.0 0.0911907294
H  H347  1  0.16810000  0.96530000  0.75550000  1.0 0.0911907294
H  H348  1  0.66810000  0.03470000  0.74450000  1.0 0.0911907294
H  H349  1  0.16810000  0.53470000  0.75550000  1.0 0.0911907294
H  H350  1  0.66810000  0.46530000  0.74450000  1.0 0.0911907294
H  H351  1  0.83190000  0.03470000  0.24450000  1.0 0.0911907294
H  H352  1  0.33190000  0.96530000  0.25550000  1.0 0.0911907294
H  H353  1  0.71650000  0.44440000  0.38590000  1.0 0.1007115544
H  H354  1  0.21650000  0.55560000  0.11410000  1.0 0.1007115544
H  H355  1  0.28350000  0.94440000  0.61410000  1.0 0.1007115544
H  H356  1  0.78350000  0.05560000  0.88590000  1.0 0.1007115544
H  H357  1  0.28350000  0.55560000  0.61410000  1.0 0.1007115544
H  H358  1  0.78350000  0.44440000  0.88590000  1.0 0.1007115544
H  H359  1  0.71650000  0.05560000  0.38590000  1.0 0.1007115544
H  H360  1  0.21650000  0.94440000  0.11410000  1.0 0.1007115544
H  H361  1  0.71470000  0.47410000  0.35270000  1.0 0.0911907294
H  H362  1  0.21470000  0.52590000  0.14730000  1.0 0.0911907294
H  H363  1  0.28530000  0.97410000  0.64730000  1.0 0.0911907294
H  H364  1  0.78530000  0.02590000  0.85270000  1.0 0.0911907294
H  H365  1  0.28530000  0.52590000  0.64730000  1.0 0.0911907294
H  H366  1  0.78530000  0.47410000  0.85270000  1.0 0.0911907294
H  H367  1  0.71470000  0.02590000  0.35270000  1.0 0.0911907294
H  H368  1  0.21470000  0.97410000  0.14730000  1.0 0.0911907294
C  C1  1  0.52630000  0.34450000  0.21760000  1.0 0.6262475851
C  C2  1  0.02630000  0.65550000  0.28240000  1.0 0.6262475851
C  C3  1  0.47370000  0.84450000  0.78240000  1.0 0.6262475851
C  C4  1  0.97370000  0.15550000  0.71760000  1.0 0.6262475851
C  C5  1  0.47370000  0.65550000  0.78240000  1.0 0.6262475851
C  C6  1  0.97370000  0.34450000  0.71760000  1.0 0.6262475851
C  C7  1  0.52630000  0.15550000  0.21760000  1.0 0.6262475851
C  C8  1  0.02630000  0.84450000  0.28240000  1.0 0.6262475851
C  C9  1  0.38770000  0.56140000  0.34130000  1.0 0.0911907294
C  C10  1  0.88770000  0.43860000  0.15870000  1.0 0.0911907294
C  C11  1  0.61230000  0.06140000  0.65870000  1.0 0.0911907294
C  C12  1  0.11230000  0.93860000  0.84130000  1.0 0.0911907294
C  C13  1  0.61230000  0.43860000  0.65870000  1.0 0.0911907294
C  C14  1  0.11230000  0.56140000  0.84130000  1.0 0.0911907294
C  C15  1  0.38770000  0.93860000  0.34130000  1.0 0.0911907294
C  C16  1  0.88770000  0.06140000  0.15870000  1.0 0.0911907294
C  C17  1  0.31630000  0.55420000  0.34760000  1.0 -0.1699606043
C  C18  1  0.81630000  0.44580000  0.15240000  1.0 -0.1699606043
C  C19  1  0.68370000  0.05420000  0.65240000  1.0 -0.1699606043
C  C20  1  0.18370000  0.94580000  0.84760000  1.0 -0.1699606043
C  C21  1  0.68370000  0.44580000  0.65240000  1.0 -0.1699606043
C  C22  1  0.18370000  0.55420000  0.84760000  1.0 -0.1699606043
C  C23  1  0.31630000  0.94580000  0.34760000  1.0 -0.1699606043
C  C24  1  0.81630000  0.05420000  0.15240000  1.0 -0.1699606043
C  C25  1  0.26770000  0.58470000  0.34540000  1.0 -0.088803392
C  C26  1  0.76770000  0.41530000  0.15460000  1.0 -0.088803392
C  C27  1  0.73230000  0.08470000  0.65460000  1.0 -0.088803392
C  C28  1  0.23230000  0.91530000  0.84540000  1.0 -0.088803392
C  C29  1  0.73230000  0.41530000  0.65460000  1.0 -0.088803392
C  C30  1  0.23230000  0.58470000  0.84540000  1.0 -0.088803392
C  C31  1  0.26770000  0.91530000  0.34540000  1.0 -0.088803392
C  C32  1  0.76770000  0.08470000  0.15460000  1.0 -0.088803392
C  C33  1  0.29050000  0.62260000  0.33700000  1.0 -0.088803392
C  C34  1  0.79050000  0.37740000  0.16300000  1.0 -0.088803392
C  C35  1  0.70950000  0.12260000  0.66300000  1.0 -0.088803392
C  C36  1  0.20950000  0.87740000  0.83700000  1.0 -0.088803392
C  C37  1  0.70950000  0.37740000  0.66300000  1.0 -0.088803392
C  C38  1  0.20950000  0.62260000  0.83700000  1.0 -0.088803392
C  C39  1  0.29050000  0.87740000  0.33700000  1.0 -0.088803392
C  C40  1  0.79050000  0.12260000  0.16300000  1.0 -0.088803392
C  C41  1  0.36190000  0.62980000  0.33070000  1.0 -0.088803392
C  C42  1  0.86190000  0.37020000  0.16930000  1.0 -0.088803392
C  C43  1  0.63810000  0.12980000  0.66930000  1.0 -0.088803392
C  C44  1  0.13810000  0.87020000  0.83070000  1.0 -0.088803392
C  C45  1  0.63810000  0.37020000  0.66930000  1.0 -0.088803392
C  C46  1  0.13810000  0.62980000  0.83070000  1.0 -0.088803392
C  C47  1  0.36190000  0.87020000  0.33070000  1.0 -0.088803392
C  C48  1  0.86190000  0.12980000  0.16930000  1.0 -0.088803392
C  C49  1  0.41050000  0.59920000  0.33280000  1.0 -0.2102377887
C  C50  1  0.91050000  0.40080000  0.16720000  1.0 -0.2102377887
C  C51  1  0.58950000  0.09920000  0.66720000  1.0 -0.2102377887
C  C52  1  0.08950000  0.90080000  0.83280000  1.0 -0.2102377887
C  C53  1  0.58950000  0.40080000  0.66720000  1.0 -0.2102377887
C  C54  1  0.08950000  0.59920000  0.83280000  1.0 -0.2102377887
C  C55  1  0.41050000  0.90080000  0.33280000  1.0 -0.2102377887
C  C56  1  0.91050000  0.09920000  0.16720000  1.0 -0.2102377887
C  C57  1  0.54220000  0.48860000  0.42810000  1.0 0.1472512263
C  C58  1  0.04220000  0.51140000  0.07190000  1.0 0.1472512263
C  C59  1  0.45780000  0.98860000  0.57190000  1.0 0.1472512263
C  C60  1  0.95780000  0.01140000  0.92810000  1.0 0.1472512263
C  C61  1  0.45780000  0.51140000  0.57190000  1.0 0.1472512263
C  C62  1  0.95780000  0.48860000  0.92810000  1.0 0.1472512263
C  C63  1  0.54220000  0.01140000  0.42810000  1.0 0.1472512263
C  C64  1  0.04220000  0.98860000  0.07190000  1.0 0.1472512263
C  C65  1  0.23500000  0.65160000  0.34060000  1.0 0.6185806806
C  C66  1  0.73500000  0.34840000  0.15940000  1.0 0.6185806806
C  C67  1  0.76500000  0.15160000  0.65940000  1.0 0.6185806806
C  C68  1  0.26500000  0.84840000  0.84060000  1.0 0.6185806806
C  C69  1  0.76500000  0.34840000  0.65940000  1.0 0.6185806806
C  C70  1  0.26500000  0.65160000  0.84060000  1.0 0.6185806806
C  C71  1  0.23500000  0.84840000  0.34060000  1.0 0.6185806806
C  C72  1  0.73500000  0.15160000  0.15940000  1.0 0.6185806806
C  C73  1  0.44670000  0.49940000  0.31970000  1.0 -0.2312869402
C  C74  1  0.94670000  0.50060000  0.18030000  1.0 -0.2312869402
C  C75  1  0.55330000  0.99940000  0.68030000  1.0 -0.2312869402
C  C76  1  0.05330000  0.00060000  0.81970000  1.0 -0.2312869402
C  C77  1  0.55330000  0.50060000  0.68030000  1.0 -0.2312869402
C  C78  1  0.05330000  0.49940000  0.81970000  1.0 -0.2312869402
C  C79  1  0.44670000  0.00060000  0.31970000  1.0 -0.2312869402
C  C80  1  0.94670000  0.99940000  0.18030000  1.0 -0.2312869402
C  C81  1  0.49140000  0.46740000  0.32510000  1.0 -0.0519448242
C  C82  1  0.99140000  0.53260000  0.17490000  1.0 -0.0519448242
C  C83  1  0.50860000  0.96740000  0.67490000  1.0 -0.0519448242
C  C84  1  0.00860000  0.03260000  0.82510000  1.0 -0.0519448242
C  C85  1  0.50860000  0.53260000  0.67490000  1.0 -0.0519448242
C  C86  1  0.00860000  0.46740000  0.82510000  1.0 -0.0519448242
C  C87  1  0.49140000  0.03260000  0.32510000  1.0 -0.0519448242
C  C88  1  0.99140000  0.96740000  0.17490000  1.0 -0.0519448242
C  C89  1  0.52670000  0.46290000  0.35910000  1.0 0.1281883639
C  C90  1  0.02670000  0.53710000  0.14090000  1.0 0.1281883639
C  C91  1  0.47330000  0.96290000  0.64090000  1.0 0.1281883639
C  C92  1  0.97330000  0.03710000  0.85910000  1.0 0.1281883639
C  C93  1  0.47330000  0.53710000  0.64090000  1.0 0.1281883639
C  C94  1  0.97330000  0.46290000  0.85910000  1.0 0.1281883639
C  C95  1  0.52670000  0.03710000  0.35910000  1.0 0.1281883639
C  C96  1  0.02670000  0.96290000  0.14090000  1.0 0.1281883639
C  C97  1  0.51730000  0.49030000  0.38760000  1.0 -0.088803392
C  C98  1  0.01730000  0.50970000  0.11240000  1.0 -0.088803392
C  C99  1  0.48270000  0.99030000  0.61240000  1.0 -0.088803392
C  C100  1  0.98270000  0.00970000  0.88760000  1.0 -0.088803392
C  C101  1  0.48270000  0.50970000  0.61240000  1.0 -0.088803392
C  C102  1  0.98270000  0.49030000  0.88760000  1.0 -0.088803392
C  C103  1  0.51730000  0.00970000  0.38760000  1.0 -0.088803392
C  C104  1  0.01730000  0.99030000  0.11240000  1.0 -0.088803392
C  C105  1  0.47260000  0.52220000  0.38220000  1.0 0.033592559
C  C106  1  0.97260000  0.47780000  0.11780000  1.0 0.033592559
C  C107  1  0.52740000  0.02220000  0.61780000  1.0 0.033592559
C  C108  1  0.02740000  0.97780000  0.88220000  1.0 0.033592559
C  C109  1  0.52740000  0.47780000  0.61780000  1.0 0.033592559
C  C110  1  0.02740000  0.52220000  0.88220000  1.0 0.033592559
C  C111  1  0.47260000  0.97780000  0.38220000  1.0 0.033592559
C  C112  1  0.97260000  0.02220000  0.11780000  1.0 0.033592559
C  C113  1  0.43730000  0.52670000  0.34820000  1.0 -0.0127652119
C  C114  1  0.93730000  0.47330000  0.15180000  1.0 -0.0127652119
C  C115  1  0.56270000  0.02670000  0.65180000  1.0 -0.0127652119
C  C116  1  0.06270000  0.97330000  0.84820000  1.0 -0.0127652119
C  C117  1  0.56270000  0.47330000  0.65180000  1.0 -0.0127652119
C  C118  1  0.06270000  0.52670000  0.84820000  1.0 -0.0127652119
C  C119  1  0.43730000  0.97330000  0.34820000  1.0 -0.0127652119
C  C120  1  0.93730000  0.02670000  0.15180000  1.0 -0.0127652119
C  C121  1  0.49760000  0.43640000  0.29700000  1.0 0.082048056
C  C122  1  0.99760000  0.56360000  0.20300000  1.0 0.082048056
C  C123  1  0.50240000  0.93640000  0.70300000  1.0 0.082048056
C  C124  1  0.00240000  0.06360000  0.79700000  1.0 0.082048056
C  C125  1  0.50240000  0.56360000  0.70300000  1.0 0.082048056
C  C126  1  0.00240000  0.43640000  0.79700000  1.0 0.082048056
C  C127  1  0.49760000  0.06360000  0.29700000  1.0 0.082048056
C  C128  1  0.99760000  0.93640000  0.20300000  1.0 0.082048056
C  C129  1  0.51490000  0.44530000  0.26000000  1.0 -0.1988268166
C  C130  1  0.01490000  0.55470000  0.24000000  1.0 -0.1988268166
C  C131  1  0.48510000  0.94530000  0.74000000  1.0 -0.1988268166
C  C132  1  0.98510000  0.05470000  0.76000000  1.0 -0.1988268166
C  C133  1  0.48510000  0.55470000  0.74000000  1.0 -0.1988268166
C  C134  1  0.98510000  0.44530000  0.76000000  1.0 -0.1988268166
C  C135  1  0.51490000  0.05470000  0.26000000  1.0 -0.1988268166
C  C136  1  0.01490000  0.94530000  0.24000000  1.0 -0.1988268166
C  C137  1  0.52510000  0.41520000  0.23420000  1.0 -0.0994526752
C  C138  1  0.02510000  0.58480000  0.26580000  1.0 -0.0994526752
C  C139  1  0.47490000  0.91520000  0.76580000  1.0 -0.0994526752
C  C140  1  0.97490000  0.08480000  0.73420000  1.0 -0.0994526752
C  C141  1  0.47490000  0.58480000  0.76580000  1.0 -0.0994526752
C  C142  1  0.97490000  0.41520000  0.73420000  1.0 -0.0994526752
C  C143  1  0.52510000  0.08480000  0.23420000  1.0 -0.0994526752
C  C144  1  0.02510000  0.91520000  0.26580000  1.0 -0.0994526752
C  C145  1  0.51800000  0.37620000  0.24530000  1.0 -0.0707589165
C  C146  1  0.01800000  0.62380000  0.25470000  1.0 -0.0707589165
C  C147  1  0.48200000  0.87620000  0.75470000  1.0 -0.0707589165
C  C148  1  0.98200000  0.12380000  0.74530000  1.0 -0.0707589165
C  C149  1  0.48200000  0.62380000  0.75470000  1.0 -0.0707589165
C  C150  1  0.98200000  0.37620000  0.74530000  1.0 -0.0707589165
C  C151  1  0.51800000  0.12380000  0.24530000  1.0 -0.0707589165
C  C152  1  0.01800000  0.87620000  0.25470000  1.0 -0.0707589165
C  C153  1  0.50080000  0.36740000  0.28230000  1.0 -0.088803392
C  C154  1  0.00080000  0.63260000  0.21770000  1.0 -0.088803392
C  C155  1  0.49920000  0.86740000  0.71770000  1.0 -0.088803392
C  C156  1  0.99920000  0.13260000  0.78230000  1.0 -0.0994526752
C  C157  1  0.49920000  0.63260000  0.71770000  1.0 -0.088803392
C  C158  1  0.99920000  0.36740000  0.78230000  1.0 -0.0994526752
C  C159  1  0.50080000  0.13260000  0.28230000  1.0 -0.0994526752
C  C160  1  0.00080000  0.86740000  0.21770000  1.0 -0.088803392
C  C161  1  0.49060000  0.39740000  0.30810000  1.0 -0.1699606043
C  C162  1  0.99060000  0.60260000  0.19190000  1.0 -0.1699606043
C  C163  1  0.50940000  0.89740000  0.69190000  1.0 -0.1699606043
C  C164  1  0.00940000  0.10260000  0.80810000  1.0 -0.1699606043
C  C165  1  0.50940000  0.60260000  0.69190000  1.0 -0.1699606043
C  C166  1  0.00940000  0.39740000  0.80810000  1.0 -0.1699606043
C  C167  1  0.49060000  0.10260000  0.30810000  1.0 -0.1699606043
C  C168  1  0.99060000  0.89740000  0.19190000  1.0 -0.1699606043
C  C169  1  0.52270000  0.45170000  0.45280000  1.0 -0.2384036811
C  C170  1  0.02270000  0.54830000  0.04720000  1.0 -0.2384036811
C  C171  1  0.47730000  0.95170000  0.54720000  1.0 -0.2384036811
C  C172  1  0.97730000  0.04830000  0.95280000  1.0 -0.2384036811
C  C173  1  0.47730000  0.54830000  0.54720000  1.0 -0.2384036811
C  C174  1  0.97730000  0.45170000  0.95280000  1.0 -0.2384036811
C  C175  1  0.52270000  0.04830000  0.45280000  1.0 -0.2312869402
C  C176  1  0.02270000  0.95170000  0.04720000  1.0 -0.2384036811
C  C177  1  0.59730000  0.43350000  0.46190000  1.0 -0.2102377887
C  C178  1  0.09730000  0.56650000  0.03810000  1.0 -0.2102377887
C  C179  1  0.40270000  0.93350000  0.53810000  1.0 -0.2102377887
C  C180  1  0.90270000  0.06650000  0.96190000  1.0 -0.2102377887
C  C181  1  0.40270000  0.56650000  0.53810000  1.0 -0.2102377887
C  C182  1  0.90270000  0.43350000  0.96190000  1.0 -0.2102377887
C  C183  1  0.59730000  0.06650000  0.46190000  1.0 -0.2102377887
C  C184  1  0.09730000  0.93350000  0.03810000  1.0 -0.2102377887
C  C185  1  0.75710000  0.43410000  0.48660000  1.0 0.082048056
C  C186  1  0.25710000  0.56590000  0.01340000  1.0 0.082048056
C  C187  1  0.24290000  0.93410000  0.51340000  1.0 0.082048056
C  C188  1  0.74290000  0.06590000  0.98660000  1.0 0.082048056
C  C189  1  0.24290000  0.56590000  0.51340000  1.0 0.082048056
C  C190  1  0.74290000  0.43410000  0.98660000  1.0 0.082048056
C  C191  1  0.75710000  0.06590000  0.48660000  1.0 0.082048056
C  C192  1  0.25710000  0.93410000  0.01340000  1.0 0.082048056
C  C193  1  0.75180000  0.39510000  0.47530000  1.0 -0.1699606043
C  C194  1  0.25180000  0.60490000  0.02470000  1.0 -0.1699606043
C  C195  1  0.24820000  0.89510000  0.52470000  1.0 -0.1699606043
C  C196  1  0.74820000  0.10490000  0.97530000  1.0 -0.1699606043
C  C197  1  0.24820000  0.60490000  0.52470000  1.0 -0.1699606043
C  C198  1  0.74820000  0.39510000  0.97530000  1.0 -0.1699606043
C  C199  1  0.75180000  0.10490000  0.47530000  1.0 -0.1699606043
C  C200  1  0.25180000  0.89510000  0.02470000  1.0 -0.1699606043
C  C201  1  0.78230000  0.36560000  0.49690000  1.0 -0.088803392
C  C202  1  0.28230000  0.63440000  0.00310000  1.0 -0.088803392
C  C203  1  0.21770000  0.86560000  0.50310000  1.0 -0.088803392
C  C204  1  0.71770000  0.13440000  0.99690000  1.0 -0.088803392
C  C205  1  0.21770000  0.63440000  0.50310000  1.0 -0.088803392
C  C206  1  0.71770000  0.36560000  0.99690000  1.0 -0.088803392
C  C207  1  0.78230000  0.13440000  0.49690000  1.0 -0.088803392
C  C208  1  0.28230000  0.86560000  0.00310000  1.0 -0.088803392
C  C209  1  0.81810000  0.37510000  0.52970000  1.0 -0.0612133632
C  C210  1  0.31810000  0.62490000  0.97030000  1.0 -0.0612133632
C  C211  1  0.18190000  0.87510000  0.47030000  1.0 -0.0612133632
C  C212  1  0.68190000  0.12490000  0.02970000  1.0 -0.0612133632
C  C213  1  0.18190000  0.62490000  0.47030000  1.0 -0.0612133632
C  C214  1  0.68190000  0.37510000  0.02970000  1.0 -0.0612133632
C  C215  1  0.81810000  0.12490000  0.52970000  1.0 -0.0612133632
C  C216  1  0.31810000  0.87510000  0.97030000  1.0 -0.0612133632
C  C217  1  0.82350000  0.41410000  0.54100000  1.0 -0.088803392
C  C218  1  0.32350000  0.58590000  0.95900000  1.0 -0.088803392
C  C219  1  0.17650000  0.91410000  0.45900000  1.0 -0.088803392
C  C220  1  0.67650000  0.08590000  0.04100000  1.0 -0.088803392
C  C221  1  0.17650000  0.58590000  0.45900000  1.0 -0.088803392
C  C222  1  0.67650000  0.41410000  0.04100000  1.0 -0.088803392
C  C223  1  0.82350000  0.08590000  0.54100000  1.0 -0.088803392
C  C224  1  0.32350000  0.91410000  0.95900000  1.0 -0.088803392
C  C225  1  0.79300000  0.44360000  0.51940000  1.0 -0.1699606043
C  C226  1  0.29300000  0.55640000  0.98060000  1.0 -0.1699606043
C  C227  1  0.20700000  0.94360000  0.48060000  1.0 -0.1699606043
C  C228  1  0.70700000  0.05640000  0.01940000  1.0 -0.1699606043
C  C229  1  0.20700000  0.55640000  0.48060000  1.0 -0.1699606043
C  C230  1  0.70700000  0.44360000  0.01940000  1.0 -0.1699606043
C  C231  1  0.79300000  0.05640000  0.51940000  1.0 -0.1699606043
C  C232  1  0.29300000  0.94360000  0.98060000  1.0 -0.1699606043
C  C233  1  0.73950000  0.52700000  0.43280000  1.0 -0.0383690635
C  C234  1  0.23950000  0.47300000  0.06720000  1.0 -0.0383690635
C  C235  1  0.26050000  0.02700000  0.56720000  1.0 -0.0383690635
C  C236  1  0.76050000  0.97300000  0.93280000  1.0 -0.0383690635
C  C237  1  0.26050000  0.47300000  0.56720000  1.0 -0.0383690635
C  C238  1  0.76050000  0.52700000  0.93280000  1.0 -0.0383690635
C  C239  1  0.73950000  0.97300000  0.43280000  1.0 -0.0383690635
C  C240  1  0.23950000  0.02700000  0.06720000  1.0 -0.0383690635
C  C241  1  0.76810000  0.49560000  0.45270000  1.0 -0.1988268166
C  C242  1  0.26810000  0.50440000  0.04730000  1.0 -0.1988268166
C  C243  1  0.23190000  0.99560000  0.54730000  1.0 -0.1988268166
C  C244  1  0.73190000  0.00440000  0.95270000  1.0 -0.1988268166
C  C245  1  0.23190000  0.50440000  0.54730000  1.0 -0.1988268166
C  C246  1  0.73190000  0.49560000  0.95270000  1.0 -0.1988268166
C  C247  1  0.76810000  0.00440000  0.45270000  1.0 -0.1988268166
C  C248  1  0.26810000  0.99560000  0.04730000  1.0 -0.1988268166
C  C249  1  0.72540000  0.46410000  0.46300000  1.0 -0.0127652119
C  C250  1  0.22540000  0.53590000  0.03700000  1.0 -0.0127652119
C  C251  1  0.27460000  0.96410000  0.53700000  1.0 -0.0127652119
C  C252  1  0.77460000  0.03590000  0.96300000  1.0 -0.0127652119
C  C253  1  0.27460000  0.53590000  0.53700000  1.0 -0.0127652119
C  C254  1  0.77460000  0.46410000  0.96300000  1.0 -0.0127652119
C  C255  1  0.72540000  0.03590000  0.46300000  1.0 -0.0127652119
C  C256  1  0.22540000  0.96410000  0.03700000  1.0 -0.0127652119
C  C257  1  0.65410000  0.46410000  0.45350000  1.0 0.033592559
C  C258  1  0.15410000  0.53590000  0.04650000  1.0 0.033592559
C  C259  1  0.34590000  0.96410000  0.54650000  1.0 0.033592559
C  C260  1  0.84590000  0.03590000  0.95350000  1.0 0.033592559
C  C261  1  0.34590000  0.53590000  0.54650000  1.0 0.033592559
C  C262  1  0.84590000  0.46410000  0.95350000  1.0 0.033592559
C  C263  1  0.65410000  0.03590000  0.45350000  1.0 0.033592559
C  C264  1  0.15410000  0.96410000  0.04650000  1.0 0.033592559
C  C265  1  0.62550000  0.49540000  0.43360000  1.0 -0.0796951938
C  C266  1  0.12550000  0.50460000  0.06640000  1.0 -0.0796951938
C  C267  1  0.37450000  0.99540000  0.56640000  1.0 -0.0796951938
C  C268  1  0.87450000  0.00460000  0.93360000  1.0 -0.0796951938
C  C269  1  0.37450000  0.50460000  0.56640000  1.0 -0.0796951938
C  C270  1  0.87450000  0.49540000  0.93360000  1.0 -0.0796951938
C  C271  1  0.62550000  0.00460000  0.43360000  1.0 -0.0796951938
C  C272  1  0.12550000  0.99540000  0.06640000  1.0 -0.0796951938
C  C273  1  0.66820000  0.52690000  0.42330000  1.0 0.1281883639
C  C274  1  0.16820000  0.47310000  0.07670000  1.0 0.1281883639
C  C275  1  0.33180000  0.02690000  0.57670000  1.0 0.1281883639
C  C276  1  0.83180000  0.97310000  0.92330000  1.0 0.1281883639
C  C277  1  0.33180000  0.47310000  0.57670000  1.0 0.1281883639
C  C278  1  0.83180000  0.52690000  0.92330000  1.0 0.1281883639
C  C279  1  0.66820000  0.97310000  0.42330000  1.0 0.1281883639
C  C280  1  0.16820000  0.02690000  0.07670000  1.0 0.1281883639
C  C281  1  0.85700000  0.34580000  0.55230000  1.0 0.6410833898
C  C282  1  0.35700000  0.65420000  0.94770000  1.0 0.6410833898
C  C283  1  0.14300000  0.84580000  0.44770000  1.0 0.6410833898
C  C284  1  0.64300000  0.15420000  0.05230000  1.0 0.6410833898
C  C285  1  0.14300000  0.65420000  0.44770000  1.0 0.6410833898
C  C286  1  0.64300000  0.34580000  0.05230000  1.0 0.6410833898
C  C287  1  0.85700000  0.15420000  0.55230000  1.0 0.6410833898
C  C288  1  0.35700000  0.84580000  0.94770000  1.0 0.6410833898
C  C289  1  0.92600000  0.65730000  0.39720000  1.0 0.6185806806
C  C290  1  0.42600000  0.34270000  0.10280000  1.0 0.6185806806
C  C291  1  0.07400000  0.15730000  0.60280000  1.0 0.6185806806
C  C292  1  0.57400000  0.84270000  0.89720000  1.0 0.6185806806
C  C293  1  0.07400000  0.34270000  0.60280000  1.0 0.6185806806
C  C294  1  0.57400000  0.65730000  0.89720000  1.0 0.6185806806
C  C295  1  0.92600000  0.84270000  0.39720000  1.0 0.6185806806
C  C296  1  0.42600000  0.15730000  0.10280000  1.0 0.6185806806
C  C297  1  0.50000000  0.52660000  0.44460000  1.0 -0.2462363203
C  C298  1  0.00000000  0.47340000  0.05540000  1.0 -0.2462363203
C  C299  1  0.50000000  0.02660000  0.55540000  1.0 -0.2462363203
C  C300  1  0.00000000  0.97340000  0.94460000  1.0 -0.2462363203
C  C301  1  0.50000000  0.47340000  0.55540000  1.0 -0.2462363203
C  C302  1  0.00000000  0.52660000  0.94460000  1.0 -0.2462363203
C  C303  1  0.50000000  0.97340000  0.44460000  1.0 -0.2462363203
C  C304  1  0.00000000  0.02660000  0.05540000  1.0 -0.2462363203
C  C305  1  0.46370000  0.54950000  0.41640000  1.0 -0.2235436976
C  C306  1  0.96370000  0.45050000  0.08360000  1.0 -0.2235436976
C  C307  1  0.53630000  0.04950000  0.58360000  1.0 -0.2235436976
C  C308  1  0.03630000  0.95050000  0.91640000  1.0 -0.2235436976
C  C309  1  0.53630000  0.45050000  0.58360000  1.0 -0.2235436976
C  C310  1  0.03630000  0.54950000  0.91640000  1.0 -0.2235436976
C  C311  1  0.46370000  0.95050000  0.41640000  1.0 -0.2235436976
C  C312  1  0.96370000  0.04950000  0.08360000  1.0 -0.2235436976
C  C313  1  0.65100000  0.55400000  0.36260000  1.0 -0.0612133632
C  C314  1  0.15100000  0.44600000  0.13740000  1.0 -0.0612133632
C  C315  1  0.34900000  0.05400000  0.63740000  1.0 -0.0612133632
C  C316  1  0.84900000  0.94600000  0.86260000  1.0 -0.0612133632
C  C317  1  0.34900000  0.44600000  0.63740000  1.0 -0.0612133632
C  C318  1  0.84900000  0.55400000  0.86260000  1.0 -0.0612133632
C  C319  1  0.65100000  0.94600000  0.36260000  1.0 -0.0612133632
C  C320  1  0.15100000  0.05400000  0.13740000  1.0 -0.0612133632
C  C321  1  0.87590000  0.62290000  0.40510000  1.0 -0.0243623738
C  C322  1  0.37590000  0.37710000  0.09490000  1.0 -0.0243623738
C  C323  1  0.12410000  0.12290000  0.59490000  1.0 -0.0243623738
C  C324  1  0.62410000  0.87710000  0.90510000  1.0 -0.0243623738
C  C325  1  0.12410000  0.37710000  0.59490000  1.0 -0.0243623738
C  C326  1  0.62410000  0.62290000  0.90510000  1.0 -0.0243623738
C  C327  1  0.87590000  0.87710000  0.40510000  1.0 -0.0243623738
C  C328  1  0.37590000  0.12290000  0.09490000  1.0 -0.0243623738
C  C329  1  0.89740000  0.58410000  0.40080000  1.0 -0.0994526752
C  C330  1  0.39740000  0.41590000  0.09920000  1.0 -0.0994526752
C  C331  1  0.10260000  0.08410000  0.59920000  1.0 -0.0994526752
C  C332  1  0.60260000  0.91590000  0.90080000  1.0 -0.0994526752
C  C333  1  0.10260000  0.41590000  0.59920000  1.0 -0.0994526752
C  C334  1  0.60260000  0.58410000  0.90080000  1.0 -0.0994526752
C  C335  1  0.89740000  0.91590000  0.40080000  1.0 -0.0994526752
C  C336  1  0.39740000  0.08410000  0.09920000  1.0 -0.0994526752
C  C337  1  0.85130000  0.55370000  0.40970000  1.0 -0.1775253114
C  C338  1  0.35130000  0.44630000  0.09030000  1.0 -0.1775253114
C  C339  1  0.14870000  0.05370000  0.59030000  1.0 -0.1775253114
C  C340  1  0.64870000  0.94630000  0.90970000  1.0 -0.1775253114
C  C341  1  0.14870000  0.44630000  0.59030000  1.0 -0.1775253114
C  C342  1  0.64870000  0.55370000  0.90970000  1.0 -0.1775253114
C  C343  1  0.85130000  0.94630000  0.40970000  1.0 -0.1775253114
C  C344  1  0.35130000  0.05370000  0.09030000  1.0 -0.1775253114
C  C345  1  0.78370000  0.56200000  0.42280000  1.0 0.082048056
C  C346  1  0.28370000  0.43800000  0.07720000  1.0 0.082048056
C  C347  1  0.21630000  0.06200000  0.57720000  1.0 0.082048056
C  C348  1  0.71630000  0.93800000  0.92280000  1.0 0.082048056
C  C349  1  0.21630000  0.43800000  0.57720000  1.0 0.082048056
C  C350  1  0.71630000  0.56200000  0.92280000  1.0 0.082048056
C  C351  1  0.78370000  0.93800000  0.42280000  1.0 0.082048056
C  C352  1  0.28370000  0.06200000  0.07720000  1.0 0.082048056
C  C353  1  0.76220000  0.60090000  0.42710000  1.0 -0.1699606043
C  C354  1  0.26220000  0.39910000  0.07290000  1.0 -0.1699606043
C  C355  1  0.23780000  0.10090000  0.57290000  1.0 -0.1699606043
C  C356  1  0.73780000  0.89910000  0.92710000  1.0 -0.1699606043
C  C357  1  0.23780000  0.39910000  0.57290000  1.0 -0.1699606043
C  C358  1  0.73780000  0.60090000  0.92710000  1.0 -0.1699606043
C  C359  1  0.76220000  0.89910000  0.42710000  1.0 -0.1699606043
C  C360  1  0.26220000  0.10090000  0.07290000  1.0 -0.1699606043
C  C361  1  0.80830000  0.63130000  0.41820000  1.0 -0.0994526752
C  C362  1  0.30830000  0.36870000  0.08180000  1.0 -0.0994526752
C  C363  1  0.19170000  0.13130000  0.58180000  1.0 -0.0994526752
C  C364  1  0.69170000  0.86870000  0.91820000  1.0 -0.0994526752
C  C365  1  0.19170000  0.36870000  0.58180000  1.0 -0.0994526752
C  C366  1  0.69170000  0.63130000  0.91820000  1.0 -0.0994526752
C  C367  1  0.80830000  0.86870000  0.41820000  1.0 -0.0994526752
C  C368  1  0.30830000  0.13130000  0.08180000  1.0 -0.0994526752
C  C369  1  0.62300000  0.58920000  0.33990000  1.0 -0.0707589165
C  C370  1  0.12300000  0.41080000  0.16010000  1.0 -0.0707589165
C  C371  1  0.37700000  0.08920000  0.66010000  1.0 -0.0707589165
C  C372  1  0.87700000  0.91080000  0.83990000  1.0 -0.0707589165
C  C373  1  0.37700000  0.41080000  0.66010000  1.0 -0.0707589165
C  C374  1  0.87700000  0.58920000  0.83990000  1.0 -0.0707589165
C  C375  1  0.62300000  0.91080000  0.33990000  1.0 -0.0707589165
C  C376  1  0.12300000  0.08920000  0.16010000  1.0 -0.0707589165
C  C377  1  0.63690000  0.43310000  0.34910000  1.0 -0.0612133632
C  C378  1  0.13690000  0.56690000  0.15090000  1.0 -0.0612133632
C  C379  1  0.36310000  0.93310000  0.65090000  1.0 -0.0612133632
C  C380  1  0.86310000  0.06690000  0.84910000  1.0 -0.0612133632
C  C381  1  0.36310000  0.56690000  0.65090000  1.0 -0.0612133632
C  C382  1  0.86310000  0.43310000  0.84910000  1.0 -0.0612133632
C  C383  1  0.63690000  0.06690000  0.34910000  1.0 -0.0612133632
C  C384  1  0.13690000  0.93310000  0.15090000  1.0 -0.0612133632
C  C385  1  0.61700000  0.55220000  0.27840000  1.0 -0.0796951938
C  C386  1  0.11700000  0.44780000  0.22160000  1.0 -0.0796951938
C  C387  1  0.38300000  0.05220000  0.72160000  1.0 -0.0796951938
C  C388  1  0.88300000  0.94780000  0.77840000  1.0 -0.0796951938
C  C389  1  0.38300000  0.44780000  0.72160000  1.0 -0.0796951938
C  C390  1  0.88300000  0.55220000  0.77840000  1.0 -0.0796951938
C  C391  1  0.61700000  0.94780000  0.27840000  1.0 -0.0796951938
C  C392  1  0.11700000  0.05220000  0.22160000  1.0 -0.0796951938
C  C393  1  0.76100000  0.39560000  0.31720000  1.0 -0.0707589165
C  C394  1  0.26100000  0.60440000  0.18280000  1.0 -0.0707589165
C  C395  1  0.23900000  0.89560000  0.68280000  1.0 -0.0796951938
C  C396  1  0.73900000  0.10440000  0.81720000  1.0 -0.0707589165
C  C397  1  0.23900000  0.60440000  0.68280000  1.0 -0.0796951938
C  C398  1  0.73900000  0.39560000  0.81720000  1.0 -0.0707589165
C  C399  1  0.76100000  0.10440000  0.31720000  1.0 -0.0707589165
C  C400  1  0.26100000  0.89560000  0.18280000  1.0 -0.0707589165
C  C401  1  0.73500000  0.40620000  0.27700000  1.0 -0.0707589165
C  C402  1  0.23500000  0.59380000  0.22300000  1.0 -0.0707589165
C  C403  1  0.26500000  0.90620000  0.72300000  1.0 -0.0707589165
C  C404  1  0.76500000  0.09380000  0.77700000  1.0 -0.0707589165
C  C405  1  0.26500000  0.59380000  0.72300000  1.0 -0.0707589165
C  C406  1  0.76500000  0.40620000  0.77700000  1.0 -0.0707589165
C  C407  1  0.73500000  0.09380000  0.27700000  1.0 -0.0707589165
C  C408  1  0.23500000  0.90620000  0.22300000  1.0 -0.0707589165
C  C409  1  0.67000000  0.52420000  0.25890000  1.0 -0.0519448242
C  C410  1  0.17000000  0.47580000  0.24110000  1.0 -0.0612133632
C  C411  1  0.33000000  0.02420000  0.74110000  1.0 -0.0612133632
C  C412  1  0.83000000  0.97580000  0.75890000  1.0 -0.0519448242
C  C413  1  0.33000000  0.47580000  0.74110000  1.0 -0.0612133632
C  C414  1  0.83000000  0.52420000  0.75890000  1.0 -0.0519448242
C  C415  1  0.67000000  0.97580000  0.25890000  1.0 -0.0612133632
C  C416  1  0.17000000  0.02420000  0.24110000  1.0 -0.0612133632
C  C417  1  0.79600000  0.50450000  0.28500000  1.0 -0.0612133632
C  C418  1  0.29600000  0.49550000  0.21500000  1.0 -0.0612133632
C  C419  1  0.20400000  0.00450000  0.71500000  1.0 -0.0612133632
C  C420  1  0.70400000  0.99550000  0.78500000  1.0 -0.0612133632
C  C421  1  0.20400000  0.49550000  0.71500000  1.0 -0.0612133632
C  C422  1  0.70400000  0.50450000  0.78500000  1.0 -0.0612133632
C  C423  1  0.79600000  0.99550000  0.28500000  1.0 -0.0612133632
C  C424  1  0.29600000  0.00450000  0.21500000  1.0 -0.0612133632
C  C425  1  0.80660000  0.46320000  0.26810000  1.0 -0.0707589165
C  C426  1  0.30660000  0.53680000  0.23190000  1.0 -0.0707589165
C  C427  1  0.19340000  0.96320000  0.73190000  1.0 -0.0707589165
C  C428  1  0.69340000  0.03680000  0.76810000  1.0 -0.0707589165
C  C429  1  0.19340000  0.53680000  0.73190000  1.0 -0.0707589165
C  C430  1  0.69340000  0.46320000  0.76810000  1.0 -0.0707589165
C  C431  1  0.80660000  0.03680000  0.26810000  1.0 -0.0707589165
C  C432  1  0.30660000  0.96320000  0.23190000  1.0 -0.0707589165
C  C433  1  0.71160000  0.44640000  0.35890000  1.0 -0.0707589165
C  C434  1  0.21160000  0.55360000  0.14110000  1.0 -0.0707589165
C  C435  1  0.28840000  0.94640000  0.64110000  1.0 -0.0707589165
C  C436  1  0.78840000  0.05360000  0.85890000  1.0 -0.0707589165
C  C437  1  0.28840000  0.55360000  0.64110000  1.0 -0.0707589165
C  C438  1  0.78840000  0.44640000  0.85890000  1.0 -0.0707589165
C  C439  1  0.71160000  0.05360000  0.35890000  1.0 -0.0707589165
C  C440  1  0.21160000  0.94640000  0.14110000  1.0 -0.0707589165
O  O1  1  0.54210000  0.35550000  0.18330000  1.0 -0.6011912299
O  O2  1  0.04210000  0.64450000  0.31670000  1.0 -0.6011912299
O  O3  1  0.45790000  0.85550000  0.81670000  1.0 -0.6011912299
O  O4  1  0.95790000  0.14450000  0.68330000  1.0 -0.6011912299
O  O5  1  0.45790000  0.64450000  0.81670000  1.0 -0.6011912299
O  O6  1  0.95790000  0.35550000  0.68330000  1.0 -0.6011912299
O  O7  1  0.54210000  0.14450000  0.18330000  1.0 -0.6011912299
O  O8  1  0.04210000  0.85550000  0.31670000  1.0 -0.6011912299
O  O9  1  0.57650000  0.43450000  0.36980000  1.0 -0.2102377887
O  O10  1  0.07650000  0.56550000  0.13020000  1.0 -0.2102377887
O  O11  1  0.42350000  0.93450000  0.63020000  1.0 -0.2102377887
O  O12  1  0.92350000  0.06550000  0.86980000  1.0 -0.2102377887
O  O13  1  0.42350000  0.56550000  0.63020000  1.0 -0.2102377887
O  O14  1  0.92350000  0.43450000  0.86980000  1.0 -0.2102377887
O  O15  1  0.57650000  0.06550000  0.36980000  1.0 -0.2102377887
O  O16  1  0.07650000  0.93450000  0.13020000  1.0 -0.2102377887
O  O17  1  0.90700000  0.69000000  0.40280000  1.0 -0.5818276805
O  O18  1  0.40700000  0.31000000  0.09720000  1.0 -0.5818276805
O  O19  1  0.09300000  0.19000000  0.59720000  1.0 -0.5818276805
O  O20  1  0.59300000  0.81000000  0.90280000  1.0 -0.5818276805
O  O21  1  0.09300000  0.31000000  0.59720000  1.0 -0.5818276805
O  O22  1  0.59300000  0.69000000  0.90280000  1.0 -0.5818276805
O  O23  1  0.90700000  0.81000000  0.40280000  1.0 -0.5818276805
O  O24  1  0.40700000  0.19000000  0.09720000  1.0 -0.5818276805
O  O25  1  0.51870000  0.31000000  0.22570000  1.0 -0.5818276805
O  O26  1  0.01870000  0.69000000  0.27430000  1.0 -0.5865680498
O  O27  1  0.48130000  0.81000000  0.77430000  1.0 -0.5818276805
O  O28  1  0.98130000  0.19000000  0.72570000  1.0 -0.5818276805
O  O29  1  0.48130000  0.69000000  0.77430000  1.0 -0.5818276805
O  O30  1  0.98130000  0.31000000  0.72570000  1.0 -0.5818276805
O  O31  1  0.51870000  0.19000000  0.22570000  1.0 -0.5818276805
O  O32  1  0.01870000  0.81000000  0.27430000  1.0 -0.5818276805
O  O33  1  0.98890000  0.64520000  0.38560000  1.0 -0.6271250617
O  O34  1  0.48890000  0.35480000  0.11440000  1.0 -0.6271250617
O  O35  1  0.01110000  0.14520000  0.61440000  1.0 -0.6271250617
O  O36  1  0.51110000  0.85480000  0.88560000  1.0 -0.6271250617
O  O37  1  0.01110000  0.35480000  0.61440000  1.0 -0.6271250617
O  O38  1  0.51110000  0.64520000  0.88560000  1.0 -0.6271250617
O  O39  1  0.98890000  0.85480000  0.38560000  1.0 -0.6271250617
O  O40  1  0.48890000  0.14520000  0.11440000  1.0 -0.6271250617
O  O41  1  0.88460000  0.35550000  0.58300000  1.0 -0.5718578247
O  O42  1  0.38460000  0.64450000  0.91700000  1.0 -0.5718578247
O  O43  1  0.11540000  0.85550000  0.41700000  1.0 -0.5718578247
O  O44  1  0.61540000  0.14450000  0.08300000  1.0 -0.5718578247
O  O45  1  0.11540000  0.64450000  0.41700000  1.0 -0.5718578247
O  O46  1  0.61540000  0.35550000  0.08300000  1.0 -0.5718578247
O  O47  1  0.88460000  0.14450000  0.58300000  1.0 -0.5718578247
O  O48  1  0.38460000  0.85550000  0.91700000  1.0 -0.5718578247
O  O49  1  0.85300000  0.30830000  0.54270000  1.0 -0.6642772081
O  O50  1  0.35300000  0.69170000  0.95730000  1.0 -0.6642772081
O  O51  1  0.14700000  0.80830000  0.45730000  1.0 -0.665401153
O  O52  1  0.64700000  0.19170000  0.04270000  1.0 -0.6642772081
O  O53  1  0.14700000  0.69170000  0.45730000  1.0 -0.6642772081
O  O54  1  0.64700000  0.30830000  0.04270000  1.0 -0.6642772081
O  O55  1  0.85300000  0.19170000  0.54270000  1.0 -0.6642772081
O  O56  1  0.35300000  0.80830000  0.95730000  1.0 -0.665401153
O  O57  1  0.17240000  0.64460000  0.34730000  1.0 -0.5484891382
O  O58  1  0.67240000  0.35540000  0.15270000  1.0 -0.5484891382
O  O59  1  0.82760000  0.14460000  0.65270000  1.0 -0.5484891382
O  O60  1  0.32760000  0.85540000  0.84730000  1.0 -0.5484891382
O  O61  1  0.82760000  0.35540000  0.65270000  1.0 -0.5484891382
O  O62  1  0.32760000  0.64460000  0.84730000  1.0 -0.5484891382
O  O63  1  0.17240000  0.85540000  0.34730000  1.0 -0.5484891382
O  O64  1  0.67240000  0.14460000  0.15270000  1.0 -0.5484891382
O  O65  1  0.63470000  0.55500000  0.40050000  1.0 -0.2102377887
O  O66  1  0.13470000  0.44500000  0.09950000  1.0 -0.2102377887
O  O67  1  0.36530000  0.05500000  0.59950000  1.0 -0.2102377887
O  O68  1  0.86530000  0.94500000  0.90050000  1.0 -0.2102377887
O  O69  1  0.36530000  0.44500000  0.59950000  1.0 -0.2102377887
O  O70  1  0.86530000  0.55500000  0.90050000  1.0 -0.2102377887
O  O71  1  0.63470000  0.94500000  0.40050000  1.0 -0.2102377887
O  O72  1  0.13470000  0.05500000  0.09950000  1.0 -0.2102377887
O  O73  1  0.25420000  0.68970000  0.33300000  1.0 -0.6791207713
O  O74  1  0.75420000  0.31030000  0.16700000  1.0 -0.6791207713
O  O75  1  0.74580000  0.18970000  0.66700000  1.0 -0.6791207713
O  O76  1  0.24580000  0.81030000  0.83300000  1.0 -0.6791207713
O  O77  1  0.74580000  0.31030000  0.66700000  1.0 -0.6791207713
O  O78  1  0.24580000  0.68970000  0.83300000  1.0 -0.6791207713
O  O79  1  0.25420000  0.81030000  0.33300000  1.0 -0.6791207713
O  O80  1  0.75420000  0.18970000  0.16700000  1.0 -0.6791207713
O  O81  1  0.62120000  0.28630000  0.18330000  1.0 -1.1964738888
O  O82  1  0.12120000  0.71370000  0.31670000  1.0 -1.1964738888
O  O83  1  0.37880000  0.78630000  0.81670000  1.0 -1.1964738888
O  O84  1  0.87880000  0.21370000  0.68330000  1.0 -1.1964738888
O  O85  1  0.37880000  0.71370000  0.81670000  1.0 -1.1964738888
O  O86  1  0.87880000  0.28630000  0.68330000  1.0 -1.1964738888
O  O87  1  0.62120000  0.21370000  0.18330000  1.0 -1.1964738888
O  O88  1  0.12120000  0.78630000  0.31670000  1.0 -1.1964738888
O  O89  1  0.53980000  0.28430000  0.08570000  1.0 -1.1701665965
O  O90  1  0.03980000  0.71570000  0.41430000  1.0 -1.1701665965
O  O91  1  0.46020000  0.78430000  0.91430000  1.0 -1.1701665965
O  O92  1  0.96020000  0.21570000  0.58570000  1.0 -1.1701665965
O  O93  1  0.46020000  0.71570000  0.91430000  1.0 -1.1701665965
O  O94  1  0.96020000  0.28430000  0.58570000  1.0 -1.1701665965
O  O95  1  0.53980000  0.21570000  0.08570000  1.0 -1.1701665965
O  O96  1  0.03980000  0.78430000  0.41430000  1.0 -1.1701665965
O  O97  1  0.66840000  0.28660000  0.11460000  1.0 -1.2285566849
O  O98  1  0.16840000  0.71340000  0.38540000  1.0 -1.2285566849
O  O99  1  0.33160000  0.78660000  0.88540000  1.0 -1.2285566849
O  O100  1  0.83160000  0.21340000  0.61460000  1.0 -1.2285566849
O  O101  1  0.33160000  0.71340000  0.88540000  1.0 -1.2285566849
O  O102  1  0.83160000  0.28660000  0.61460000  1.0 -1.2285566849
O  O103  1  0.66840000  0.21340000  0.11460000  1.0 -1.2285566849
O  O104  1  0.16840000  0.78660000  0.38540000  1.0 -1.2285566849
O  O105  1  0.49520000  0.28310000  0.15410000  1.0 -1.1701665965
O  O106  1  0.99520000  0.71690000  0.34590000  1.0 -1.1701665965
O  O107  1  0.50480000  0.78310000  0.84590000  1.0 -1.1701665965
O  O108  1  0.00480000  0.21690000  0.65410000  1.0 -1.1701665965
O  O109  1  0.50480000  0.71690000  0.84590000  1.0 -1.1701665965
O  O110  1  0.00480000  0.28310000  0.65410000  1.0 -1.1701665965
O  O111  1  0.49520000  0.21690000  0.15410000  1.0 -1.1701665965
O  O112  1  0.99520000  0.78310000  0.34590000  1.0 -1.1701665965
O  O113  1  0.63480000  0.58260000  0.30170000  1.0 -0.1455943358
O  O114  1  0.13480000  0.41740000  0.19830000  1.0 -0.1448635083
O  O115  1  0.36520000  0.08260000  0.69830000  1.0 -0.1455943358
O  O116  1  0.86520000  0.91740000  0.80170000  1.0 -0.1455943358
O  O117  1  0.36520000  0.41740000  0.69830000  1.0 -0.1455943358
O  O118  1  0.86520000  0.58260000  0.80170000  1.0 -0.1448635083
O  O119  1  0.63480000  0.91740000  0.30170000  1.0 -0.1455943358
O  O120  1  0.13480000  0.08260000  0.19830000  1.0 -0.1448635083
O  O121  1  0.74100000  0.52400000  0.26680000  1.0 -0.1699606043
O  O122  1  0.24100000  0.47600000  0.23320000  1.0 -0.1699606043
O  O123  1  0.25900000  0.02400000  0.73320000  1.0 -0.1699606043
O  O124  1  0.75900000  0.97600000  0.76680000  1.0 -0.1699606043
O  O125  1  0.25900000  0.47600000  0.73320000  1.0 -0.1699606043
O  O126  1  0.75900000  0.52400000  0.76680000  1.0 -0.1699606043
O  O127  1  0.74100000  0.97600000  0.26680000  1.0 -0.1699606043
O  O128  1  0.24100000  0.02400000  0.23320000  1.0 -0.1699606043
O  O129  1  0.73850000  0.44530000  0.26200000  1.0 -0.2384036811
O  O130  1  0.23850000  0.55470000  0.23800000  1.0 -0.2384036811
O  O131  1  0.26150000  0.94530000  0.73800000  1.0 -0.2384036811
O  O132  1  0.76150000  0.05470000  0.76200000  1.0 -0.2384036811
O  O133  1  0.26150000  0.55470000  0.73800000  1.0 -0.2384036811
O  O134  1  0.76150000  0.44530000  0.76200000  1.0 -0.2384036811
O  O135  1  0.73850000  0.05470000  0.26200000  1.0 -0.2384036811
O  O136  1  0.23850000  0.94530000  0.23800000  1.0 -0.2384036811
O  O137  1  0.77070000  0.42780000  0.34280000  1.0 -0.1935765591
O  O138  1  0.27070000  0.57220000  0.15720000  1.0 -0.1935765591
O  O139  1  0.22930000  0.92780000  0.65720000  1.0 -0.1935765591
O  O140  1  0.72930000  0.07220000  0.84280000  1.0 -0.1935765591
O  O141  1  0.22930000  0.57220000  0.65720000  1.0 -0.1935765591
O  O142  1  0.72930000  0.42780000  0.84280000  1.0 -0.1935765591
O  O143  1  0.77070000  0.07220000  0.34280000  1.0 -0.1935765591
O  O144  1  0.27070000  0.92780000  0.15720000  1.0 -0.1935765591
