# DDEC6 charges by PACMAN v1.1 (https://github.com/mtap-research/PACMAN-charge/)
data_NINDAS_FSR_pacman
_symmetry_space_group_name_H-M   'P 1'
_cell_length_a   22.46800000
_cell_length_b   15.38800000
_cell_length_c   22.68000000
_cell_angle_alpha   90.00000000
_cell_angle_beta   101.37200000
_cell_angle_gamma   90.00000000
_symmetry_Int_Tables_number   1
_chemical_formula_structural   Cd3H140C162(NO22)2
_chemical_formula_sum   'Cd6 H280 C324 N4 O88'
_cell_volume   7687.38471052
_cell_formula_units_Z   2
loop_
 _symmetry_equiv_pos_site_id
 _symmetry_equiv_pos_as_xyz
  1  'x, y, z'
loop_
 _atom_site_type_symbol
 _atom_site_label
 _atom_site_symmetry_multiplicity
 _atom_site_fract_x
 _atom_site_fract_y
 _atom_site_fract_z
 _atom_site_occupancy
 _atom_site_charge
Cd  Cd1  1  0.99780000  0.35328000  0.36925000  1.0 0.8170903579
Cd  Cd2  1  0.00220000  0.64672000  0.63075000  1.0 0.8170903579
Cd  Cd3  1  0.00000000  0.50000000  0.50000000  1.0 1.0744104639
Cd  Cd4  1  0.00220000  0.85328000  0.13075000  1.0 0.8170903579
Cd  Cd5  1  0.99780000  0.14672000  0.86925000  1.0 0.8170903579
Cd  Cd6  1  0.00000000  0.00000000  0.00000000  1.0 1.0761442438
H  H1  1  0.57700000  0.00380000  0.42340000  1.0 0.1200827063
H  H2  1  0.56190000  0.83960000  0.25200000  1.0 0.1200827063
H  H3  1  0.70660000  0.75940000  0.26740000  1.0 0.1289585546
H  H4  1  0.64060000  0.73590000  0.27470000  1.0 0.1200827063
H  H5  1  0.65120000  0.81250000  0.23240000  1.0 0.1200827063
H  H6  1  0.46430000  0.85520000  0.18360000  1.0 0.1117221593
H  H7  1  0.46860000  0.78860000  0.23680000  1.0 0.1117221593
H  H8  1  0.37440000  0.83210000  0.11070000  1.0 0.1200827063
H  H9  1  0.27230000  0.80050000  0.08420000  1.0 0.1200827063
H  H10  1  0.26560000  0.77340000  0.25750000  1.0 0.1200827063
H  H11  1  0.36540000  0.81190000  0.28430000  1.0 0.1200827063
H  H12  1  0.44360000  0.04190000  0.32240000  1.0 0.101689015
H  H13  1  0.50170000  0.06820000  0.44330000  1.0 0.0892290221
H  H14  1  0.43920000  0.11190000  0.41620000  1.0 0.0892290221
H  H15  1  0.51830000  0.20890000  0.41170000  1.0 0.1200827063
H  H16  1  0.54660000  0.14250000  0.37260000  1.0 0.1117221593
H  H17  1  0.48420000  0.18660000  0.34630000  1.0 0.1117221593
H  H18  1  0.26750000  0.94790000  0.37000000  1.0 0.1289585546
H  H19  1  0.46580000  0.84960000  0.40320000  1.0 0.1200827063
H  H20  1  0.28680000  0.16510000  0.33980000  1.0 0.1200827063
H  H21  1  0.25460000  0.07440000  0.33600000  1.0 0.1200827063
H  H22  1  0.28850000  0.11020000  0.39830000  1.0 0.1289585546
H  H23  1  0.20970000  0.85090000  0.41860000  1.0 0.1200827063
H  H24  1  0.20540000  0.83930000  0.34890000  1.0 0.1117221593
H  H25  1  0.17410000  0.73210000  0.47670000  1.0 0.1200827063
H  H26  1  0.11300000  0.61080000  0.47500000  1.0 0.1200827063
H  H27  1  0.10780000  0.58440000  0.29920000  1.0 0.1289585546
H  H28  1  0.16760000  0.70660000  0.30150000  1.0 0.1200827063
H  H29  1  0.36350000  0.68160000  0.39030000  1.0 0.101689015
H  H30  1  0.33980000  0.71910000  0.48570000  1.0 0.0892290221
H  H31  1  0.40940000  0.71220000  0.51340000  1.0 0.0836533512
H  H32  1  0.36190000  0.58090000  0.52750000  1.0 0.1117221593
H  H33  1  0.33850000  0.57200000  0.45800000  1.0 0.1289585546
H  H34  1  0.40810000  0.56500000  0.48510000  1.0 0.1200827063
H  H35  1  0.52640000  0.58740000  0.32010000  1.0 0.1289585546
H  H36  1  0.50060000  0.71310000  0.49720000  1.0 0.1200827063
H  H37  1  0.38250000  0.60280000  0.23250000  1.0 0.1387362995
H  H38  1  0.45140000  0.62790000  0.24400000  1.0 0.1200827063
H  H39  1  0.43120000  0.54020000  0.26910000  1.0 0.1200827063
H  H40  1  0.61520000  0.51510000  0.33130000  1.0 0.1117221593
H  H41  1  0.63310000  0.61200000  0.32160000  1.0 0.101689015
H  H42  1  0.70650000  0.52210000  0.27060000  1.0 0.1200827063
H  H43  1  0.80610000  0.47560000  0.28180000  1.0 0.1200827063
H  H44  1  0.82690000  0.49970000  0.45970000  1.0 0.1117221593
H  H45  1  0.72750000  0.54440000  0.44900000  1.0 0.1200827063
H  H46  1  0.63420000  0.59640000  0.51330000  1.0 0.101689015
H  H47  1  0.57700000  0.72350000  0.57260000  1.0 0.0892290221
H  H48  1  0.63650000  0.67590000  0.60380000  1.0 0.0836533512
H  H49  1  0.55390000  0.61260000  0.63280000  1.0 0.1117221593
H  H50  1  0.52460000  0.59270000  0.56550000  1.0 0.1200827063
H  H51  1  0.58420000  0.54470000  0.59640000  1.0 0.1289585546
H  H52  1  0.81320000  0.74500000  0.54170000  1.0 0.1387362995
H  H53  1  0.61400000  0.80550000  0.45080000  1.0 0.1117221593
H  H54  1  0.79820000  0.54070000  0.59910000  1.0 0.1289585546
H  H55  1  0.80990000  0.58100000  0.53900000  1.0 0.1117221593
H  H56  1  0.82350000  0.63560000  0.59850000  1.0 0.1200827063
H  H57  1  0.85890000  0.89720000  0.55250000  1.0 0.101689015
H  H58  1  0.88220000  0.83720000  0.50550000  1.0 0.0892290221
H  H59  1  0.71820000  0.93860000  0.39990000  1.0 0.101689015
H  H60  1  0.72800000  0.00500000  0.49730000  1.0 0.0836533512
H  H61  1  0.65720000  0.01370000  0.48520000  1.0 0.0836533512
H  H62  1  0.69990000  0.14560000  0.46180000  1.0 0.1200827063
H  H63  1  0.73150000  0.09810000  0.41510000  1.0 0.1289585546
H  H64  1  0.66060000  0.10670000  0.40290000  1.0 0.1117221593
H  H65  1  0.17010000  0.24740000  0.66260000  1.0 0.1387362995
H  H66  1  0.16600000  0.23280000  0.59360000  1.0 0.1387362995
H  H67  1  0.18740000  0.32280000  0.62270000  1.0 0.1289585546
H  H68  1  0.10010000  0.34960000  0.53340000  1.0 0.1200827063
H  H69  1  0.12980000  0.72890000  0.17650000  1.0 0.3299111381
H  H70  1  0.66090000  0.74950000  0.53920000  1.0 0.101689015
H  H71  1  0.42300000  0.99620000  0.57660000  1.0 0.1200827063
H  H72  1  0.43810000  0.16040000  0.74800000  1.0 0.1200827063
H  H73  1  0.29340000  0.24060000  0.73260000  1.0 0.1289585546
H  H74  1  0.35940000  0.26410000  0.72530000  1.0 0.1200827063
H  H75  1  0.34880000  0.18750000  0.76760000  1.0 0.1200827063
H  H76  1  0.53570000  0.14480000  0.81640000  1.0 0.1117221593
H  H77  1  0.53140000  0.21140000  0.76320000  1.0 0.1117221593
H  H78  1  0.62560000  0.16790000  0.88930000  1.0 0.1200827063
H  H79  1  0.72770000  0.19950000  0.91580000  1.0 0.1200827063
H  H80  1  0.73440000  0.22660000  0.74250000  1.0 0.1200827063
H  H81  1  0.63460000  0.18810000  0.71570000  1.0 0.1200827063
H  H82  1  0.55640000  0.95810000  0.67760000  1.0 0.101689015
H  H83  1  0.49830000  0.93180000  0.55670000  1.0 0.0892290221
H  H84  1  0.56080000  0.88810000  0.58380000  1.0 0.0892290221
H  H85  1  0.48170000  0.79110000  0.58830000  1.0 0.1200827063
H  H86  1  0.45340000  0.85750000  0.62740000  1.0 0.1117221593
H  H87  1  0.51580000  0.81340000  0.65370000  1.0 0.1117221593
H  H88  1  0.73250000  0.05210000  0.63000000  1.0 0.1289585546
H  H89  1  0.53420000  0.15040000  0.59680000  1.0 0.1200827063
H  H90  1  0.71320000  0.83490000  0.66020000  1.0 0.1200827063
H  H91  1  0.74540000  0.92560000  0.66400000  1.0 0.1200827063
H  H92  1  0.71150000  0.88980000  0.60170000  1.0 0.1289585546
H  H93  1  0.79030000  0.14910000  0.58140000  1.0 0.1200827063
H  H94  1  0.79460000  0.16070000  0.65110000  1.0 0.1117221593
H  H95  1  0.82590000  0.26790000  0.52330000  1.0 0.1200827063
H  H96  1  0.88700000  0.38920000  0.52500000  1.0 0.1200827063
H  H97  1  0.89220000  0.41560000  0.70080000  1.0 0.1289585546
H  H98  1  0.83240000  0.29340000  0.69850000  1.0 0.1200827063
H  H99  1  0.63650000  0.31840000  0.60970000  1.0 0.101689015
H  H100  1  0.66020000  0.28090000  0.51430000  1.0 0.0892290221
H  H101  1  0.59060000  0.28780000  0.48660000  1.0 0.0836533512
H  H102  1  0.63810000  0.41910000  0.47250000  1.0 0.1117221593
H  H103  1  0.66150000  0.42800000  0.54200000  1.0 0.1289585546
H  H104  1  0.59190000  0.43500000  0.51490000  1.0 0.1200827063
H  H105  1  0.47360000  0.41260000  0.67990000  1.0 0.1289585546
H  H106  1  0.49940000  0.28690000  0.50280000  1.0 0.1200827063
H  H107  1  0.61750000  0.39720000  0.76750000  1.0 0.1387362995
H  H108  1  0.54860000  0.37210000  0.75600000  1.0 0.1200827063
H  H109  1  0.56880000  0.45980000  0.73090000  1.0 0.1200827063
H  H110  1  0.38480000  0.48490000  0.66870000  1.0 0.1117221593
H  H111  1  0.36690000  0.38800000  0.67840000  1.0 0.101689015
H  H112  1  0.29350000  0.47790000  0.72940000  1.0 0.1200827063
H  H113  1  0.19390000  0.52440000  0.71820000  1.0 0.1200827063
H  H114  1  0.17310000  0.50030000  0.54030000  1.0 0.1117221593
H  H115  1  0.27250000  0.45560000  0.55100000  1.0 0.1200827063
H  H116  1  0.36580000  0.40360000  0.48670000  1.0 0.101689015
H  H117  1  0.42300000  0.27650000  0.42740000  1.0 0.0892290221
H  H118  1  0.36350000  0.32410000  0.39620000  1.0 0.0836533512
H  H119  1  0.44610000  0.38740000  0.36720000  1.0 0.1117221593
H  H120  1  0.47540000  0.40730000  0.43450000  1.0 0.1200827063
H  H121  1  0.41580000  0.45530000  0.40360000  1.0 0.1289585546
H  H122  1  0.18680000  0.25500000  0.45830000  1.0 0.1387362995
H  H123  1  0.38600000  0.19450000  0.54920000  1.0 0.1117221593
H  H124  1  0.20180000  0.45930000  0.40090000  1.0 0.1289585546
H  H125  1  0.19010000  0.41900000  0.46100000  1.0 0.1117221593
H  H126  1  0.17650000  0.36440000  0.40150000  1.0 0.1200827063
H  H127  1  0.14110000  0.10280000  0.44750000  1.0 0.101689015
H  H128  1  0.11780000  0.16280000  0.49450000  1.0 0.0892290221
H  H129  1  0.28180000  0.06140000  0.60010000  1.0 0.101689015
H  H130  1  0.27200000  0.99500000  0.50270000  1.0 0.0836533512
H  H131  1  0.34280000  0.98630000  0.51480000  1.0 0.0836533512
H  H132  1  0.30010000  0.85440000  0.53820000  1.0 0.1200827063
H  H133  1  0.26850000  0.90190000  0.58490000  1.0 0.1289585546
H  H134  1  0.33940000  0.89330000  0.59710000  1.0 0.1117221593
H  H135  1  0.82990000  0.75260000  0.33740000  1.0 0.1387362995
H  H136  1  0.83400000  0.76720000  0.40640000  1.0 0.1387362995
H  H137  1  0.81260000  0.67720000  0.37730000  1.0 0.1289585546
H  H138  1  0.89990000  0.65040000  0.46660000  1.0 0.1200827063
H  H139  1  0.87020000  0.27110000  0.82350000  1.0 0.3299111381
H  H140  1  0.33910000  0.25050000  0.46080000  1.0 0.101689015
H  H141  1  0.42300000  0.50380000  0.07660000  1.0 0.1200827063
H  H142  1  0.43810000  0.33960000  0.24800000  1.0 0.1200827063
H  H143  1  0.29340000  0.25940000  0.23260000  1.0 0.1289585546
H  H144  1  0.35940000  0.23590000  0.22530000  1.0 0.1200827063
H  H145  1  0.34880000  0.31250000  0.26760000  1.0 0.1200827063
H  H146  1  0.53570000  0.35520000  0.31640000  1.0 0.1117221593
H  H147  1  0.53140000  0.28860000  0.26320000  1.0 0.1117221593
H  H148  1  0.62560000  0.33210000  0.38930000  1.0 0.1200827063
H  H149  1  0.72770000  0.30050000  0.41580000  1.0 0.1200827063
H  H150  1  0.73440000  0.27340000  0.24250000  1.0 0.1200827063
H  H151  1  0.63460000  0.31190000  0.21570000  1.0 0.1200827063
H  H152  1  0.55640000  0.54190000  0.17760000  1.0 0.101689015
H  H153  1  0.49830000  0.56820000  0.05670000  1.0 0.0892290221
H  H154  1  0.56080000  0.61190000  0.08380000  1.0 0.0892290221
H  H155  1  0.48170000  0.70890000  0.08830000  1.0 0.1200827063
H  H156  1  0.45340000  0.64250000  0.12740000  1.0 0.1117221593
H  H157  1  0.51580000  0.68660000  0.15370000  1.0 0.1117221593
H  H158  1  0.73250000  0.44790000  0.13000000  1.0 0.1289585546
H  H159  1  0.53420000  0.34960000  0.09680000  1.0 0.1200827063
H  H160  1  0.71320000  0.66510000  0.16020000  1.0 0.1200827063
H  H161  1  0.74540000  0.57440000  0.16400000  1.0 0.1200827063
H  H162  1  0.71150000  0.61020000  0.10170000  1.0 0.1289585546
H  H163  1  0.79030000  0.35090000  0.08140000  1.0 0.1200827063
H  H164  1  0.79460000  0.33930000  0.15110000  1.0 0.1117221593
H  H165  1  0.82590000  0.23210000  0.02330000  1.0 0.1200827063
H  H166  1  0.88700000  0.11080000  0.02500000  1.0 0.1200827063
H  H167  1  0.89220000  0.08440000  0.20080000  1.0 0.1289585546
H  H168  1  0.83240000  0.20660000  0.19850000  1.0 0.1200827063
H  H169  1  0.63650000  0.18160000  0.10970000  1.0 0.101689015
H  H170  1  0.66020000  0.21910000  0.01430000  1.0 0.0892290221
H  H171  1  0.59060000  0.21220000  0.98660000  1.0 0.0836533512
H  H172  1  0.63810000  0.08090000  0.97250000  1.0 0.1117221593
H  H173  1  0.66150000  0.07200000  0.04200000  1.0 0.1289585546
H  H174  1  0.59190000  0.06500000  0.01490000  1.0 0.1200827063
H  H175  1  0.47360000  0.08740000  0.17990000  1.0 0.1289585546
H  H176  1  0.49940000  0.21310000  0.00280000  1.0 0.1200827063
H  H177  1  0.61750000  0.10280000  0.26750000  1.0 0.1387362995
H  H178  1  0.54860000  0.12790000  0.25600000  1.0 0.1200827063
H  H179  1  0.56880000  0.04020000  0.23090000  1.0 0.1200827063
H  H180  1  0.38480000  0.01510000  0.16870000  1.0 0.1117221593
H  H181  1  0.36690000  0.11200000  0.17840000  1.0 0.101689015
H  H182  1  0.29350000  0.02210000  0.22940000  1.0 0.1200827063
H  H183  1  0.19390000  0.97560000  0.21820000  1.0 0.1200827063
H  H184  1  0.17310000  0.99970000  0.04030000  1.0 0.1117221593
H  H185  1  0.27250000  0.04440000  0.05100000  1.0 0.1200827063
H  H186  1  0.36580000  0.09640000  0.98670000  1.0 0.101689015
H  H187  1  0.42300000  0.22350000  0.92740000  1.0 0.0892290221
H  H188  1  0.36350000  0.17590000  0.89620000  1.0 0.0836533512
H  H189  1  0.44610000  0.11260000  0.86720000  1.0 0.1117221593
H  H190  1  0.47540000  0.09270000  0.93450000  1.0 0.1200827063
H  H191  1  0.41580000  0.04470000  0.90360000  1.0 0.1289585546
H  H192  1  0.18680000  0.24500000  0.95830000  1.0 0.1387362995
H  H193  1  0.38600000  0.30550000  0.04920000  1.0 0.1117221593
H  H194  1  0.20180000  0.04070000  0.90090000  1.0 0.1289585546
H  H195  1  0.19010000  0.08100000  0.96100000  1.0 0.1117221593
H  H196  1  0.17650000  0.13560000  0.90150000  1.0 0.1200827063
H  H197  1  0.14110000  0.39720000  0.94750000  1.0 0.101689015
H  H198  1  0.11780000  0.33720000  0.99450000  1.0 0.0892290221
H  H199  1  0.28180000  0.43860000  0.10010000  1.0 0.101689015
H  H200  1  0.27200000  0.50500000  0.00270000  1.0 0.0836533512
H  H201  1  0.34280000  0.51370000  0.01480000  1.0 0.0836533512
H  H202  1  0.30010000  0.64560000  0.03820000  1.0 0.1200827063
H  H203  1  0.26850000  0.59810000  0.08490000  1.0 0.1289585546
H  H204  1  0.33940000  0.60670000  0.09710000  1.0 0.1117221593
H  H205  1  0.82990000  0.74740000  0.83740000  1.0 0.1387362995
H  H206  1  0.83400000  0.73280000  0.90640000  1.0 0.1387362995
H  H207  1  0.81260000  0.82280000  0.87730000  1.0 0.1289585546
H  H208  1  0.89990000  0.84960000  0.96660000  1.0 0.1200827063
H  H209  1  0.87020000  0.22890000  0.32350000  1.0 0.3299111381
H  H210  1  0.33910000  0.24950000  0.96080000  1.0 0.101689015
H  H211  1  0.57700000  0.49620000  0.92340000  1.0 0.1200827063
H  H212  1  0.56190000  0.66040000  0.75200000  1.0 0.1200827063
H  H213  1  0.70660000  0.74060000  0.76740000  1.0 0.1289585546
H  H214  1  0.64060000  0.76410000  0.77470000  1.0 0.1200827063
H  H215  1  0.65120000  0.68750000  0.73240000  1.0 0.1200827063
H  H216  1  0.46430000  0.64480000  0.68360000  1.0 0.1117221593
H  H217  1  0.46860000  0.71140000  0.73680000  1.0 0.1117221593
H  H218  1  0.37440000  0.66790000  0.61070000  1.0 0.1200827063
H  H219  1  0.27230000  0.69950000  0.58420000  1.0 0.1200827063
H  H220  1  0.26560000  0.72660000  0.75750000  1.0 0.1200827063
H  H221  1  0.36540000  0.68810000  0.78430000  1.0 0.1200827063
H  H222  1  0.44360000  0.45810000  0.82240000  1.0 0.101689015
H  H223  1  0.50170000  0.43180000  0.94330000  1.0 0.0892290221
H  H224  1  0.43920000  0.38810000  0.91620000  1.0 0.0892290221
H  H225  1  0.51830000  0.29110000  0.91170000  1.0 0.1200827063
H  H226  1  0.54660000  0.35750000  0.87260000  1.0 0.1117221593
H  H227  1  0.48420000  0.31340000  0.84630000  1.0 0.1117221593
H  H228  1  0.26750000  0.55210000  0.87000000  1.0 0.1289585546
H  H229  1  0.46580000  0.65040000  0.90320000  1.0 0.1200827063
H  H230  1  0.28680000  0.33490000  0.83980000  1.0 0.1200827063
H  H231  1  0.25460000  0.42560000  0.83600000  1.0 0.1200827063
H  H232  1  0.28850000  0.38980000  0.89830000  1.0 0.1289585546
H  H233  1  0.20970000  0.64910000  0.91860000  1.0 0.1200827063
H  H234  1  0.20540000  0.66070000  0.84890000  1.0 0.1117221593
H  H235  1  0.17410000  0.76790000  0.97670000  1.0 0.1200827063
H  H236  1  0.11300000  0.88920000  0.97500000  1.0 0.1200827063
H  H237  1  0.10780000  0.91560000  0.79920000  1.0 0.1289585546
H  H238  1  0.16760000  0.79340000  0.80150000  1.0 0.1200827063
H  H239  1  0.36350000  0.81840000  0.89030000  1.0 0.101689015
H  H240  1  0.33980000  0.78090000  0.98570000  1.0 0.0892290221
H  H241  1  0.40940000  0.78780000  0.01340000  1.0 0.0836533512
H  H242  1  0.36190000  0.91910000  0.02750000  1.0 0.1117221593
H  H243  1  0.33850000  0.92800000  0.95800000  1.0 0.1289585546
H  H244  1  0.40810000  0.93500000  0.98510000  1.0 0.1200827063
H  H245  1  0.52640000  0.91260000  0.82010000  1.0 0.1289585546
H  H246  1  0.50060000  0.78690000  0.99720000  1.0 0.1200827063
H  H247  1  0.38250000  0.89720000  0.73250000  1.0 0.1387362995
H  H248  1  0.45140000  0.87210000  0.74400000  1.0 0.1200827063
H  H249  1  0.43120000  0.95980000  0.76910000  1.0 0.1200827063
H  H250  1  0.61520000  0.98490000  0.83130000  1.0 0.1117221593
H  H251  1  0.63310000  0.88800000  0.82160000  1.0 0.101689015
H  H252  1  0.70650000  0.97790000  0.77060000  1.0 0.1200827063
H  H253  1  0.80610000  0.02440000  0.78180000  1.0 0.1200827063
H  H254  1  0.82690000  0.00030000  0.95970000  1.0 0.1117221593
H  H255  1  0.72750000  0.95560000  0.94900000  1.0 0.1200827063
H  H256  1  0.63420000  0.90360000  0.01330000  1.0 0.101689015
H  H257  1  0.57700000  0.77650000  0.07260000  1.0 0.0892290221
H  H258  1  0.63650000  0.82410000  0.10380000  1.0 0.0836533512
H  H259  1  0.55390000  0.88740000  0.13280000  1.0 0.1117221593
H  H260  1  0.52460000  0.90730000  0.06550000  1.0 0.1200827063
H  H261  1  0.58420000  0.95530000  0.09640000  1.0 0.1289585546
H  H262  1  0.81320000  0.75500000  0.04170000  1.0 0.1387362995
H  H263  1  0.61400000  0.69450000  0.95080000  1.0 0.1117221593
H  H264  1  0.79820000  0.95930000  0.09910000  1.0 0.1289585546
H  H265  1  0.80990000  0.91900000  0.03900000  1.0 0.1117221593
H  H266  1  0.82350000  0.86440000  0.09850000  1.0 0.1200827063
H  H267  1  0.85890000  0.60280000  0.05250000  1.0 0.101689015
H  H268  1  0.88220000  0.66280000  0.00550000  1.0 0.0892290221
H  H269  1  0.71820000  0.56140000  0.89990000  1.0 0.101689015
H  H270  1  0.72800000  0.49500000  0.99730000  1.0 0.0836533512
H  H271  1  0.65720000  0.48630000  0.98520000  1.0 0.0836533512
H  H272  1  0.69990000  0.35440000  0.96180000  1.0 0.1200827063
H  H273  1  0.73150000  0.40190000  0.91510000  1.0 0.1289585546
H  H274  1  0.66060000  0.39330000  0.90290000  1.0 0.1117221593
H  H275  1  0.17010000  0.25260000  0.16260000  1.0 0.1387362995
H  H276  1  0.16600000  0.26720000  0.09360000  1.0 0.1387362995
H  H277  1  0.18740000  0.17720000  0.12270000  1.0 0.1289585546
H  H278  1  0.10010000  0.15040000  0.03340000  1.0 0.1200827063
H  H279  1  0.12980000  0.77110000  0.67650000  1.0 0.3299111381
H  H280  1  0.66090000  0.75050000  0.03920000  1.0 0.101689015
C  C1  1  0.57410000  0.97080000  0.38860000  1.0 -0.2017256364
C  C2  1  0.51780000  0.96640000  0.35000000  1.0 -0.0206593072
C  C3  1  0.51450000  0.91500000  0.29860000  1.0 0.1874456063
C  C4  1  0.56490000  0.87280000  0.28670000  1.0 -0.3866674149
C  C5  1  0.62030000  0.87970000  0.32660000  1.0 0.1962631263
C  C6  1  0.62630000  0.92930000  0.37910000  1.0 -0.0206593072
C  C7  1  0.66730000  0.78250000  0.26920000  1.0 -0.2386039957
C  C8  1  0.44790000  0.84030000  0.21880000  1.0 -0.0805684428
C  C9  1  0.38070000  0.82280000  0.20060000  1.0 0.0836533512
C  C10  1  0.35230000  0.82050000  0.14040000  1.0 -0.1584551937
C  C11  1  0.29120000  0.80100000  0.12460000  1.0 -0.0855589553
C  C12  1  0.25830000  0.78260000  0.16780000  1.0 -0.0310615803
C  C13  1  0.28740000  0.78600000  0.22770000  1.0 -0.1112586639
C  C14  1  0.34730000  0.80760000  0.24390000  1.0 -0.1303979112
C  C15  1  0.19200000  0.76150000  0.14940000  1.0 0.5253365294
C  C16  1  0.46170000  0.01480000  0.36080000  1.0 -0.050100177
C  C17  1  0.47660000  0.09000000  0.40650000  1.0 -0.1499218672
C  C18  1  0.50950000  0.16380000  0.38200000  1.0 -0.3866674149
C  C19  1  0.41340000  0.95400000  0.37640000  1.0 -0.0310615803
C  C20  1  0.35410000  0.98240000  0.36800000  1.0 0.1874456063
C  C21  1  0.30730000  0.92790000  0.37620000  1.0 -0.3787677891
C  C22  1  0.32120000  0.84210000  0.39400000  1.0 0.1962631263
C  C23  1  0.38040000  0.81090000  0.40460000  1.0 -0.0310615803
C  C24  1  0.42570000  0.86870000  0.39580000  1.0 -0.1823541282
C  C25  1  0.28890000  0.10740000  0.35610000  1.0 -0.2386039957
C  C26  1  0.21560000  0.81020000  0.38760000  1.0 -0.0602307999
C  C27  1  0.17610000  0.73230000  0.38830000  1.0 0.0892290221
C  C28  1  0.16040000  0.70290000  0.44070000  1.0 -0.140897946
C  C29  1  0.12400000  0.62960000  0.43970000  1.0 -0.1112586639
C  C30  1  0.10400000  0.58440000  0.38680000  1.0 -0.0310615803
C  C31  1  0.12060000  0.61390000  0.33520000  1.0 -0.1015165418
C  C32  1  0.15660000  0.68750000  0.33680000  1.0 -0.140897946
C  C33  1  0.06690000  0.50140000  0.38440000  1.0 0.5570277826
C  C34  1  0.39220000  0.71430000  0.42030000  1.0 -0.050100177
C  C35  1  0.37740000  0.69080000  0.48160000  1.0 -0.1584551937
C  C36  1  0.37090000  0.59320000  0.48870000  1.0 -0.3787677891
C  C37  1  0.45510000  0.68340000  0.41450000  1.0 -0.0206593072
C  C38  1  0.46430000  0.64490000  0.36070000  1.0 0.2091664041
C  C39  1  0.52090000  0.61260000  0.35590000  1.0 -0.4012312867
C  C40  1  0.56950000  0.61780000  0.40490000  1.0 0.2091664041
C  C41  1  0.56270000  0.65430000  0.45940000  1.0 -0.0310615803
C  C42  1  0.50570000  0.68690000  0.46160000  1.0 -0.1823541282
C  C43  1  0.42040000  0.59990000  0.26070000  1.0 -0.2321548555
C  C44  1  0.64050000  0.56310000  0.34900000  1.0 -0.0602307999
C  C45  1  0.70660000  0.53710000  0.35850000  1.0 0.0836533512
C  C46  1  0.73050000  0.51720000  0.30880000  1.0 -0.1665185436
C  C47  1  0.79040000  0.48970000  0.31560000  1.0 -0.1112586639
C  C48  1  0.82670000  0.48320000  0.37190000  1.0 -0.0206593072
C  C49  1  0.80270000  0.50380000  0.42150000  1.0 -0.1303979112
C  C50  1  0.74310000  0.53060000  0.41510000  1.0 -0.1499218672
C  C51  1  0.89060000  0.44660000  0.37930000  1.0 0.5705362216
C  C52  1  0.61640000  0.65470000  0.51190000  1.0 -0.0408860452
C  C53  1  0.59940000  0.66940000  0.57390000  1.0 -0.1665185436
C  C54  1  0.56220000  0.59850000  0.59390000  1.0 -0.3866674149
C  C55  1  0.66620000  0.71720000  0.50330000  1.0 -0.1015165418
C  C56  1  0.72720000  0.70040000  0.53030000  1.0 0.2091664041
C  C57  1  0.77320000  0.75640000  0.52320000  1.0 -0.4012312867
C  C58  1  0.75850000  0.83150000  0.48730000  1.0 0.2091664041
C  C59  1  0.69950000  0.85070000  0.46000000  1.0 -0.0408860452
C  C60  1  0.65400000  0.79310000  0.46870000  1.0 -0.2017256364
C  C61  1  0.79690000  0.59320000  0.57600000  1.0 -0.2088278017
C  C62  1  0.86060000  0.89050000  0.51040000  1.0 -0.0602307999
C  C63  1  0.89200000  0.96710000  0.48890000  1.0 0.0663412887
C  C64  1  0.93190000  0.94370000  0.44910000  1.0 -0.1015165418
C  C65  1  0.95890000  0.01080000  0.42720000  1.0 0.0638356165
C  C66  1  0.94630000  0.11050000  0.44320000  1.0 -0.0310615803
C  C67  1  0.87750000  0.04120000  0.50480000  1.0 -0.050100177
C  C68  1  0.97750000  0.17360000  0.42080000  1.0 0.2476878271
C  C69  1  0.68630000  0.93290000  0.42350000  1.0 -0.050100177
C  C70  1  0.69210000  0.01200000  0.46600000  1.0 -0.1499218672
C  C71  1  0.69640000  0.09880000  0.43340000  1.0 -0.3686415374
C  C72  1  0.16070000  0.27430000  0.62370000  1.0 -0.347386752
C  C73  1  0.05250000  0.27700000  0.64740000  1.0 0.1117221593
C  C74  1  0.07470000  0.34380000  0.56100000  1.0 0.0663412887
C  C75  1  0.90610000  0.11070000  0.48350000  1.0 0.0091931613
C  C76  1  0.06540000  0.32610000  0.66620000  1.0 0.1387362995
C  C77  1  0.88520000  0.99360000  0.42800000  1.0 0.0091931613
C  C78  1  0.90960000  0.06650000  0.40230000  1.0 -0.1303979112
C  C79  1  0.95110000  0.11060000  0.49870000  1.0 -0.0602307999
C  C80  1  0.92780000  0.03900000  0.52520000  1.0 0.0309929766
C  C81  1  0.97030000  0.20970000  0.41830000  1.0 0.2960123822
C  C82  1  0.42590000  0.02920000  0.61140000  1.0 -0.2017256364
C  C83  1  0.48220000  0.03360000  0.65000000  1.0 -0.0206593072
C  C84  1  0.48550000  0.08500000  0.70140000  1.0 0.1874456063
C  C85  1  0.43510000  0.12720000  0.71330000  1.0 -0.3866674149
C  C86  1  0.37970000  0.12030000  0.67340000  1.0 0.1962631263
C  C87  1  0.37370000  0.07070000  0.62090000  1.0 -0.0206593072
C  C88  1  0.33270000  0.21750000  0.73080000  1.0 -0.2386039957
C  C89  1  0.55210000  0.15970000  0.78120000  1.0 -0.0805684428
C  C90  1  0.61930000  0.17720000  0.79940000  1.0 0.0836533512
C  C91  1  0.64770000  0.17950000  0.85960000  1.0 -0.1584551937
C  C92  1  0.70880000  0.19900000  0.87540000  1.0 -0.0855589553
C  C93  1  0.74170000  0.21740000  0.83220000  1.0 -0.0310615803
C  C94  1  0.71260000  0.21400000  0.77230000  1.0 -0.1112586639
C  C95  1  0.65270000  0.19240000  0.75610000  1.0 -0.1303979112
C  C96  1  0.80800000  0.23850000  0.85060000  1.0 0.5253365294
C  C97  1  0.53830000  0.98520000  0.63920000  1.0 -0.050100177
C  C98  1  0.52340000  0.91000000  0.59350000  1.0 -0.1499218672
C  C99  1  0.49050000  0.83620000  0.61800000  1.0 -0.3866674149
C  C100  1  0.58660000  0.04600000  0.62360000  1.0 -0.0310615803
C  C101  1  0.64590000  0.01760000  0.63200000  1.0 0.1874456063
C  C102  1  0.69270000  0.07210000  0.62380000  1.0 -0.3787677891
C  C103  1  0.67880000  0.15790000  0.60600000  1.0 0.1962631263
C  C104  1  0.61960000  0.18910000  0.59540000  1.0 -0.0310615803
C  C105  1  0.57430000  0.13130000  0.60420000  1.0 -0.1823541282
C  C106  1  0.71110000  0.89260000  0.64390000  1.0 -0.2386039957
C  C107  1  0.78440000  0.18980000  0.61240000  1.0 -0.0602307999
C  C108  1  0.82390000  0.26770000  0.61170000  1.0 0.0892290221
C  C109  1  0.83960000  0.29710000  0.55930000  1.0 -0.140897946
C  C110  1  0.87600000  0.37040000  0.56030000  1.0 -0.1112586639
C  C111  1  0.89600000  0.41560000  0.61320000  1.0 -0.0310615803
C  C112  1  0.87940000  0.38610000  0.66480000  1.0 -0.1015165418
C  C113  1  0.84340000  0.31250000  0.66320000  1.0 -0.1303979112
C  C114  1  0.93310000  0.49860000  0.61560000  1.0 0.5570277826
C  C115  1  0.60780000  0.28570000  0.57970000  1.0 -0.050100177
C  C116  1  0.62260000  0.30920000  0.51840000  1.0 -0.1584551937
C  C117  1  0.62910000  0.40680000  0.51130000  1.0 -0.3787677891
C  C118  1  0.54490000  0.31660000  0.58550000  1.0 -0.0206593072
C  C119  1  0.53570000  0.35510000  0.63930000  1.0 0.2091664041
C  C120  1  0.47910000  0.38740000  0.64410000  1.0 -0.4012312867
C  C121  1  0.43050000  0.38220000  0.59510000  1.0 0.2091664041
C  C122  1  0.43730000  0.34570000  0.54060000  1.0 -0.0310615803
C  C123  1  0.49430000  0.31310000  0.53840000  1.0 -0.1823541282
C  C124  1  0.57960000  0.40010000  0.73930000  1.0 -0.2321548555
C  C125  1  0.35950000  0.43690000  0.65100000  1.0 -0.0602307999
C  C126  1  0.29340000  0.46290000  0.64150000  1.0 0.0836533512
C  C127  1  0.26950000  0.48280000  0.69120000  1.0 -0.1665185436
C  C128  1  0.20960000  0.51030000  0.68440000  1.0 -0.1112586639
C  C129  1  0.17330000  0.51680000  0.62810000  1.0 -0.0206593072
C  C130  1  0.19730000  0.49620000  0.57850000  1.0 -0.1303979112
C  C131  1  0.25690000  0.46940000  0.58490000  1.0 -0.1499218672
C  C132  1  0.10940000  0.55340000  0.62070000  1.0 0.5705362216
C  C133  1  0.38360000  0.34530000  0.48810000  1.0 -0.0408860452
C  C134  1  0.40060000  0.33060000  0.42610000  1.0 -0.1665185436
C  C135  1  0.43780000  0.40150000  0.40610000  1.0 -0.3866674149
C  C136  1  0.33380000  0.28280000  0.49670000  1.0 -0.1015165418
C  C137  1  0.27280000  0.29960000  0.46970000  1.0 0.2091664041
C  C138  1  0.22680000  0.24360000  0.47680000  1.0 -0.4012312867
C  C139  1  0.24150000  0.16850000  0.51270000  1.0 0.2091664041
C  C140  1  0.30050000  0.14930000  0.54000000  1.0 -0.0310615803
C  C141  1  0.34600000  0.20690000  0.53130000  1.0 -0.2017256364
C  C142  1  0.20310000  0.40680000  0.42400000  1.0 -0.2088278017
C  C143  1  0.13940000  0.10950000  0.48960000  1.0 -0.0602307999
C  C144  1  0.10800000  0.03290000  0.51110000  1.0 0.0663412887
C  C145  1  0.06810000  0.05630000  0.55090000  1.0 -0.1015165418
C  C146  1  0.04110000  0.98920000  0.57280000  1.0 0.0638356165
C  C147  1  0.05370000  0.88950000  0.55680000  1.0 -0.0310615803
C  C148  1  0.12250000  0.95880000  0.49520000  1.0 -0.050100177
C  C149  1  0.02250000  0.82640000  0.57920000  1.0 0.2476878271
C  C150  1  0.31370000  0.06710000  0.57650000  1.0 -0.050100177
C  C151  1  0.30790000  0.98800000  0.53400000  1.0 -0.1499218672
C  C152  1  0.30360000  0.90120000  0.56660000  1.0 -0.3686415374
C  C153  1  0.83930000  0.72570000  0.37630000  1.0 -0.347386752
C  C154  1  0.94750000  0.72300000  0.35260000  1.0 0.1117221593
C  C155  1  0.92530000  0.65620000  0.43900000  1.0 0.0663412887
C  C156  1  0.09390000  0.88930000  0.51650000  1.0 0.0091931613
C  C157  1  0.93460000  0.67390000  0.33380000  1.0 0.1387362995
C  C158  1  0.11480000  0.00640000  0.57200000  1.0 0.0091931613
C  C159  1  0.09040000  0.93350000  0.59770000  1.0 -0.1303979112
C  C160  1  0.04890000  0.88940000  0.50130000  1.0 -0.0602307999
C  C161  1  0.07220000  0.96100000  0.47480000  1.0 0.0309929766
C  C162  1  0.02970000  0.79030000  0.58170000  1.0 0.2960123822
C  C163  1  0.42590000  0.47080000  0.11140000  1.0 -0.2017256364
C  C164  1  0.48220000  0.46640000  0.15000000  1.0 -0.0206593072
C  C165  1  0.48550000  0.41500000  0.20140000  1.0 0.1874456063
C  C166  1  0.43510000  0.37280000  0.21330000  1.0 -0.3866674149
C  C167  1  0.37970000  0.37970000  0.17340000  1.0 0.1962631263
C  C168  1  0.37370000  0.42930000  0.12090000  1.0 -0.0206593072
C  C169  1  0.33270000  0.28250000  0.23080000  1.0 -0.2386039957
C  C170  1  0.55210000  0.34030000  0.28120000  1.0 -0.0805684428
C  C171  1  0.61930000  0.32280000  0.29940000  1.0 0.0836533512
C  C172  1  0.64770000  0.32050000  0.35960000  1.0 -0.1584551937
C  C173  1  0.70880000  0.30100000  0.37540000  1.0 -0.0855589553
C  C174  1  0.74170000  0.28260000  0.33220000  1.0 -0.0310615803
C  C175  1  0.71260000  0.28600000  0.27230000  1.0 -0.1112586639
C  C176  1  0.65270000  0.30760000  0.25610000  1.0 -0.1303979112
C  C177  1  0.80800000  0.26150000  0.35060000  1.0 0.5253365294
C  C178  1  0.53830000  0.51480000  0.13920000  1.0 -0.050100177
C  C179  1  0.52340000  0.59000000  0.09350000  1.0 -0.1499218672
C  C180  1  0.49050000  0.66380000  0.11800000  1.0 -0.3866674149
C  C181  1  0.58660000  0.45400000  0.12360000  1.0 -0.0310615803
C  C182  1  0.64590000  0.48240000  0.13200000  1.0 0.1874456063
C  C183  1  0.69270000  0.42790000  0.12380000  1.0 -0.3787677891
C  C184  1  0.67880000  0.34210000  0.10600000  1.0 0.1962631263
C  C185  1  0.61960000  0.31090000  0.09540000  1.0 -0.0310615803
C  C186  1  0.57430000  0.36870000  0.10420000  1.0 -0.1823541282
C  C187  1  0.71110000  0.60740000  0.14390000  1.0 -0.2386039957
C  C188  1  0.78440000  0.31020000  0.11240000  1.0 -0.0602307999
C  C189  1  0.82390000  0.23230000  0.11170000  1.0 0.0892290221
C  C190  1  0.83960000  0.20290000  0.05930000  1.0 -0.140897946
C  C191  1  0.87600000  0.12960000  0.06030000  1.0 -0.1112586639
C  C192  1  0.89600000  0.08440000  0.11320000  1.0 -0.0310615803
C  C193  1  0.87940000  0.11390000  0.16480000  1.0 -0.1015165418
C  C194  1  0.84340000  0.18750000  0.16320000  1.0 -0.1303979112
C  C195  1  0.93310000  0.00140000  0.11560000  1.0 0.5570277826
C  C196  1  0.60780000  0.21430000  0.07970000  1.0 -0.050100177
C  C197  1  0.62260000  0.19080000  0.01840000  1.0 -0.1584551937
C  C198  1  0.62910000  0.09320000  0.01130000  1.0 -0.3787677891
C  C199  1  0.54490000  0.18340000  0.08550000  1.0 -0.0206593072
C  C200  1  0.53570000  0.14490000  0.13930000  1.0 0.2091664041
C  C201  1  0.47910000  0.11260000  0.14410000  1.0 -0.4012312867
C  C202  1  0.43050000  0.11780000  0.09510000  1.0 0.2091664041
C  C203  1  0.43730000  0.15430000  0.04060000  1.0 -0.0310615803
C  C204  1  0.49430000  0.18690000  0.03840000  1.0 -0.1823541282
C  C205  1  0.57960000  0.09990000  0.23930000  1.0 -0.2321548555
C  C206  1  0.35950000  0.06310000  0.15100000  1.0 -0.0602307999
C  C207  1  0.29340000  0.03710000  0.14150000  1.0 0.0836533512
C  C208  1  0.26950000  0.01720000  0.19120000  1.0 -0.1665185436
C  C209  1  0.20960000  0.98970000  0.18440000  1.0 -0.1112586639
C  C210  1  0.17330000  0.98320000  0.12810000  1.0 -0.0206593072
C  C211  1  0.19730000  0.00380000  0.07850000  1.0 -0.1303979112
C  C212  1  0.25690000  0.03060000  0.08490000  1.0 -0.1499218672
C  C213  1  0.10940000  0.94660000  0.12070000  1.0 0.5705362216
C  C214  1  0.38360000  0.15470000  0.98810000  1.0 -0.0408860452
C  C215  1  0.40060000  0.16940000  0.92610000  1.0 -0.1665185436
C  C216  1  0.43780000  0.09850000  0.90610000  1.0 -0.3866674149
C  C217  1  0.33380000  0.21720000  0.99670000  1.0 -0.1015165418
C  C218  1  0.27280000  0.20040000  0.96970000  1.0 0.2091664041
C  C219  1  0.22680000  0.25640000  0.97680000  1.0 -0.4012312867
C  C220  1  0.24150000  0.33150000  0.01270000  1.0 0.2091664041
C  C221  1  0.30050000  0.35070000  0.04000000  1.0 -0.0310615803
C  C222  1  0.34600000  0.29310000  0.03130000  1.0 -0.2017256364
C  C223  1  0.20310000  0.09320000  0.92400000  1.0 -0.2088278017
C  C224  1  0.13940000  0.39050000  0.98960000  1.0 -0.0602307999
C  C225  1  0.10800000  0.46710000  0.01110000  1.0 0.0663412887
C  C226  1  0.06810000  0.44370000  0.05090000  1.0 -0.1015165418
C  C227  1  0.04110000  0.51080000  0.07280000  1.0 0.0638356165
C  C228  1  0.05370000  0.61050000  0.05680000  1.0 -0.0310615803
C  C229  1  0.12250000  0.54120000  0.99520000  1.0 -0.050100177
C  C230  1  0.02250000  0.67360000  0.07920000  1.0 0.2476878271
C  C231  1  0.31370000  0.43290000  0.07650000  1.0 -0.050100177
C  C232  1  0.30790000  0.51200000  0.03400000  1.0 -0.1499218672
C  C233  1  0.30360000  0.59880000  0.06660000  1.0 -0.3686415374
C  C234  1  0.83930000  0.77430000  0.87630000  1.0 -0.347386752
C  C235  1  0.94750000  0.77700000  0.85260000  1.0 0.1117221593
C  C236  1  0.92530000  0.84380000  0.93900000  1.0 0.0663412887
C  C237  1  0.09390000  0.61070000  0.01650000  1.0 0.0091931613
C  C238  1  0.93460000  0.82610000  0.83380000  1.0 0.1387362995
C  C239  1  0.11480000  0.49360000  0.07200000  1.0 0.0091931613
C  C240  1  0.09040000  0.56650000  0.09770000  1.0 -0.1303979112
C  C241  1  0.04890000  0.61060000  0.00130000  1.0 -0.0602307999
C  C242  1  0.07220000  0.53900000  0.97480000  1.0 0.0309929766
C  C243  1  0.02970000  0.70970000  0.08170000  1.0 0.2960123822
C  C244  1  0.57410000  0.52920000  0.88860000  1.0 -0.2017256364
C  C245  1  0.51780000  0.53360000  0.85000000  1.0 -0.0206593072
C  C246  1  0.51450000  0.58500000  0.79860000  1.0 0.1874456063
C  C247  1  0.56490000  0.62720000  0.78670000  1.0 -0.3866674149
C  C248  1  0.62030000  0.62030000  0.82660000  1.0 0.1962631263
C  C249  1  0.62630000  0.57070000  0.87910000  1.0 -0.0206593072
C  C250  1  0.66730000  0.71750000  0.76920000  1.0 -0.2386039957
C  C251  1  0.44790000  0.65970000  0.71880000  1.0 -0.0805684428
C  C252  1  0.38070000  0.67720000  0.70060000  1.0 0.0836533512
C  C253  1  0.35230000  0.67950000  0.64040000  1.0 -0.1584551937
C  C254  1  0.29120000  0.69900000  0.62460000  1.0 -0.0855589553
C  C255  1  0.25830000  0.71740000  0.66780000  1.0 -0.0310615803
C  C256  1  0.28740000  0.71400000  0.72770000  1.0 -0.1112586639
C  C257  1  0.34730000  0.69240000  0.74390000  1.0 -0.1303979112
C  C258  1  0.19200000  0.73850000  0.64940000  1.0 0.5253365294
C  C259  1  0.46170000  0.48520000  0.86080000  1.0 -0.050100177
C  C260  1  0.47660000  0.41000000  0.90650000  1.0 -0.1499218672
C  C261  1  0.50950000  0.33620000  0.88200000  1.0 -0.3866674149
C  C262  1  0.41340000  0.54600000  0.87640000  1.0 -0.0310615803
C  C263  1  0.35410000  0.51760000  0.86800000  1.0 0.1874456063
C  C264  1  0.30730000  0.57210000  0.87620000  1.0 -0.3787677891
C  C265  1  0.32120000  0.65790000  0.89400000  1.0 0.1962631263
C  C266  1  0.38040000  0.68910000  0.90460000  1.0 -0.0310615803
C  C267  1  0.42570000  0.63130000  0.89580000  1.0 -0.1823541282
C  C268  1  0.28890000  0.39260000  0.85610000  1.0 -0.2386039957
C  C269  1  0.21560000  0.68980000  0.88760000  1.0 -0.0602307999
C  C270  1  0.17610000  0.76770000  0.88830000  1.0 0.0892290221
C  C271  1  0.16040000  0.79710000  0.94070000  1.0 -0.140897946
C  C272  1  0.12400000  0.87040000  0.93970000  1.0 -0.1112586639
C  C273  1  0.10400000  0.91560000  0.88680000  1.0 -0.0310615803
C  C274  1  0.12060000  0.88610000  0.83520000  1.0 -0.1015165418
C  C275  1  0.15660000  0.81250000  0.83680000  1.0 -0.140897946
C  C276  1  0.06690000  0.99860000  0.88440000  1.0 0.5570277826
C  C277  1  0.39220000  0.78570000  0.92030000  1.0 -0.050100177
C  C278  1  0.37740000  0.80920000  0.98160000  1.0 -0.1584551937
C  C279  1  0.37090000  0.90680000  0.98870000  1.0 -0.3787677891
C  C280  1  0.45510000  0.81660000  0.91450000  1.0 -0.0206593072
C  C281  1  0.46430000  0.85510000  0.86070000  1.0 0.2091664041
C  C282  1  0.52090000  0.88740000  0.85590000  1.0 -0.4012312867
C  C283  1  0.56950000  0.88220000  0.90490000  1.0 0.2091664041
C  C284  1  0.56270000  0.84570000  0.95940000  1.0 -0.0310615803
C  C285  1  0.50570000  0.81310000  0.96160000  1.0 -0.1860104426
C  C286  1  0.42040000  0.90010000  0.76070000  1.0 -0.2321548555
C  C287  1  0.64050000  0.93690000  0.84900000  1.0 -0.0602307999
C  C288  1  0.70660000  0.96290000  0.85850000  1.0 0.0836533512
C  C289  1  0.73050000  0.98280000  0.80880000  1.0 -0.1665185436
C  C290  1  0.79040000  0.01030000  0.81560000  1.0 -0.1112586639
C  C291  1  0.82670000  0.01680000  0.87190000  1.0 -0.0206593072
C  C292  1  0.80270000  0.99620000  0.92150000  1.0 -0.1303979112
C  C293  1  0.74310000  0.96940000  0.91510000  1.0 -0.1499218672
C  C294  1  0.89060000  0.05340000  0.87930000  1.0 0.5705362216
C  C295  1  0.61640000  0.84530000  0.01190000  1.0 -0.0408860452
C  C296  1  0.59940000  0.83060000  0.07390000  1.0 -0.1665185436
C  C297  1  0.56220000  0.90150000  0.09390000  1.0 -0.3866674149
C  C298  1  0.66620000  0.78280000  0.00330000  1.0 -0.1015165418
C  C299  1  0.72720000  0.79960000  0.03030000  1.0 0.2091664041
C  C300  1  0.77320000  0.74360000  0.02320000  1.0 -0.4012312867
C  C301  1  0.75850000  0.66850000  0.98730000  1.0 0.2091664041
C  C302  1  0.69950000  0.64930000  0.96000000  1.0 -0.0408860452
C  C303  1  0.65400000  0.70690000  0.96870000  1.0 -0.2017256364
C  C304  1  0.79690000  0.90680000  0.07600000  1.0 -0.2088278017
C  C305  1  0.86060000  0.60950000  0.01040000  1.0 -0.0602307999
C  C306  1  0.89200000  0.53290000  0.98890000  1.0 0.0663412887
C  C307  1  0.93190000  0.55630000  0.94910000  1.0 -0.1015165418
C  C308  1  0.95890000  0.48920000  0.92720000  1.0 0.0638356165
C  C309  1  0.94630000  0.38950000  0.94320000  1.0 -0.0310615803
C  C310  1  0.87750000  0.45880000  0.00480000  1.0 -0.050100177
C  C311  1  0.97750000  0.32640000  0.92080000  1.0 0.2476878271
C  C312  1  0.68630000  0.56710000  0.92350000  1.0 -0.050100177
C  C313  1  0.69210000  0.48800000  0.96600000  1.0 -0.1499218672
C  C314  1  0.69640000  0.40120000  0.93340000  1.0 -0.3686415374
C  C315  1  0.16070000  0.22570000  0.12370000  1.0 -0.347386752
C  C316  1  0.05250000  0.22300000  0.14740000  1.0 0.1117221593
C  C317  1  0.07470000  0.15620000  0.06100000  1.0 0.0663412887
C  C318  1  0.90610000  0.38930000  0.98350000  1.0 0.0091931613
C  C319  1  0.06540000  0.17390000  0.16620000  1.0 0.1387362995
C  C320  1  0.88520000  0.50640000  0.92800000  1.0 0.0091931613
C  C321  1  0.90960000  0.43350000  0.90230000  1.0 -0.1303979112
C  C322  1  0.95110000  0.38940000  0.99870000  1.0 -0.0602307999
C  C323  1  0.92780000  0.46100000  0.02520000  1.0 0.0309929766
C  C324  1  0.97030000  0.29030000  0.91830000  1.0 0.2960123822
N  N1  1  0.09730000  0.30480000  0.61190000  1.0 0.1200827063
N  N2  1  0.90270000  0.69520000  0.38810000  1.0 0.1200827063
N  N3  1  0.90270000  0.80480000  0.88810000  1.0 0.1200827063
N  N4  1  0.09730000  0.19520000  0.11190000  1.0 0.1200827063
O  O1  1  0.67248000  0.84020000  0.31710000  1.0 -0.1303979112
O  O2  1  0.45768000  0.91040000  0.26101000  1.0 -0.2017256364
O  O3  1  0.06820000  0.29110000  0.31970000  1.0 0.0480779877
O  O4  1  0.16570000  0.73890000  0.19060000  1.0 -0.405341123
O  O5  1  0.95610000  0.27050000  0.28240000  1.0 -0.4382209896
O  O6  1  0.16700000  0.76740000  0.09620000  1.0 -0.5053667172
O  O7  1  0.27646000  0.78200000  0.39800000  1.0 -0.1823541282
O  O8  1  0.04580000  0.46940000  0.33460000  1.0 -0.4733662053
O  O9  1  0.05930000  0.46720000  0.43270000  1.0 -0.5813812956
O  O10  1  0.34273000  0.06700000  0.34770000  1.0 -0.1860104426
O  O11  1  0.41460000  0.64220000  0.31470000  1.0 -0.140897946
O  O12  1  0.62600000  0.58550000  0.40330000  1.0 -0.1665185436
O  O13  1  0.90880000  0.42120000  0.33410000  1.0 -0.4894298508
O  O14  1  0.92290000  0.44070000  0.43170000  1.0 -0.5904259875
O  O15  1  0.73720000  0.62570000  0.56340000  1.0 -0.1499218672
O  O16  1  0.80170000  0.88800000  0.47510000  1.0 -0.2017256364
O  O17  1  0.01280000  0.24730000  0.44610000  1.0 -0.1499218672
O  O18  1  0.94980000  0.22220000  0.35950000  1.0 -0.1015165418
O  O19  1  0.02410000  0.37290000  0.54670000  1.0 -0.4382209896
O  O20  1  0.08550000  0.28140000  0.37040000  1.0 -0.0602307999
O  O21  1  0.95380000  0.24820000  0.41930000  1.0 -0.0095699859
O  O22  1  0.02590000  0.15120000  0.40370000  1.0 -0.2321548555
O  O23  1  0.32752000  0.15980000  0.68290000  1.0 -0.1303979112
O  O24  1  0.54232000  0.08960000  0.73899000  1.0 -0.2017256364
O  O25  1  0.93180000  0.70890000  0.68030000  1.0 0.0480779877
O  O26  1  0.83430000  0.26110000  0.80940000  1.0 -0.4012312867
O  O27  1  0.04390000  0.72950000  0.71760000  1.0 -0.4382209896
O  O28  1  0.83300000  0.23260000  0.90380000  1.0 -0.5053667172
O  O29  1  0.72354000  0.21800000  0.60200000  1.0 -0.1823541282
O  O30  1  0.95420000  0.53060000  0.66540000  1.0 -0.4733662053
O  O31  1  0.94070000  0.53280000  0.56730000  1.0 -0.5813812956
O  O32  1  0.65727000  0.93300000  0.65230000  1.0 -0.1860104426
O  O33  1  0.58540000  0.35780000  0.68530000  1.0 -0.140897946
O  O34  1  0.37400000  0.41450000  0.59670000  1.0 -0.1665185436
O  O35  1  0.09120000  0.57880000  0.66590000  1.0 -0.4894298508
O  O36  1  0.07710000  0.55930000  0.56830000  1.0 -0.5904259875
O  O37  1  0.26280000  0.37430000  0.43660000  1.0 -0.1499218672
O  O38  1  0.19830000  0.11200000  0.52490000  1.0 -0.2088278017
O  O39  1  0.98720000  0.75270000  0.55390000  1.0 -0.1499218672
O  O40  1  0.05020000  0.77780000  0.64050000  1.0 -0.1015165418
O  O41  1  0.97590000  0.62710000  0.45330000  1.0 -0.4382209896
O  O42  1  0.91450000  0.71860000  0.62960000  1.0 -0.0602307999
O  O43  1  0.04620000  0.75180000  0.58070000  1.0 -0.0095699859
O  O44  1  0.97410000  0.84880000  0.59630000  1.0 -0.2386039957
O  O45  1  0.32752000  0.34020000  0.18290000  1.0 -0.1303979112
O  O46  1  0.54232000  0.41040000  0.23899000  1.0 -0.2088278017
O  O47  1  0.93180000  0.79110000  0.18030000  1.0 0.0480779877
O  O48  1  0.83430000  0.23890000  0.30940000  1.0 -0.405341123
O  O49  1  0.04390000  0.77050000  0.21760000  1.0 -0.4382209896
O  O50  1  0.83300000  0.26740000  0.40380000  1.0 -0.5053667172
O  O51  1  0.72354000  0.28200000  0.10200000  1.0 -0.1823541282
O  O52  1  0.95420000  0.96940000  0.16540000  1.0 -0.4733662053
O  O53  1  0.94070000  0.96720000  0.06730000  1.0 -0.5813812956
O  O54  1  0.65727000  0.56700000  0.15230000  1.0 -0.1860104426
O  O55  1  0.58540000  0.14220000  0.18530000  1.0 -0.140897946
O  O56  1  0.37400000  0.08550000  0.09670000  1.0 -0.1665185436
O  O57  1  0.09120000  0.92120000  0.16590000  1.0 -0.4894298508
O  O58  1  0.07710000  0.94070000  0.06830000  1.0 -0.5904259875
O  O59  1  0.26280000  0.12570000  0.93660000  1.0 -0.1499218672
O  O60  1  0.19830000  0.38800000  0.02490000  1.0 -0.2088278017
O  O61  1  0.98720000  0.74730000  0.05390000  1.0 -0.1499218672
O  O62  1  0.05020000  0.72220000  0.14050000  1.0 -0.1015165418
O  O63  1  0.97590000  0.87290000  0.95330000  1.0 -0.4382209896
O  O64  1  0.91450000  0.78140000  0.12960000  1.0 -0.0602307999
O  O65  1  0.04620000  0.74820000  0.08070000  1.0 -0.0095699859
O  O66  1  0.97410000  0.65120000  0.09630000  1.0 -0.2321548555
O  O67  1  0.67248000  0.65980000  0.81710000  1.0 -0.1303979112
O  O68  1  0.45768000  0.58960000  0.76101000  1.0 -0.2088278017
O  O69  1  0.06820000  0.20890000  0.81970000  1.0 0.0480779877
O  O70  1  0.16570000  0.76110000  0.69060000  1.0 -0.405341123
O  O71  1  0.95610000  0.22950000  0.78240000  1.0 -0.4382209896
O  O72  1  0.16700000  0.73260000  0.59620000  1.0 -0.5053667172
O  O73  1  0.27646000  0.71800000  0.89800000  1.0 -0.1823541282
O  O74  1  0.04580000  0.03060000  0.83460000  1.0 -0.4733662053
O  O75  1  0.05930000  0.03280000  0.93270000  1.0 -0.5813812956
O  O76  1  0.34273000  0.43300000  0.84770000  1.0 -0.1860104426
O  O77  1  0.41460000  0.85780000  0.81470000  1.0 -0.140897946
O  O78  1  0.62600000  0.91450000  0.90330000  1.0 -0.1665185436
O  O79  1  0.90880000  0.07880000  0.83410000  1.0 -0.4894298508
O  O80  1  0.92290000  0.05930000  0.93170000  1.0 -0.5904259875
O  O81  1  0.73720000  0.87430000  0.06340000  1.0 -0.1499218672
O  O82  1  0.80170000  0.61200000  0.97510000  1.0 -0.2017256364
O  O83  1  0.01280000  0.25270000  0.94610000  1.0 -0.1499218672
O  O84  1  0.94980000  0.27780000  0.85950000  1.0 -0.1015165418
O  O85  1  0.02410000  0.12710000  0.04670000  1.0 -0.4382209896
O  O86  1  0.08550000  0.21860000  0.87040000  1.0 -0.0602307999
O  O87  1  0.95380000  0.25180000  0.91930000  1.0 -0.0095699859
O  O88  1  0.02590000  0.34880000  0.90370000  1.0 -0.2386039957
