# DDEC6 charges by PACMAN v1.1 (https://github.com/mtap-research/PACMAN-charge/)
data_NINGIE_ASR_pacman
_symmetry_space_group_name_H-M   'P 1'
_cell_length_a   38.21340000
_cell_length_b   38.21340000
_cell_length_c   38.21340000
_cell_angle_alpha   109.47100000
_cell_angle_beta   109.47100000
_cell_angle_gamma   109.47100000
_symmetry_Int_Tables_number   1
_chemical_formula_structural   Th12U2H90C167(N4O43)2
_chemical_formula_sum   'Th72 U12 H540 C1002 N48 O516'
_cell_volume   42956.48111530
_cell_formula_units_Z   6
loop_
 _symmetry_equiv_pos_site_id
 _symmetry_equiv_pos_as_xyz
  1  'x, y, z'
loop_
 _atom_site_type_symbol
 _atom_site_label
 _atom_site_symmetry_multiplicity
 _atom_site_fract_x
 _atom_site_fract_y
 _atom_site_fract_z
 _atom_site_occupancy
 _atom_site_charge
Th  Th1  1  0.60592000  0.39983000  0.79391000  1.0 2.196815457
Th  Th2  1  0.60592000  0.81201000  0.20609000  1.0 2.196815457
Th  Th3  1  0.39408000  0.60017000  0.20609000  1.0 2.1945542408
Th  Th4  1  0.39408000  0.18799000  0.79391000  1.0 2.196815457
Th  Th5  1  0.79391000  0.60592000  0.39983000  1.0 2.196815457
Th  Th6  1  0.20609000  0.60592000  0.81201000  1.0 2.1945542408
Th  Th7  1  0.20609000  0.39408000  0.60017000  1.0 2.1945542408
Th  Th8  1  0.79391000  0.39408000  0.18799000  1.0 2.196815457
Th  Th9  1  0.39983000  0.79391000  0.60592000  1.0 2.1945542408
Th  Th10  1  0.81201000  0.20609000  0.60592000  1.0 2.196815457
Th  Th11  1  0.60017000  0.20609000  0.39408000  1.0 2.196815457
Th  Th12  1  0.18799000  0.79391000  0.39408000  1.0 2.1945542408
Th  Th13  1  0.63508000  0.55201000  0.91693000  1.0 2.2894122633
Th  Th14  1  0.63508000  0.71815000  0.08307000  1.0 2.2894122633
Th  Th15  1  0.36492000  0.44799000  0.08307000  1.0 2.2894122633
Th  Th16  1  0.36492000  0.28185000  0.91693000  1.0 2.2894122633
Th  Th17  1  0.91693000  0.63508000  0.55201000  1.0 2.2894122633
Th  Th18  1  0.08307000  0.63508000  0.71815000  1.0 2.2894122633
Th  Th19  1  0.08307000  0.36492000  0.44799000  1.0 2.2894122633
Th  Th20  1  0.91693000  0.36492000  0.28185000  1.0 2.2894122633
Th  Th21  1  0.55201000  0.91693000  0.63508000  1.0 2.2894122633
Th  Th22  1  0.71815000  0.08307000  0.63508000  1.0 2.2894122633
Th  Th23  1  0.44799000  0.08307000  0.36492000  1.0 2.2894122633
Th  Th24  1  0.28185000  0.91693000  0.36492000  1.0 2.2894122633
Th  Th25  1  0.62272000  0.44393000  0.90989000  1.0 2.2501085731
Th  Th26  1  0.53404000  0.71283000  0.09011000  1.0 2.2501085731
Th  Th27  1  0.46596000  0.55607000  0.17879000  1.0 2.2501085731
Th  Th28  1  0.37728000  0.28717000  0.82121000  1.0 2.2501085731
Th  Th29  1  0.90989000  0.62272000  0.44393000  1.0 2.2501085731
Th  Th30  1  0.09011000  0.53404000  0.71283000  1.0 2.2501085731
Th  Th31  1  0.17879000  0.46596000  0.55607000  1.0 2.2501085731
Th  Th32  1  0.82121000  0.37728000  0.28717000  1.0 2.2501085731
Th  Th33  1  0.44393000  0.90989000  0.62272000  1.0 2.2501085731
Th  Th34  1  0.71283000  0.09011000  0.53404000  1.0 2.2501085731
Th  Th35  1  0.55607000  0.17879000  0.46596000  1.0 2.2501085731
Th  Th36  1  0.28717000  0.82121000  0.37728000  1.0 2.2501085731
Th  Th37  1  0.37728000  0.55607000  0.09011000  1.0 2.2501085731
Th  Th38  1  0.46596000  0.28717000  0.90989000  1.0 2.2501085731
Th  Th39  1  0.53404000  0.44393000  0.82121000  1.0 2.2501085731
Th  Th40  1  0.62272000  0.71283000  0.17879000  1.0 2.2501085731
Th  Th41  1  0.09011000  0.37728000  0.55607000  1.0 2.2501085731
Th  Th42  1  0.90989000  0.46596000  0.28717000  1.0 2.2501085731
Th  Th43  1  0.82121000  0.53404000  0.44393000  1.0 2.2501085731
Th  Th44  1  0.17879000  0.62272000  0.71283000  1.0 2.2501085731
Th  Th45  1  0.55607000  0.09011000  0.37728000  1.0 2.2501085731
Th  Th46  1  0.28717000  0.90989000  0.46596000  1.0 2.2501085731
Th  Th47  1  0.44393000  0.82121000  0.53404000  1.0 2.2501085731
Th  Th48  1  0.71283000  0.17879000  0.62272000  1.0 2.2501085731
Th  Th49  1  0.61923000  0.50853000  0.80000000  1.0 2.2092522018
Th  Th50  1  0.70853000  0.81923000  0.20000000  1.0 2.2092522018
Th  Th51  1  0.29147000  0.49147000  0.11070000  1.0 2.2092522018
Th  Th52  1  0.38077000  0.18077000  0.88930000  1.0 2.2092522018
Th  Th53  1  0.80000000  0.61923000  0.50853000  1.0 2.2092522018
Th  Th54  1  0.20000000  0.70853000  0.81923000  1.0 2.2092522018
Th  Th55  1  0.11070000  0.29147000  0.49147000  1.0 2.2092522018
Th  Th56  1  0.88930000  0.38077000  0.18077000  1.0 2.2092522018
Th  Th57  1  0.50853000  0.80000000  0.61923000  1.0 2.2092522018
Th  Th58  1  0.81923000  0.20000000  0.70853000  1.0 2.2092522018
Th  Th59  1  0.49147000  0.11070000  0.29147000  1.0 2.2092522018
Th  Th60  1  0.18077000  0.88930000  0.38077000  1.0 2.2092522018
Th  Th61  1  0.38077000  0.49147000  0.20000000  1.0 2.2092522018
Th  Th62  1  0.29147000  0.18077000  0.80000000  1.0 2.2092522018
Th  Th63  1  0.70853000  0.50853000  0.88930000  1.0 2.2092522018
Th  Th64  1  0.61923000  0.81923000  0.11070000  1.0 2.2092522018
Th  Th65  1  0.20000000  0.38077000  0.49147000  1.0 2.2092522018
Th  Th66  1  0.80000000  0.29147000  0.18077000  1.0 2.2092522018
Th  Th67  1  0.88930000  0.70853000  0.50853000  1.0 2.2092522018
Th  Th68  1  0.11070000  0.61923000  0.81923000  1.0 2.2092522018
Th  Th69  1  0.49147000  0.20000000  0.38077000  1.0 2.2092522018
Th  Th70  1  0.18077000  0.80000000  0.29147000  1.0 2.2092522018
Th  Th71  1  0.50853000  0.88930000  0.70853000  1.0 2.2092522018
Th  Th72  1  0.81923000  0.11070000  0.61923000  1.0 2.2092522018
U  U1  1  0.56465000  0.60572000  0.95893000  1.0 1.7082891
U  U2  1  0.64679000  0.60572000  0.04107000  1.0 1.7082891
U  U3  1  0.35321000  0.39428000  0.95893000  1.0 1.7082891
U  U4  1  0.43535000  0.39428000  0.04107000  1.0 1.7082891
U  U5  1  0.95893000  0.56465000  0.60572000  1.0 1.69045393
U  U6  1  0.04107000  0.64679000  0.60572000  1.0 1.7082891
U  U7  1  0.95893000  0.35321000  0.39428000  1.0 1.69045393
U  U8  1  0.04107000  0.43535000  0.39428000  1.0 1.69045393
U  U9  1  0.60572000  0.95893000  0.56465000  1.0 1.7082891
U  U10  1  0.60572000  0.04107000  0.64679000  1.0 1.7082891
U  U11  1  0.39428000  0.95893000  0.35321000  1.0 1.7082891
U  U12  1  0.39428000  0.04107000  0.43535000  1.0 1.69045393
H  H1  1  0.62069000  0.36235000  0.67724000  1.0 0.1206207056
H  H2  1  0.68511000  0.94345000  0.32276000  1.0 0.1206207056
H  H3  1  0.31489000  0.63765000  0.25834000  1.0 0.1206207056
H  H4  1  0.37931000  0.05655000  0.74166000  1.0 0.1206207056
H  H5  1  0.67724000  0.62069000  0.36235000  1.0 0.1206207056
H  H6  1  0.32276000  0.68511000  0.94345000  1.0 0.1206207056
H  H7  1  0.25834000  0.31489000  0.63765000  1.0 0.1206207056
H  H8  1  0.74166000  0.37931000  0.05655000  1.0 0.1206207056
H  H9  1  0.36235000  0.67724000  0.62069000  1.0 0.1206207056
H  H10  1  0.94345000  0.32276000  0.68511000  1.0 0.1206207056
H  H11  1  0.63765000  0.25834000  0.31489000  1.0 0.1206207056
H  H12  1  0.05655000  0.74166000  0.37931000  1.0 0.1206207056
H  H13  1  0.37931000  0.63765000  0.32276000  1.0 0.1206207056
H  H14  1  0.31489000  0.05655000  0.67724000  1.0 0.1206207056
H  H15  1  0.68511000  0.36235000  0.74166000  1.0 0.1206207056
H  H16  1  0.62069000  0.94345000  0.25834000  1.0 0.1206207056
H  H17  1  0.32276000  0.37931000  0.63765000  1.0 0.1206207056
H  H18  1  0.67724000  0.31489000  0.05655000  1.0 0.1206207056
H  H19  1  0.74166000  0.68511000  0.36235000  1.0 0.1206207056
H  H20  1  0.25834000  0.62069000  0.94345000  1.0 0.1206207056
H  H21  1  0.63765000  0.32276000  0.37931000  1.0 0.1206207056
H  H22  1  0.05655000  0.67724000  0.31489000  1.0 0.1206207056
H  H23  1  0.36235000  0.74166000  0.68511000  1.0 0.1206207056
H  H24  1  0.94345000  0.25834000  0.62069000  1.0 0.1206207056
H  H25  1  0.67270000  0.43375000  0.58043000  1.0 0.1206207056
H  H26  1  0.85332000  0.09227000  0.41957000  1.0 0.1206207056
H  H27  1  0.14668000  0.56625000  0.23895000  1.0 0.1206207056
H  H28  1  0.32730000  0.90773000  0.76105000  1.0 0.1206207056
H  H29  1  0.58043000  0.67270000  0.43375000  1.0 0.1206207056
H  H30  1  0.41957000  0.85332000  0.09227000  1.0 0.1206207056
H  H31  1  0.23895000  0.14668000  0.56625000  1.0 0.1206207056
H  H32  1  0.76105000  0.32730000  0.90773000  1.0 0.1206207056
H  H33  1  0.43375000  0.58043000  0.67270000  1.0 0.1206207056
H  H34  1  0.09227000  0.41957000  0.85332000  1.0 0.1206207056
H  H35  1  0.56625000  0.23895000  0.14668000  1.0 0.1206207056
H  H36  1  0.90773000  0.76105000  0.32730000  1.0 0.1206207056
H  H37  1  0.32730000  0.56625000  0.41957000  1.0 0.1206207056
H  H38  1  0.14668000  0.90773000  0.58043000  1.0 0.1206207056
H  H39  1  0.85332000  0.43375000  0.76105000  1.0 0.1206207056
H  H40  1  0.67270000  0.09227000  0.23895000  1.0 0.1206207056
H  H41  1  0.41957000  0.32730000  0.56625000  1.0 0.1206207056
H  H42  1  0.58043000  0.14668000  0.90773000  1.0 0.1206207056
H  H43  1  0.76105000  0.85332000  0.43375000  1.0 0.1206207056
H  H44  1  0.23895000  0.67270000  0.09227000  1.0 0.1206207056
H  H45  1  0.56625000  0.41957000  0.32730000  1.0 0.1206207056
H  H46  1  0.90773000  0.58043000  0.14668000  1.0 0.1206207056
H  H47  1  0.43375000  0.76105000  0.85332000  1.0 0.1206207056
H  H48  1  0.09227000  0.23895000  0.67270000  1.0 0.1206207056
H  H49  1  0.59888000  0.31216000  0.54384000  1.0 0.1084247973
H  H50  1  0.76832000  0.05504000  0.45616000  1.0 0.1084247973
H  H51  1  0.23168000  0.68784000  0.28672000  1.0 0.1084247973
H  H52  1  0.40112000  0.94496000  0.71328000  1.0 0.1084247973
H  H53  1  0.54384000  0.59888000  0.31216000  1.0 0.1084247973
H  H54  1  0.45616000  0.76832000  0.05504000  1.0 0.1084247973
H  H55  1  0.28672000  0.23168000  0.68784000  1.0 0.1084247973
H  H56  1  0.71328000  0.40112000  0.94496000  1.0 0.1084247973
H  H57  1  0.31216000  0.54384000  0.59888000  1.0 0.1084247973
H  H58  1  0.05504000  0.45616000  0.76832000  1.0 0.1084247973
H  H59  1  0.68784000  0.28672000  0.23168000  1.0 0.1084247973
H  H60  1  0.94496000  0.71328000  0.40112000  1.0 0.1084247973
H  H61  1  0.40112000  0.68784000  0.45616000  1.0 0.1084247973
H  H62  1  0.23168000  0.94496000  0.54384000  1.0 0.1084247973
H  H63  1  0.76832000  0.31216000  0.71328000  1.0 0.1084247973
H  H64  1  0.59888000  0.05504000  0.28672000  1.0 0.1084247973
H  H65  1  0.45616000  0.40112000  0.68784000  1.0 0.1084247973
H  H66  1  0.54384000  0.23168000  0.94496000  1.0 0.1084247973
H  H67  1  0.71328000  0.76832000  0.31216000  1.0 0.1084247973
H  H68  1  0.28672000  0.59888000  0.05504000  1.0 0.1084247973
H  H69  1  0.68784000  0.45616000  0.40112000  1.0 0.1084247973
H  H70  1  0.94496000  0.54384000  0.23168000  1.0 0.1084247973
H  H71  1  0.31216000  0.71328000  0.76832000  1.0 0.1084247973
H  H72  1  0.05504000  0.28672000  0.59888000  1.0 0.1084247973
H  H73  1  0.61803000  0.46253000  0.66788000  1.0 0.1206207056
H  H74  1  0.79465000  0.95015000  0.33212000  1.0 0.1206207056
H  H75  1  0.20535000  0.53747000  0.15550000  1.0 0.1206207056
H  H76  1  0.38197000  0.04985000  0.84450000  1.0 0.1206207056
H  H77  1  0.66788000  0.61803000  0.46253000  1.0 0.1206207056
H  H78  1  0.33212000  0.79465000  0.95015000  1.0 0.1206207056
H  H79  1  0.15550000  0.20535000  0.53747000  1.0 0.1206207056
H  H80  1  0.84450000  0.38197000  0.04985000  1.0 0.1206207056
H  H81  1  0.46253000  0.66788000  0.61803000  1.0 0.1206207056
H  H82  1  0.95015000  0.33212000  0.79465000  1.0 0.1206207056
H  H83  1  0.53747000  0.15550000  0.20535000  1.0 0.1206207056
H  H84  1  0.04985000  0.84450000  0.38197000  1.0 0.1206207056
H  H85  1  0.38197000  0.53747000  0.33212000  1.0 0.1206207056
H  H86  1  0.20535000  0.04985000  0.66788000  1.0 0.1206207056
H  H87  1  0.79465000  0.46253000  0.84450000  1.0 0.1206207056
H  H88  1  0.61803000  0.95015000  0.15550000  1.0 0.1206207056
H  H89  1  0.33212000  0.38197000  0.53747000  1.0 0.1206207056
H  H90  1  0.66788000  0.20535000  0.04985000  1.0 0.1206207056
H  H91  1  0.84450000  0.79465000  0.46253000  1.0 0.1206207056
H  H92  1  0.15550000  0.61803000  0.95015000  1.0 0.1206207056
H  H93  1  0.53747000  0.33212000  0.38197000  1.0 0.1206207056
H  H94  1  0.04985000  0.66788000  0.20535000  1.0 0.1206207056
H  H95  1  0.46253000  0.84450000  0.79465000  1.0 0.1206207056
H  H96  1  0.95015000  0.15550000  0.61803000  1.0 0.1206207056
H  H97  1  0.70633000  0.38708000  0.48503000  1.0 0.1300813911
H  H98  1  0.90205000  0.22130000  0.51497000  1.0 0.1300813911
H  H99  1  0.09795000  0.61292000  0.31925000  1.0 0.1300813911
H  H100  1  0.29367000  0.77870000  0.68075000  1.0 0.1300813911
H  H101  1  0.48503000  0.70633000  0.38708000  1.0 0.1300813911
H  H102  1  0.51497000  0.90205000  0.22130000  1.0 0.1300813911
H  H103  1  0.31925000  0.09795000  0.61292000  1.0 0.1300813911
H  H104  1  0.68075000  0.29367000  0.77870000  1.0 0.1300813911
H  H105  1  0.38708000  0.48503000  0.70633000  1.0 0.1300813911
H  H106  1  0.22130000  0.51497000  0.90205000  1.0 0.1300813911
H  H107  1  0.61292000  0.31925000  0.09795000  1.0 0.1300813911
H  H108  1  0.77870000  0.68075000  0.29367000  1.0 0.1300813911
H  H109  1  0.29367000  0.61292000  0.51497000  1.0 0.1300813911
H  H110  1  0.09795000  0.77870000  0.48503000  1.0 0.1300813911
H  H111  1  0.90205000  0.38708000  0.68075000  1.0 0.1300813911
H  H112  1  0.70633000  0.22130000  0.31925000  1.0 0.1300813911
H  H113  1  0.51497000  0.29367000  0.61292000  1.0 0.1300813911
H  H114  1  0.48503000  0.09795000  0.77870000  1.0 0.1300813911
H  H115  1  0.68075000  0.90205000  0.38708000  1.0 0.1300813911
H  H116  1  0.31925000  0.70633000  0.22130000  1.0 0.1300813911
H  H117  1  0.61292000  0.51497000  0.29367000  1.0 0.1300813911
H  H118  1  0.77870000  0.48503000  0.09795000  1.0 0.1300813911
H  H119  1  0.38708000  0.68075000  0.90205000  1.0 0.1300813911
H  H120  1  0.22130000  0.31925000  0.70633000  1.0 0.1300813911
H  H121  1  0.64046000  0.33806000  0.47092000  1.0 0.1084247973
H  H122  1  0.86714000  0.16954000  0.52908000  1.0 0.1084247973
H  H123  1  0.13286000  0.66194000  0.30240000  1.0 0.1084247973
H  H124  1  0.35954000  0.83046000  0.69760000  1.0 0.1084247973
H  H125  1  0.47092000  0.64046000  0.33806000  1.0 0.1084247973
H  H126  1  0.52908000  0.86714000  0.16954000  1.0 0.1084247973
H  H127  1  0.30240000  0.13286000  0.66194000  1.0 0.1084247973
H  H128  1  0.69760000  0.35954000  0.83046000  1.0 0.1084247973
H  H129  1  0.33806000  0.47092000  0.64046000  1.0 0.1084247973
H  H130  1  0.16954000  0.52908000  0.86714000  1.0 0.1084247973
H  H131  1  0.66194000  0.30240000  0.13286000  1.0 0.1084247973
H  H132  1  0.83046000  0.69760000  0.35954000  1.0 0.1084247973
H  H133  1  0.35954000  0.66194000  0.52908000  1.0 0.1084247973
H  H134  1  0.13286000  0.83046000  0.47092000  1.0 0.1084247973
H  H135  1  0.86714000  0.33806000  0.69760000  1.0 0.102559583
H  H136  1  0.64046000  0.16954000  0.30240000  1.0 0.1084247973
H  H137  1  0.52908000  0.35954000  0.66194000  1.0 0.1084247973
H  H138  1  0.47092000  0.13286000  0.83046000  1.0 0.1084247973
H  H139  1  0.69760000  0.86714000  0.33806000  1.0 0.1084247973
H  H140  1  0.30240000  0.64046000  0.16954000  1.0 0.1084247973
H  H141  1  0.66194000  0.52908000  0.35954000  1.0 0.1084247973
H  H142  1  0.83046000  0.47092000  0.13286000  1.0 0.1084247973
H  H143  1  0.33806000  0.69760000  0.86714000  1.0 0.1084247973
H  H144  1  0.16954000  0.30240000  0.64046000  1.0 0.1084247973
H  H145  1  0.66859000  0.46661000  0.53580000  1.0 0.1446437312
H  H146  1  0.93081000  0.13279000  0.46420000  1.0 0.1446437312
H  H147  1  0.06919000  0.53339000  0.20198000  1.0 0.1446437312
H  H148  1  0.33141000  0.86721000  0.79802000  1.0 0.1446437312
H  H149  1  0.53580000  0.66859000  0.46661000  1.0 0.1446437312
H  H150  1  0.46420000  0.93081000  0.13279000  1.0 0.1446437312
H  H151  1  0.20198000  0.06919000  0.53339000  1.0 0.1513570064
H  H152  1  0.79802000  0.33141000  0.86721000  1.0 0.1446437312
H  H153  1  0.46661000  0.53580000  0.66859000  1.0 0.1446437312
H  H154  1  0.13279000  0.46420000  0.93081000  1.0 0.1513570064
H  H155  1  0.53339000  0.20198000  0.06919000  1.0 0.1446437312
H  H156  1  0.86721000  0.79802000  0.33141000  1.0 0.1446437312
H  H157  1  0.33141000  0.53339000  0.46420000  1.0 0.1446437312
H  H158  1  0.06919000  0.86721000  0.53580000  1.0 0.1446437312
H  H159  1  0.93081000  0.46661000  0.79802000  1.0 0.1446437312
H  H160  1  0.66859000  0.13279000  0.20198000  1.0 0.1446437312
H  H161  1  0.46420000  0.33141000  0.53339000  1.0 0.1446437312
H  H162  1  0.53580000  0.06919000  0.86721000  1.0 0.1513570064
H  H163  1  0.79802000  0.93081000  0.46661000  1.0 0.1446437312
H  H164  1  0.20198000  0.66859000  0.13279000  1.0 0.1446437312
H  H165  1  0.53339000  0.46420000  0.33141000  1.0 0.1446437312
H  H166  1  0.86721000  0.53580000  0.06919000  1.0 0.1446437312
H  H167  1  0.46661000  0.79802000  0.93081000  1.0 0.1446437312
H  H168  1  0.13279000  0.20198000  0.66859000  1.0 0.1513570064
H  H169  1  0.62952000  0.34141000  0.61811000  1.0 0.1084247973
H  H170  1  0.72330000  0.01141000  0.38189000  1.0 0.1084247973
H  H171  1  0.27670000  0.65859000  0.28811000  1.0 0.1084247973
H  H172  1  0.37048000  0.98859000  0.71189000  1.0 0.1084247973
H  H173  1  0.61811000  0.62952000  0.34141000  1.0 0.1084247973
H  H174  1  0.38189000  0.72330000  0.01141000  1.0 0.1084247973
H  H175  1  0.28811000  0.27670000  0.65859000  1.0 0.1084247973
H  H176  1  0.71189000  0.37048000  0.98859000  1.0 0.1084247973
H  H177  1  0.34141000  0.61811000  0.62952000  1.0 0.1084247973
H  H178  1  0.01141000  0.38189000  0.72330000  1.0 0.1084247973
H  H179  1  0.65859000  0.28811000  0.27670000  1.0 0.1084247973
H  H180  1  0.98859000  0.71189000  0.37048000  1.0 0.1084247973
H  H181  1  0.37048000  0.65859000  0.38189000  1.0 0.1084247973
H  H182  1  0.27670000  0.98859000  0.61811000  1.0 0.1084247973
H  H183  1  0.72330000  0.34141000  0.71189000  1.0 0.1084247973
H  H184  1  0.62952000  0.01141000  0.28811000  1.0 0.1084247973
H  H185  1  0.38189000  0.37048000  0.65859000  1.0 0.1084247973
H  H186  1  0.61811000  0.27670000  0.98859000  1.0 0.1084247973
H  H187  1  0.71189000  0.72330000  0.34141000  1.0 0.1084247973
H  H188  1  0.28811000  0.62952000  0.01141000  1.0 0.1084247973
H  H189  1  0.65859000  0.38189000  0.37048000  1.0 0.1084247973
H  H190  1  0.98859000  0.61811000  0.27670000  1.0 0.1084247973
H  H191  1  0.34141000  0.71189000  0.72330000  1.0 0.1084247973
H  H192  1  0.01141000  0.28811000  0.62952000  1.0 0.1084247973
H  H193  1  0.74211000  0.43495000  0.46816000  1.0 0.1300813911
H  H194  1  0.96679000  0.27395000  0.53184000  1.0 0.1300813911
H  H195  1  0.03321000  0.56505000  0.30716000  1.0 0.1300813911
H  H196  1  0.25789000  0.72605000  0.69284000  1.0 0.1300813911
H  H197  1  0.46816000  0.74211000  0.43495000  1.0 0.1300813911
H  H198  1  0.53184000  0.96679000  0.27395000  1.0 0.1300813911
H  H199  1  0.30716000  0.03321000  0.56505000  1.0 0.1300813911
H  H200  1  0.69284000  0.25789000  0.72605000  1.0 0.1300813911
H  H201  1  0.43495000  0.46816000  0.74211000  1.0 0.1300813911
H  H202  1  0.27395000  0.53184000  0.96679000  1.0 0.1300813911
H  H203  1  0.56505000  0.30716000  0.03321000  1.0 0.1300813911
H  H204  1  0.72605000  0.69284000  0.25789000  1.0 0.1300813911
H  H205  1  0.25789000  0.56505000  0.53184000  1.0 0.1300813911
H  H206  1  0.03321000  0.72605000  0.46816000  1.0 0.1300813911
H  H207  1  0.96679000  0.43495000  0.69284000  1.0 0.1300813911
H  H208  1  0.74211000  0.27395000  0.30716000  1.0 0.1300813911
H  H209  1  0.53184000  0.25789000  0.56505000  1.0 0.1300813911
H  H210  1  0.46816000  0.03321000  0.72605000  1.0 0.1300813911
H  H211  1  0.69284000  0.96679000  0.43495000  1.0 0.1300813911
H  H212  1  0.30716000  0.74211000  0.27395000  1.0 0.1300813911
H  H213  1  0.56505000  0.53184000  0.25789000  1.0 0.1300813911
H  H214  1  0.72605000  0.46816000  0.03321000  1.0 0.1300813911
H  H215  1  0.43495000  0.69284000  0.96679000  1.0 0.1300813911
H  H216  1  0.27395000  0.30716000  0.74211000  1.0 0.1300813911
H  H217  1  0.62691000  0.44213000  0.60932000  1.0 0.1206207056
H  H218  1  0.83281000  0.01759000  0.39068000  1.0 0.1206207056
H  H219  1  0.16719000  0.55787000  0.18478000  1.0 0.1206207056
H  H220  1  0.37309000  0.98241000  0.81522000  1.0 0.1206207056
H  H221  1  0.60932000  0.62691000  0.44213000  1.0 0.1206207056
H  H222  1  0.39068000  0.83281000  0.01759000  1.0 0.1206207056
H  H223  1  0.18478000  0.16719000  0.55787000  1.0 0.1206207056
H  H224  1  0.81522000  0.37309000  0.98241000  1.0 0.1206207056
H  H225  1  0.44213000  0.60932000  0.62691000  1.0 0.1206207056
H  H226  1  0.01759000  0.39068000  0.83281000  1.0 0.1206207056
H  H227  1  0.55787000  0.18478000  0.16719000  1.0 0.1206207056
H  H228  1  0.98241000  0.81522000  0.37309000  1.0 0.1206207056
H  H229  1  0.37309000  0.55787000  0.39068000  1.0 0.1206207056
H  H230  1  0.16719000  0.98241000  0.60932000  1.0 0.1206207056
H  H231  1  0.83281000  0.44213000  0.81522000  1.0 0.1206207056
H  H232  1  0.62691000  0.01759000  0.18478000  1.0 0.1206207056
H  H233  1  0.39068000  0.37309000  0.55787000  1.0 0.1206207056
H  H234  1  0.60932000  0.16719000  0.98241000  1.0 0.1206207056
H  H235  1  0.81522000  0.83281000  0.44213000  1.0 0.1206207056
H  H236  1  0.18478000  0.62691000  0.01759000  1.0 0.1206207056
H  H237  1  0.55787000  0.39068000  0.37309000  1.0 0.1206207056
H  H238  1  0.98241000  0.60932000  0.16719000  1.0 0.1206207056
H  H239  1  0.44213000  0.81522000  0.83281000  1.0 0.1206207056
H  H240  1  0.01759000  0.18478000  0.62691000  1.0 0.1206207056
H  H241  1  0.53932000  0.34732000  0.88664000  1.0 0.1513570064
H  H242  1  0.46068000  0.65268000  0.11336000  1.0 0.1513570064
H  H243  1  0.53932000  0.65268000  0.19200000  1.0 0.1513570064
H  H244  1  0.46068000  0.34732000  0.80800000  1.0 0.1513570064
H  H245  1  0.88664000  0.53932000  0.34732000  1.0 0.1513570064
H  H246  1  0.11336000  0.46068000  0.65268000  1.0 0.1513570064
H  H247  1  0.19200000  0.53932000  0.65268000  1.0 0.1513570064
H  H248  1  0.80800000  0.46068000  0.34732000  1.0 0.1513570064
H  H249  1  0.34732000  0.88664000  0.53932000  1.0 0.1513570064
H  H250  1  0.65268000  0.11336000  0.46068000  1.0 0.1513570064
H  H251  1  0.65268000  0.19200000  0.53932000  1.0 0.1513570064
H  H252  1  0.34732000  0.80800000  0.46068000  1.0 0.1513570064
H  H253  1  0.61935000  0.22552000  0.80857000  1.0 0.063632624
H  H254  1  0.41695000  0.81078000  0.19143000  1.0 0.063632624
H  H255  1  0.58305000  0.77448000  0.39383000  1.0 0.063632624
H  H256  1  0.38065000  0.18922000  0.60617000  1.0 0.063632624
H  H257  1  0.80857000  0.61935000  0.22552000  1.0 0.063632624
H  H258  1  0.19143000  0.41695000  0.81078000  1.0 0.063632624
H  H259  1  0.39383000  0.58305000  0.77448000  1.0 0.063632624
H  H260  1  0.60617000  0.38065000  0.18922000  1.0 0.063632624
H  H261  1  0.22552000  0.80857000  0.61935000  1.0 0.063632624
H  H262  1  0.81078000  0.19143000  0.41695000  1.0 0.063632624
H  H263  1  0.77448000  0.39383000  0.58305000  1.0 0.063632624
H  H264  1  0.18922000  0.60617000  0.38065000  1.0 0.063632624
H  H265  1  0.38065000  0.77448000  0.19143000  1.0 0.063632624
H  H266  1  0.58305000  0.18922000  0.80857000  1.0 0.063632624
H  H267  1  0.41695000  0.22552000  0.60617000  1.0 0.063632624
H  H268  1  0.61935000  0.81078000  0.39383000  1.0 0.063632624
H  H269  1  0.19143000  0.38065000  0.77448000  1.0 0.063632624
H  H270  1  0.80857000  0.58305000  0.18922000  1.0 0.063632624
H  H271  1  0.60617000  0.41695000  0.22552000  1.0 0.063632624
H  H272  1  0.39383000  0.61935000  0.81078000  1.0 0.063632624
H  H273  1  0.77448000  0.19143000  0.38065000  1.0 0.063632624
H  H274  1  0.18922000  0.80857000  0.58305000  1.0 0.063632624
H  H275  1  0.22552000  0.60617000  0.41695000  1.0 0.063632624
H  H276  1  0.81078000  0.39383000  0.61935000  1.0 0.063632624
H  H277  1  0.63433000  0.27893000  0.92642000  1.0 0.102559583
H  H278  1  0.35251000  0.70791000  0.07358000  1.0 0.102559583
H  H279  1  0.64749000  0.72107000  0.35540000  1.0 0.102559583
H  H280  1  0.36567000  0.29209000  0.64460000  1.0 0.102559583
H  H281  1  0.92642000  0.63433000  0.27893000  1.0 0.102559583
H  H282  1  0.07358000  0.35251000  0.70791000  1.0 0.102559583
H  H283  1  0.35540000  0.64749000  0.72107000  1.0 0.102559583
H  H284  1  0.64460000  0.36567000  0.29209000  1.0 0.102559583
H  H285  1  0.27893000  0.92642000  0.63433000  1.0 0.102559583
H  H286  1  0.70791000  0.07358000  0.35251000  1.0 0.102559583
H  H287  1  0.72107000  0.35540000  0.64749000  1.0 0.102559583
H  H288  1  0.29209000  0.64460000  0.36567000  1.0 0.102559583
H  H289  1  0.36567000  0.72107000  0.07358000  1.0 0.102559583
H  H290  1  0.64749000  0.29209000  0.92642000  1.0 0.102559583
H  H291  1  0.35251000  0.27893000  0.64460000  1.0 0.102559583
H  H292  1  0.63433000  0.70791000  0.35540000  1.0 0.102559583
H  H293  1  0.07358000  0.36567000  0.72107000  1.0 0.102559583
H  H294  1  0.92642000  0.64749000  0.29209000  1.0 0.102559583
H  H295  1  0.64460000  0.35251000  0.27893000  1.0 0.102559583
H  H296  1  0.35540000  0.63433000  0.70791000  1.0 0.102559583
H  H297  1  0.72107000  0.07358000  0.36567000  1.0 0.102559583
H  H298  1  0.29209000  0.92642000  0.64749000  1.0 0.102559583
H  H299  1  0.27893000  0.64460000  0.35251000  1.0 0.102559583
H  H300  1  0.70791000  0.35540000  0.63433000  1.0 0.102559583
H  H301  1  0.61966000  0.32964000  0.91504000  1.0 0.102559583
H  H302  1  0.41460000  0.70462000  0.08496000  1.0 0.102559583
H  H303  1  0.58540000  0.67036000  0.29002000  1.0 0.102559583
H  H304  1  0.38034000  0.29538000  0.70998000  1.0 0.102559583
H  H305  1  0.91504000  0.61966000  0.32964000  1.0 0.102559583
H  H306  1  0.08496000  0.41460000  0.70462000  1.0 0.102559583
H  H307  1  0.29002000  0.58540000  0.67036000  1.0 0.102559583
H  H308  1  0.70998000  0.38034000  0.29538000  1.0 0.102559583
H  H309  1  0.32964000  0.91504000  0.61966000  1.0 0.102559583
H  H310  1  0.70462000  0.08496000  0.41460000  1.0 0.102559583
H  H311  1  0.67036000  0.29002000  0.58540000  1.0 0.102559583
H  H312  1  0.29538000  0.70998000  0.38034000  1.0 0.102559583
H  H313  1  0.38034000  0.67036000  0.08496000  1.0 0.102559583
H  H314  1  0.58540000  0.29538000  0.91504000  1.0 0.102559583
H  H315  1  0.41460000  0.32964000  0.70998000  1.0 0.102559583
H  H316  1  0.61966000  0.70462000  0.29002000  1.0 0.102559583
H  H317  1  0.08496000  0.38034000  0.67036000  1.0 0.102559583
H  H318  1  0.91504000  0.58540000  0.29538000  1.0 0.102559583
H  H319  1  0.70998000  0.41460000  0.32964000  1.0 0.102559583
H  H320  1  0.29002000  0.61966000  0.70462000  1.0 0.102559583
H  H321  1  0.67036000  0.08496000  0.38034000  1.0 0.102559583
H  H322  1  0.29538000  0.91504000  0.58540000  1.0 0.102559583
H  H323  1  0.32964000  0.70998000  0.41460000  1.0 0.102559583
H  H324  1  0.70462000  0.29002000  0.61966000  1.0 0.102559583
H  H325  1  0.60468000  0.27624000  0.79720000  1.0 0.1206207056
H  H326  1  0.47904000  0.80748000  0.20280000  1.0 0.1206207056
H  H327  1  0.52096000  0.72376000  0.32844000  1.0 0.1206207056
H  H328  1  0.39532000  0.19252000  0.67156000  1.0 0.1206207056
H  H329  1  0.79720000  0.60468000  0.27624000  1.0 0.1206207056
H  H330  1  0.20280000  0.47904000  0.80748000  1.0 0.1206207056
H  H331  1  0.32844000  0.52096000  0.72376000  1.0 0.1206207056
H  H332  1  0.67156000  0.39532000  0.19252000  1.0 0.1206207056
H  H333  1  0.27624000  0.79720000  0.60468000  1.0 0.1206207056
H  H334  1  0.80748000  0.20280000  0.47904000  1.0 0.1206207056
H  H335  1  0.72376000  0.32844000  0.52096000  1.0 0.1206207056
H  H336  1  0.19252000  0.67156000  0.39532000  1.0 0.1206207056
H  H337  1  0.39532000  0.72376000  0.20280000  1.0 0.1206207056
H  H338  1  0.52096000  0.19252000  0.79720000  1.0 0.1206207056
H  H339  1  0.47904000  0.27624000  0.67156000  1.0 0.1206207056
H  H340  1  0.60468000  0.80748000  0.32844000  1.0 0.1206207056
H  H341  1  0.20280000  0.39532000  0.72376000  1.0 0.1206207056
H  H342  1  0.79720000  0.52096000  0.19252000  1.0 0.1206207056
H  H343  1  0.67156000  0.47904000  0.27624000  1.0 0.1206207056
H  H344  1  0.32844000  0.60468000  0.80748000  1.0 0.1206207056
H  H345  1  0.72376000  0.20280000  0.39532000  1.0 0.1206207056
H  H346  1  0.19252000  0.79720000  0.52096000  1.0 0.1206207056
H  H347  1  0.27624000  0.67156000  0.47904000  1.0 0.1206207056
H  H348  1  0.80748000  0.32844000  0.60468000  1.0 0.1206207056
H  H349  1  0.75857000  0.27717000  0.97632000  1.0 0.1084247973
H  H350  1  0.30085000  0.78225000  0.02368000  1.0 0.1084247973
H  H351  1  0.69915000  0.72283000  0.48140000  1.0 0.1084247973
H  H352  1  0.24143000  0.21775000  0.51860000  1.0 0.1084247973
H  H353  1  0.97632000  0.75857000  0.27717000  1.0 0.1084247973
H  H354  1  0.02368000  0.30085000  0.78225000  1.0 0.1084247973
H  H355  1  0.48140000  0.69915000  0.72283000  1.0 0.1084247973
H  H356  1  0.51860000  0.24143000  0.21775000  1.0 0.1084247973
H  H357  1  0.27717000  0.97632000  0.75857000  1.0 0.1084247973
H  H358  1  0.78225000  0.02368000  0.30085000  1.0 0.1084247973
H  H359  1  0.72283000  0.48140000  0.69915000  1.0 0.1084247973
H  H360  1  0.21775000  0.51860000  0.24143000  1.0 0.1084247973
H  H361  1  0.24143000  0.72283000  0.02368000  1.0 0.1084247973
H  H362  1  0.69915000  0.21775000  0.97632000  1.0 0.1084247973
H  H363  1  0.30085000  0.27717000  0.51860000  1.0 0.1084247973
H  H364  1  0.75857000  0.78225000  0.48140000  1.0 0.1084247973
H  H365  1  0.02368000  0.24143000  0.72283000  1.0 0.1084247973
H  H366  1  0.97632000  0.69915000  0.21775000  1.0 0.1084247973
H  H367  1  0.51860000  0.30085000  0.27717000  1.0 0.1084247973
H  H368  1  0.48140000  0.75857000  0.78225000  1.0 0.1084247973
H  H369  1  0.72283000  0.02368000  0.24143000  1.0 0.1084247973
H  H370  1  0.21775000  0.97632000  0.69915000  1.0 0.1084247973
H  H371  1  0.27717000  0.51860000  0.30085000  1.0 0.1084247973
H  H372  1  0.78225000  0.48140000  0.75857000  1.0 0.1084247973
H  H373  1  0.69510000  0.16861000  0.97489000  1.0 0.102559583
H  H374  1  0.19372000  0.72021000  0.02511000  1.0 0.102559583
H  H375  1  0.80628000  0.83139000  0.52649000  1.0 0.102559583
H  H376  1  0.30490000  0.27979000  0.47351000  1.0 0.102559583
H  H377  1  0.97489000  0.69510000  0.16861000  1.0 0.102559583
H  H378  1  0.02511000  0.19372000  0.72021000  1.0 0.102559583
H  H379  1  0.52649000  0.80628000  0.83139000  1.0 0.102559583
H  H380  1  0.47351000  0.30490000  0.27979000  1.0 0.102559583
H  H381  1  0.16861000  0.97489000  0.69510000  1.0 0.102559583
H  H382  1  0.72021000  0.02511000  0.19372000  1.0 0.102559583
H  H383  1  0.83139000  0.52649000  0.80628000  1.0 0.102559583
H  H384  1  0.27979000  0.47351000  0.30490000  1.0 0.102559583
H  H385  1  0.30490000  0.83139000  0.02511000  1.0 0.102559583
H  H386  1  0.80628000  0.27979000  0.97489000  1.0 0.102559583
H  H387  1  0.19372000  0.16861000  0.47351000  1.0 0.102559583
H  H388  1  0.69510000  0.72021000  0.52649000  1.0 0.102559583
H  H389  1  0.02511000  0.30490000  0.83139000  1.0 0.102559583
H  H390  1  0.97489000  0.80628000  0.27979000  1.0 0.102559583
H  H391  1  0.47351000  0.19372000  0.16861000  1.0 0.102559583
H  H392  1  0.52649000  0.69510000  0.72021000  1.0 0.102559583
H  H393  1  0.83139000  0.02511000  0.30490000  1.0 0.102559583
H  H394  1  0.27979000  0.97489000  0.80628000  1.0 0.102559583
H  H395  1  0.16861000  0.47351000  0.19372000  1.0 0.102559583
H  H396  1  0.72021000  0.52649000  0.69510000  1.0 0.102559583
H  H397  1  0.74862000  0.19671000  0.04423000  1.0 0.1206207056
H  H398  1  0.15248000  0.70439000  0.95577000  1.0 0.1206207056
H  H399  1  0.84752000  0.80329000  0.55191000  1.0 0.1206207056
H  H400  1  0.25138000  0.29561000  0.44809000  1.0 0.1206207056
H  H401  1  0.04423000  0.74862000  0.19671000  1.0 0.1206207056
H  H402  1  0.95577000  0.15248000  0.70439000  1.0 0.1206207056
H  H403  1  0.55191000  0.84752000  0.80329000  1.0 0.1206207056
H  H404  1  0.44809000  0.25138000  0.29561000  1.0 0.1206207056
H  H405  1  0.19671000  0.04423000  0.74862000  1.0 0.1206207056
H  H406  1  0.70439000  0.95577000  0.15248000  1.0 0.1206207056
H  H407  1  0.80329000  0.55191000  0.84752000  1.0 0.1206207056
H  H408  1  0.29561000  0.44809000  0.25138000  1.0 0.1206207056
H  H409  1  0.25138000  0.80329000  0.95577000  1.0 0.1206207056
H  H410  1  0.84752000  0.29561000  0.04423000  1.0 0.1206207056
H  H411  1  0.15248000  0.19671000  0.44809000  1.0 0.1206207056
H  H412  1  0.74862000  0.70439000  0.55191000  1.0 0.1206207056
H  H413  1  0.95577000  0.25138000  0.80329000  1.0 0.1206207056
H  H414  1  0.04423000  0.84752000  0.29561000  1.0 0.1206207056
H  H415  1  0.44809000  0.15248000  0.19671000  1.0 0.1206207056
H  H416  1  0.55191000  0.74862000  0.70439000  1.0 0.1206207056
H  H417  1  0.80329000  0.95577000  0.25138000  1.0 0.1206207056
H  H418  1  0.29561000  0.04423000  0.84752000  1.0 0.1206207056
H  H419  1  0.19671000  0.44809000  0.15248000  1.0 0.1206207056
H  H420  1  0.70439000  0.55191000  0.74862000  1.0 0.1206207056
H  H421  1  0.81208000  0.30527000  0.04565000  1.0 0.1084247973
H  H422  1  0.25962000  0.76643000  0.95435000  1.0 0.1084247973
H  H423  1  0.74038000  0.69473000  0.50681000  1.0 0.1084247973
H  H424  1  0.18792000  0.23357000  0.49319000  1.0 0.1084247973
H  H425  1  0.04565000  0.81208000  0.30527000  1.0 0.1084247973
H  H426  1  0.95435000  0.25962000  0.76643000  1.0 0.1084247973
H  H427  1  0.50681000  0.74038000  0.69473000  1.0 0.1084247973
H  H428  1  0.49319000  0.18792000  0.23357000  1.0 0.1084247973
H  H429  1  0.30527000  0.04565000  0.81208000  1.0 0.1084247973
H  H430  1  0.76643000  0.95435000  0.25962000  1.0 0.1084247973
H  H431  1  0.69473000  0.50681000  0.74038000  1.0 0.1084247973
H  H432  1  0.23357000  0.49319000  0.18792000  1.0 0.1084247973
H  H433  1  0.18792000  0.69473000  0.95435000  1.0 0.1084247973
H  H434  1  0.74038000  0.23357000  0.04565000  1.0 0.1084247973
H  H435  1  0.25962000  0.30527000  0.49319000  1.0 0.1084247973
H  H436  1  0.81208000  0.76643000  0.50681000  1.0 0.1084247973
H  H437  1  0.95435000  0.18792000  0.69473000  1.0 0.1084247973
H  H438  1  0.04565000  0.74038000  0.23357000  1.0 0.1084247973
H  H439  1  0.49319000  0.25962000  0.30527000  1.0 0.1084247973
H  H440  1  0.50681000  0.81208000  0.76643000  1.0 0.1084247973
H  H441  1  0.69473000  0.95435000  0.18792000  1.0 0.1084247973
H  H442  1  0.23357000  0.04565000  0.74038000  1.0 0.1084247973
H  H443  1  0.30527000  0.49319000  0.25962000  1.0 0.1084247973
H  H444  1  0.76643000  0.50681000  0.81208000  1.0 0.1084247973
H  H445  1  0.67288000  0.14194000  0.90083000  1.0 0.1084247973
H  H446  1  0.24112000  0.77206000  0.09917000  1.0 0.1084247973
H  H447  1  0.75889000  0.85806000  0.53095000  1.0 0.1084247973
H  H448  1  0.32712000  0.22794000  0.46906000  1.0 0.1084247973
H  H449  1  0.90082000  0.67288000  0.14194000  1.0 0.1084247973
H  H450  1  0.09918000  0.24112000  0.77206000  1.0 0.1084247973
H  H451  1  0.53095000  0.75889000  0.85806000  1.0 0.1084247973
H  H452  1  0.46906000  0.32711000  0.22794000  1.0 0.1084247973
H  H453  1  0.14194000  0.90083000  0.67289000  1.0 0.1084247973
H  H454  1  0.77206000  0.09918000  0.24112000  1.0 0.1084247973
H  H455  1  0.85806000  0.53095000  0.75889000  1.0 0.1084247973
H  H456  1  0.22794000  0.46905000  0.32711000  1.0 0.1084247973
H  H457  1  0.32711000  0.85806000  0.09917000  1.0 0.1084247973
H  H458  1  0.75889000  0.22794000  0.90083000  1.0 0.1084247973
H  H459  1  0.24112000  0.14194000  0.46906000  1.0 0.1084247973
H  H460  1  0.67289000  0.77206000  0.53095000  1.0 0.1084247973
H  H461  1  0.09918000  0.32712000  0.85806000  1.0 0.1084247973
H  H462  1  0.90082000  0.75888000  0.22794000  1.0 0.1084247973
H  H463  1  0.46906000  0.24111000  0.14194000  1.0 0.1084247973
H  H464  1  0.53095000  0.67288000  0.77206000  1.0 0.1084247973
H  H465  1  0.85806000  0.09917000  0.32711000  1.0 0.1084247973
H  H466  1  0.22794000  0.90083000  0.75889000  1.0 0.1084247973
H  H467  1  0.14194000  0.46905000  0.24112000  1.0 0.1084247973
H  H468  1  0.77206000  0.53095000  0.67289000  1.0 0.1084247973
H  H469  1  0.59639000  0.16342000  0.81935000  1.0 0.079374229
H  H470  1  0.34407000  0.77704000  0.18065000  1.0 0.079374229
H  H471  1  0.65593000  0.83658000  0.43297000  1.0 0.079374229
H  H472  1  0.40361000  0.22296000  0.56703000  1.0 0.079374229
H  H473  1  0.81935000  0.59639000  0.16342000  1.0 0.079374229
H  H474  1  0.18065000  0.34407000  0.77704000  1.0 0.079374229
H  H475  1  0.43297000  0.65593000  0.83658000  1.0 0.079374229
H  H476  1  0.56703000  0.40361000  0.22296000  1.0 0.079374229
H  H477  1  0.16342000  0.81935000  0.59639000  1.0 0.079374229
H  H478  1  0.77704000  0.18065000  0.34407000  1.0 0.079374229
H  H479  1  0.83658000  0.43297000  0.65593000  1.0 0.079374229
H  H480  1  0.22296000  0.56703000  0.40361000  1.0 0.079374229
H  H481  1  0.40361000  0.83658000  0.18065000  1.0 0.079374229
H  H482  1  0.65593000  0.22296000  0.81935000  1.0 0.079374229
H  H483  1  0.34407000  0.16342000  0.56703000  1.0 0.079374229
H  H484  1  0.59639000  0.77704000  0.43297000  1.0 0.079374229
H  H485  1  0.18065000  0.40361000  0.83658000  1.0 0.079374229
H  H486  1  0.81935000  0.65593000  0.22296000  1.0 0.079374229
H  H487  1  0.56703000  0.34407000  0.16342000  1.0 0.079374229
H  H488  1  0.43297000  0.59639000  0.77704000  1.0 0.079374229
H  H489  1  0.83658000  0.18065000  0.40361000  1.0 0.079374229
H  H490  1  0.22296000  0.81935000  0.65593000  1.0 0.079374229
H  H491  1  0.16342000  0.56703000  0.34407000  1.0 0.079374229
H  H492  1  0.77704000  0.43297000  0.59639000  1.0 0.079374229
H  H493  1  0.63235000  0.63152000  0.86315000  1.0 0.1084247973
H  H494  1  0.76837000  0.76920000  0.13685000  1.0 0.102559583
H  H495  1  0.23163000  0.36848000  0.00083000  1.0 0.102559583
H  H496  1  0.36765000  0.23080000  0.99917000  1.0 0.1084247973
H  H497  1  0.86315000  0.63235000  0.63152000  1.0 0.1084247973
H  H498  1  0.13685000  0.76837000  0.76920000  1.0 0.1084247973
H  H499  1  0.00083000  0.23163000  0.36848000  1.0 0.1084247973
H  H500  1  0.99917000  0.36765000  0.23080000  1.0 0.1084247973
H  H501  1  0.63152000  0.86315000  0.63235000  1.0 0.1084247973
H  H502  1  0.76920000  0.13685000  0.76837000  1.0 0.102559583
H  H503  1  0.36848000  0.00083000  0.23163000  1.0 0.102559583
H  H504  1  0.23080000  0.99917000  0.36765000  1.0 0.1084247973
H  H505  1  0.36765000  0.36848000  0.13685000  1.0 0.1084247973
H  H506  1  0.23163000  0.23080000  0.86315000  1.0 0.1084247973
H  H507  1  0.76837000  0.63152000  0.99917000  1.0 0.1084247973
H  H508  1  0.63235000  0.76920000  0.00083000  1.0 0.102559583
H  H509  1  0.13685000  0.36765000  0.36848000  1.0 0.1084247973
H  H510  1  0.86315000  0.23163000  0.23080000  1.0 0.1084247973
H  H511  1  0.99917000  0.76837000  0.63152000  1.0 0.1084247973
H  H512  1  0.00083000  0.63235000  0.76920000  1.0 0.1084247973
H  H513  1  0.36848000  0.13685000  0.36765000  1.0 0.1084247973
H  H514  1  0.23080000  0.86315000  0.23163000  1.0 0.1084247973
H  H515  1  0.63152000  0.99917000  0.76837000  1.0 0.1084247973
H  H516  1  0.76920000  0.00083000  0.63235000  1.0 0.1084247973
H  H517  1  0.68788000  0.25999000  0.93845000  1.0 0.1084247973
H  H518  1  0.32154000  0.74943000  0.06155000  1.0 0.1084247973
H  H519  1  0.67846000  0.74001000  0.42789000  1.0 0.1084247973
H  H520  1  0.31212000  0.25057000  0.57211000  1.0 0.1084247973
H  H521  1  0.93845000  0.68788000  0.25999000  1.0 0.1084247973
H  H522  1  0.06155000  0.32154000  0.74943000  1.0 0.1084247973
H  H523  1  0.42789000  0.67846000  0.74001000  1.0 0.1084247973
H  H524  1  0.57211000  0.31212000  0.25057000  1.0 0.1084247973
H  H525  1  0.25999000  0.93845000  0.68788000  1.0 0.1084247973
H  H526  1  0.74943000  0.06155000  0.32154000  1.0 0.1084247973
H  H527  1  0.74001000  0.42789000  0.67846000  1.0 0.1084247973
H  H528  1  0.25057000  0.57211000  0.31212000  1.0 0.1084247973
H  H529  1  0.31212000  0.74001000  0.06155000  1.0 0.1084247973
H  H530  1  0.67846000  0.25057000  0.93845000  1.0 0.1084247973
H  H531  1  0.32154000  0.25999000  0.57211000  1.0 0.1084247973
H  H532  1  0.68788000  0.74943000  0.42789000  1.0 0.1084247973
H  H533  1  0.06155000  0.31212000  0.74001000  1.0 0.1084247973
H  H534  1  0.93845000  0.67846000  0.25057000  1.0 0.1084247973
H  H535  1  0.57211000  0.32154000  0.25999000  1.0 0.1084247973
H  H536  1  0.42789000  0.68788000  0.74943000  1.0 0.1084247973
H  H537  1  0.74001000  0.06155000  0.31212000  1.0 0.1084247973
H  H538  1  0.25057000  0.93845000  0.67846000  1.0 0.1084247973
H  H539  1  0.25999000  0.57211000  0.32154000  1.0 0.1084247973
H  H540  1  0.74943000  0.42789000  0.68788000  1.0 0.1084247973
C  C1  1  0.75363000  0.51158000  0.48435000  1.0 0.6252895502
C  C2  1  0.02723000  0.26928000  0.51565000  1.0 0.6252895502
C  C3  1  0.97277000  0.48842000  0.24205000  1.0 0.6252895502
C  C4  1  0.24637000  0.73072000  0.75795000  1.0 0.6252895502
C  C5  1  0.48435000  0.75363000  0.51158000  1.0 0.6252895502
C  C6  1  0.51565000  0.02723000  0.26928000  1.0 0.6252895502
C  C7  1  0.24205000  0.97277000  0.48842000  1.0 0.6252895502
C  C8  1  0.75795000  0.24637000  0.73072000  1.0 0.6252895502
C  C9  1  0.51158000  0.48435000  0.75363000  1.0 0.6252895502
C  C10  1  0.26928000  0.51565000  0.02723000  1.0 0.6252895502
C  C11  1  0.48842000  0.24205000  0.97277000  1.0 0.6252895502
C  C12  1  0.73072000  0.75795000  0.24637000  1.0 0.6252895502
C  C13  1  0.24637000  0.48842000  0.51565000  1.0 0.6252895502
C  C14  1  0.97277000  0.73072000  0.48435000  1.0 0.6252895502
C  C15  1  0.02723000  0.51158000  0.75795000  1.0 0.6252895502
C  C16  1  0.75363000  0.26928000  0.24205000  1.0 0.6252895502
C  C17  1  0.51565000  0.24637000  0.48842000  1.0 0.6252895502
C  C18  1  0.48435000  0.97277000  0.73072000  1.0 0.6252895502
C  C19  1  0.75795000  0.02723000  0.51158000  1.0 0.6252895502
C  C20  1  0.24205000  0.75363000  0.26928000  1.0 0.6252895502
C  C21  1  0.48842000  0.51565000  0.24637000  1.0 0.6252895502
C  C22  1  0.73072000  0.48435000  0.97277000  1.0 0.6252895502
C  C23  1  0.51158000  0.75795000  0.02723000  1.0 0.6252895502
C  C24  1  0.26928000  0.24205000  0.75363000  1.0 0.6252895502
C  C25  1  0.61836000  0.41446000  0.67838000  1.0 -0.0288506677
C  C26  1  0.73608000  0.93998000  0.32162000  1.0 -0.0288506677
C  C27  1  0.26392000  0.58554000  0.20390000  1.0 -0.0288506677
C  C28  1  0.38164000  0.06002000  0.79610000  1.0 -0.0288506677
C  C29  1  0.67838000  0.61836000  0.41446000  1.0 -0.0288506677
C  C30  1  0.32162000  0.73608000  0.93998000  1.0 -0.0288506677
C  C31  1  0.20390000  0.26392000  0.58554000  1.0 -0.0288506677
C  C32  1  0.79610000  0.38164000  0.06002000  1.0 -0.0288506677
C  C33  1  0.41446000  0.67838000  0.61836000  1.0 -0.0288506677
C  C34  1  0.93998000  0.32162000  0.73608000  1.0 -0.0288506677
C  C35  1  0.58554000  0.20390000  0.26392000  1.0 -0.0288506677
C  C36  1  0.06002000  0.79610000  0.38164000  1.0 -0.0288506677
C  C37  1  0.38164000  0.58554000  0.32162000  1.0 -0.0288506677
C  C38  1  0.26392000  0.06002000  0.67838000  1.0 -0.0288506677
C  C39  1  0.73608000  0.41446000  0.79610000  1.0 -0.0288506677
C  C40  1  0.61836000  0.93998000  0.20390000  1.0 -0.0288506677
C  C41  1  0.32162000  0.38164000  0.58554000  1.0 -0.0288506677
C  C42  1  0.67838000  0.26392000  0.06002000  1.0 -0.0288506677
C  C43  1  0.79610000  0.73608000  0.41446000  1.0 -0.0288506677
C  C44  1  0.20390000  0.61836000  0.93998000  1.0 -0.0288506677
C  C45  1  0.58554000  0.32162000  0.38164000  1.0 -0.0288506677
C  C46  1  0.06002000  0.67838000  0.26392000  1.0 -0.0288506677
C  C47  1  0.41446000  0.79610000  0.73608000  1.0 -0.0288506677
C  C48  1  0.93998000  0.20390000  0.61836000  1.0 -0.0288506677
C  C49  1  0.72922000  0.48022000  0.49436000  1.0 -0.0657720788
C  C50  1  0.98586000  0.23486000  0.50564000  1.0 -0.0657720788
C  C51  1  0.01414000  0.51978000  0.24900000  1.0 -0.0657720788
C  C52  1  0.27078000  0.76514000  0.75100000  1.0 -0.0657720788
C  C53  1  0.49436000  0.72922000  0.48022000  1.0 -0.0657720788
C  C54  1  0.50564000  0.98586000  0.23486000  1.0 -0.0657720788
C  C55  1  0.24900000  0.01414000  0.51978000  1.0 -0.0657720788
C  C56  1  0.75100000  0.27078000  0.76514000  1.0 -0.0657720788
C  C57  1  0.48022000  0.49436000  0.72922000  1.0 -0.0657720788
C  C58  1  0.23486000  0.50564000  0.98586000  1.0 -0.0657720788
C  C59  1  0.51978000  0.24900000  0.01414000  1.0 -0.0657720788
C  C60  1  0.76514000  0.75100000  0.27078000  1.0 -0.0657720788
C  C61  1  0.27078000  0.51978000  0.50564000  1.0 -0.0657720788
C  C62  1  0.01414000  0.76514000  0.49436000  1.0 -0.0657720788
C  C63  1  0.98586000  0.48022000  0.75100000  1.0 -0.0657720788
C  C64  1  0.72922000  0.23486000  0.24900000  1.0 -0.0657720788
C  C65  1  0.50564000  0.27078000  0.51978000  1.0 -0.0657720788
C  C66  1  0.49436000  0.01414000  0.76514000  1.0 -0.0657720788
C  C67  1  0.75100000  0.98586000  0.48022000  1.0 -0.0657720788
C  C68  1  0.24900000  0.72922000  0.23486000  1.0 -0.0657720788
C  C69  1  0.51978000  0.50564000  0.27078000  1.0 -0.0657720788
C  C70  1  0.76514000  0.49436000  0.01414000  1.0 -0.0657720788
C  C71  1  0.48022000  0.75100000  0.98586000  1.0 -0.0657720788
C  C72  1  0.23486000  0.24900000  0.72922000  1.0 -0.0657720788
C  C73  1  0.62189000  0.37838000  0.66349000  1.0 -0.1321714521
C  C74  1  0.71489000  0.95840000  0.33651000  1.0 -0.1321714521
C  C75  1  0.28511000  0.62162000  0.24351000  1.0 -0.1321714521
C  C76  1  0.37811000  0.04160000  0.75649000  1.0 -0.1321714521
C  C77  1  0.66349000  0.62189000  0.37838000  1.0 -0.1321714521
C  C78  1  0.33651000  0.71489000  0.95840000  1.0 -0.1321714521
C  C79  1  0.24351000  0.28511000  0.62162000  1.0 -0.1321714521
C  C80  1  0.75649000  0.37811000  0.04160000  1.0 -0.1321714521
C  C81  1  0.37838000  0.66349000  0.62189000  1.0 -0.1321714521
C  C82  1  0.95840000  0.33651000  0.71489000  1.0 -0.1321714521
C  C83  1  0.62162000  0.24351000  0.28511000  1.0 -0.1321714521
C  C84  1  0.04160000  0.75649000  0.37811000  1.0 -0.1321714521
C  C85  1  0.37811000  0.62162000  0.33651000  1.0 -0.1321714521
C  C86  1  0.28511000  0.04160000  0.66349000  1.0 -0.1321714521
C  C87  1  0.71489000  0.37838000  0.75649000  1.0 -0.1321714521
C  C88  1  0.62189000  0.95840000  0.24351000  1.0 -0.1321714521
C  C89  1  0.33651000  0.37811000  0.62162000  1.0 -0.1321714521
C  C90  1  0.66349000  0.28511000  0.04160000  1.0 -0.1321714521
C  C91  1  0.75649000  0.71489000  0.37838000  1.0 -0.1321714521
C  C92  1  0.24351000  0.62189000  0.95840000  1.0 -0.1321714521
C  C93  1  0.62162000  0.33651000  0.37811000  1.0 -0.1321714521
C  C94  1  0.04160000  0.66349000  0.28511000  1.0 -0.1321714521
C  C95  1  0.37838000  0.75649000  0.71489000  1.0 -0.1321714521
C  C96  1  0.95840000  0.24351000  0.62189000  1.0 -0.1321714521
C  C97  1  0.61261000  0.42754000  0.71679000  1.0 0.5843641492
C  C98  1  0.71075000  0.89582000  0.28321000  1.0 0.5843641492
C  C99  1  0.28925000  0.57246000  0.18507000  1.0 0.5843641492
C  C100  1  0.38739000  0.10418000  0.81493000  1.0 0.5843641492
C  C101  1  0.71679000  0.61261000  0.42754000  1.0 0.5843641492
C  C102  1  0.28321000  0.71075000  0.89582000  1.0 0.5843641492
C  C103  1  0.18507000  0.28925000  0.57246000  1.0 0.5843641492
C  C104  1  0.81493000  0.38739000  0.10418000  1.0 0.5843641492
C  C105  1  0.42754000  0.71679000  0.61261000  1.0 0.5843641492
C  C106  1  0.89582000  0.28321000  0.71075000  1.0 0.5843641492
C  C107  1  0.57246000  0.18507000  0.28925000  1.0 0.5843641492
C  C108  1  0.10418000  0.81493000  0.38739000  1.0 0.5843641492
C  C109  1  0.38739000  0.57246000  0.28321000  1.0 0.5843641492
C  C110  1  0.28925000  0.10418000  0.71679000  1.0 0.5843641492
C  C111  1  0.71075000  0.42754000  0.81493000  1.0 0.5843641492
C  C112  1  0.61261000  0.89582000  0.18507000  1.0 0.5843641492
C  C113  1  0.28321000  0.38739000  0.57246000  1.0 0.5843641492
C  C114  1  0.71679000  0.28925000  0.10418000  1.0 0.5843641492
C  C115  1  0.81493000  0.71075000  0.42754000  1.0 0.5843641492
C  C116  1  0.18507000  0.61261000  0.89582000  1.0 0.5843641492
C  C117  1  0.57246000  0.28321000  0.38739000  1.0 0.5843641492
C  C118  1  0.10418000  0.71679000  0.28925000  1.0 0.5843641492
C  C119  1  0.42754000  0.81493000  0.71075000  1.0 0.5843641492
C  C120  1  0.89582000  0.18507000  0.61261000  1.0 0.5843641492
C  C121  1  0.63360000  0.37534000  0.56846000  1.0 0.0286310922
C  C122  1  0.80688000  0.06514000  0.43154000  1.0 0.0286310922
C  C123  1  0.19312000  0.62466000  0.25826000  1.0 0.0286310922
C  C124  1  0.36640000  0.93486000  0.74174000  1.0 0.0286310922
C  C125  1  0.56846000  0.63360000  0.37534000  1.0 0.0286310922
C  C126  1  0.43154000  0.80688000  0.06514000  1.0 0.0286310922
C  C127  1  0.25826000  0.19312000  0.62466000  1.0 0.0286310922
C  C128  1  0.74174000  0.36640000  0.93486000  1.0 0.0286310922
C  C129  1  0.37534000  0.56846000  0.63360000  1.0 0.0286310922
C  C130  1  0.06514000  0.43154000  0.80688000  1.0 0.0286310922
C  C131  1  0.62466000  0.25826000  0.19312000  1.0 0.0286310922
C  C132  1  0.93486000  0.74174000  0.36640000  1.0 0.0286310922
C  C133  1  0.36640000  0.62466000  0.43154000  1.0 0.0286310922
C  C134  1  0.19312000  0.93486000  0.56846000  1.0 0.0286310922
C  C135  1  0.80688000  0.37534000  0.74174000  1.0 0.0286310922
C  C136  1  0.63360000  0.06514000  0.25826000  1.0 0.0286310922
C  C137  1  0.43154000  0.36640000  0.62466000  1.0 0.0286310922
C  C138  1  0.56846000  0.19312000  0.93486000  1.0 0.0286310922
C  C139  1  0.74174000  0.80688000  0.37534000  1.0 0.0286310922
C  C140  1  0.25826000  0.63360000  0.06514000  1.0 0.0286310922
C  C141  1  0.62466000  0.43154000  0.36640000  1.0 0.0286310922
C  C142  1  0.93486000  0.56846000  0.19312000  1.0 0.0286310922
C  C143  1  0.37534000  0.74174000  0.80688000  1.0 0.0286310922
C  C144  1  0.06514000  0.25826000  0.63360000  1.0 0.0286310922
C  C145  1  0.65760000  0.40464000  0.56044000  1.0 -0.1632786669
C  C146  1  0.84420000  0.09716000  0.43956000  1.0 -0.1632786669
C  C147  1  0.15580000  0.59536000  0.25296000  1.0 -0.1632786669
C  C148  1  0.34240000  0.90284000  0.74704000  1.0 -0.1632786669
C  C149  1  0.56044000  0.65760000  0.40464000  1.0 -0.1632786669
C  C150  1  0.43956000  0.84420000  0.09716000  1.0 -0.1632786669
C  C151  1  0.25296000  0.15580000  0.59536000  1.0 -0.1632786669
C  C152  1  0.74704000  0.34240000  0.90284000  1.0 -0.1632786669
C  C153  1  0.40464000  0.56044000  0.65760000  1.0 -0.1632786669
C  C154  1  0.09716000  0.43956000  0.84420000  1.0 -0.1632786669
C  C155  1  0.59536000  0.25296000  0.15580000  1.0 -0.1632786669
C  C156  1  0.90284000  0.74704000  0.34240000  1.0 -0.1632786669
C  C157  1  0.34240000  0.59536000  0.43956000  1.0 -0.1632786669
C  C158  1  0.15580000  0.90284000  0.56044000  1.0 -0.1632786669
C  C159  1  0.84420000  0.40464000  0.74704000  1.0 -0.1632786669
C  C160  1  0.65760000  0.09716000  0.25296000  1.0 -0.1632786669
C  C161  1  0.43956000  0.34240000  0.59536000  1.0 -0.1632786669
C  C162  1  0.56044000  0.15580000  0.90284000  1.0 -0.1632786669
C  C163  1  0.74704000  0.84420000  0.40464000  1.0 -0.1632786669
C  C164  1  0.25296000  0.65760000  0.09716000  1.0 -0.1632786669
C  C165  1  0.59536000  0.43956000  0.34240000  1.0 -0.1632786669
C  C166  1  0.90284000  0.56044000  0.15580000  1.0 -0.1632786669
C  C167  1  0.40464000  0.74704000  0.84420000  1.0 -0.1632786669
C  C168  1  0.09716000  0.25296000  0.65760000  1.0 -0.1632786669
C  C169  1  0.61406000  0.33232000  0.53836000  1.0 0.0218179842
C  C170  1  0.79396000  0.07570000  0.46164000  1.0 0.0286310922
C  C171  1  0.20604000  0.66768000  0.28174000  1.0 0.0218179842
C  C172  1  0.38594000  0.92430000  0.71826000  1.0 0.0286310922
C  C173  1  0.53836000  0.61406000  0.33232000  1.0 0.0286310922
C  C174  1  0.46164000  0.79396000  0.07570000  1.0 0.0286310922
C  C175  1  0.28174000  0.20604000  0.66768000  1.0 0.0218179842
C  C176  1  0.71826000  0.38594000  0.92430000  1.0 0.0218179842
C  C177  1  0.33232000  0.53836000  0.61406000  1.0 0.0218179842
C  C178  1  0.07570000  0.46164000  0.79396000  1.0 0.0218179842
C  C179  1  0.66768000  0.28174000  0.20604000  1.0 0.0218179842
C  C180  1  0.92430000  0.71826000  0.38594000  1.0 0.0286310922
C  C181  1  0.38594000  0.66768000  0.46164000  1.0 0.0218179842
C  C182  1  0.20604000  0.92430000  0.53836000  1.0 0.0218179842
C  C183  1  0.79396000  0.33232000  0.71826000  1.0 0.0218179842
C  C184  1  0.61406000  0.07570000  0.28174000  1.0 0.0286310922
C  C185  1  0.46164000  0.38594000  0.66768000  1.0 0.0218179842
C  C186  1  0.53836000  0.20604000  0.92430000  1.0 0.0218179842
C  C187  1  0.71826000  0.79396000  0.33232000  1.0 0.0286310922
C  C188  1  0.28174000  0.61406000  0.07570000  1.0 0.0286310922
C  C189  1  0.66768000  0.46164000  0.38594000  1.0 0.0286310922
C  C190  1  0.92430000  0.53836000  0.20604000  1.0 0.0286310922
C  C191  1  0.33232000  0.71826000  0.79396000  1.0 0.0218179842
C  C192  1  0.07570000  0.28174000  0.61406000  1.0 0.0218179842
C  C193  1  0.62033000  0.43810000  0.65787000  1.0 -0.1090984236
C  C194  1  0.78023000  0.96246000  0.34213000  1.0 -0.1090984236
C  C195  1  0.21977000  0.56190000  0.18223000  1.0 -0.1090984236
C  C196  1  0.37967000  0.03754000  0.81777000  1.0 -0.1090984236
C  C197  1  0.65787000  0.62033000  0.43810000  1.0 -0.1090984236
C  C198  1  0.34213000  0.78023000  0.96246000  1.0 -0.1090984236
C  C199  1  0.18223000  0.21977000  0.56190000  1.0 -0.1090984236
C  C200  1  0.81777000  0.37967000  0.03754000  1.0 -0.1090984236
C  C201  1  0.43810000  0.65787000  0.62033000  1.0 -0.1090984236
C  C202  1  0.96246000  0.34213000  0.78023000  1.0 -0.1090984236
C  C203  1  0.56190000  0.18223000  0.21977000  1.0 -0.1090984236
C  C204  1  0.03754000  0.81777000  0.37967000  1.0 -0.1090984236
C  C205  1  0.37967000  0.56190000  0.34213000  1.0 -0.1090984236
C  C206  1  0.21977000  0.03754000  0.65787000  1.0 -0.1090984236
C  C207  1  0.78023000  0.43810000  0.81777000  1.0 -0.1090984236
C  C208  1  0.62033000  0.96246000  0.18223000  1.0 -0.1090984236
C  C209  1  0.34213000  0.37967000  0.56190000  1.0 -0.1090984236
C  C210  1  0.65787000  0.21977000  0.03754000  1.0 -0.1090984236
C  C211  1  0.81777000  0.78023000  0.43810000  1.0 -0.1090984236
C  C212  1  0.18223000  0.62033000  0.96246000  1.0 -0.1090984236
C  C213  1  0.56190000  0.34213000  0.37967000  1.0 -0.1090984236
C  C214  1  0.03754000  0.65787000  0.21977000  1.0 -0.1090984236
C  C215  1  0.43810000  0.81777000  0.78023000  1.0 -0.1090984236
C  C216  1  0.96246000  0.18223000  0.62033000  1.0 -0.1090984236
C  C217  1  0.62918000  0.38954000  0.60692000  1.0 0.065841606
C  C218  1  0.78262000  0.02226000  0.39308000  1.0 0.065841606
C  C219  1  0.21738000  0.61046000  0.23964000  1.0 0.065841606
C  C220  1  0.37082000  0.97774000  0.76036000  1.0 0.065841606
C  C221  1  0.60692000  0.62918000  0.38954000  1.0 0.065841606
C  C222  1  0.39308000  0.78262000  0.02226000  1.0 0.065841606
C  C223  1  0.23964000  0.21738000  0.61046000  1.0 0.065841606
C  C224  1  0.76036000  0.37082000  0.97774000  1.0 0.065841606
C  C225  1  0.38954000  0.60692000  0.62918000  1.0 0.065841606
C  C226  1  0.02226000  0.39308000  0.78262000  1.0 0.065841606
C  C227  1  0.61046000  0.23964000  0.21738000  1.0 0.065841606
C  C228  1  0.97774000  0.76036000  0.37082000  1.0 0.065841606
C  C229  1  0.37082000  0.61046000  0.39308000  1.0 0.065841606
C  C230  1  0.21738000  0.97774000  0.60692000  1.0 0.065841606
C  C231  1  0.78262000  0.38954000  0.76036000  1.0 0.065841606
C  C232  1  0.62918000  0.02226000  0.23964000  1.0 0.065841606
C  C233  1  0.39308000  0.37082000  0.61046000  1.0 0.065841606
C  C234  1  0.60692000  0.21738000  0.97774000  1.0 0.065841606
C  C235  1  0.76036000  0.78262000  0.38954000  1.0 0.065841606
C  C236  1  0.23964000  0.62918000  0.02226000  1.0 0.065841606
C  C237  1  0.61046000  0.39308000  0.37082000  1.0 0.065841606
C  C238  1  0.97774000  0.60692000  0.21738000  1.0 0.065841606
C  C239  1  0.38954000  0.76036000  0.78262000  1.0 0.065841606
C  C240  1  0.02226000  0.23964000  0.62918000  1.0 0.065841606
C  C241  1  0.68360000  0.42176000  0.51278000  1.0 0.102559583
C  C242  1  0.90898000  0.17082000  0.48722000  1.0 0.102559583
C  C243  1  0.09102000  0.57824000  0.26184000  1.0 0.102559583
C  C244  1  0.31640000  0.82918000  0.73816000  1.0 0.102559583
C  C245  1  0.51278000  0.68360000  0.42176000  1.0 0.102559583
C  C246  1  0.48722000  0.90898000  0.17082000  1.0 0.102559583
C  C247  1  0.26184000  0.09102000  0.57824000  1.0 0.102559583
C  C248  1  0.73816000  0.31640000  0.82918000  1.0 0.102559583
C  C249  1  0.42176000  0.51278000  0.68360000  1.0 0.102559583
C  C250  1  0.17082000  0.48722000  0.90898000  1.0 0.102559583
C  C251  1  0.57824000  0.26184000  0.09102000  1.0 0.102559583
C  C252  1  0.82918000  0.73816000  0.31640000  1.0 0.102559583
C  C253  1  0.31640000  0.57824000  0.48722000  1.0 0.102559583
C  C254  1  0.09102000  0.82918000  0.51278000  1.0 0.102559583
C  C255  1  0.90898000  0.42176000  0.73816000  1.0 0.102559583
C  C256  1  0.68360000  0.17082000  0.26184000  1.0 0.102559583
C  C257  1  0.48722000  0.31640000  0.57824000  1.0 0.102559583
C  C258  1  0.51278000  0.09102000  0.82918000  1.0 0.102559583
C  C259  1  0.73816000  0.90898000  0.42176000  1.0 0.102559583
C  C260  1  0.26184000  0.68360000  0.17082000  1.0 0.102559583
C  C261  1  0.57824000  0.48722000  0.31640000  1.0 0.102559583
C  C262  1  0.82918000  0.51278000  0.09102000  1.0 0.102559583
C  C263  1  0.42176000  0.73816000  0.90898000  1.0 0.102559583
C  C264  1  0.17082000  0.26184000  0.68360000  1.0 0.102559583
C  C265  1  0.70601000  0.41272000  0.49231000  1.0 -0.1501153891
C  C266  1  0.92041000  0.21370000  0.50769000  1.0 -0.1501153891
C  C267  1  0.07959000  0.58728000  0.29329000  1.0 -0.1501153891
C  C268  1  0.29399000  0.78630000  0.70671000  1.0 -0.1501153891
C  C269  1  0.49231000  0.70601000  0.41272000  1.0 -0.1501153891
C  C270  1  0.50769000  0.92041000  0.21370000  1.0 -0.1501153891
C  C271  1  0.29329000  0.07959000  0.58728000  1.0 -0.1501153891
C  C272  1  0.70671000  0.29399000  0.78630000  1.0 -0.1501153891
C  C273  1  0.41272000  0.49231000  0.70601000  1.0 -0.1501153891
C  C274  1  0.21370000  0.50769000  0.92041000  1.0 -0.1501153891
C  C275  1  0.58728000  0.29329000  0.07959000  1.0 -0.1501153891
C  C276  1  0.78630000  0.70671000  0.29399000  1.0 -0.1501153891
C  C277  1  0.29399000  0.58728000  0.50769000  1.0 -0.1501153891
C  C278  1  0.07959000  0.78630000  0.49231000  1.0 -0.1501153891
C  C279  1  0.92041000  0.41272000  0.70671000  1.0 -0.1501153891
C  C280  1  0.70601000  0.21370000  0.29329000  1.0 -0.1501153891
C  C281  1  0.50769000  0.29399000  0.58728000  1.0 -0.1501153891
C  C282  1  0.49231000  0.07959000  0.78630000  1.0 -0.1501153891
C  C283  1  0.70671000  0.92041000  0.41272000  1.0 -0.1501153891
C  C284  1  0.29329000  0.70601000  0.21370000  1.0 -0.1501153891
C  C285  1  0.58728000  0.50769000  0.29399000  1.0 -0.1501153891
C  C286  1  0.78630000  0.49231000  0.07959000  1.0 -0.1501153891
C  C287  1  0.41272000  0.70671000  0.92041000  1.0 -0.1501153891
C  C288  1  0.21370000  0.29329000  0.70601000  1.0 -0.1501153891
C  C289  1  0.63851000  0.34748000  0.49563000  1.0 0.0286310922
C  C290  1  0.85185000  0.14288000  0.50437000  1.0 0.0286310922
C  C291  1  0.14815000  0.65252000  0.29103000  1.0 0.0286310922
C  C292  1  0.36149000  0.85712000  0.70897000  1.0 0.0286310922
C  C293  1  0.49563000  0.63851000  0.34748000  1.0 0.0286310922
C  C294  1  0.50437000  0.85185000  0.14288000  1.0 0.0286310922
C  C295  1  0.29103000  0.14815000  0.65252000  1.0 0.0286310922
C  C296  1  0.70897000  0.36149000  0.85712000  1.0 0.0286310922
C  C297  1  0.34748000  0.49563000  0.63851000  1.0 0.0286310922
C  C298  1  0.14288000  0.50437000  0.85185000  1.0 0.0286310922
C  C299  1  0.65252000  0.29103000  0.14815000  1.0 0.0286310922
C  C300  1  0.85712000  0.70897000  0.36149000  1.0 0.0286310922
C  C301  1  0.36149000  0.65252000  0.50437000  1.0 0.0286310922
C  C302  1  0.14815000  0.85712000  0.49563000  1.0 0.0286310922
C  C303  1  0.85185000  0.34748000  0.70897000  1.0 0.0286310922
C  C304  1  0.63851000  0.14288000  0.29103000  1.0 0.0286310922
C  C305  1  0.50437000  0.36149000  0.65252000  1.0 0.0286310922
C  C306  1  0.49563000  0.14815000  0.85712000  1.0 0.0286310922
C  C307  1  0.70897000  0.85185000  0.34748000  1.0 0.0286310922
C  C308  1  0.29103000  0.63851000  0.14288000  1.0 0.0286310922
C  C309  1  0.65252000  0.50437000  0.36149000  1.0 0.0286310922
C  C310  1  0.85712000  0.49563000  0.14815000  1.0 0.0286310922
C  C311  1  0.34748000  0.70897000  0.85185000  1.0 0.0286310922
C  C312  1  0.14288000  0.29103000  0.63851000  1.0 0.0286310922
C  C313  1  0.70706000  0.48986000  0.51440000  1.0 0.0415175211
C  C314  1  0.97546000  0.19266000  0.48560000  1.0 0.0415175211
C  C315  1  0.02454000  0.51014000  0.21720000  1.0 0.0415175211
C  C316  1  0.29294000  0.80734000  0.78280000  1.0 0.0415175211
C  C317  1  0.51440000  0.70706000  0.48986000  1.0 0.0415175211
C  C318  1  0.48560000  0.97546000  0.19266000  1.0 0.0415175211
C  C319  1  0.21720000  0.02454000  0.51014000  1.0 0.0415175211
C  C320  1  0.78280000  0.29294000  0.80734000  1.0 0.0415175211
C  C321  1  0.48986000  0.51440000  0.70706000  1.0 0.0415175211
C  C322  1  0.19266000  0.48560000  0.97546000  1.0 0.0415175211
C  C323  1  0.51014000  0.21720000  0.02454000  1.0 0.0415175211
C  C324  1  0.80734000  0.78280000  0.29294000  1.0 0.0415175211
C  C325  1  0.29294000  0.51014000  0.48560000  1.0 0.0415175211
C  C326  1  0.02454000  0.80734000  0.51440000  1.0 0.0415175211
C  C327  1  0.97546000  0.48986000  0.78280000  1.0 0.0415175211
C  C328  1  0.70706000  0.19266000  0.21720000  1.0 0.0415175211
C  C329  1  0.48560000  0.29294000  0.51014000  1.0 0.0415175211
C  C330  1  0.51440000  0.02454000  0.80734000  1.0 0.0415175211
C  C331  1  0.78280000  0.97546000  0.48986000  1.0 0.0415175211
C  C332  1  0.21720000  0.70706000  0.19266000  1.0 0.0415175211
C  C333  1  0.51014000  0.48560000  0.29294000  1.0 0.0415175211
C  C334  1  0.80734000  0.51440000  0.02454000  1.0 0.0415175211
C  C335  1  0.48986000  0.78280000  0.97546000  1.0 0.0415175211
C  C336  1  0.19266000  0.21720000  0.70706000  1.0 0.0415175211
C  C337  1  0.68408000  0.46032000  0.52284000  1.0 -0.170698578
C  C338  1  0.93748000  0.16124000  0.47716000  1.0 -0.170698578
C  C339  1  0.06252000  0.53968000  0.22376000  1.0 -0.170698578
C  C340  1  0.31592000  0.83876000  0.77624000  1.0 -0.170698578
C  C341  1  0.52284000  0.68408000  0.46032000  1.0 -0.170698578
C  C342  1  0.47716000  0.93748000  0.16124000  1.0 -0.170698578
C  C343  1  0.22376000  0.06252000  0.53968000  1.0 -0.170698578
C  C344  1  0.77624000  0.31592000  0.83876000  1.0 -0.170698578
C  C345  1  0.46032000  0.52284000  0.68408000  1.0 -0.170698578
C  C346  1  0.16124000  0.47716000  0.93748000  1.0 -0.170698578
C  C347  1  0.53968000  0.22376000  0.06252000  1.0 -0.170698578
C  C348  1  0.83876000  0.77624000  0.31592000  1.0 -0.170698578
C  C349  1  0.31592000  0.53968000  0.47716000  1.0 -0.170698578
C  C350  1  0.06252000  0.83876000  0.52284000  1.0 -0.170698578
C  C351  1  0.93748000  0.46032000  0.77624000  1.0 -0.170698578
C  C352  1  0.68408000  0.16124000  0.22376000  1.0 -0.170698578
C  C353  1  0.47716000  0.31592000  0.53968000  1.0 -0.170698578
C  C354  1  0.52284000  0.06252000  0.83876000  1.0 -0.170698578
C  C355  1  0.77624000  0.93748000  0.46032000  1.0 -0.170698578
C  C356  1  0.22376000  0.68408000  0.16124000  1.0 -0.170698578
C  C357  1  0.53968000  0.47716000  0.31592000  1.0 -0.170698578
C  C358  1  0.83876000  0.52284000  0.06252000  1.0 -0.170698578
C  C359  1  0.46032000  0.77624000  0.93748000  1.0 -0.170698578
C  C360  1  0.16124000  0.22376000  0.68408000  1.0 -0.170698578
C  C361  1  0.65941000  0.39088000  0.52297000  1.0 0.0286310922
C  C362  1  0.86791000  0.13644000  0.47703000  1.0 0.0286310922
C  C363  1  0.13209000  0.60912000  0.26853000  1.0 0.0286310922
C  C364  1  0.34059000  0.86356000  0.73147000  1.0 0.0286310922
C  C365  1  0.52297000  0.65941000  0.39088000  1.0 0.0286310922
C  C366  1  0.47703000  0.86791000  0.13644000  1.0 0.0286310922
C  C367  1  0.26853000  0.13209000  0.60912000  1.0 0.0286310922
C  C368  1  0.73147000  0.34059000  0.86356000  1.0 0.0286310922
C  C369  1  0.39088000  0.52297000  0.65941000  1.0 0.0286310922
C  C370  1  0.13644000  0.47703000  0.86791000  1.0 0.0286310922
C  C371  1  0.60912000  0.26853000  0.13209000  1.0 0.0286310922
C  C372  1  0.86356000  0.73147000  0.34059000  1.0 0.0286310922
C  C373  1  0.34059000  0.60912000  0.47703000  1.0 0.0286310922
C  C374  1  0.13209000  0.86356000  0.52297000  1.0 0.0286310922
C  C375  1  0.86791000  0.39088000  0.73147000  1.0 0.0286310922
C  C376  1  0.65941000  0.13644000  0.26853000  1.0 0.0286310922
C  C377  1  0.47703000  0.34059000  0.60912000  1.0 0.0286310922
C  C378  1  0.52297000  0.13209000  0.86356000  1.0 0.0286310922
C  C379  1  0.73147000  0.86791000  0.39088000  1.0 0.0286310922
C  C380  1  0.26853000  0.65941000  0.13644000  1.0 0.0286310922
C  C381  1  0.60912000  0.47703000  0.34059000  1.0 0.0286310922
C  C382  1  0.86356000  0.52297000  0.13209000  1.0 0.0286310922
C  C383  1  0.39088000  0.73147000  0.86791000  1.0 0.0286310922
C  C384  1  0.13644000  0.26853000  0.65941000  1.0 0.0286310922
C  C385  1  0.62722000  0.36586000  0.62800000  1.0 -0.1932995747
C  C386  1  0.73786000  0.99922000  0.37200000  1.0 -0.1932995747
C  C387  1  0.26214000  0.63414000  0.26136000  1.0 -0.1932995747
C  C388  1  0.37278000  0.00078000  0.73864000  1.0 -0.1932995747
C  C389  1  0.62800000  0.62722000  0.36586000  1.0 -0.1932995747
C  C390  1  0.37200000  0.73786000  0.99922000  1.0 -0.1932995747
C  C391  1  0.26136000  0.26214000  0.63414000  1.0 -0.1932995747
C  C392  1  0.73864000  0.37278000  0.00078000  1.0 -0.1932995747
C  C393  1  0.36586000  0.62800000  0.62722000  1.0 -0.1932995747
C  C394  1  0.99922000  0.37200000  0.73786000  1.0 -0.1932995747
C  C395  1  0.63414000  0.26136000  0.26214000  1.0 -0.1932995747
C  C396  1  0.00078000  0.73864000  0.37278000  1.0 -0.1932995747
C  C397  1  0.37278000  0.63414000  0.37200000  1.0 -0.1932995747
C  C398  1  0.26214000  0.00078000  0.62800000  1.0 -0.1932995747
C  C399  1  0.73786000  0.36586000  0.73864000  1.0 -0.1932995747
C  C400  1  0.62722000  0.99922000  0.26136000  1.0 -0.1932995747
C  C401  1  0.37200000  0.37278000  0.63414000  1.0 -0.1932995747
C  C402  1  0.62800000  0.26214000  0.00078000  1.0 -0.1932995747
C  C403  1  0.73864000  0.73786000  0.36586000  1.0 -0.1932995747
C  C404  1  0.26136000  0.62722000  0.99922000  1.0 -0.1932995747
C  C405  1  0.63414000  0.37200000  0.37278000  1.0 -0.1932995747
C  C406  1  0.00078000  0.62800000  0.26214000  1.0 -0.1932995747
C  C407  1  0.36586000  0.73864000  0.73786000  1.0 -0.1932995747
C  C408  1  0.99922000  0.26136000  0.62722000  1.0 -0.1932995747
C  C409  1  0.72803000  0.44178000  0.48275000  1.0 -0.0841645169
C  C410  1  0.95903000  0.24528000  0.51725000  1.0 -0.0841645169
C  C411  1  0.04097000  0.55822000  0.28625000  1.0 -0.0841645169
C  C412  1  0.27197000  0.75472000  0.71375000  1.0 -0.0841645169
C  C413  1  0.48275000  0.72803000  0.44178000  1.0 -0.0841645169
C  C414  1  0.51725000  0.95903000  0.24528000  1.0 -0.0841645169
C  C415  1  0.28625000  0.04097000  0.55822000  1.0 -0.0841645169
C  C416  1  0.71375000  0.27197000  0.75472000  1.0 -0.0841645169
C  C417  1  0.44178000  0.48275000  0.72803000  1.0 -0.0841645169
C  C418  1  0.24528000  0.51725000  0.95903000  1.0 -0.0841645169
C  C419  1  0.55822000  0.28625000  0.04097000  1.0 -0.0841645169
C  C420  1  0.75472000  0.71375000  0.27197000  1.0 -0.0841645169
C  C421  1  0.27197000  0.55822000  0.51725000  1.0 -0.0841645169
C  C422  1  0.04097000  0.75472000  0.48275000  1.0 -0.0841645169
C  C423  1  0.95903000  0.44178000  0.71375000  1.0 -0.0841645169
C  C424  1  0.72803000  0.24528000  0.28625000  1.0 -0.0841645169
C  C425  1  0.51725000  0.27197000  0.55822000  1.0 -0.0841645169
C  C426  1  0.48275000  0.04097000  0.75472000  1.0 -0.0841645169
C  C427  1  0.71375000  0.95903000  0.44178000  1.0 -0.0841645169
C  C428  1  0.28625000  0.72803000  0.24528000  1.0 -0.0841645169
C  C429  1  0.55822000  0.51725000  0.27197000  1.0 -0.0841645169
C  C430  1  0.75472000  0.48275000  0.04097000  1.0 -0.0841645169
C  C431  1  0.44178000  0.71375000  0.95903000  1.0 -0.0841645169
C  C432  1  0.24528000  0.28625000  0.72803000  1.0 -0.0841645169
C  C433  1  0.62565000  0.42581000  0.62276000  1.0 -0.139632333
C  C434  1  0.80305000  0.00289000  0.37724000  1.0 -0.139632333
C  C435  1  0.19695000  0.57419000  0.19984000  1.0 -0.139632333
C  C436  1  0.37435000  0.99711000  0.80016000  1.0 -0.139632333
C  C437  1  0.62276000  0.62565000  0.42581000  1.0 -0.139632333
C  C438  1  0.37724000  0.80305000  0.00289000  1.0 -0.139632333
C  C439  1  0.19984000  0.19695000  0.57419000  1.0 -0.139632333
C  C440  1  0.80016000  0.37435000  0.99711000  1.0 -0.139632333
C  C441  1  0.42581000  0.62276000  0.62565000  1.0 -0.139632333
C  C442  1  0.00289000  0.37724000  0.80305000  1.0 -0.139632333
C  C443  1  0.57419000  0.19984000  0.19695000  1.0 -0.139632333
C  C444  1  0.99711000  0.80016000  0.37435000  1.0 -0.139632333
C  C445  1  0.37435000  0.57419000  0.37724000  1.0 -0.139632333
C  C446  1  0.19695000  0.99711000  0.62276000  1.0 -0.139632333
C  C447  1  0.80305000  0.42581000  0.80016000  1.0 -0.139632333
C  C448  1  0.62565000  0.00289000  0.19984000  1.0 -0.139632333
C  C449  1  0.37724000  0.37435000  0.57419000  1.0 -0.139632333
C  C450  1  0.62276000  0.19695000  0.99711000  1.0 -0.139632333
C  C451  1  0.80016000  0.80305000  0.42581000  1.0 -0.139632333
C  C452  1  0.19984000  0.62565000  0.00289000  1.0 -0.139632333
C  C453  1  0.57419000  0.37724000  0.37435000  1.0 -0.139632333
C  C454  1  0.99711000  0.62276000  0.19695000  1.0 -0.139632333
C  C455  1  0.42581000  0.80016000  0.80305000  1.0 -0.139632333
C  C456  1  0.00289000  0.19984000  0.62565000  1.0 -0.139632333
C  C457  1  0.53870000  0.36840000  0.90710000  1.0 0.4509226092
C  C458  1  0.46130000  0.63160000  0.09290000  1.0 0.4509226092
C  C459  1  0.53870000  0.63160000  0.17030000  1.0 0.4509226092
C  C460  1  0.46130000  0.36840000  0.82970000  1.0 0.4509226092
C  C461  1  0.90710000  0.53870000  0.36840000  1.0 0.4509226092
C  C462  1  0.09290000  0.46130000  0.63160000  1.0 0.4509226092
C  C463  1  0.17030000  0.53870000  0.63160000  1.0 0.4509226092
C  C464  1  0.82970000  0.46130000  0.36840000  1.0 0.4509226092
C  C465  1  0.36840000  0.90710000  0.53870000  1.0 0.4509226092
C  C466  1  0.63160000  0.09290000  0.46130000  1.0 0.4509226092
C  C467  1  0.63160000  0.17030000  0.53870000  1.0 0.4509226092
C  C468  1  0.36840000  0.82970000  0.46130000  1.0 0.4509226092
C  C469  1  0.52540000  0.52760000  0.88280000  1.0 0.8741196015
C  C470  1  0.64480000  0.64260000  0.11720000  1.0 0.8762568069
C  C471  1  0.35520000  0.47240000  0.99780000  1.0 0.8741196015
C  C472  1  0.47460000  0.35740000  0.00220000  1.0 0.8762568069
C  C473  1  0.88280000  0.52540000  0.52760000  1.0 0.8762568069
C  C474  1  0.11720000  0.64480000  0.64260000  1.0 0.8741196015
C  C475  1  0.99780000  0.35520000  0.47240000  1.0 0.8741196015
C  C476  1  0.00220000  0.47460000  0.35740000  1.0 0.8762568069
C  C477  1  0.52760000  0.88280000  0.52540000  1.0 0.8741196015
C  C478  1  0.64260000  0.11720000  0.64480000  1.0 0.8741196015
C  C479  1  0.47240000  0.99780000  0.35520000  1.0 0.8741196015
C  C480  1  0.35740000  0.00220000  0.47460000  1.0 0.8762568069
C  C481  1  0.47460000  0.47240000  0.11720000  1.0 0.8741196015
C  C482  1  0.35520000  0.35740000  0.88280000  1.0 0.8741196015
C  C483  1  0.64480000  0.52760000  0.00220000  1.0 0.8762568069
C  C484  1  0.52540000  0.64260000  0.99780000  1.0 0.8741196015
C  C485  1  0.11720000  0.47460000  0.47240000  1.0 0.8741196015
C  C486  1  0.88280000  0.35520000  0.35740000  1.0 0.8762568069
C  C487  1  0.00220000  0.64480000  0.52760000  1.0 0.8741196015
C  C488  1  0.99780000  0.52540000  0.64260000  1.0 0.8741196015
C  C489  1  0.47240000  0.11720000  0.47460000  1.0 0.8741196015
C  C490  1  0.35740000  0.88280000  0.35520000  1.0 0.8762568069
C  C491  1  0.52760000  0.00220000  0.64480000  1.0 0.8762568069
C  C492  1  0.64260000  0.99780000  0.52540000  1.0 0.8762568069
C  C493  1  0.65150000  0.65150000  0.00000000  1.0 0.6706181102
C  C494  1  0.34850000  0.34850000  0.00000000  1.0 0.6706181102
C  C495  1  0.00000000  0.65150000  0.65150000  1.0 0.6706181102
C  C496  1  0.00000000  0.34850000  0.34850000  1.0 0.6706181102
C  C497  1  0.65150000  0.00000000  0.65150000  1.0 0.6706181102
C  C498  1  0.34850000  0.00000000  0.34850000  1.0 0.6706181102
C  C499  1  0.61940000  0.24634000  0.82994000  1.0 -0.0166775618
C  C500  1  0.41640000  0.78946000  0.17006000  1.0 -0.0166775618
C  C501  1  0.58360000  0.75366000  0.37306000  1.0 -0.0166775618
C  C502  1  0.38060000  0.21054000  0.62694000  1.0 -0.0166775618
C  C503  1  0.82994000  0.61940000  0.24634000  1.0 -0.0166775618
C  C504  1  0.17006000  0.41640000  0.78946000  1.0 -0.0166775618
C  C505  1  0.37306000  0.58360000  0.75366000  1.0 -0.0166775618
C  C506  1  0.62694000  0.38060000  0.21054000  1.0 -0.0166775618
C  C507  1  0.24634000  0.82994000  0.61940000  1.0 -0.0166775618
C  C508  1  0.78946000  0.17006000  0.41640000  1.0 -0.0166775618
C  C509  1  0.75366000  0.37306000  0.58360000  1.0 -0.0166775618
C  C510  1  0.21054000  0.62694000  0.38060000  1.0 -0.0166775618
C  C511  1  0.38060000  0.75366000  0.17006000  1.0 -0.0166775618
C  C512  1  0.58360000  0.21054000  0.82994000  1.0 -0.0166775618
C  C513  1  0.41640000  0.24634000  0.62694000  1.0 -0.0166775618
C  C514  1  0.61940000  0.78946000  0.37306000  1.0 -0.0166775618
C  C515  1  0.17006000  0.38060000  0.75366000  1.0 -0.0166775618
C  C516  1  0.82994000  0.58360000  0.21054000  1.0 -0.0166775618
C  C517  1  0.62694000  0.41640000  0.24634000  1.0 -0.0166775618
C  C518  1  0.37306000  0.61940000  0.78946000  1.0 -0.0166775618
C  C519  1  0.75366000  0.17006000  0.38060000  1.0 -0.0166775618
C  C520  1  0.21054000  0.82994000  0.58360000  1.0 -0.0166775618
C  C521  1  0.24634000  0.62694000  0.41640000  1.0 -0.0166775618
C  C522  1  0.78946000  0.37306000  0.61940000  1.0 -0.0166775618
C  C523  1  0.62826000  0.24716000  0.86862000  1.0 0.063632624
C  C524  1  0.37854000  0.75964000  0.13138000  1.0 0.063632624
C  C525  1  0.62146000  0.75284000  0.38110000  1.0 0.063632624
C  C526  1  0.37174000  0.24036000  0.61890000  1.0 0.063632624
C  C527  1  0.86862000  0.62826000  0.24716000  1.0 0.063632624
C  C528  1  0.13138000  0.37854000  0.75964000  1.0 0.063632624
C  C529  1  0.38110000  0.62146000  0.75284000  1.0 0.063632624
C  C530  1  0.61890000  0.37174000  0.24036000  1.0 0.063632624
C  C531  1  0.24716000  0.86862000  0.62826000  1.0 0.063632624
C  C532  1  0.75964000  0.13138000  0.37854000  1.0 0.063632624
C  C533  1  0.75284000  0.38110000  0.62146000  1.0 0.063632624
C  C534  1  0.24036000  0.61890000  0.37174000  1.0 0.063632624
C  C535  1  0.37174000  0.75284000  0.13138000  1.0 0.063632624
C  C536  1  0.62146000  0.24036000  0.86862000  1.0 0.063632624
C  C537  1  0.37854000  0.24716000  0.61890000  1.0 0.063632624
C  C538  1  0.62826000  0.75964000  0.38110000  1.0 0.063632624
C  C539  1  0.13138000  0.37174000  0.75284000  1.0 0.063632624
C  C540  1  0.86862000  0.62146000  0.24036000  1.0 0.063632624
C  C541  1  0.61890000  0.37854000  0.24716000  1.0 0.063632624
C  C542  1  0.38110000  0.62826000  0.75964000  1.0 0.063632624
C  C543  1  0.75284000  0.13138000  0.37174000  1.0 0.063632624
C  C544  1  0.24036000  0.86862000  0.62146000  1.0 0.063632624
C  C545  1  0.24716000  0.61890000  0.37854000  1.0 0.063632624
C  C546  1  0.75964000  0.38110000  0.62826000  1.0 0.063632624
C  C547  1  0.62836000  0.27836000  0.90052000  1.0 -0.1632786669
C  C548  1  0.37784000  0.72784000  0.09948000  1.0 -0.1632786669
C  C549  1  0.62216000  0.72164000  0.35000000  1.0 -0.1632786669
C  C550  1  0.37164000  0.27216000  0.65000000  1.0 -0.1632786669
C  C551  1  0.90052000  0.62836000  0.27836000  1.0 -0.1632786669
C  C552  1  0.09948000  0.37784000  0.72784000  1.0 -0.1632786669
C  C553  1  0.35000000  0.62216000  0.72164000  1.0 -0.1632786669
C  C554  1  0.65000000  0.37164000  0.27216000  1.0 -0.1632786669
C  C555  1  0.27836000  0.90052000  0.62836000  1.0 -0.1632786669
C  C556  1  0.72784000  0.09948000  0.37784000  1.0 -0.1632786669
C  C557  1  0.72164000  0.35000000  0.62216000  1.0 -0.1632786669
C  C558  1  0.27216000  0.65000000  0.37164000  1.0 -0.1632786669
C  C559  1  0.37164000  0.72164000  0.09948000  1.0 -0.1632786669
C  C560  1  0.62216000  0.27216000  0.90052000  1.0 -0.1632786669
C  C561  1  0.37784000  0.27836000  0.65000000  1.0 -0.1632786669
C  C562  1  0.62836000  0.72784000  0.35000000  1.0 -0.1632786669
C  C563  1  0.09948000  0.37164000  0.72164000  1.0 -0.1632786669
C  C564  1  0.90052000  0.62216000  0.27216000  1.0 -0.1632786669
C  C565  1  0.65000000  0.37784000  0.27836000  1.0 -0.1632786669
C  C566  1  0.35000000  0.62836000  0.72784000  1.0 -0.1632786669
C  C567  1  0.72164000  0.09948000  0.37164000  1.0 -0.1632786669
C  C568  1  0.27216000  0.90052000  0.62216000  1.0 -0.1632786669
C  C569  1  0.27836000  0.65000000  0.37784000  1.0 -0.1632786669
C  C570  1  0.72784000  0.35000000  0.62836000  1.0 -0.1632786669
C  C571  1  0.61956000  0.30874000  0.89370000  1.0 -0.0098190507
C  C572  1  0.41504000  0.72586000  0.10630000  1.0 -0.0098190507
C  C573  1  0.58496000  0.69126000  0.31082000  1.0 -0.0098190507
C  C574  1  0.38044000  0.27414000  0.68918000  1.0 -0.0098190507
C  C575  1  0.89370000  0.61956000  0.30874000  1.0 -0.0098190507
C  C576  1  0.10630000  0.41504000  0.72586000  1.0 -0.0098190507
C  C577  1  0.31082000  0.58496000  0.69126000  1.0 -0.0098190507
C  C578  1  0.68918000  0.38044000  0.27414000  1.0 -0.0098190507
C  C579  1  0.30874000  0.89370000  0.61956000  1.0 -0.0098190507
C  C580  1  0.72586000  0.10630000  0.41504000  1.0 -0.0098190507
C  C581  1  0.69126000  0.31082000  0.58496000  1.0 -0.0098190507
C  C582  1  0.27414000  0.68918000  0.38044000  1.0 -0.0098190507
C  C583  1  0.38044000  0.69126000  0.10630000  1.0 -0.0098190507
C  C584  1  0.58496000  0.27414000  0.89370000  1.0 -0.0098190507
C  C585  1  0.41504000  0.30874000  0.68918000  1.0 -0.0098190507
C  C586  1  0.61956000  0.72586000  0.31082000  1.0 -0.0098190507
C  C587  1  0.10630000  0.38044000  0.69126000  1.0 -0.0098190507
C  C588  1  0.89370000  0.58496000  0.27414000  1.0 -0.0098190507
C  C589  1  0.68918000  0.41504000  0.30874000  1.0 -0.0098190507
C  C590  1  0.31082000  0.61956000  0.72586000  1.0 -0.0098190507
C  C591  1  0.69126000  0.10630000  0.38044000  1.0 -0.0098190507
C  C592  1  0.27414000  0.89370000  0.58496000  1.0 -0.0098190507
C  C593  1  0.30874000  0.68918000  0.41504000  1.0 -0.0098190507
C  C594  1  0.72586000  0.31082000  0.61956000  1.0 -0.0098190507
C  C595  1  0.61071000  0.30796000  0.85499000  1.0 -0.1501153891
C  C596  1  0.45297000  0.75572000  0.14501000  1.0 -0.1501153891
C  C597  1  0.54703000  0.69204000  0.30275000  1.0 -0.1501153891
C  C598  1  0.38929000  0.24428000  0.69725000  1.0 -0.1501153891
C  C599  1  0.85499000  0.61071000  0.30796000  1.0 -0.1501153891
C  C600  1  0.14501000  0.45297000  0.75572000  1.0 -0.1501153891
C  C601  1  0.30275000  0.54703000  0.69204000  1.0 -0.1501153891
C  C602  1  0.69725000  0.38929000  0.24428000  1.0 -0.1501153891
C  C603  1  0.30796000  0.85499000  0.61071000  1.0 -0.1501153891
C  C604  1  0.75572000  0.14501000  0.45297000  1.0 -0.1501153891
C  C605  1  0.69204000  0.30275000  0.54703000  1.0 -0.1501153891
C  C606  1  0.24428000  0.69725000  0.38929000  1.0 -0.1501153891
C  C607  1  0.38929000  0.69204000  0.14501000  1.0 -0.1501153891
C  C608  1  0.54703000  0.24428000  0.85499000  1.0 -0.1501153891
C  C609  1  0.45297000  0.30796000  0.69725000  1.0 -0.1501153891
C  C610  1  0.61071000  0.75572000  0.30275000  1.0 -0.1501153891
C  C611  1  0.14501000  0.38929000  0.69204000  1.0 -0.1501153891
C  C612  1  0.85499000  0.54703000  0.24428000  1.0 -0.1501153891
C  C613  1  0.69725000  0.45297000  0.30796000  1.0 -0.1501153891
C  C614  1  0.30275000  0.61071000  0.75572000  1.0 -0.1501153891
C  C615  1  0.69204000  0.14501000  0.38929000  1.0 -0.1501153891
C  C616  1  0.24428000  0.85499000  0.54703000  1.0 -0.1501153891
C  C617  1  0.30796000  0.69725000  0.45297000  1.0 -0.1501153891
C  C618  1  0.75572000  0.30275000  0.61071000  1.0 -0.1501153891
C  C619  1  0.61057000  0.27672000  0.82309000  1.0 -0.1632786669
C  C620  1  0.45363000  0.78748000  0.17691000  1.0 -0.1632786669
C  C621  1  0.54637000  0.72328000  0.33385000  1.0 -0.1632786669
C  C622  1  0.38943000  0.21252000  0.66615000  1.0 -0.1632786669
C  C623  1  0.82309000  0.61057000  0.27672000  1.0 -0.1632786669
C  C624  1  0.17691000  0.45363000  0.78748000  1.0 -0.1632786669
C  C625  1  0.33385000  0.54637000  0.72328000  1.0 -0.1632786669
C  C626  1  0.66615000  0.38943000  0.21252000  1.0 -0.1632786669
C  C627  1  0.27672000  0.82309000  0.61057000  1.0 -0.1632786669
C  C628  1  0.78748000  0.17691000  0.45363000  1.0 -0.1632786669
C  C629  1  0.72328000  0.33385000  0.54637000  1.0 -0.1632786669
C  C630  1  0.21252000  0.66615000  0.38943000  1.0 -0.1632786669
C  C631  1  0.38943000  0.72328000  0.17691000  1.0 -0.1632786669
C  C632  1  0.54637000  0.21252000  0.82309000  1.0 -0.1632786669
C  C633  1  0.45363000  0.27672000  0.66615000  1.0 -0.1632786669
C  C634  1  0.61057000  0.78748000  0.33385000  1.0 -0.1632786669
C  C635  1  0.17691000  0.38943000  0.72328000  1.0 -0.1632786669
C  C636  1  0.82309000  0.54637000  0.21252000  1.0 -0.1632786669
C  C637  1  0.66615000  0.45363000  0.27672000  1.0 -0.1632786669
C  C638  1  0.33385000  0.61057000  0.78748000  1.0 -0.1632786669
C  C639  1  0.72328000  0.17691000  0.38943000  1.0 -0.1632786669
C  C640  1  0.21252000  0.82309000  0.54637000  1.0 -0.1632786669
C  C641  1  0.27672000  0.66615000  0.45363000  1.0 -0.1632786669
C  C642  1  0.78748000  0.33385000  0.61057000  1.0 -0.1632786669
C  C643  1  0.75650000  0.26100000  0.98990000  1.0 -0.0571503228
C  C644  1  0.27110000  0.76660000  0.01010000  1.0 -0.0571503228
C  C645  1  0.72890000  0.73900000  0.49550000  1.0 -0.0571503228
C  C646  1  0.24350000  0.23340000  0.50450000  1.0 -0.0571503228
C  C647  1  0.98990000  0.75650000  0.26100000  1.0 -0.0571503228
C  C648  1  0.01010000  0.27110000  0.76660000  1.0 -0.0571503228
C  C649  1  0.49550000  0.72890000  0.73900000  1.0 -0.0571503228
C  C650  1  0.50450000  0.24350000  0.23340000  1.0 -0.0571503228
C  C651  1  0.26100000  0.98990000  0.75650000  1.0 -0.0571503228
C  C652  1  0.76660000  0.01010000  0.27110000  1.0 -0.0571503228
C  C653  1  0.73900000  0.49550000  0.72890000  1.0 -0.0571503228
C  C654  1  0.23340000  0.50450000  0.24350000  1.0 -0.0571503228
C  C655  1  0.24350000  0.73900000  0.01010000  1.0 -0.0571503228
C  C656  1  0.72890000  0.23340000  0.98990000  1.0 -0.0571503228
C  C657  1  0.27110000  0.26100000  0.50450000  1.0 -0.0571503228
C  C658  1  0.75650000  0.76660000  0.49550000  1.0 -0.0571503228
C  C659  1  0.01010000  0.24350000  0.73900000  1.0 -0.0571503228
C  C660  1  0.98990000  0.72890000  0.23340000  1.0 -0.0571503228
C  C661  1  0.50450000  0.27110000  0.26100000  1.0 -0.0571503228
C  C662  1  0.49550000  0.75650000  0.76660000  1.0 -0.0571503228
C  C663  1  0.73900000  0.01010000  0.24350000  1.0 -0.0571503228
C  C664  1  0.23340000  0.98990000  0.72890000  1.0 -0.0571503228
C  C665  1  0.26100000  0.50450000  0.27110000  1.0 -0.0571503228
C  C666  1  0.76660000  0.49550000  0.75650000  1.0 -0.0571503228
C  C667  1  0.72148000  0.22010000  0.96878000  1.0 -0.0166775618
C  C668  1  0.25132000  0.75270000  0.03122000  1.0 -0.0166775618
C  C669  1  0.74868000  0.77990000  0.50138000  1.0 -0.0166775618
C  C670  1  0.27852000  0.24730000  0.49862000  1.0 -0.0166775618
C  C671  1  0.96878000  0.72148000  0.22010000  1.0 -0.0166775618
C  C672  1  0.03122000  0.25132000  0.75270000  1.0 -0.0166775618
C  C673  1  0.50138000  0.74868000  0.77990000  1.0 -0.0166775618
C  C674  1  0.49862000  0.27852000  0.24730000  1.0 -0.0166775618
C  C675  1  0.22010000  0.96878000  0.72148000  1.0 -0.0166775618
C  C676  1  0.75270000  0.03122000  0.25132000  1.0 -0.0166775618
C  C677  1  0.77990000  0.50138000  0.74868000  1.0 -0.0166775618
C  C678  1  0.24730000  0.49862000  0.27852000  1.0 -0.0166775618
C  C679  1  0.27852000  0.77990000  0.03122000  1.0 -0.0166775618
C  C680  1  0.74868000  0.24730000  0.96878000  1.0 -0.0166775618
C  C681  1  0.25132000  0.22010000  0.49862000  1.0 -0.0166775618
C  C682  1  0.72148000  0.75270000  0.50138000  1.0 -0.0166775618
C  C683  1  0.03122000  0.27852000  0.77990000  1.0 -0.0166775618
C  C684  1  0.96878000  0.74868000  0.24730000  1.0 -0.0166775618
C  C685  1  0.49862000  0.25132000  0.22010000  1.0 -0.0166775618
C  C686  1  0.50138000  0.72148000  0.75270000  1.0 -0.0166775618
C  C687  1  0.77990000  0.03122000  0.27852000  1.0 -0.0166775618
C  C688  1  0.24730000  0.96878000  0.74868000  1.0 -0.0166775618
C  C689  1  0.22010000  0.49862000  0.25132000  1.0 -0.0166775618
C  C690  1  0.75270000  0.50138000  0.72148000  1.0 -0.0166775618
C  C691  1  0.71850000  0.19600000  0.98910000  1.0 -0.1004978691
C  C692  1  0.20690000  0.72940000  0.01090000  1.0 -0.1004978691
C  C693  1  0.79310000  0.80400000  0.52250000  1.0 -0.1004978691
C  C694  1  0.28150000  0.27060000  0.47750000  1.0 -0.1004978691
C  C695  1  0.98910000  0.71850000  0.19600000  1.0 -0.1004978691
C  C696  1  0.01090000  0.20690000  0.72940000  1.0 -0.1004978691
C  C697  1  0.52250000  0.79310000  0.80400000  1.0 -0.1004978691
C  C698  1  0.47750000  0.28150000  0.27060000  1.0 -0.1004978691
C  C699  1  0.19600000  0.98910000  0.71850000  1.0 -0.1004978691
C  C700  1  0.72940000  0.01090000  0.20690000  1.0 -0.1004978691
C  C701  1  0.80400000  0.52250000  0.79310000  1.0 -0.1004978691
C  C702  1  0.27060000  0.47750000  0.28150000  1.0 -0.1004978691
C  C703  1  0.28150000  0.80400000  0.01090000  1.0 -0.1004978691
C  C704  1  0.79310000  0.27060000  0.98910000  1.0 -0.1004978691
C  C705  1  0.20690000  0.19600000  0.47750000  1.0 -0.1004978691
C  C706  1  0.71850000  0.72940000  0.52250000  1.0 -0.1004978691
C  C707  1  0.01090000  0.28150000  0.80400000  1.0 -0.1004978691
C  C708  1  0.98910000  0.79310000  0.27060000  1.0 -0.1004978691
C  C709  1  0.47750000  0.20690000  0.19600000  1.0 -0.1004978691
C  C710  1  0.52250000  0.71850000  0.72940000  1.0 -0.1004978691
C  C711  1  0.80400000  0.01090000  0.28150000  1.0 -0.1004978691
C  C712  1  0.27060000  0.98910000  0.79310000  1.0 -0.1004978691
C  C713  1  0.19600000  0.47750000  0.20690000  1.0 -0.1004978691
C  C714  1  0.72940000  0.52250000  0.71850000  1.0 -0.1004978691
C  C715  1  0.75060000  0.21280000  0.03060000  1.0 -0.1174043932
C  C716  1  0.18220000  0.72000000  0.96940000  1.0 -0.1174043932
C  C717  1  0.81780000  0.78720000  0.53780000  1.0 -0.1174043932
C  C718  1  0.24940000  0.28000000  0.46220000  1.0 -0.1174043932
C  C719  1  0.03060000  0.75060000  0.21280000  1.0 -0.1174043932
C  C720  1  0.96940000  0.18220000  0.72000000  1.0 -0.1174043932
C  C721  1  0.53780000  0.81780000  0.78720000  1.0 -0.1174043932
C  C722  1  0.46220000  0.24940000  0.28000000  1.0 -0.1174043932
C  C723  1  0.21280000  0.03060000  0.75060000  1.0 -0.1174043932
C  C724  1  0.72000000  0.96940000  0.18220000  1.0 -0.1174043932
C  C725  1  0.78720000  0.53780000  0.81780000  1.0 -0.1174043932
C  C726  1  0.28000000  0.46220000  0.24940000  1.0 -0.1174043932
C  C727  1  0.24940000  0.78720000  0.96940000  1.0 -0.1174043932
C  C728  1  0.81780000  0.28000000  0.03060000  1.0 -0.1174043932
C  C729  1  0.18220000  0.21280000  0.46220000  1.0 -0.1174043932
C  C730  1  0.75060000  0.72000000  0.53780000  1.0 -0.1174043932
C  C731  1  0.96940000  0.24940000  0.78720000  1.0 -0.1174043932
C  C732  1  0.03060000  0.81780000  0.28000000  1.0 -0.1174043932
C  C733  1  0.46220000  0.18220000  0.21280000  1.0 -0.1174043932
C  C734  1  0.53780000  0.75060000  0.72000000  1.0 -0.1174043932
C  C735  1  0.78720000  0.96940000  0.24940000  1.0 -0.1174043932
C  C736  1  0.28000000  0.03060000  0.81780000  1.0 -0.1174043932
C  C737  1  0.21280000  0.46220000  0.18220000  1.0 -0.1174043932
C  C738  1  0.72000000  0.53780000  0.75060000  1.0 -0.1174043932
C  C739  1  0.78565000  0.25380000  0.05185000  1.0 0.0218179842
C  C740  1  0.20195000  0.73380000  0.94815000  1.0 0.0218179842
C  C741  1  0.79805000  0.74620000  0.53185000  1.0 0.0218179842
C  C742  1  0.21435000  0.26620000  0.46815000  1.0 0.0286310922
C  C743  1  0.05185000  0.78565000  0.25380000  1.0 0.0286310922
C  C744  1  0.94815000  0.20195000  0.73380000  1.0 0.0218179842
C  C745  1  0.53185000  0.79805000  0.74620000  1.0 0.0218179842
C  C746  1  0.46815000  0.21435000  0.26620000  1.0 0.0286310922
C  C747  1  0.25380000  0.05185000  0.78565000  1.0 0.0218179842
C  C748  1  0.73380000  0.94815000  0.20195000  1.0 0.0218179842
C  C749  1  0.74620000  0.53185000  0.79805000  1.0 0.0218179842
C  C750  1  0.26620000  0.46815000  0.21435000  1.0 0.0286310922
C  C751  1  0.21435000  0.74620000  0.94815000  1.0 0.0218179842
C  C752  1  0.79805000  0.26620000  0.05185000  1.0 0.0218179842
C  C753  1  0.20195000  0.25380000  0.46815000  1.0 0.0286310922
C  C754  1  0.78565000  0.73380000  0.53185000  1.0 0.0218179842
C  C755  1  0.94815000  0.21435000  0.74620000  1.0 0.0218179842
C  C756  1  0.05185000  0.79805000  0.26620000  1.0 0.0286310922
C  C757  1  0.46815000  0.20195000  0.25380000  1.0 0.0286310922
C  C758  1  0.53185000  0.78565000  0.73380000  1.0 0.0218179842
C  C759  1  0.74620000  0.94815000  0.21435000  1.0 0.0218179842
C  C760  1  0.26620000  0.05185000  0.79805000  1.0 0.0218179842
C  C761  1  0.25380000  0.46815000  0.20195000  1.0 0.0286310922
C  C762  1  0.73380000  0.53185000  0.78565000  1.0 0.0218179842
C  C763  1  0.78860000  0.27790000  0.03150000  1.0 -0.0040325934
C  C764  1  0.24640000  0.75710000  0.96850000  1.0 -0.0098190507
C  C765  1  0.75360000  0.72210000  0.51070000  1.0 -0.0040325934
C  C766  1  0.21140000  0.24290000  0.48930000  1.0 -0.0040325934
C  C767  1  0.03150000  0.78860000  0.27790000  1.0 -0.0040325934
C  C768  1  0.96850000  0.24640000  0.75710000  1.0 -0.0040325934
C  C769  1  0.51070000  0.75360000  0.72210000  1.0 -0.0040325934
C  C770  1  0.48930000  0.21140000  0.24290000  1.0 -0.0040325934
C  C771  1  0.27790000  0.03150000  0.78860000  1.0 -0.0040325934
C  C772  1  0.75710000  0.96850000  0.24640000  1.0 -0.0040325934
C  C773  1  0.72210000  0.51070000  0.75360000  1.0 -0.0040325934
C  C774  1  0.24290000  0.48930000  0.21140000  1.0 -0.0040325934
C  C775  1  0.21140000  0.72210000  0.96850000  1.0 -0.0098190507
C  C776  1  0.75360000  0.24290000  0.03150000  1.0 -0.0040325934
C  C777  1  0.24640000  0.27790000  0.48930000  1.0 -0.0040325934
C  C778  1  0.78860000  0.75710000  0.51070000  1.0 -0.0040325934
C  C779  1  0.96850000  0.21140000  0.72210000  1.0 -0.0040325934
C  C780  1  0.03150000  0.75360000  0.24290000  1.0 -0.0040325934
C  C781  1  0.48930000  0.24640000  0.27790000  1.0 -0.0040325934
C  C782  1  0.51070000  0.78860000  0.75710000  1.0 -0.0040325934
C  C783  1  0.72210000  0.96850000  0.21140000  1.0 -0.0040325934
C  C784  1  0.24290000  0.03150000  0.75360000  1.0 -0.0040325934
C  C785  1  0.27790000  0.48930000  0.24640000  1.0 -0.0040325934
C  C786  1  0.75710000  0.51070000  0.78860000  1.0 -0.0040325934
C  C787  1  0.66462000  0.16050000  0.89492000  1.0 -0.139632333
C  C788  1  0.26558000  0.76970000  0.10508000  1.0 -0.139632333
C  C789  1  0.73442000  0.83950000  0.50412000  1.0 -0.139632333
C  C790  1  0.33538000  0.23030000  0.49588000  1.0 -0.139632333
C  C791  1  0.89492000  0.66462000  0.16050000  1.0 -0.139632333
C  C792  1  0.10508000  0.26558000  0.76970000  1.0 -0.139632333
C  C793  1  0.50412000  0.73442000  0.83950000  1.0 -0.139632333
C  C794  1  0.49588000  0.33538000  0.23030000  1.0 -0.139632333
C  C795  1  0.16050000  0.89492000  0.66462000  1.0 -0.139632333
C  C796  1  0.76970000  0.10508000  0.26558000  1.0 -0.139632333
C  C797  1  0.83950000  0.50412000  0.73442000  1.0 -0.139632333
C  C798  1  0.23030000  0.49588000  0.33538000  1.0 -0.139632333
C  C799  1  0.33538000  0.83950000  0.10508000  1.0 -0.139632333
C  C800  1  0.73442000  0.23030000  0.89492000  1.0 -0.139632333
C  C801  1  0.26558000  0.16050000  0.49588000  1.0 -0.139632333
C  C802  1  0.66462000  0.76970000  0.50412000  1.0 -0.139632333
C  C803  1  0.10508000  0.33538000  0.83950000  1.0 -0.139632333
C  C804  1  0.89492000  0.73442000  0.23030000  1.0 -0.139632333
C  C805  1  0.49588000  0.26558000  0.16050000  1.0 -0.139632333
C  C806  1  0.50412000  0.66462000  0.76970000  1.0 -0.139632333
C  C807  1  0.83950000  0.10508000  0.33538000  1.0 -0.1321714521
C  C808  1  0.23030000  0.89492000  0.73442000  1.0 -0.139632333
C  C809  1  0.16050000  0.49588000  0.26558000  1.0 -0.139632333
C  C810  1  0.76970000  0.50412000  0.66462000  1.0 -0.139632333
C  C811  1  0.68597000  0.20350000  0.92627000  1.0 0.001952284
C  C812  1  0.27723000  0.75970000  0.07373000  1.0 0.001952284
C  C813  1  0.72277000  0.79650000  0.48247000  1.0 0.001952284
C  C814  1  0.31403000  0.24030000  0.51753000  1.0 0.001952284
C  C815  1  0.92627000  0.68597000  0.20350000  1.0 0.001952284
C  C816  1  0.07373000  0.27723000  0.75970000  1.0 0.001952284
C  C817  1  0.48247000  0.72277000  0.79650000  1.0 0.001952284
C  C818  1  0.51753000  0.31403000  0.24030000  1.0 0.001952284
C  C819  1  0.20350000  0.92627000  0.68597000  1.0 0.001952284
C  C820  1  0.75970000  0.07373000  0.27723000  1.0 0.001952284
C  C821  1  0.79650000  0.48247000  0.72277000  1.0 0.001952284
C  C822  1  0.24030000  0.51753000  0.31403000  1.0 0.001952284
C  C823  1  0.31403000  0.79650000  0.07373000  1.0 0.001952284
C  C824  1  0.72277000  0.24030000  0.92627000  1.0 0.001952284
C  C825  1  0.27723000  0.20350000  0.51753000  1.0 0.001952284
C  C826  1  0.68597000  0.75970000  0.48247000  1.0 0.001952284
C  C827  1  0.07373000  0.31403000  0.79650000  1.0 0.001952284
C  C828  1  0.92627000  0.72277000  0.24030000  1.0 0.001952284
C  C829  1  0.51753000  0.27723000  0.20350000  1.0 0.001952284
C  C830  1  0.48247000  0.68597000  0.75970000  1.0 0.001952284
C  C831  1  0.79650000  0.07373000  0.31403000  1.0 0.001952284
C  C832  1  0.24030000  0.92627000  0.72277000  1.0 0.001952284
C  C833  1  0.20350000  0.51753000  0.27723000  1.0 0.001952284
C  C834  1  0.75970000  0.48247000  0.68597000  1.0 0.001952284
C  C835  1  0.64012000  0.21630000  0.87742000  1.0 0.0218179842
C  C836  1  0.33888000  0.76270000  0.12258000  1.0 0.0218179842
C  C837  1  0.66112000  0.78370000  0.42382000  1.0 0.0218179842
C  C838  1  0.35988000  0.23730000  0.57618000  1.0 0.0218179842
C  C839  1  0.87742000  0.64012000  0.21630000  1.0 0.0218179842
C  C840  1  0.12258000  0.33888000  0.76270000  1.0 0.0218179842
C  C841  1  0.42382000  0.66112000  0.78370000  1.0 0.0218179842
C  C842  1  0.57618000  0.35988000  0.23730000  1.0 0.0218179842
C  C843  1  0.21630000  0.87742000  0.64012000  1.0 0.0218179842
C  C844  1  0.76270000  0.12258000  0.33888000  1.0 0.0218179842
C  C845  1  0.78370000  0.42382000  0.66112000  1.0 0.0218179842
C  C846  1  0.23730000  0.57618000  0.35988000  1.0 0.0218179842
C  C847  1  0.35988000  0.78370000  0.12258000  1.0 0.0218179842
C  C848  1  0.66112000  0.23730000  0.87742000  1.0 0.0218179842
C  C849  1  0.33888000  0.21630000  0.57618000  1.0 0.0218179842
C  C850  1  0.64012000  0.76270000  0.42382000  1.0 0.0218179842
C  C851  1  0.12258000  0.35988000  0.78370000  1.0 0.0218179842
C  C852  1  0.87742000  0.66112000  0.23730000  1.0 0.0218179842
C  C853  1  0.57618000  0.33888000  0.21630000  1.0 0.0218179842
C  C854  1  0.42382000  0.64012000  0.76270000  1.0 0.0218179842
C  C855  1  0.78370000  0.12258000  0.35988000  1.0 0.0218179842
C  C856  1  0.23730000  0.87742000  0.66112000  1.0 0.0218179842
C  C857  1  0.21630000  0.57618000  0.33888000  1.0 0.0218179842
C  C858  1  0.76270000  0.42382000  0.64012000  1.0 0.0218179842
C  C859  1  0.61887000  0.17350000  0.84617000  1.0 -0.1004978691
C  C860  1  0.32733000  0.77270000  0.15383000  1.0 -0.1004978691
C  C861  1  0.67267000  0.82650000  0.44537000  1.0 -0.1004978691
C  C862  1  0.38113000  0.22730000  0.55463000  1.0 -0.1004978691
C  C863  1  0.84617000  0.61887000  0.17350000  1.0 -0.1004978691
C  C864  1  0.15383000  0.32733000  0.77270000  1.0 -0.1004978691
C  C865  1  0.44537000  0.67267000  0.82650000  1.0 -0.1004978691
C  C866  1  0.55463000  0.38113000  0.22730000  1.0 -0.1004978691
C  C867  1  0.17350000  0.84617000  0.61887000  1.0 -0.1004978691
C  C868  1  0.77270000  0.15383000  0.32733000  1.0 -0.1004978691
C  C869  1  0.82650000  0.44537000  0.67267000  1.0 -0.1004978691
C  C870  1  0.22730000  0.55463000  0.38113000  1.0 -0.1004978691
C  C871  1  0.38113000  0.82650000  0.15383000  1.0 -0.1004978691
C  C872  1  0.67267000  0.22730000  0.84617000  1.0 -0.1004978691
C  C873  1  0.32733000  0.17350000  0.55463000  1.0 -0.1004978691
C  C874  1  0.61887000  0.77270000  0.44537000  1.0 -0.1004978691
C  C875  1  0.15383000  0.38113000  0.82650000  1.0 -0.1004978691
C  C876  1  0.84617000  0.67267000  0.22730000  1.0 -0.1004978691
C  C877  1  0.55463000  0.32733000  0.17350000  1.0 -0.09464051
C  C878  1  0.44537000  0.61887000  0.77270000  1.0 -0.1004978691
C  C879  1  0.82650000  0.15383000  0.38113000  1.0 -0.1004978691
C  C880  1  0.22730000  0.84617000  0.67267000  1.0 -0.1004978691
C  C881  1  0.17350000  0.55463000  0.32733000  1.0 -0.1004978691
C  C882  1  0.77270000  0.44537000  0.61887000  1.0 -0.1004978691
C  C883  1  0.82220000  0.27880000  0.09820000  1.0 0.4792831157
C  C884  1  0.18060000  0.72400000  0.90180000  1.0 0.4792831157
C  C885  1  0.81940000  0.72120000  0.54340000  1.0 0.4792831157
C  C886  1  0.17780000  0.27600000  0.45660000  1.0 0.4792831157
C  C887  1  0.09820000  0.82220000  0.27880000  1.0 0.4792831157
C  C888  1  0.90180000  0.18060000  0.72400000  1.0 0.4792831157
C  C889  1  0.54340000  0.81940000  0.72120000  1.0 0.4792831157
C  C890  1  0.45660000  0.17780000  0.27600000  1.0 0.4792831157
C  C891  1  0.27880000  0.09820000  0.82220000  1.0 0.4792831157
C  C892  1  0.72400000  0.90180000  0.18060000  1.0 0.4792831157
C  C893  1  0.72120000  0.54340000  0.81940000  1.0 0.4792831157
C  C894  1  0.27600000  0.45660000  0.17780000  1.0 0.4792831157
C  C895  1  0.17780000  0.72120000  0.90180000  1.0 0.4792831157
C  C896  1  0.81940000  0.27600000  0.09820000  1.0 0.4792831157
C  C897  1  0.18060000  0.27880000  0.45660000  1.0 0.4792831157
C  C898  1  0.82220000  0.72400000  0.54340000  1.0 0.4792831157
C  C899  1  0.90180000  0.17780000  0.72120000  1.0 0.4792831157
C  C900  1  0.09820000  0.81940000  0.27600000  1.0 0.4792831157
C  C901  1  0.45660000  0.18060000  0.27880000  1.0 0.4792831157
C  C902  1  0.54340000  0.82220000  0.72400000  1.0 0.4792831157
C  C903  1  0.72120000  0.90180000  0.17780000  1.0 0.4792831157
C  C904  1  0.27600000  0.09820000  0.81940000  1.0 0.4792831157
C  C905  1  0.27880000  0.45660000  0.18060000  1.0 0.4792831157
C  C906  1  0.72400000  0.54340000  0.82220000  1.0 0.4792831157
C  C907  1  0.60590000  0.34350000  0.85320000  1.0 0.6104387139
C  C908  1  0.49030000  0.75270000  0.14680000  1.0 0.6104387139
C  C909  1  0.50970000  0.65650000  0.26240000  1.0 0.6104387139
C  C910  1  0.39410000  0.24730000  0.73760000  1.0 0.6104387139
C  C911  1  0.85320000  0.60590000  0.34350000  1.0 0.6104387139
C  C912  1  0.14680000  0.49030000  0.75270000  1.0 0.6104387139
C  C913  1  0.26240000  0.50970000  0.65650000  1.0 0.6104387139
C  C914  1  0.73760000  0.39410000  0.24730000  1.0 0.6104387139
C  C915  1  0.34350000  0.85320000  0.60590000  1.0 0.6104387139
C  C916  1  0.75270000  0.14680000  0.49030000  1.0 0.6104387139
C  C917  1  0.65650000  0.26240000  0.50970000  1.0 0.6104387139
C  C918  1  0.24730000  0.73760000  0.39410000  1.0 0.6104387139
C  C919  1  0.39410000  0.65650000  0.14680000  1.0 0.6104387139
C  C920  1  0.50970000  0.24730000  0.85320000  1.0 0.6104387139
C  C921  1  0.49030000  0.34350000  0.73760000  1.0 0.6104387139
C  C922  1  0.60590000  0.75270000  0.26240000  1.0 0.6104387139
C  C923  1  0.14680000  0.39410000  0.65650000  1.0 0.6104387139
C  C924  1  0.85320000  0.50970000  0.24730000  1.0 0.6104387139
C  C925  1  0.73760000  0.49030000  0.34350000  1.0 0.6104387139
C  C926  1  0.26240000  0.60590000  0.75270000  1.0 0.6104387139
C  C927  1  0.65650000  0.14680000  0.39410000  1.0 0.6104387139
C  C928  1  0.24730000  0.85320000  0.50970000  1.0 0.6104387139
C  C929  1  0.34350000  0.73760000  0.49030000  1.0 0.6104387139
C  C930  1  0.75270000  0.26240000  0.60590000  1.0 0.6104387139
C  C931  1  0.63380000  0.60770000  0.86310000  1.0 0.4792831157
C  C932  1  0.74460000  0.77070000  0.13690000  1.0 0.4792831157
C  C933  1  0.25540000  0.39230000  0.02610000  1.0 0.4792831157
C  C934  1  0.36620000  0.22930000  0.97390000  1.0 0.4792831157
C  C935  1  0.86310000  0.63380000  0.60770000  1.0 0.4792831157
C  C936  1  0.13690000  0.74460000  0.77070000  1.0 0.4792831157
C  C937  1  0.02610000  0.25540000  0.39230000  1.0 0.4792831157
C  C938  1  0.97390000  0.36620000  0.22930000  1.0 0.4792831157
C  C939  1  0.60770000  0.86310000  0.63380000  1.0 0.4792831157
C  C940  1  0.77070000  0.13690000  0.74460000  1.0 0.4792831157
C  C941  1  0.39230000  0.02610000  0.25540000  1.0 0.4792831157
C  C942  1  0.22930000  0.97390000  0.36620000  1.0 0.4792831157
C  C943  1  0.36620000  0.39230000  0.13690000  1.0 0.4792831157
C  C944  1  0.25540000  0.22930000  0.86310000  1.0 0.4792831157
C  C945  1  0.74460000  0.60770000  0.97390000  1.0 0.4792831157
C  C946  1  0.63380000  0.77070000  0.02610000  1.0 0.4792831157
C  C947  1  0.13690000  0.36620000  0.39230000  1.0 0.4792831157
C  C948  1  0.86310000  0.25540000  0.22930000  1.0 0.4792831157
C  C949  1  0.97390000  0.74460000  0.60770000  1.0 0.4792831157
C  C950  1  0.02610000  0.63380000  0.77070000  1.0 0.4792831157
C  C951  1  0.39230000  0.13690000  0.36620000  1.0 0.4792831157
C  C952  1  0.22930000  0.86310000  0.25540000  1.0 0.4792831157
C  C953  1  0.60770000  0.97390000  0.74460000  1.0 0.4792831157
C  C954  1  0.77070000  0.02610000  0.63380000  1.0 0.4792831157
C  C955  1  0.67360000  0.23128000  0.91748000  1.0 -0.0419120406
C  C956  1  0.31380000  0.75612000  0.08252000  1.0 -0.0419120406
C  C957  1  0.68620000  0.76872000  0.44232000  1.0 -0.0419120406
C  C958  1  0.32640000  0.24388000  0.55768000  1.0 -0.0419120406
C  C959  1  0.91748000  0.67360000  0.23128000  1.0 -0.0419120406
C  C960  1  0.08252000  0.31380000  0.75612000  1.0 -0.0419120406
C  C961  1  0.44232000  0.68620000  0.76872000  1.0 -0.0419120406
C  C962  1  0.55768000  0.32640000  0.24388000  1.0 -0.0419120406
C  C963  1  0.23128000  0.91748000  0.67360000  1.0 -0.0419120406
C  C964  1  0.75612000  0.08252000  0.31380000  1.0 -0.0419120406
C  C965  1  0.76872000  0.44232000  0.68620000  1.0 -0.0419120406
C  C966  1  0.24388000  0.55768000  0.32640000  1.0 -0.0419120406
C  C967  1  0.32640000  0.76872000  0.08252000  1.0 -0.0419120406
C  C968  1  0.68620000  0.24388000  0.91748000  1.0 -0.0419120406
C  C969  1  0.31380000  0.23128000  0.55768000  1.0 -0.0419120406
C  C970  1  0.67360000  0.75612000  0.44232000  1.0 -0.0419120406
C  C971  1  0.08252000  0.32640000  0.76872000  1.0 -0.0419120406
C  C972  1  0.91748000  0.68620000  0.24388000  1.0 -0.0419120406
C  C973  1  0.55768000  0.31380000  0.23128000  1.0 -0.0419120406
C  C974  1  0.44232000  0.67360000  0.75612000  1.0 -0.0419120406
C  C975  1  0.76872000  0.08252000  0.32640000  1.0 -0.0419120406
C  C976  1  0.24388000  0.91748000  0.68620000  1.0 -0.0419120406
C  C977  1  0.23128000  0.55768000  0.31380000  1.0 -0.0419120406
C  C978  1  0.75612000  0.44232000  0.67360000  1.0 -0.0419120406
C  C979  1  0.60290000  0.34080000  0.84590000  1.0 0.6104387139
C  C980  1  0.49490000  0.75700000  0.15410000  1.0 0.6104387139
C  C981  1  0.50510000  0.65920000  0.26210000  1.0 0.6104387139
C  C982  1  0.39710000  0.24300000  0.73790000  1.0 0.6104387139
C  C983  1  0.84590000  0.60290000  0.34080000  1.0 0.6104387139
C  C984  1  0.15410000  0.49490000  0.75700000  1.0 0.6104387139
C  C985  1  0.26210000  0.50510000  0.65920000  1.0 0.6104387139
C  C986  1  0.73790000  0.39710000  0.24300000  1.0 0.6104387139
C  C987  1  0.34080000  0.84590000  0.60290000  1.0 0.6104387139
C  C988  1  0.75700000  0.15410000  0.49490000  1.0 0.6104387139
C  C989  1  0.65920000  0.26210000  0.50510000  1.0 0.6104387139
C  C990  1  0.24300000  0.73790000  0.39710000  1.0 0.6104387139
C  C991  1  0.39710000  0.65920000  0.15410000  1.0 0.6104387139
C  C992  1  0.50510000  0.24300000  0.84590000  1.0 0.6104387139
C  C993  1  0.49490000  0.34080000  0.73790000  1.0 0.6104387139
C  C994  1  0.60290000  0.75700000  0.26210000  1.0 0.6104387139
C  C995  1  0.15410000  0.39710000  0.65920000  1.0 0.6104387139
C  C996  1  0.84590000  0.50510000  0.24300000  1.0 0.6104387139
C  C997  1  0.73790000  0.49490000  0.34080000  1.0 0.6104387139
C  C998  1  0.26210000  0.60290000  0.75700000  1.0 0.6104387139
C  C999  1  0.65920000  0.15410000  0.39710000  1.0 0.6104387139
C  C1000  1  0.24300000  0.84590000  0.50510000  1.0 0.6104387139
C  C1001  1  0.34080000  0.73790000  0.49490000  1.0 0.6104387139
C  C1002  1  0.75700000  0.26210000  0.60290000  1.0 0.6104387139
N  N1  1  0.61551000  0.31787000  0.50224000  1.0 -0.1501153891
N  N2  1  0.81563000  0.11327000  0.49776000  1.0 -0.1501153891
N  N3  1  0.18437000  0.68213000  0.29764000  1.0 -0.1501153891
N  N4  1  0.38449000  0.88673000  0.70236000  1.0 -0.1501153891
N  N5  1  0.50224000  0.61551000  0.31787000  1.0 -0.1501153891
N  N6  1  0.49776000  0.81563000  0.11327000  1.0 -0.1501153891
N  N7  1  0.29764000  0.18437000  0.68213000  1.0 -0.1501153891
N  N8  1  0.70236000  0.38449000  0.88673000  1.0 -0.1501153891
N  N9  1  0.31787000  0.50224000  0.61551000  1.0 -0.1501153891
N  N10  1  0.11327000  0.49776000  0.81563000  1.0 -0.1501153891
N  N11  1  0.68213000  0.29764000  0.18437000  1.0 -0.1501153891
N  N12  1  0.88673000  0.70236000  0.38449000  1.0 -0.1501153891
N  N13  1  0.38449000  0.68213000  0.49776000  1.0 -0.1501153891
N  N14  1  0.18437000  0.88673000  0.50224000  1.0 -0.1501153891
N  N15  1  0.81563000  0.31787000  0.70236000  1.0 -0.1501153891
N  N16  1  0.61551000  0.11327000  0.29764000  1.0 -0.1501153891
N  N17  1  0.49776000  0.38449000  0.68213000  1.0 -0.1501153891
N  N18  1  0.50224000  0.18437000  0.88673000  1.0 -0.1501153891
N  N19  1  0.70236000  0.81563000  0.31787000  1.0 -0.1501153891
N  N20  1  0.29764000  0.61551000  0.11327000  1.0 -0.1501153891
N  N21  1  0.68213000  0.49776000  0.38449000  1.0 -0.1501153891
N  N22  1  0.88673000  0.50224000  0.18437000  1.0 -0.1501153891
N  N23  1  0.31787000  0.70236000  0.81563000  1.0 -0.1501153891
N  N24  1  0.11327000  0.29764000  0.61551000  1.0 -0.1501153891
N  N25  1  0.63110000  0.14560000  0.85490000  1.0 -0.2351546007
N  N26  1  0.29070000  0.77620000  0.14510000  1.0 -0.2351546007
N  N27  1  0.70930000  0.85440000  0.48550000  1.0 -0.2340945388
N  N28  1  0.36890000  0.22380000  0.51450000  1.0 -0.2351546007
N  N29  1  0.85490000  0.63110000  0.14560000  1.0 -0.2351546007
N  N30  1  0.14510000  0.29070000  0.77620000  1.0 -0.2351546007
N  N31  1  0.48550000  0.70930000  0.85440000  1.0 -0.2351546007
N  N32  1  0.51450000  0.36890000  0.22380000  1.0 -0.2340945388
N  N33  1  0.14560000  0.85490000  0.63110000  1.0 -0.2340945388
N  N34  1  0.77620000  0.14510000  0.29070000  1.0 -0.2340945388
N  N35  1  0.85440000  0.48550000  0.70930000  1.0 -0.2340945388
N  N36  1  0.22380000  0.51450000  0.36890000  1.0 -0.2351546007
N  N37  1  0.36890000  0.85440000  0.14510000  1.0 -0.2351546007
N  N38  1  0.70930000  0.22380000  0.85490000  1.0 -0.2340945388
N  N39  1  0.29070000  0.14560000  0.51450000  1.0 -0.2340945388
N  N40  1  0.63110000  0.77620000  0.48550000  1.0 -0.2340945388
N  N41  1  0.14510000  0.36890000  0.85440000  1.0 -0.2351546007
N  N42  1  0.85490000  0.70930000  0.22380000  1.0 -0.2351546007
N  N43  1  0.51450000  0.29070000  0.14560000  1.0 -0.2340945388
N  N44  1  0.48550000  0.63110000  0.77620000  1.0 -0.2340945388
N  N45  1  0.85440000  0.14510000  0.36890000  1.0 -0.2340945388
N  N46  1  0.22380000  0.85490000  0.70930000  1.0 -0.2351546007
N  N47  1  0.14560000  0.51450000  0.29070000  1.0 -0.2351546007
N  N48  1  0.77620000  0.48550000  0.63110000  1.0 -0.2351546007
O  O1  1  0.57958000  0.41890000  0.83932000  1.0 -0.9906223732
O  O2  1  0.57958000  0.74026000  0.16068000  1.0 -0.9906223732
O  O3  1  0.42042000  0.58110000  0.16068000  1.0 -0.9906223732
O  O4  1  0.42042000  0.25974000  0.83932000  1.0 -0.9906223732
O  O5  1  0.83932000  0.57958000  0.41890000  1.0 -0.9906223732
O  O6  1  0.16068000  0.57958000  0.74026000  1.0 -0.9906223732
O  O7  1  0.16068000  0.42042000  0.58110000  1.0 -0.9906223732
O  O8  1  0.83932000  0.42042000  0.25974000  1.0 -0.9906223732
O  O9  1  0.41890000  0.83932000  0.57958000  1.0 -0.9906223732
O  O10  1  0.74026000  0.16068000  0.57958000  1.0 -0.9906223732
O  O11  1  0.58110000  0.16068000  0.42042000  1.0 -0.9906223732
O  O12  1  0.25974000  0.83932000  0.42042000  1.0 -0.9906223732
O  O13  1  0.57988000  0.48047000  0.90059000  1.0 -0.921850078
O  O14  1  0.57988000  0.67929000  0.09941000  1.0 -0.921850078
O  O15  1  0.42012000  0.51953000  0.09941000  1.0 -0.921850078
O  O16  1  0.42012000  0.32071000  0.90059000  1.0 -0.921850078
O  O17  1  0.90059000  0.57988000  0.48047000  1.0 -0.9298544692
O  O18  1  0.09941000  0.57988000  0.67929000  1.0 -0.921850078
O  O19  1  0.09941000  0.42012000  0.51953000  1.0 -0.921850078
O  O20  1  0.90059000  0.42012000  0.32071000  1.0 -0.921850078
O  O21  1  0.48047000  0.90059000  0.57988000  1.0 -0.921850078
O  O22  1  0.67929000  0.09941000  0.57988000  1.0 -0.921850078
O  O23  1  0.51953000  0.09941000  0.42012000  1.0 -0.9298544692
O  O24  1  0.32071000  0.90059000  0.42012000  1.0 -0.921850078
O  O25  1  0.65016000  0.47255000  0.82239000  1.0 -1.0058327285
O  O26  1  0.65016000  0.82777000  0.17761000  1.0 -1.0045057702
O  O27  1  0.34984000  0.52745000  0.17761000  1.0 -1.0058327285
O  O28  1  0.34984000  0.17223000  0.82239000  1.0 -1.0058327285
O  O29  1  0.82239000  0.65016000  0.47255000  1.0 -1.0045057702
O  O30  1  0.17761000  0.65016000  0.82777000  1.0 -1.0058327285
O  O31  1  0.17761000  0.34984000  0.52745000  1.0 -1.0058327285
O  O32  1  0.82239000  0.34984000  0.17223000  1.0 -1.0045057702
O  O33  1  0.47255000  0.82239000  0.65016000  1.0 -1.0058327285
O  O34  1  0.82777000  0.17761000  0.65016000  1.0 -1.0058327285
O  O35  1  0.52745000  0.17761000  0.34984000  1.0 -1.0058327285
O  O36  1  0.17223000  0.82239000  0.34984000  1.0 -1.0058327285
O  O37  1  0.67667000  0.55562000  0.87895000  1.0 -0.8268493901
O  O38  1  0.67667000  0.79772000  0.12105000  1.0 -0.8268493901
O  O39  1  0.32333000  0.44438000  0.12105000  1.0 -0.8268493901
O  O40  1  0.32333000  0.20228000  0.87895000  1.0 -0.8268493901
O  O41  1  0.87895000  0.67667000  0.55562000  1.0 -0.8268493901
O  O42  1  0.12105000  0.67667000  0.79772000  1.0 -0.8268493901
O  O43  1  0.12105000  0.32333000  0.44438000  1.0 -0.8268493901
O  O44  1  0.87895000  0.32333000  0.20228000  1.0 -0.8268493901
O  O45  1  0.55562000  0.87895000  0.67667000  1.0 -0.8268493901
O  O46  1  0.79772000  0.12105000  0.67667000  1.0 -0.8268493901
O  O47  1  0.44438000  0.12105000  0.32333000  1.0 -0.8268493901
O  O48  1  0.20228000  0.87895000  0.32333000  1.0 -0.8268493901
O  O49  1  0.60529000  0.40148000  0.73005000  1.0 -0.5685088584
O  O50  1  0.67143000  0.87524000  0.26995000  1.0 -0.5685088584
O  O51  1  0.32857000  0.59852000  0.20381000  1.0 -0.5685088584
O  O52  1  0.39471000  0.12476000  0.79619000  1.0 -0.5685088584
O  O53  1  0.73005000  0.60529000  0.40148000  1.0 -0.5685088584
O  O54  1  0.26995000  0.67143000  0.87524000  1.0 -0.5685088584
O  O55  1  0.20381000  0.32857000  0.59852000  1.0 -0.5685088584
O  O56  1  0.79619000  0.39471000  0.12476000  1.0 -0.5685088584
O  O57  1  0.40148000  0.73005000  0.60529000  1.0 -0.5685088584
O  O58  1  0.87524000  0.26995000  0.67143000  1.0 -0.5685088584
O  O59  1  0.59852000  0.20381000  0.32857000  1.0 -0.5685088584
O  O60  1  0.12476000  0.79619000  0.39471000  1.0 -0.5685088584
O  O61  1  0.39471000  0.59852000  0.26995000  1.0 -0.5685088584
O  O62  1  0.32857000  0.12476000  0.73005000  1.0 -0.5685088584
O  O63  1  0.67143000  0.40148000  0.79619000  1.0 -0.5685088584
O  O64  1  0.60529000  0.87524000  0.20381000  1.0 -0.5685088584
O  O65  1  0.26995000  0.39471000  0.59852000  1.0 -0.5685088584
O  O66  1  0.73005000  0.32857000  0.12476000  1.0 -0.5685088584
O  O67  1  0.79619000  0.67143000  0.40148000  1.0 -0.5685088584
O  O68  1  0.20381000  0.60529000  0.87524000  1.0 -0.5685088584
O  O69  1  0.59852000  0.26995000  0.39471000  1.0 -0.5685088584
O  O70  1  0.12476000  0.73005000  0.32857000  1.0 -0.5685088584
O  O71  1  0.40148000  0.79619000  0.67143000  1.0 -0.5685088584
O  O72  1  0.87524000  0.20381000  0.60529000  1.0 -0.5685088584
O  O73  1  0.61322000  0.46288000  0.73224000  1.0 -0.5967767613
O  O74  1  0.73064000  0.88098000  0.26776000  1.0 -0.5888512124
O  O75  1  0.26936000  0.53712000  0.15034000  1.0 -0.5967767613
O  O76  1  0.38678000  0.11902000  0.84966000  1.0 -0.5967767613
O  O77  1  0.73224000  0.61322000  0.46288000  1.0 -0.5888512124
O  O78  1  0.26776000  0.73064000  0.88098000  1.0 -0.5967767613
O  O79  1  0.15034000  0.26936000  0.53712000  1.0 -0.5967767613
O  O80  1  0.84966000  0.38678000  0.11902000  1.0 -0.5888512124
O  O81  1  0.46288000  0.73224000  0.61322000  1.0 -0.5967767613
O  O82  1  0.88098000  0.26776000  0.73064000  1.0 -0.5967767613
O  O83  1  0.53712000  0.15034000  0.26936000  1.0 -0.5967767613
O  O84  1  0.11902000  0.84966000  0.38678000  1.0 -0.5967767613
O  O85  1  0.38678000  0.53712000  0.26776000  1.0 -0.5888512124
O  O86  1  0.26936000  0.11902000  0.73224000  1.0 -0.5967767613
O  O87  1  0.73064000  0.46288000  0.84966000  1.0 -0.5967767613
O  O88  1  0.61322000  0.88098000  0.15034000  1.0 -0.5888512124
O  O89  1  0.26776000  0.38678000  0.53712000  1.0 -0.5967767613
O  O90  1  0.73224000  0.26936000  0.11902000  1.0 -0.5967767613
O  O91  1  0.84966000  0.73064000  0.46288000  1.0 -0.5967767613
O  O92  1  0.15034000  0.61322000  0.88098000  1.0 -0.5967767613
O  O93  1  0.53712000  0.26776000  0.38678000  1.0 -0.5967767613
O  O94  1  0.11902000  0.73224000  0.26936000  1.0 -0.5967767613
O  O95  1  0.46288000  0.84966000  0.73064000  1.0 -0.5967767613
O  O96  1  0.88098000  0.15034000  0.61322000  1.0 -0.5967767613
O  O97  1  0.56634000  0.55188000  0.90592000  1.0 -0.7274062502
O  O98  1  0.64596000  0.66042000  0.09408000  1.0 -0.7274062502
O  O99  1  0.35404000  0.44812000  0.01446000  1.0 -0.7274062502
O  O100  1  0.43366000  0.33958000  0.98554000  1.0 -0.7274062502
O  O101  1  0.90592000  0.56634000  0.55188000  1.0 -0.7274062502
O  O102  1  0.09408000  0.64596000  0.66042000  1.0 -0.7274062502
O  O103  1  0.01446000  0.35404000  0.44812000  1.0 -0.7274062502
O  O104  1  0.98554000  0.43366000  0.33958000  1.0 -0.7274062502
O  O105  1  0.55188000  0.90592000  0.56634000  1.0 -0.7274062502
O  O106  1  0.66042000  0.09408000  0.64596000  1.0 -0.7274062502
O  O107  1  0.44812000  0.01446000  0.35404000  1.0 -0.7274062502
O  O108  1  0.33958000  0.98554000  0.43366000  1.0 -0.7274062502
O  O109  1  0.43366000  0.44812000  0.09408000  1.0 -0.7274062502
O  O110  1  0.35404000  0.33958000  0.90592000  1.0 -0.7274062502
O  O111  1  0.64596000  0.55188000  0.98554000  1.0 -0.7274062502
O  O112  1  0.56634000  0.66042000  0.01446000  1.0 -0.7274062502
O  O113  1  0.09408000  0.43366000  0.44812000  1.0 -0.7274062502
O  O114  1  0.90592000  0.35404000  0.33958000  1.0 -0.7274062502
O  O115  1  0.98554000  0.64596000  0.55188000  1.0 -0.7274062502
O  O116  1  0.01446000  0.56634000  0.66042000  1.0 -0.7274062502
O  O117  1  0.44812000  0.09408000  0.43366000  1.0 -0.7274062502
O  O118  1  0.33958000  0.90592000  0.35404000  1.0 -0.7274062502
O  O119  1  0.55188000  0.98554000  0.64596000  1.0 -0.7274062502
O  O120  1  0.66042000  0.01446000  0.56634000  1.0 -0.7274062502
O  O121  1  0.50696000  0.49012000  0.85260000  1.0 -0.5685088584
O  O122  1  0.63752000  0.65436000  0.14740000  1.0 -0.5685088584
O  O123  1  0.36248000  0.50988000  0.01684000  1.0 -0.5685088584
O  O124  1  0.49304000  0.34564000  0.98316000  1.0 -0.5685088584
O  O125  1  0.85260000  0.50696000  0.49012000  1.0 -0.5636592475
O  O126  1  0.14740000  0.63752000  0.65436000  1.0 -0.5685088584
O  O127  1  0.01684000  0.36248000  0.50988000  1.0 -0.5636592475
O  O128  1  0.98316000  0.49304000  0.34564000  1.0 -0.5636592475
O  O129  1  0.49012000  0.85260000  0.50696000  1.0 -0.5685088584
O  O130  1  0.65436000  0.14740000  0.63752000  1.0 -0.5685088584
O  O131  1  0.50988000  0.01684000  0.36248000  1.0 -0.5636592475
O  O132  1  0.34564000  0.98316000  0.49304000  1.0 -0.5685088584
O  O133  1  0.49304000  0.50988000  0.14740000  1.0 -0.5685088584
O  O134  1  0.36248000  0.34564000  0.85260000  1.0 -0.5685088584
O  O135  1  0.63752000  0.49012000  0.98316000  1.0 -0.5685088584
O  O136  1  0.50696000  0.65436000  0.01684000  1.0 -0.5636592475
O  O137  1  0.14740000  0.49304000  0.50988000  1.0 -0.5685088584
O  O138  1  0.85260000  0.36248000  0.34564000  1.0 -0.5685088584
O  O139  1  0.98316000  0.63752000  0.49012000  1.0 -0.5685088584
O  O140  1  0.01684000  0.50696000  0.65436000  1.0 -0.5685088584
O  O141  1  0.50988000  0.14740000  0.49304000  1.0 -0.5685088584
O  O142  1  0.34564000  0.85260000  0.36248000  1.0 -0.5685088584
O  O143  1  0.49012000  0.98316000  0.63752000  1.0 -0.5685088584
O  O144  1  0.65436000  0.01684000  0.50696000  1.0 -0.5636592475
O  O145  1  0.76857000  0.49911000  0.46084000  1.0 -0.5888512124
O  O146  1  0.03827000  0.30773000  0.53916000  1.0 -0.5888512124
O  O147  1  0.96173000  0.50089000  0.26946000  1.0 -0.5888512124
O  O148  1  0.23143000  0.69227000  0.73054000  1.0 -0.5888512124
O  O149  1  0.46084000  0.76857000  0.49911000  1.0 -0.5888512124
O  O150  1  0.53916000  0.03827000  0.30773000  1.0 -0.5888512124
O  O151  1  0.26946000  0.96173000  0.50089000  1.0 -0.5888512124
O  O152  1  0.73054000  0.23143000  0.69227000  1.0 -0.5888512124
O  O153  1  0.49911000  0.46084000  0.76857000  1.0 -0.5888512124
O  O154  1  0.30773000  0.53916000  0.03827000  1.0 -0.5888512124
O  O155  1  0.50089000  0.26946000  0.96173000  1.0 -0.5888512124
O  O156  1  0.69227000  0.73054000  0.23143000  1.0 -0.5888512124
O  O157  1  0.23143000  0.50089000  0.53916000  1.0 -0.5888512124
O  O158  1  0.96173000  0.69227000  0.46084000  1.0 -0.5888512124
O  O159  1  0.03827000  0.49911000  0.73054000  1.0 -0.5888512124
O  O160  1  0.76857000  0.30773000  0.26946000  1.0 -0.5888512124
O  O161  1  0.53916000  0.23143000  0.50089000  1.0 -0.5888512124
O  O162  1  0.46084000  0.96173000  0.69227000  1.0 -0.5888512124
O  O163  1  0.73054000  0.03827000  0.49911000  1.0 -0.5888512124
O  O164  1  0.26946000  0.76857000  0.30773000  1.0 -0.5888512124
O  O165  1  0.50089000  0.53916000  0.23143000  1.0 -0.5888512124
O  O166  1  0.69227000  0.46084000  0.96173000  1.0 -0.5888512124
O  O167  1  0.49911000  0.73054000  0.03827000  1.0 -0.5888512124
O  O168  1  0.30773000  0.26946000  0.76857000  1.0 -0.5888512124
O  O169  1  0.64159000  0.61681000  0.97522000  1.0 -0.5018661611
O  O170  1  0.64159000  0.66637000  0.02478000  1.0 -0.5018661611
O  O171  1  0.35841000  0.38319000  0.02478000  1.0 -0.5018661611
O  O172  1  0.35841000  0.33363000  0.97522000  1.0 -0.5018661611
O  O173  1  0.97522000  0.64159000  0.61681000  1.0 -0.5018661611
O  O174  1  0.02478000  0.64159000  0.66637000  1.0 -0.5018661611
O  O175  1  0.02478000  0.35841000  0.38319000  1.0 -0.5018661611
O  O176  1  0.97522000  0.35841000  0.33363000  1.0 -0.5018661611
O  O177  1  0.61681000  0.97522000  0.64159000  1.0 -0.5018661611
O  O178  1  0.66637000  0.02478000  0.64159000  1.0 -0.5018661611
O  O179  1  0.38319000  0.02478000  0.35841000  1.0 -0.5018661611
O  O180  1  0.33363000  0.97522000  0.35841000  1.0 -0.5018661611
O  O181  1  0.56345000  0.43426000  0.77193000  1.0 -0.8205479265
O  O182  1  0.66233000  0.79152000  0.22807000  1.0 -0.8205479265
O  O183  1  0.33767000  0.56574000  0.12919000  1.0 -0.8205479265
O  O184  1  0.43655000  0.20848000  0.87081000  1.0 -0.8205479265
O  O185  1  0.77193000  0.56345000  0.43426000  1.0 -0.8205479265
O  O186  1  0.22807000  0.66233000  0.79152000  1.0 -0.8205479265
O  O187  1  0.12919000  0.33767000  0.56574000  1.0 -0.8205479265
O  O188  1  0.87081000  0.43655000  0.20848000  1.0 -0.8205479265
O  O189  1  0.43426000  0.77193000  0.56345000  1.0 -0.8205479265
O  O190  1  0.79152000  0.22807000  0.66233000  1.0 -0.8205479265
O  O191  1  0.56574000  0.12919000  0.33767000  1.0 -0.8205479265
O  O192  1  0.20848000  0.87081000  0.43655000  1.0 -0.8205479265
O  O193  1  0.43655000  0.56574000  0.22807000  1.0 -0.8205479265
O  O194  1  0.33767000  0.20848000  0.77193000  1.0 -0.8205479265
O  O195  1  0.66233000  0.43426000  0.87081000  1.0 -0.8205479265
O  O196  1  0.56345000  0.79152000  0.12919000  1.0 -0.8205479265
O  O197  1  0.22807000  0.43655000  0.56574000  1.0 -0.8205479265
O  O198  1  0.77193000  0.33767000  0.20848000  1.0 -0.8205479265
O  O199  1  0.87081000  0.66233000  0.43426000  1.0 -0.8205479265
O  O200  1  0.12919000  0.56345000  0.79152000  1.0 -0.8268493901
O  O201  1  0.56574000  0.22807000  0.43655000  1.0 -0.8205479265
O  O202  1  0.20848000  0.77193000  0.33767000  1.0 -0.8205479265
O  O203  1  0.43426000  0.87081000  0.66233000  1.0 -0.8205479265
O  O204  1  0.79152000  0.12919000  0.56345000  1.0 -0.8205479265
O  O205  1  0.59105000  0.50773000  0.84464000  1.0 -1.053123404
O  O206  1  0.66309000  0.74641000  0.15536000  1.0 -1.053123404
O  O207  1  0.33691000  0.49227000  0.08332000  1.0 -1.053123404
O  O208  1  0.40895000  0.25359000  0.91668000  1.0 -1.053123404
O  O209  1  0.84464000  0.59105000  0.50773000  1.0 -1.053123404
O  O210  1  0.15536000  0.66309000  0.74641000  1.0 -1.053123404
O  O211  1  0.08332000  0.33691000  0.49227000  1.0 -1.053123404
O  O212  1  0.91668000  0.40895000  0.25359000  1.0 -1.053123404
O  O213  1  0.50773000  0.84464000  0.59105000  1.0 -1.053123404
O  O214  1  0.74641000  0.15536000  0.66309000  1.0 -1.0550829338
O  O215  1  0.49227000  0.08332000  0.33691000  1.0 -1.053123404
O  O216  1  0.25359000  0.91668000  0.40895000  1.0 -1.053123404
O  O217  1  0.40895000  0.49227000  0.15536000  1.0 -1.053123404
O  O218  1  0.33691000  0.25359000  0.84464000  1.0 -1.053123404
O  O219  1  0.66309000  0.50773000  0.91668000  1.0 -1.053123404
O  O220  1  0.59105000  0.74641000  0.08332000  1.0 -1.053123404
O  O221  1  0.15536000  0.40895000  0.49227000  1.0 -1.053123404
O  O222  1  0.84464000  0.33691000  0.25359000  1.0 -1.053123404
O  O223  1  0.91668000  0.66309000  0.50773000  1.0 -1.053123404
O  O224  1  0.08332000  0.59105000  0.74641000  1.0 -1.053123404
O  O225  1  0.49227000  0.15536000  0.40895000  1.0 -1.053123404
O  O226  1  0.25359000  0.84464000  0.33691000  1.0 -1.053123404
O  O227  1  0.50773000  0.91668000  0.66309000  1.0 -1.053123404
O  O228  1  0.74641000  0.08332000  0.59105000  1.0 -1.0550829338
O  O229  1  0.75776000  0.54834000  0.50004000  1.0 -0.5685088584
O  O230  1  0.04830000  0.25772000  0.49996000  1.0 -0.5685088584
O  O231  1  0.95170000  0.45166000  0.20942000  1.0 -0.5685088584
O  O232  1  0.24224000  0.74228000  0.79058000  1.0 -0.5685088584
O  O233  1  0.50004000  0.75776000  0.54834000  1.0 -0.5685088584
O  O234  1  0.49996000  0.04830000  0.25772000  1.0 -0.5685088584
O  O235  1  0.20942000  0.95170000  0.45166000  1.0 -0.5685088584
O  O236  1  0.79058000  0.24224000  0.74228000  1.0 -0.5685088584
O  O237  1  0.54834000  0.50004000  0.75776000  1.0 -0.5685088584
O  O238  1  0.25772000  0.49996000  0.04830000  1.0 -0.5685088584
O  O239  1  0.45166000  0.20942000  0.95170000  1.0 -0.5685088584
O  O240  1  0.74228000  0.79058000  0.24224000  1.0 -0.5685088584
O  O241  1  0.24224000  0.45166000  0.49996000  1.0 -0.5685088584
O  O242  1  0.95170000  0.74228000  0.50004000  1.0 -0.5685088584
O  O243  1  0.04830000  0.54834000  0.79058000  1.0 -0.5685088584
O  O244  1  0.75776000  0.25772000  0.20942000  1.0 -0.5685088584
O  O245  1  0.49996000  0.24224000  0.45166000  1.0 -0.5685088584
O  O246  1  0.50004000  0.95170000  0.74228000  1.0 -0.5685088584
O  O247  1  0.79058000  0.04830000  0.54834000  1.0 -0.5685088584
O  O248  1  0.20942000  0.75776000  0.25772000  1.0 -0.5685088584
O  O249  1  0.45166000  0.49996000  0.24224000  1.0 -0.5685088584
O  O250  1  0.74228000  0.50004000  0.95170000  1.0 -0.5685088584
O  O251  1  0.54834000  0.79058000  0.04830000  1.0 -0.5685088584
O  O252  1  0.25772000  0.20942000  0.75776000  1.0 -0.5685088584
O  O253  1  0.56323000  0.40473000  0.91808000  1.0 -0.4582897256
O  O254  1  0.48665000  0.64515000  0.08192000  1.0 -0.4582897256
O  O255  1  0.51335000  0.59527000  0.15850000  1.0 -0.4582897256
O  O256  1  0.43677000  0.35485000  0.84150000  1.0 -0.4582897256
O  O257  1  0.91808000  0.56323000  0.40473000  1.0 -0.4582897256
O  O258  1  0.08192000  0.48665000  0.64515000  1.0 -0.4582897256
O  O259  1  0.15850000  0.51335000  0.59527000  1.0 -0.4582897256
O  O260  1  0.84150000  0.43677000  0.35485000  1.0 -0.4582897256
O  O261  1  0.40473000  0.91808000  0.56323000  1.0 -0.4582897256
O  O262  1  0.64515000  0.08192000  0.48665000  1.0 -0.4582897256
O  O263  1  0.59527000  0.15850000  0.51335000  1.0 -0.4582897256
O  O264  1  0.35485000  0.84150000  0.43677000  1.0 -0.4582897256
O  O265  1  0.43677000  0.59527000  0.08192000  1.0 -0.4582897256
O  O266  1  0.51335000  0.35485000  0.91808000  1.0 -0.4582897256
O  O267  1  0.48665000  0.40473000  0.84150000  1.0 -0.4582897256
O  O268  1  0.56323000  0.64515000  0.15850000  1.0 -0.4582897256
O  O269  1  0.08192000  0.43677000  0.59527000  1.0 -0.4582897256
O  O270  1  0.91808000  0.51335000  0.35485000  1.0 -0.4582897256
O  O271  1  0.84150000  0.48665000  0.40473000  1.0 -0.4582897256
O  O272  1  0.15850000  0.56323000  0.64515000  1.0 -0.4582897256
O  O273  1  0.59527000  0.08192000  0.43677000  1.0 -0.4582897256
O  O274  1  0.35485000  0.91808000  0.51335000  1.0 -0.4582897256
O  O275  1  0.40473000  0.84150000  0.48665000  1.0 -0.4582897256
O  O276  1  0.64515000  0.15850000  0.56323000  1.0 -0.4582897256
O  O277  1  0.50290000  0.54150000  0.89640000  1.0 -0.5888512124
O  O278  1  0.64510000  0.60650000  0.10360000  1.0 -0.5888512124
O  O279  1  0.35490000  0.45850000  0.96140000  1.0 -0.5888512124
O  O280  1  0.49710000  0.39350000  0.03860000  1.0 -0.5888512124
O  O281  1  0.89640000  0.50290000  0.54150000  1.0 -0.5888512124
O  O282  1  0.10360000  0.64510000  0.60650000  1.0 -0.5888512124
O  O283  1  0.96140000  0.35490000  0.45850000  1.0 -0.5839536158
O  O284  1  0.03860000  0.49710000  0.39350000  1.0 -0.5839536158
O  O285  1  0.54150000  0.89640000  0.50290000  1.0 -0.5888512124
O  O286  1  0.60650000  0.10360000  0.64510000  1.0 -0.5888512124
O  O287  1  0.45850000  0.96140000  0.35490000  1.0 -0.5888512124
O  O288  1  0.39350000  0.03860000  0.49710000  1.0 -0.5888512124
O  O289  1  0.49710000  0.45850000  0.10360000  1.0 -0.5888512124
O  O290  1  0.35490000  0.39350000  0.89640000  1.0 -0.5888512124
O  O291  1  0.64510000  0.54150000  0.03860000  1.0 -0.5888512124
O  O292  1  0.50290000  0.60650000  0.96140000  1.0 -0.5888512124
O  O293  1  0.10360000  0.49710000  0.45850000  1.0 -0.5839536158
O  O294  1  0.89640000  0.35490000  0.39350000  1.0 -0.5839536158
O  O295  1  0.03860000  0.64510000  0.54150000  1.0 -0.5888512124
O  O296  1  0.96140000  0.50290000  0.60650000  1.0 -0.5839536158
O  O297  1  0.45850000  0.10360000  0.49710000  1.0 -0.5839536158
O  O298  1  0.39350000  0.89640000  0.35490000  1.0 -0.5888512124
O  O299  1  0.54150000  0.03860000  0.64510000  1.0 -0.5888512124
O  O300  1  0.60650000  0.96140000  0.50290000  1.0 -0.5888512124
O  O301  1  0.80300000  0.26260000  0.11540000  1.0 -0.3238321324
O  O302  1  0.14720000  0.68760000  0.88460000  1.0 -0.3238321324
O  O303  1  0.85280000  0.73740000  0.54040000  1.0 -0.3238321324
O  O304  1  0.19700000  0.31240000  0.45960000  1.0 -0.3238321324
O  O305  1  0.11540000  0.80300000  0.26260000  1.0 -0.3238321324
O  O306  1  0.88460000  0.14720000  0.68760000  1.0 -0.3238321324
O  O307  1  0.54040000  0.85280000  0.73740000  1.0 -0.3238321324
O  O308  1  0.45960000  0.19700000  0.31240000  1.0 -0.3238321324
O  O309  1  0.26260000  0.11540000  0.80300000  1.0 -0.3238321324
O  O310  1  0.68760000  0.88460000  0.14720000  1.0 -0.3238321324
O  O311  1  0.73740000  0.54040000  0.85280000  1.0 -0.3238321324
O  O312  1  0.31240000  0.45960000  0.19700000  1.0 -0.3238321324
O  O313  1  0.19700000  0.73740000  0.88460000  1.0 -0.3238321324
O  O314  1  0.85280000  0.31240000  0.11540000  1.0 -0.3238321324
O  O315  1  0.14720000  0.26260000  0.45960000  1.0 -0.3238321324
O  O316  1  0.80300000  0.68760000  0.54040000  1.0 -0.3238321324
O  O317  1  0.88460000  0.19700000  0.73740000  1.0 -0.3238321324
O  O318  1  0.11540000  0.85280000  0.31240000  1.0 -0.3238321324
O  O319  1  0.45960000  0.14720000  0.26260000  1.0 -0.3238321324
O  O320  1  0.54040000  0.80300000  0.68760000  1.0 -0.3238321324
O  O321  1  0.73740000  0.88460000  0.19700000  1.0 -0.3238321324
O  O322  1  0.31240000  0.11540000  0.85280000  1.0 -0.3238321324
O  O323  1  0.26260000  0.45960000  0.14720000  1.0 -0.3238321324
O  O324  1  0.68760000  0.54040000  0.80300000  1.0 -0.3238321324
O  O325  1  0.60360000  0.36610000  0.87830000  1.0 -0.4029556611
O  O326  1  0.48780000  0.72530000  0.12170000  1.0 -0.4050260651
O  O327  1  0.51220000  0.63390000  0.23750000  1.0 -0.4029556611
O  O328  1  0.39640000  0.27470000  0.76250000  1.0 -0.4029556611
O  O329  1  0.87830000  0.60360000  0.36610000  1.0 -0.4029556611
O  O330  1  0.12170000  0.48780000  0.72530000  1.0 -0.4029556611
O  O331  1  0.23750000  0.51220000  0.63390000  1.0 -0.4029556611
O  O332  1  0.76250000  0.39640000  0.27470000  1.0 -0.4029556611
O  O333  1  0.36610000  0.87830000  0.60360000  1.0 -0.4029556611
O  O334  1  0.72530000  0.12170000  0.48780000  1.0 -0.4029556611
O  O335  1  0.63390000  0.23750000  0.51220000  1.0 -0.4029556611
O  O336  1  0.27470000  0.76250000  0.39640000  1.0 -0.4029556611
O  O337  1  0.39640000  0.63390000  0.12170000  1.0 -0.4029556611
O  O338  1  0.51220000  0.27470000  0.87830000  1.0 -0.4029556611
O  O339  1  0.48780000  0.36610000  0.76250000  1.0 -0.4029556611
O  O340  1  0.60360000  0.72530000  0.23750000  1.0 -0.4029556611
O  O341  1  0.12170000  0.39640000  0.63390000  1.0 -0.4029556611
O  O342  1  0.87830000  0.51220000  0.27470000  1.0 -0.4029556611
O  O343  1  0.76250000  0.48780000  0.36610000  1.0 -0.4050260651
O  O344  1  0.23750000  0.60360000  0.72530000  1.0 -0.4029556611
O  O345  1  0.63390000  0.12170000  0.39640000  1.0 -0.4029556611
O  O346  1  0.27470000  0.87830000  0.51220000  1.0 -0.4029556611
O  O347  1  0.36610000  0.76250000  0.48780000  1.0 -0.4029556611
O  O348  1  0.72530000  0.23750000  0.60360000  1.0 -0.4029556611
O  O349  1  0.86110000  0.30830000  0.11780000  1.0 -0.3473898013
O  O350  1  0.19050000  0.74330000  0.88220000  1.0 -0.3473898013
O  O351  1  0.80950000  0.69170000  0.55280000  1.0 -0.3473898013
O  O352  1  0.13890000  0.25670000  0.44720000  1.0 -0.3473898013
O  O353  1  0.11780000  0.86110000  0.30830000  1.0 -0.3473898013
O  O354  1  0.88220000  0.19050000  0.74330000  1.0 -0.3473898013
O  O355  1  0.55280000  0.80950000  0.69170000  1.0 -0.3473898013
O  O356  1  0.44720000  0.13890000  0.25670000  1.0 -0.3473898013
O  O357  1  0.30830000  0.11780000  0.86110000  1.0 -0.3445236253
O  O358  1  0.74330000  0.88220000  0.19050000  1.0 -0.3473898013
O  O359  1  0.69170000  0.55280000  0.80950000  1.0 -0.3473898013
O  O360  1  0.25670000  0.44720000  0.13890000  1.0 -0.3473898013
O  O361  1  0.13890000  0.69170000  0.88220000  1.0 -0.3445236253
O  O362  1  0.80950000  0.25670000  0.11780000  1.0 -0.3473898013
O  O363  1  0.19050000  0.30830000  0.44720000  1.0 -0.3473898013
O  O364  1  0.86110000  0.74330000  0.55280000  1.0 -0.3473898013
O  O365  1  0.88220000  0.13890000  0.69170000  1.0 -0.3473898013
O  O366  1  0.11780000  0.80950000  0.25670000  1.0 -0.3473898013
O  O367  1  0.44720000  0.19050000  0.30830000  1.0 -0.3473898013
O  O368  1  0.55280000  0.86110000  0.74330000  1.0 -0.3473898013
O  O369  1  0.69170000  0.88220000  0.13890000  1.0 -0.3473898013
O  O370  1  0.25670000  0.11780000  0.80950000  1.0 -0.3473898013
O  O371  1  0.30830000  0.44720000  0.19050000  1.0 -0.3473898013
O  O372  1  0.74330000  0.55280000  0.86110000  1.0 -0.3473898013
O  O373  1  0.62984000  0.58354000  0.82552000  1.0 -0.5967767613
O  O374  1  0.75802000  0.80432000  0.17448000  1.0 -0.5967767613
O  O375  1  0.24198000  0.41646000  0.04630000  1.0 -0.5967767613
O  O376  1  0.37016000  0.19568000  0.95370000  1.0 -0.5967767613
O  O377  1  0.82552000  0.62984000  0.58354000  1.0 -0.5967767613
O  O378  1  0.17448000  0.75802000  0.80432000  1.0 -0.5967767613
O  O379  1  0.04630000  0.24198000  0.41646000  1.0 -0.5967767613
O  O380  1  0.95370000  0.37016000  0.19568000  1.0 -0.5967767613
O  O381  1  0.58354000  0.82552000  0.62984000  1.0 -0.5967767613
O  O382  1  0.80432000  0.17448000  0.75802000  1.0 -0.5967767613
O  O383  1  0.41646000  0.04630000  0.24198000  1.0 -0.5967767613
O  O384  1  0.19568000  0.95370000  0.37016000  1.0 -0.5967767613
O  O385  1  0.37016000  0.41646000  0.17448000  1.0 -0.5967767613
O  O386  1  0.24198000  0.19568000  0.82552000  1.0 -0.5967767613
O  O387  1  0.75802000  0.58354000  0.95370000  1.0 -0.5967767613
O  O388  1  0.62984000  0.80432000  0.04630000  1.0 -0.5967767613
O  O389  1  0.17448000  0.37016000  0.41646000  1.0 -0.5967767613
O  O390  1  0.82552000  0.24198000  0.19568000  1.0 -0.5967767613
O  O391  1  0.95370000  0.75802000  0.58354000  1.0 -0.5967767613
O  O392  1  0.04630000  0.62984000  0.80432000  1.0 -0.5967767613
O  O393  1  0.41646000  0.17448000  0.37016000  1.0 -0.5967767613
O  O394  1  0.19568000  0.82552000  0.24198000  1.0 -0.5967767613
O  O395  1  0.58354000  0.95370000  0.75802000  1.0 -0.5967767613
O  O396  1  0.80432000  0.04630000  0.62984000  1.0 -0.5967767613
O  O397  1  0.63895000  0.60996000  0.89885000  1.0 -0.5437892416
O  O398  1  0.71111000  0.74010000  0.10115000  1.0 -0.545088725
O  O399  1  0.28889000  0.39004000  0.02899000  1.0 -0.5437892416
O  O400  1  0.36105000  0.25990000  0.97101000  1.0 -0.5437892416
O  O401  1  0.89885000  0.63895000  0.60996000  1.0 -0.5437892416
O  O402  1  0.10115000  0.71111000  0.74010000  1.0 -0.5437892416
O  O403  1  0.02899000  0.28889000  0.39004000  1.0 -0.5437892416
O  O404  1  0.97101000  0.36105000  0.25990000  1.0 -0.5437892416
O  O405  1  0.60996000  0.89885000  0.63895000  1.0 -0.5437892416
O  O406  1  0.74010000  0.10115000  0.71111000  1.0 -0.545088725
O  O407  1  0.39004000  0.02899000  0.28889000  1.0 -0.5437892416
O  O408  1  0.25990000  0.97101000  0.36105000  1.0 -0.5437892416
O  O409  1  0.36105000  0.39004000  0.10115000  1.0 -0.5437892416
O  O410  1  0.28889000  0.25990000  0.89885000  1.0 -0.5437892416
O  O411  1  0.71111000  0.60996000  0.97101000  1.0 -0.5437892416
O  O412  1  0.63895000  0.74010000  0.02899000  1.0 -0.545088725
O  O413  1  0.10115000  0.36105000  0.39004000  1.0 -0.5437892416
O  O414  1  0.89885000  0.28889000  0.25990000  1.0 -0.5437892416
O  O415  1  0.97101000  0.71111000  0.60996000  1.0 -0.5437892416
O  O416  1  0.02899000  0.63895000  0.74010000  1.0 -0.5437892416
O  O417  1  0.39004000  0.10115000  0.36105000  1.0 -0.5437892416
O  O418  1  0.25990000  0.89885000  0.28889000  1.0 -0.5437892416
O  O419  1  0.60996000  0.97101000  0.71111000  1.0 -0.5437892416
O  O420  1  0.74010000  0.02899000  0.63895000  1.0 -0.5437892416
O  O421  1  0.60380000  0.34580000  0.81700000  1.0 -0.4329977003
O  O422  1  0.52880000  0.78680000  0.18300000  1.0 -0.4329977003
O  O423  1  0.47120000  0.65420000  0.25800000  1.0 -0.4329977003
O  O424  1  0.39620000  0.21320000  0.74200000  1.0 -0.4329977003
O  O425  1  0.81700000  0.60380000  0.34580000  1.0 -0.4329977003
O  O426  1  0.18300000  0.52880000  0.78680000  1.0 -0.4329977003
O  O427  1  0.25800000  0.47120000  0.65420000  1.0 -0.4329977003
O  O428  1  0.74200000  0.39620000  0.21320000  1.0 -0.4329977003
O  O429  1  0.34580000  0.81700000  0.60380000  1.0 -0.4329977003
O  O430  1  0.78680000  0.18300000  0.52880000  1.0 -0.4329977003
O  O431  1  0.65420000  0.25800000  0.47120000  1.0 -0.4329977003
O  O432  1  0.21320000  0.74200000  0.39620000  1.0 -0.4329977003
O  O433  1  0.39620000  0.65420000  0.18300000  1.0 -0.4329977003
O  O434  1  0.47120000  0.21320000  0.81700000  1.0 -0.4329977003
O  O435  1  0.52880000  0.34580000  0.74200000  1.0 -0.4329977003
O  O436  1  0.60380000  0.78680000  0.25800000  1.0 -0.4329977003
O  O437  1  0.18300000  0.39620000  0.65420000  1.0 -0.4329977003
O  O438  1  0.81700000  0.47120000  0.21320000  1.0 -0.4329977003
O  O439  1  0.74200000  0.52880000  0.34580000  1.0 -0.4329977003
O  O440  1  0.25800000  0.60380000  0.78680000  1.0 -0.4329977003
O  O441  1  0.65420000  0.18300000  0.39620000  1.0 -0.4329977003
O  O442  1  0.21320000  0.81700000  0.47120000  1.0 -0.4329977003
O  O443  1  0.34580000  0.74200000  0.52880000  1.0 -0.4329977003
O  O444  1  0.78680000  0.25800000  0.60380000  1.0 -0.4329977003
O  O445  1  0.64330000  0.67010000  0.97320000  1.0 -0.3800028282
O  O446  1  0.69690000  0.67010000  0.02680000  1.0 -0.3800028282
O  O447  1  0.30310000  0.32990000  0.97320000  1.0 -0.3800028282
O  O448  1  0.35670000  0.32990000  0.02680000  1.0 -0.3800028282
O  O449  1  0.97320000  0.64330000  0.67010000  1.0 -0.3800028282
O  O450  1  0.02680000  0.69690000  0.67010000  1.0 -0.3800028282
O  O451  1  0.97320000  0.30310000  0.32990000  1.0 -0.3800028282
O  O452  1  0.02680000  0.35670000  0.32990000  1.0 -0.3800028282
O  O453  1  0.67010000  0.97320000  0.64330000  1.0 -0.3800028282
O  O454  1  0.67010000  0.02680000  0.69690000  1.0 -0.3800028282
O  O455  1  0.32990000  0.97320000  0.30310000  1.0 -0.3800028282
O  O456  1  0.32990000  0.02680000  0.35670000  1.0 -0.3800028282
O  O457  1  0.56500000  0.57770000  0.98730000  1.0 -0.1174043932
O  O458  1  0.59040000  0.57770000  0.01270000  1.0 -0.1321714521
O  O459  1  0.40960000  0.42230000  0.98730000  1.0 -0.1174043932
O  O460  1  0.43500000  0.42230000  0.01270000  1.0 -0.1174043932
O  O461  1  0.98730000  0.56500000  0.57770000  1.0 -0.1174043932
O  O462  1  0.01270000  0.59040000  0.57770000  1.0 -0.1174043932
O  O463  1  0.98730000  0.40960000  0.42230000  1.0 -0.1174043932
O  O464  1  0.01270000  0.43500000  0.42230000  1.0 -0.1090984236
O  O465  1  0.57770000  0.98730000  0.56500000  1.0 -0.1174043932
O  O466  1  0.57770000  0.01270000  0.59040000  1.0 -0.1321714521
O  O467  1  0.42230000  0.98730000  0.40960000  1.0 -0.1174043932
O  O468  1  0.42230000  0.01270000  0.43500000  1.0 -0.1090984236
O  O469  1  0.59350000  0.34190000  0.81540000  1.0 -0.3871058988
O  O470  1  0.52650000  0.77810000  0.18460000  1.0 -0.3871058988
O  O471  1  0.47350000  0.65810000  0.25160000  1.0 -0.3871058988
O  O472  1  0.40650000  0.22190000  0.74840000  1.0 -0.3871058988
O  O473  1  0.81540000  0.59350000  0.34190000  1.0 -0.3871058988
O  O474  1  0.18460000  0.52650000  0.77810000  1.0 -0.3871058988
O  O475  1  0.25160000  0.47350000  0.65810000  1.0 -0.3871058988
O  O476  1  0.74840000  0.40650000  0.22190000  1.0 -0.3871058988
O  O477  1  0.34190000  0.81540000  0.59350000  1.0 -0.3871058988
O  O478  1  0.77810000  0.18460000  0.52650000  1.0 -0.3871058988
O  O479  1  0.65810000  0.25160000  0.47350000  1.0 -0.3871058988
O  O480  1  0.22190000  0.74840000  0.40650000  1.0 -0.3871058988
O  O481  1  0.40650000  0.65810000  0.18460000  1.0 -0.3871058988
O  O482  1  0.47350000  0.22190000  0.81540000  1.0 -0.3871058988
O  O483  1  0.52650000  0.34190000  0.74840000  1.0 -0.3871058988
O  O484  1  0.59350000  0.77810000  0.25160000  1.0 -0.3800028282
O  O485  1  0.18460000  0.40650000  0.65810000  1.0 -0.3871058988
O  O486  1  0.81540000  0.47350000  0.22190000  1.0 -0.3871058988
O  O487  1  0.74840000  0.52650000  0.34190000  1.0 -0.3871058988
O  O488  1  0.25160000  0.59350000  0.77810000  1.0 -0.3871058988
O  O489  1  0.65810000  0.18460000  0.40650000  1.0 -0.3871058988
O  O490  1  0.22190000  0.81540000  0.47350000  1.0 -0.3871058988
O  O491  1  0.34190000  0.74840000  0.52650000  1.0 -0.3871058988
O  O492  1  0.77810000  0.25160000  0.59350000  1.0 -0.3800028282
O  O493  1  0.61370000  0.37360000  0.88650000  1.0 -0.5182220208
O  O494  1  0.48710000  0.72720000  0.11350000  1.0 -0.5182220208
O  O495  1  0.51290000  0.62640000  0.24010000  1.0 -0.5182220208
O  O496  1  0.38630000  0.27280000  0.75990000  1.0 -0.5182220208
O  O497  1  0.88650000  0.61370000  0.37360000  1.0 -0.5182220208
O  O498  1  0.11350000  0.48710000  0.72720000  1.0 -0.5182220208
O  O499  1  0.24010000  0.51290000  0.62640000  1.0 -0.5182220208
O  O500  1  0.75990000  0.38630000  0.27280000  1.0 -0.5182220208
O  O501  1  0.37360000  0.88650000  0.61370000  1.0 -0.5182220208
O  O502  1  0.72720000  0.11350000  0.48710000  1.0 -0.5182220208
O  O503  1  0.62640000  0.24010000  0.51290000  1.0 -0.5182220208
O  O504  1  0.27280000  0.75990000  0.38630000  1.0 -0.5182220208
O  O505  1  0.38630000  0.62640000  0.11350000  1.0 -0.5182220208
O  O506  1  0.51290000  0.27280000  0.88650000  1.0 -0.5182220208
O  O507  1  0.48710000  0.37360000  0.75990000  1.0 -0.5182220208
O  O508  1  0.61370000  0.72720000  0.24010000  1.0 -0.5182220208
O  O509  1  0.11350000  0.38630000  0.62640000  1.0 -0.5182220208
O  O510  1  0.88650000  0.51290000  0.27280000  1.0 -0.5182220208
O  O511  1  0.75990000  0.48710000  0.37360000  1.0 -0.5182220208
O  O512  1  0.24010000  0.61370000  0.72720000  1.0 -0.5182220208
O  O513  1  0.62640000  0.11350000  0.38630000  1.0 -0.5182220208
O  O514  1  0.27280000  0.88650000  0.51290000  1.0 -0.5182220208
O  O515  1  0.37360000  0.75990000  0.48710000  1.0 -0.5182220208
O  O516  1  0.72720000  0.24010000  0.61370000  1.0 -0.5182220208
