# DDEC6 charges by PACMAN v1.1 (https://github.com/mtap-research/PACMAN-charge/)
data_NINGEA_ASR_pacman
_symmetry_space_group_name_H-M   'P 1'
_cell_length_a   38.12890000
_cell_length_b   38.12890000
_cell_length_c   38.12890000
_cell_angle_alpha   109.47100000
_cell_angle_beta   109.47100000
_cell_angle_gamma   109.47100000
_symmetry_Int_Tables_number   1
_chemical_formula_structural   Th12H103C165(N4O37)2
_chemical_formula_sum   'Th72 H618 C990 N48 O444'
_cell_volume   42672.14613859
_cell_formula_units_Z   6
loop_
 _symmetry_equiv_pos_site_id
 _symmetry_equiv_pos_as_xyz
  1  'x, y, z'
loop_
 _atom_site_type_symbol
 _atom_site_label
 _atom_site_symmetry_multiplicity
 _atom_site_fract_x
 _atom_site_fract_y
 _atom_site_fract_z
 _atom_site_occupancy
 _atom_site_charge
Th  Th1  1  0.08744000  0.37683000  0.55299000  1.0 2.2568211525
Th  Th2  1  0.82384000  0.53445000  0.44701000  1.0 2.2568211525
Th  Th3  1  0.17616000  0.62317000  0.71061000  1.0 2.2568211525
Th  Th4  1  0.91256000  0.46555000  0.28939000  1.0 2.2568211525
Th  Th5  1  0.55299000  0.08744000  0.37683000  1.0 2.2568211525
Th  Th6  1  0.44701000  0.82384000  0.53445000  1.0 2.2568211525
Th  Th7  1  0.71061000  0.17616000  0.62317000  1.0 2.2568211525
Th  Th8  1  0.28939000  0.91256000  0.46555000  1.0 2.2568211525
Th  Th9  1  0.37683000  0.55299000  0.08744000  1.0 2.2568211525
Th  Th10  1  0.53445000  0.44701000  0.82384000  1.0 2.2568211525
Th  Th11  1  0.62317000  0.71061000  0.17616000  1.0 2.2568211525
Th  Th12  1  0.46555000  0.28939000  0.91256000  1.0 2.2568211525
Th  Th13  1  0.91256000  0.62317000  0.44701000  1.0 2.2568211525
Th  Th14  1  0.17616000  0.46555000  0.55299000  1.0 2.2568211525
Th  Th15  1  0.82384000  0.37683000  0.28939000  1.0 2.2568211525
Th  Th16  1  0.08744000  0.53445000  0.71061000  1.0 2.2568211525
Th  Th17  1  0.44701000  0.91256000  0.62317000  1.0 2.2568211525
Th  Th18  1  0.55299000  0.17616000  0.46555000  1.0 2.2568211525
Th  Th19  1  0.28939000  0.82384000  0.37683000  1.0 2.2568211525
Th  Th20  1  0.71061000  0.08744000  0.53445000  1.0 2.2568211525
Th  Th21  1  0.62317000  0.44701000  0.91256000  1.0 2.2568211525
Th  Th22  1  0.46555000  0.55299000  0.17616000  1.0 2.2568211525
Th  Th23  1  0.37683000  0.28939000  0.82384000  1.0 2.2568211525
Th  Th24  1  0.53445000  0.71061000  0.08744000  1.0 2.2568211525
Th  Th25  1  0.20374000  0.39402000  0.59776000  1.0 2.2568211525
Th  Th26  1  0.79626000  0.60598000  0.40224000  1.0 2.2568211525
Th  Th27  1  0.20374000  0.60598000  0.80972000  1.0 2.2568211525
Th  Th28  1  0.79626000  0.39402000  0.19028000  1.0 2.2568211525
Th  Th29  1  0.59776000  0.20374000  0.39402000  1.0 2.2568211525
Th  Th30  1  0.40224000  0.79626000  0.60598000  1.0 2.2568211525
Th  Th31  1  0.80972000  0.20374000  0.60598000  1.0 2.2568211525
Th  Th32  1  0.19028000  0.79626000  0.39402000  1.0 2.2568211525
Th  Th33  1  0.39402000  0.59776000  0.20374000  1.0 2.2568211525
Th  Th34  1  0.60598000  0.40224000  0.79626000  1.0 2.2568211525
Th  Th35  1  0.60598000  0.80972000  0.20374000  1.0 2.2568211525
Th  Th36  1  0.39402000  0.19028000  0.79626000  1.0 2.2568211525
Th  Th37  1  0.08000000  0.36390000  0.44390000  1.0 2.2884385158
Th  Th38  1  0.92000000  0.63610000  0.55610000  1.0 2.2884385158
Th  Th39  1  0.08000000  0.63610000  0.71610000  1.0 2.2884385158
Th  Th40  1  0.92000000  0.36390000  0.28390000  1.0 2.2884385158
Th  Th41  1  0.44390000  0.08000000  0.36390000  1.0 2.2884385158
Th  Th42  1  0.55610000  0.92000000  0.63610000  1.0 2.2884385158
Th  Th43  1  0.71610000  0.08000000  0.63610000  1.0 2.2884385158
Th  Th44  1  0.28390000  0.92000000  0.36390000  1.0 2.2884385158
Th  Th45  1  0.36390000  0.44390000  0.08000000  1.0 2.2884385158
Th  Th46  1  0.63610000  0.55610000  0.92000000  1.0 2.2884385158
Th  Th47  1  0.63610000  0.71610000  0.08000000  1.0 2.2884385158
Th  Th48  1  0.36390000  0.28390000  0.92000000  1.0 2.2884385158
Th  Th49  1  0.19798000  0.38045000  0.48855000  1.0 2.3040614744
Th  Th50  1  0.89190000  0.70943000  0.51145000  1.0 2.3040614744
Th  Th51  1  0.10810000  0.61955000  0.81753000  1.0 2.3040614744
Th  Th52  1  0.80202000  0.29057000  0.18247000  1.0 2.3065119852
Th  Th53  1  0.48855000  0.19798000  0.38045000  1.0 2.3040614744
Th  Th54  1  0.51145000  0.89190000  0.70943000  1.0 2.3040614744
Th  Th55  1  0.81753000  0.10810000  0.61955000  1.0 2.3065119852
Th  Th56  1  0.18247000  0.80202000  0.29057000  1.0 2.3040614744
Th  Th57  1  0.38045000  0.48855000  0.19798000  1.0 2.3065119852
Th  Th58  1  0.70943000  0.51145000  0.89190000  1.0 2.3065119852
Th  Th59  1  0.61955000  0.81753000  0.10810000  1.0 2.3040614744
Th  Th60  1  0.29057000  0.18247000  0.80202000  1.0 2.3040614744
Th  Th61  1  0.80202000  0.61955000  0.51145000  1.0 2.3040614744
Th  Th62  1  0.10810000  0.29057000  0.48855000  1.0 2.3040614744
Th  Th63  1  0.89190000  0.38045000  0.18247000  1.0 2.3065119852
Th  Th64  1  0.19798000  0.70943000  0.81753000  1.0 2.3040614744
Th  Th65  1  0.51145000  0.80202000  0.61955000  1.0 2.3040614744
Th  Th66  1  0.48855000  0.10810000  0.29057000  1.0 2.3040614744
Th  Th67  1  0.18247000  0.89190000  0.38045000  1.0 2.3040614744
Th  Th68  1  0.81753000  0.19798000  0.70943000  1.0 2.3065119852
Th  Th69  1  0.61955000  0.51145000  0.80202000  1.0 2.3040614744
Th  Th70  1  0.29057000  0.48855000  0.10810000  1.0 2.3065119852
Th  Th71  1  0.38045000  0.18247000  0.89190000  1.0 2.3040614744
Th  Th72  1  0.70943000  0.81753000  0.19798000  1.0 2.3065119852
H  H1  1  0.00000000  0.38368000  0.38368000  1.0 0.0897971753
H  H2  1  0.00000000  0.61632000  0.61632000  1.0 0.0897971753
H  H3  1  0.38368000  0.00000000  0.38368000  1.0 0.0897971753
H  H4  1  0.61632000  0.00000000  0.61632000  1.0 0.0897971753
H  H5  1  0.38368000  0.38368000  0.00000000  1.0 0.0897971753
H  H6  1  0.61632000  0.61632000  0.00000000  1.0 0.0897971753
H  H7  1  0.45590000  0.40380000  0.68890000  1.0 0.109276661
H  H8  1  0.71490000  0.76700000  0.31110000  1.0 0.109276661
H  H9  1  0.28510000  0.59620000  0.05210000  1.0 0.109276661
H  H10  1  0.54410000  0.23300000  0.94790000  1.0 0.109276661
H  H11  1  0.68890000  0.45590000  0.40380000  1.0 0.109276661
H  H12  1  0.31110000  0.71490000  0.76700000  1.0 0.109276661
H  H13  1  0.05210000  0.28510000  0.59620000  1.0 0.109276661
H  H14  1  0.94790000  0.54410000  0.23300000  1.0 0.109276661
H  H15  1  0.40380000  0.68890000  0.45590000  1.0 0.109276661
H  H16  1  0.76700000  0.31110000  0.71490000  1.0 0.109276661
H  H17  1  0.59620000  0.05210000  0.28510000  1.0 0.109276661
H  H18  1  0.23300000  0.94790000  0.54410000  1.0 0.109276661
H  H19  1  0.54410000  0.59620000  0.31110000  1.0 0.109276661
H  H20  1  0.28510000  0.23300000  0.68890000  1.0 0.109276661
H  H21  1  0.71490000  0.40380000  0.94790000  1.0 0.109276661
H  H22  1  0.45590000  0.76700000  0.05210000  1.0 0.109276661
H  H23  1  0.31110000  0.54410000  0.59620000  1.0 0.109276661
H  H24  1  0.68890000  0.28510000  0.23300000  1.0 0.109276661
H  H25  1  0.94790000  0.71490000  0.40380000  1.0 0.109276661
H  H26  1  0.05210000  0.45590000  0.76700000  1.0 0.109276661
H  H27  1  0.59620000  0.31110000  0.54410000  1.0 0.109276661
H  H28  1  0.23300000  0.68890000  0.28510000  1.0 0.109276661
H  H29  1  0.40380000  0.94790000  0.71490000  1.0 0.109276661
H  H30  1  0.76700000  0.05210000  0.45590000  1.0 0.109276661
H  H31  1  0.32839000  0.37904000  0.53545000  1.0 0.1186123608
H  H32  1  0.84358000  0.79293000  0.46455000  1.0 0.1186123608
H  H33  1  0.15641000  0.62096000  0.94935000  1.0 0.1186123608
H  H34  1  0.67161000  0.20706000  0.05065000  1.0 0.1186123608
H  H35  1  0.53545000  0.32838000  0.37904000  1.0 0.1186123608
H  H36  1  0.46455000  0.84359000  0.79293000  1.0 0.1186123608
H  H37  1  0.94935000  0.15642000  0.62096000  1.0 0.1186123608
H  H38  1  0.05065000  0.67161000  0.20706000  1.0 0.1186123608
H  H39  1  0.37903000  0.53545000  0.32838000  1.0 0.1186123608
H  H40  1  0.79293000  0.46455000  0.84358000  1.0 0.1186123608
H  H41  1  0.62096000  0.94935000  0.15641000  1.0 0.1186123608
H  H42  1  0.20706000  0.05065000  0.67161000  1.0 0.1186123608
H  H43  1  0.67161000  0.62096000  0.46455000  1.0 0.1186123608
H  H44  1  0.15641000  0.20706000  0.53545000  1.0 0.1186123608
H  H45  1  0.84358000  0.37904000  0.05065000  1.0 0.1186123608
H  H46  1  0.32838000  0.79293000  0.94935000  1.0 0.1186123608
H  H47  1  0.46455000  0.67161000  0.62096000  1.0 0.1186123608
H  H48  1  0.53545000  0.15642000  0.20706000  1.0 0.1186123608
H  H49  1  0.05065000  0.84359000  0.37904000  1.0 0.1186123608
H  H50  1  0.94935000  0.32838000  0.79293000  1.0 0.1186123608
H  H51  1  0.62096000  0.46455000  0.67161000  1.0 0.1186123608
H  H52  1  0.20706000  0.53545000  0.15641000  1.0 0.1186123608
H  H53  1  0.37903000  0.05065000  0.84358000  1.0 0.1186123608
H  H54  1  0.79294000  0.94935000  0.32838000  1.0 0.1186123608
H  H55  1  0.41939000  0.32884000  0.56719000  1.0 0.1186123608
H  H56  1  0.76165000  0.85220000  0.43281000  1.0 0.1186123608
H  H57  1  0.23835000  0.67116000  0.09055000  1.0 0.1186123608
H  H58  1  0.58061000  0.14780000  0.90945000  1.0 0.1186123608
H  H59  1  0.56719000  0.41939000  0.32884000  1.0 0.1186123608
H  H60  1  0.43281000  0.76165000  0.85220000  1.0 0.1186123608
H  H61  1  0.09055000  0.23835000  0.67116000  1.0 0.1186123608
H  H62  1  0.90945000  0.58061000  0.14780000  1.0 0.1186123608
H  H63  1  0.32884000  0.56719000  0.41939000  1.0 0.1186123608
H  H64  1  0.85220000  0.43281000  0.76165000  1.0 0.1186123608
H  H65  1  0.67116000  0.09055000  0.23835000  1.0 0.1186123608
H  H66  1  0.14780000  0.90945000  0.58061000  1.0 0.1186123608
H  H67  1  0.58061000  0.67116000  0.43281000  1.0 0.1186123608
H  H68  1  0.23835000  0.14780000  0.56719000  1.0 0.1186123608
H  H69  1  0.76165000  0.32884000  0.90945000  1.0 0.1186123608
H  H70  1  0.41939000  0.85220000  0.09055000  1.0 0.1186123608
H  H71  1  0.43281000  0.58061000  0.67116000  1.0 0.1186123608
H  H72  1  0.56719000  0.23835000  0.14780000  1.0 0.1186123608
H  H73  1  0.90945000  0.76165000  0.32884000  1.0 0.1186123608
H  H74  1  0.09055000  0.41939000  0.85220000  1.0 0.1186123608
H  H75  1  0.67116000  0.43281000  0.58061000  1.0 0.1186123608
H  H76  1  0.14780000  0.56719000  0.23835000  1.0 0.1186123608
H  H77  1  0.32884000  0.90945000  0.76165000  1.0 0.1186123608
H  H78  1  0.85220000  0.09055000  0.41939000  1.0 0.1186123608
H  H79  1  0.51233000  0.29198000  0.61403000  1.0 0.128134365
H  H80  1  0.67795000  0.89830000  0.38597000  1.0 0.128134365
H  H81  1  0.32205000  0.70802000  0.22035000  1.0 0.128134365
H  H82  1  0.48767000  0.10170000  0.77965000  1.0 0.128134365
H  H83  1  0.61403000  0.51233000  0.29198000  1.0 0.128134365
H  H84  1  0.38597000  0.67795000  0.89830000  1.0 0.128134365
H  H85  1  0.22035000  0.32205000  0.70802000  1.0 0.128134365
H  H86  1  0.77965000  0.48767000  0.10170000  1.0 0.128134365
H  H87  1  0.29198000  0.61403000  0.51233000  1.0 0.128134365
H  H88  1  0.89830000  0.38597000  0.67795000  1.0 0.128134365
H  H89  1  0.70802000  0.22035000  0.32205000  1.0 0.128134365
H  H90  1  0.10170000  0.77965000  0.48767000  1.0 0.128134365
H  H91  1  0.48767000  0.70802000  0.38597000  1.0 0.128134365
H  H92  1  0.32205000  0.10170000  0.61403000  1.0 0.128134365
H  H93  1  0.67795000  0.29198000  0.77965000  1.0 0.128134365
H  H94  1  0.51233000  0.89830000  0.22035000  1.0 0.128134365
H  H95  1  0.38597000  0.48767000  0.70802000  1.0 0.128134365
H  H96  1  0.61403000  0.32205000  0.10170000  1.0 0.128134365
H  H97  1  0.77965000  0.67795000  0.29198000  1.0 0.128134365
H  H98  1  0.22035000  0.51233000  0.89830000  1.0 0.128134365
H  H99  1  0.70802000  0.38597000  0.48767000  1.0 0.128134365
H  H100  1  0.10170000  0.61403000  0.32205000  1.0 0.128134365
H  H101  1  0.29198000  0.77965000  0.67795000  1.0 0.128134365
H  H102  1  0.89830000  0.22035000  0.51233000  1.0 0.128134365
H  H103  1  0.38059000  0.37102000  0.65921000  1.0 0.1186123608
H  H104  1  0.71181000  0.72138000  0.34079000  1.0 0.1186123608
H  H105  1  0.28819000  0.62898000  0.00957000  1.0 0.1186123608
H  H106  1  0.61941000  0.27862000  0.99043000  1.0 0.1186123608
H  H107  1  0.65921000  0.38059000  0.37102000  1.0 0.1186123608
H  H108  1  0.34079000  0.71181000  0.72138000  1.0 0.1186123608
H  H109  1  0.00957000  0.28819000  0.62898000  1.0 0.1186123608
H  H110  1  0.99043000  0.61941000  0.27862000  1.0 0.1186123608
H  H111  1  0.37102000  0.65921000  0.38059000  1.0 0.1186123608
H  H112  1  0.72138000  0.34079000  0.71181000  1.0 0.1186123608
H  H113  1  0.62898000  0.00957000  0.28819000  1.0 0.1186123608
H  H114  1  0.27862000  0.99043000  0.61941000  1.0 0.1186123608
H  H115  1  0.61941000  0.62898000  0.34079000  1.0 0.1186123608
H  H116  1  0.28819000  0.27862000  0.65921000  1.0 0.1186123608
H  H117  1  0.71181000  0.37102000  0.99043000  1.0 0.1186123608
H  H118  1  0.38059000  0.72138000  0.00957000  1.0 0.1186123608
H  H119  1  0.34079000  0.61941000  0.62898000  1.0 0.1186123608
H  H120  1  0.65921000  0.28819000  0.27862000  1.0 0.1186123608
H  H121  1  0.99043000  0.71181000  0.37102000  1.0 0.1186123608
H  H122  1  0.00957000  0.38059000  0.72138000  1.0 0.1186123608
H  H123  1  0.62898000  0.34079000  0.61941000  1.0 0.1186123608
H  H124  1  0.27862000  0.65921000  0.28819000  1.0 0.1186123608
H  H125  1  0.37102000  0.99043000  0.71181000  1.0 0.1186123608
H  H126  1  0.72138000  0.00957000  0.38059000  1.0 0.1186123608
H  H127  1  0.52985000  0.25668000  0.56709000  1.0 0.128134365
H  H128  1  0.68959000  0.96276000  0.43291000  1.0 0.128134365
H  H129  1  0.31041000  0.74332000  0.27317000  1.0 0.128134365
H  H130  1  0.47015000  0.03724000  0.72683000  1.0 0.128134365
H  H131  1  0.56709000  0.52985000  0.25668000  1.0 0.128134365
H  H132  1  0.43291000  0.68959000  0.96276000  1.0 0.128134365
H  H133  1  0.27317000  0.31041000  0.74332000  1.0 0.128134365
H  H134  1  0.72683000  0.47015000  0.03724000  1.0 0.128134365
H  H135  1  0.25668000  0.56709000  0.52985000  1.0 0.128134365
H  H136  1  0.96276000  0.43291000  0.68959000  1.0 0.128134365
H  H137  1  0.74332000  0.27317000  0.31041000  1.0 0.128134365
H  H138  1  0.03724000  0.72683000  0.47015000  1.0 0.128134365
H  H139  1  0.47015000  0.74332000  0.43291000  1.0 0.128134365
H  H140  1  0.31041000  0.03724000  0.56709000  1.0 0.128134365
H  H141  1  0.68959000  0.25668000  0.72683000  1.0 0.128134365
H  H142  1  0.52985000  0.96276000  0.27317000  1.0 0.128134365
H  H143  1  0.43291000  0.47015000  0.74332000  1.0 0.128134365
H  H144  1  0.56709000  0.31041000  0.03724000  1.0 0.128134365
H  H145  1  0.72683000  0.68959000  0.25668000  1.0 0.128134365
H  H146  1  0.27317000  0.52985000  0.96276000  1.0 0.128134365
H  H147  1  0.74332000  0.43291000  0.47015000  1.0 0.128134365
H  H148  1  0.03724000  0.56709000  0.31041000  1.0 0.128134365
H  H149  1  0.25668000  0.72683000  0.68959000  1.0 0.128134365
H  H150  1  0.96276000  0.27317000  0.52985000  1.0 0.128134365
H  H151  1  0.52865000  0.36077000  0.66416000  1.0 0.109276661
H  H152  1  0.69661000  0.86449000  0.33584000  1.0 0.109276661
H  H153  1  0.30339000  0.63923000  0.16788000  1.0 0.109276661
H  H154  1  0.47135000  0.13551000  0.83212000  1.0 0.109276661
H  H155  1  0.66416000  0.52865000  0.36077000  1.0 0.109276661
H  H156  1  0.33584000  0.69661000  0.86449000  1.0 0.109276661
H  H157  1  0.16788000  0.30339000  0.63923000  1.0 0.109276661
H  H158  1  0.83212000  0.47135000  0.13551000  1.0 0.109276661
H  H159  1  0.36077000  0.66416000  0.52865000  1.0 0.109276661
H  H160  1  0.86449000  0.33584000  0.69661000  1.0 0.109276661
H  H161  1  0.63923000  0.16788000  0.30339000  1.0 0.109276661
H  H162  1  0.13551000  0.83212000  0.47135000  1.0 0.109276661
H  H163  1  0.47135000  0.63923000  0.33584000  1.0 0.109276661
H  H164  1  0.30339000  0.13551000  0.66416000  1.0 0.109276661
H  H165  1  0.69661000  0.36077000  0.83212000  1.0 0.109276661
H  H166  1  0.52865000  0.86449000  0.16788000  1.0 0.109276661
H  H167  1  0.33584000  0.47135000  0.63923000  1.0 0.109276661
H  H168  1  0.66416000  0.30339000  0.13551000  1.0 0.109276661
H  H169  1  0.83212000  0.69661000  0.36077000  1.0 0.109276661
H  H170  1  0.16788000  0.52865000  0.86449000  1.0 0.109276661
H  H171  1  0.63923000  0.33584000  0.47135000  1.0 0.109276661
H  H172  1  0.13551000  0.66416000  0.30339000  1.0 0.109276661
H  H173  1  0.36077000  0.83212000  0.69661000  1.0 0.109276661
H  H174  1  0.86449000  0.16788000  0.52865000  1.0 0.109276661
H  H175  1  0.13387000  0.35951000  0.36158000  1.0 0.128134365
H  H176  1  0.99793000  0.77229000  0.63842000  1.0 0.128134365
H  H177  1  0.00207000  0.64049000  0.77436000  1.0 0.128134365
H  H178  1  0.86613000  0.22771000  0.22564000  1.0 0.128134365
H  H179  1  0.36158000  0.13387000  0.35951000  1.0 0.128134365
H  H180  1  0.63842000  0.99793000  0.77229000  1.0 0.128134365
H  H181  1  0.77436000  0.00207000  0.64049000  1.0 0.128134365
H  H182  1  0.22564000  0.86613000  0.22771000  1.0 0.128134365
H  H183  1  0.35951000  0.36158000  0.13387000  1.0 0.128134365
H  H184  1  0.77229000  0.63842000  0.99793000  1.0 0.128134365
H  H185  1  0.64049000  0.77436000  0.00207000  1.0 0.128134365
H  H186  1  0.22771000  0.22564000  0.86613000  1.0 0.128134365
H  H187  1  0.86613000  0.64049000  0.63842000  1.0 0.128134365
H  H188  1  0.00207000  0.22771000  0.36158000  1.0 0.128134365
H  H189  1  0.99793000  0.35951000  0.22564000  1.0 0.128134365
H  H190  1  0.13387000  0.77229000  0.77436000  1.0 0.128134365
H  H191  1  0.63842000  0.86613000  0.64049000  1.0 0.128134365
H  H192  1  0.36158000  0.00207000  0.22771000  1.0 0.128134365
H  H193  1  0.22564000  0.99793000  0.35951000  1.0 0.128134365
H  H194  1  0.77436000  0.13387000  0.77229000  1.0 0.128134365
H  H195  1  0.64049000  0.63842000  0.86613000  1.0 0.128134365
H  H196  1  0.22771000  0.36158000  0.00207000  1.0 0.128134365
H  H197  1  0.35951000  0.22564000  0.99793000  1.0 0.128134365
H  H198  1  0.77229000  0.77436000  0.13387000  1.0 0.128134365
H  H199  1  0.38923000  0.37187000  0.55798000  1.0 0.1186123608
H  H200  1  0.81389000  0.83125000  0.44202000  1.0 0.1186123608
H  H201  1  0.18611000  0.62813000  0.01736000  1.0 0.1186123608
H  H202  1  0.61077000  0.16875000  0.98264000  1.0 0.1186123608
H  H203  1  0.55798000  0.38923000  0.37187000  1.0 0.1186123608
H  H204  1  0.44202000  0.81389000  0.83125000  1.0 0.1186123608
H  H205  1  0.01736000  0.18611000  0.62813000  1.0 0.1186123608
H  H206  1  0.98264000  0.61077000  0.16875000  1.0 0.1186123608
H  H207  1  0.37187000  0.55798000  0.38923000  1.0 0.1186123608
H  H208  1  0.83125000  0.44202000  0.81389000  1.0 0.1186123608
H  H209  1  0.62813000  0.01736000  0.18611000  1.0 0.1186123608
H  H210  1  0.16875000  0.98264000  0.61077000  1.0 0.1186123608
H  H211  1  0.61077000  0.62813000  0.44202000  1.0 0.1186123608
H  H212  1  0.18611000  0.16875000  0.55798000  1.0 0.1186123608
H  H213  1  0.81389000  0.37187000  0.98264000  1.0 0.1186123608
H  H214  1  0.38923000  0.83125000  0.01736000  1.0 0.1186123608
H  H215  1  0.44202000  0.61077000  0.62813000  1.0 0.1186123608
H  H216  1  0.55798000  0.18611000  0.16875000  1.0 0.1186123608
H  H217  1  0.98264000  0.81389000  0.37187000  1.0 0.1186123608
H  H218  1  0.01736000  0.38923000  0.83125000  1.0 0.1186123608
H  H219  1  0.62813000  0.44202000  0.61077000  1.0 0.1186123608
H  H220  1  0.16875000  0.55798000  0.18611000  1.0 0.1186123608
H  H221  1  0.37187000  0.98264000  0.81389000  1.0 0.1186123608
H  H222  1  0.83125000  0.01736000  0.38923000  1.0 0.1186123608
H  H223  1  0.47915000  0.29267000  0.48678000  1.0 0.128134365
H  H224  1  0.80589000  0.99237000  0.51322000  1.0 0.128134365
H  H225  1  0.19411000  0.70733000  0.18648000  1.0 0.128134365
H  H226  1  0.52085000  0.00763000  0.81352000  1.0 0.128134365
H  H227  1  0.48678000  0.47915000  0.29267000  1.0 0.128134365
H  H228  1  0.51322000  0.80589000  0.99237000  1.0 0.128134365
H  H229  1  0.18648000  0.19411000  0.70733000  1.0 0.128134365
H  H230  1  0.81352000  0.52085000  0.00763000  1.0 0.128134365
H  H231  1  0.29267000  0.48678000  0.47915000  1.0 0.128134365
H  H232  1  0.99237000  0.51322000  0.80589000  1.0 0.128134365
H  H233  1  0.70733000  0.18648000  0.19411000  1.0 0.128134365
H  H234  1  0.00763000  0.81352000  0.52085000  1.0 0.128134365
H  H235  1  0.52085000  0.70733000  0.51322000  1.0 0.128134365
H  H236  1  0.19411000  0.00763000  0.48678000  1.0 0.128134365
H  H237  1  0.80589000  0.29267000  0.81352000  1.0 0.128134365
H  H238  1  0.47915000  0.99237000  0.18648000  1.0 0.128134365
H  H239  1  0.51322000  0.52085000  0.70733000  1.0 0.128134365
H  H240  1  0.48678000  0.19411000  0.00763000  1.0 0.128134365
H  H241  1  0.81352000  0.80589000  0.29267000  1.0 0.128134365
H  H242  1  0.18648000  0.47915000  0.99237000  1.0 0.128134365
H  H243  1  0.70733000  0.51322000  0.52085000  1.0 0.128134365
H  H244  1  0.00763000  0.48678000  0.19411000  1.0 0.128134365
H  H245  1  0.29267000  0.81352000  0.80589000  1.0 0.128134365
H  H246  1  0.99237000  0.18648000  0.47915000  1.0 0.128134365
H  H247  1  0.46263000  0.33083000  0.53380000  1.0 0.1186123608
H  H248  1  0.79703000  0.92883000  0.46620000  1.0 0.1186123608
H  H249  1  0.20297000  0.66917000  0.13180000  1.0 0.1186123608
H  H250  1  0.53737000  0.07117000  0.86820000  1.0 0.1186123608
H  H251  1  0.53380000  0.46263000  0.33083000  1.0 0.1186123608
H  H252  1  0.46620000  0.79703000  0.92883000  1.0 0.1186123608
H  H253  1  0.13180000  0.20297000  0.66917000  1.0 0.1186123608
H  H254  1  0.86820000  0.53737000  0.07117000  1.0 0.1186123608
H  H255  1  0.33083000  0.53380000  0.46263000  1.0 0.1186123608
H  H256  1  0.92883000  0.46620000  0.79703000  1.0 0.1186123608
H  H257  1  0.66917000  0.13180000  0.20297000  1.0 0.1186123608
H  H258  1  0.07117000  0.86820000  0.53737000  1.0 0.1186123608
H  H259  1  0.53737000  0.66917000  0.46620000  1.0 0.1186123608
H  H260  1  0.20297000  0.07117000  0.53380000  1.0 0.1186123608
H  H261  1  0.79703000  0.33083000  0.86820000  1.0 0.1186123608
H  H262  1  0.46263000  0.92883000  0.13180000  1.0 0.1186123608
H  H263  1  0.46620000  0.53737000  0.66917000  1.0 0.1186123608
H  H264  1  0.53380000  0.20297000  0.07117000  1.0 0.1186123608
H  H265  1  0.86820000  0.79703000  0.33083000  1.0 0.1186123608
H  H266  1  0.13180000  0.46263000  0.92883000  1.0 0.1186123608
H  H267  1  0.66917000  0.46620000  0.53737000  1.0 0.1186123608
H  H268  1  0.07117000  0.53380000  0.20297000  1.0 0.1186123608
H  H269  1  0.33083000  0.86820000  0.79703000  1.0 0.1186123608
H  H270  1  0.92883000  0.13180000  0.46263000  1.0 0.1186123608
H  H271  1  0.10428000  0.48866000  0.45844000  1.0 0.0897971753
H  H272  1  0.03021000  0.64584000  0.54155000  1.0 0.0897971753
H  H273  1  0.96978000  0.51134000  0.61562000  1.0 0.0897971753
H  H274  1  0.89571000  0.35416000  0.38437000  1.0 0.0897971753
H  H275  1  0.45844000  0.10428000  0.48866000  1.0 0.0897971753
H  H276  1  0.54156000  0.03022000  0.64584000  1.0 0.0897971753
H  H277  1  0.61562000  0.96979000  0.51134000  1.0 0.0897971753
H  H278  1  0.38438000  0.89572000  0.35416000  1.0 0.0897971753
H  H279  1  0.48866000  0.45845000  0.10429000  1.0 0.0897971753
H  H280  1  0.64584000  0.54156000  0.03021000  1.0 0.0897971753
H  H281  1  0.51134000  0.61562000  0.96979000  1.0 0.0897971753
H  H282  1  0.35416000  0.38437000  0.89571000  1.0 0.0897971753
H  H283  1  0.89571000  0.51134000  0.54155000  1.0 0.0897971753
H  H284  1  0.96978000  0.35416000  0.45844000  1.0 0.0897971753
H  H285  1  0.03021000  0.48866000  0.38437000  1.0 0.0897971753
H  H286  1  0.10428000  0.64584000  0.61562000  1.0 0.0897971753
H  H287  1  0.54156000  0.89572000  0.51134000  1.0 0.0897971753
H  H288  1  0.45844000  0.96979000  0.35416000  1.0 0.0897971753
H  H289  1  0.38438000  0.03021000  0.48866000  1.0 0.0897971753
H  H290  1  0.61562000  0.10428000  0.64584000  1.0 0.0897971753
H  H291  1  0.51134000  0.54155000  0.89571000  1.0 0.0897971753
H  H292  1  0.35416000  0.45845000  0.96979000  1.0 0.0897971753
H  H293  1  0.48866000  0.38438000  0.03021000  1.0 0.0897971753
H  H294  1  0.64584000  0.61562000  0.10429000  1.0 0.0897971753
H  H295  1  0.11292000  0.46120000  0.65172000  1.0 0.1368897005
H  H296  1  0.80948000  0.46120000  0.34828000  1.0 0.1368897005
H  H297  1  0.19052000  0.53880000  0.65172000  1.0 0.1368897005
H  H298  1  0.88708000  0.53880000  0.34828000  1.0 0.1368897005
H  H299  1  0.65172000  0.11292000  0.46120000  1.0 0.1368897005
H  H300  1  0.34828000  0.80948000  0.46120000  1.0 0.1368897005
H  H301  1  0.65172000  0.19052000  0.53880000  1.0 0.1368897005
H  H302  1  0.34828000  0.88708000  0.53880000  1.0 0.1368897005
H  H303  1  0.46120000  0.65172000  0.11292000  1.0 0.1368897005
H  H304  1  0.46120000  0.34828000  0.80948000  1.0 0.1368897005
H  H305  1  0.53880000  0.65172000  0.19052000  1.0 0.1368897005
H  H306  1  0.53880000  0.34828000  0.88708000  1.0 0.1368897005
H  H307  1  0.32244000  0.38184000  0.63842000  1.0 0.128134365
H  H308  1  0.74342000  0.68402000  0.36158000  1.0 0.128134365
H  H309  1  0.25658000  0.61816000  0.94060000  1.0 0.128134365
H  H310  1  0.67756000  0.31598000  0.05940000  1.0 0.128134365
H  H311  1  0.63842000  0.32244000  0.38184000  1.0 0.128134365
H  H312  1  0.36158000  0.74342000  0.68402000  1.0 0.128134365
H  H313  1  0.94060000  0.25658000  0.61816000  1.0 0.128134365
H  H314  1  0.05940000  0.67756000  0.31598000  1.0 0.128134365
H  H315  1  0.38184000  0.63842000  0.32244000  1.0 0.128134365
H  H316  1  0.68402000  0.36158000  0.74342000  1.0 0.128134365
H  H317  1  0.61816000  0.94060000  0.25658000  1.0 0.128134365
H  H318  1  0.31598000  0.05940000  0.67756000  1.0 0.128134365
H  H319  1  0.67756000  0.61816000  0.36158000  1.0 0.128134365
H  H320  1  0.25658000  0.31598000  0.63842000  1.0 0.128134365
H  H321  1  0.74342000  0.38184000  0.05940000  1.0 0.128134365
H  H322  1  0.32244000  0.68402000  0.94060000  1.0 0.128134365
H  H323  1  0.36158000  0.67756000  0.61816000  1.0 0.128134365
H  H324  1  0.63842000  0.25658000  0.31598000  1.0 0.128134365
H  H325  1  0.05940000  0.74342000  0.38184000  1.0 0.128134365
H  H326  1  0.94060000  0.32244000  0.68402000  1.0 0.128134365
H  H327  1  0.61816000  0.36158000  0.67756000  1.0 0.128134365
H  H328  1  0.31598000  0.63842000  0.25658000  1.0 0.128134365
H  H329  1  0.38184000  0.05940000  0.74342000  1.0 0.128134365
H  H330  1  0.68402000  0.94060000  0.32244000  1.0 0.128134365
H  H331  1  0.06020000  0.31146000  0.73862000  1.0 0.109276661
H  H332  1  0.57284000  0.32158000  0.26138000  1.0 0.109276661
H  H333  1  0.42716000  0.68854000  0.74874000  1.0 0.109276661
H  H334  1  0.93980000  0.67842000  0.25126000  1.0 0.109276661
H  H335  1  0.73862000  0.06020000  0.31146000  1.0 0.109276661
H  H336  1  0.26138000  0.57284000  0.32158000  1.0 0.109276661
H  H337  1  0.74874000  0.42716000  0.68854000  1.0 0.109276661
H  H338  1  0.25126000  0.93980000  0.67842000  1.0 0.109276661
H  H339  1  0.31146000  0.73862000  0.06020000  1.0 0.109276661
H  H340  1  0.32158000  0.26138000  0.57284000  1.0 0.109276661
H  H341  1  0.68854000  0.74874000  0.42716000  1.0 0.109276661
H  H342  1  0.67842000  0.25126000  0.93980000  1.0 0.109276661
H  H343  1  0.93980000  0.68854000  0.26138000  1.0 0.109276661
H  H344  1  0.42716000  0.67842000  0.73862000  1.0 0.109276661
H  H345  1  0.57284000  0.31146000  0.25126000  1.0 0.109276661
H  H346  1  0.06020000  0.32158000  0.74874000  1.0 0.109276661
H  H347  1  0.26138000  0.93980000  0.68854000  1.0 0.109276661
H  H348  1  0.73862000  0.42716000  0.67842000  1.0 0.109276661
H  H349  1  0.25126000  0.57284000  0.31146000  1.0 0.109276661
H  H350  1  0.74874000  0.06020000  0.32158000  1.0 0.109276661
H  H351  1  0.68854000  0.26138000  0.93980000  1.0 0.109276661
H  H352  1  0.67842000  0.73862000  0.42716000  1.0 0.109276661
H  H353  1  0.31146000  0.25126000  0.57284000  1.0 0.109276661
H  H354  1  0.32158000  0.74874000  0.06020000  1.0 0.109276661
H  H355  1  0.18216000  0.39807000  0.83273000  1.0 0.0897971753
H  H356  1  0.56534000  0.34943000  0.16727000  1.0 0.0897971753
H  H357  1  0.43466000  0.60193000  0.78409000  1.0 0.0897971753
H  H358  1  0.81784000  0.65057000  0.21591000  1.0 0.0897971753
H  H359  1  0.83273000  0.18216000  0.39807000  1.0 0.0897971753
H  H360  1  0.16727000  0.56534000  0.34943000  1.0 0.0897971753
H  H361  1  0.78409000  0.43466000  0.60193000  1.0 0.0897971753
H  H362  1  0.21591000  0.81784000  0.65057000  1.0 0.0897971753
H  H363  1  0.39807000  0.83273000  0.18216000  1.0 0.0897971753
H  H364  1  0.34943000  0.16727000  0.56534000  1.0 0.0897971753
H  H365  1  0.60193000  0.78409000  0.43466000  1.0 0.0897971753
H  H366  1  0.65057000  0.21591000  0.81784000  1.0 0.0897971753
H  H367  1  0.81784000  0.60193000  0.16727000  1.0 0.0897971753
H  H368  1  0.43466000  0.65057000  0.83273000  1.0 0.0897971753
H  H369  1  0.56534000  0.39807000  0.21591000  1.0 0.0897971753
H  H370  1  0.18216000  0.34943000  0.78409000  1.0 0.0897971753
H  H371  1  0.16727000  0.81784000  0.60193000  1.0 0.0897971753
H  H372  1  0.83273000  0.43466000  0.65057000  1.0 0.0897971753
H  H373  1  0.21591000  0.56534000  0.39807000  1.0 0.0897971753
H  H374  1  0.78409000  0.18216000  0.34943000  1.0 0.0897971753
H  H375  1  0.60193000  0.16727000  0.81784000  1.0 0.0897971753
H  H376  1  0.65057000  0.83273000  0.43466000  1.0 0.0897971753
H  H377  1  0.39807000  0.21591000  0.56534000  1.0 0.0897971753
H  H378  1  0.34943000  0.78409000  0.18216000  1.0 0.0897971753
H  H379  1  0.10024000  0.32439000  0.85623000  1.0 0.1186123608
H  H380  1  0.46816000  0.24401000  0.14377000  1.0 0.1186123608
H  H381  1  0.53184000  0.67561000  0.77585000  1.0 0.1186123608
H  H382  1  0.89976000  0.75599000  0.22415000  1.0 0.1186123608
H  H383  1  0.85623000  0.10024000  0.32439000  1.0 0.1186123608
H  H384  1  0.14377000  0.46816000  0.24401000  1.0 0.1186123608
H  H385  1  0.77585000  0.53184000  0.67561000  1.0 0.1186123608
H  H386  1  0.22415000  0.89976000  0.75599000  1.0 0.1186123608
H  H387  1  0.32439000  0.85623000  0.10024000  1.0 0.1186123608
H  H388  1  0.24401000  0.14377000  0.46816000  1.0 0.1186123608
H  H389  1  0.67561000  0.77585000  0.53184000  1.0 0.1186123608
H  H390  1  0.75599000  0.22415000  0.89976000  1.0 0.1186123608
H  H391  1  0.89976000  0.67561000  0.14377000  1.0 0.1186123608
H  H392  1  0.53184000  0.75599000  0.85623000  1.0 0.1186123608
H  H393  1  0.46816000  0.32439000  0.22415000  1.0 0.1186123608
H  H394  1  0.10024000  0.24401000  0.77585000  1.0 0.1186123608
H  H395  1  0.14377000  0.89976000  0.67561000  1.0 0.1186123608
H  H396  1  0.85623000  0.53184000  0.75599000  1.0 0.1186123608
H  H397  1  0.22415000  0.46816000  0.32439000  1.0 0.1186123608
H  H398  1  0.77585000  0.10024000  0.24401000  1.0 0.1186123608
H  H399  1  0.67561000  0.14377000  0.89976000  1.0 0.1186123608
H  H400  1  0.75599000  0.85623000  0.53184000  1.0 0.1186123608
H  H401  1  0.32439000  0.22415000  0.46816000  1.0 0.1186123608
H  H402  1  0.24401000  0.77585000  0.10024000  1.0 0.1186123608
H  H403  1  0.95107000  0.18424000  0.69319000  1.0 0.1006305141
H  H404  1  0.49105000  0.25788000  0.30681000  1.0 0.1006305141
H  H405  1  0.50895000  0.81576000  0.76683000  1.0 0.1006305141
H  H406  1  0.04893000  0.74212000  0.23317000  1.0 0.1006305141
H  H407  1  0.69319000  0.95107000  0.18424000  1.0 0.1006305141
H  H408  1  0.30681000  0.49105000  0.25788000  1.0 0.1006305141
H  H409  1  0.76683000  0.50895000  0.81576000  1.0 0.1006305141
H  H410  1  0.23317000  0.04893000  0.74212000  1.0 0.1006305141
H  H411  1  0.18424000  0.69319000  0.95107000  1.0 0.1006305141
H  H412  1  0.25788000  0.30681000  0.49105000  1.0 0.1006305141
H  H413  1  0.81576000  0.76683000  0.50895000  1.0 0.1006305141
H  H414  1  0.74212000  0.23317000  0.04893000  1.0 0.1006305141
H  H415  1  0.04893000  0.81576000  0.30681000  1.0 0.1006305141
H  H416  1  0.50895000  0.74212000  0.69319000  1.0 0.1006305141
H  H417  1  0.49105000  0.18424000  0.23317000  1.0 0.1006305141
H  H418  1  0.95107000  0.25788000  0.76683000  1.0 0.1006305141
H  H419  1  0.30681000  0.04893000  0.81576000  1.0 0.1006305141
H  H420  1  0.69319000  0.50895000  0.74212000  1.0 0.1006305141
H  H421  1  0.23317000  0.49105000  0.18424000  1.0 0.1006305141
H  H422  1  0.76683000  0.95107000  0.25788000  1.0 0.1006305141
H  H423  1  0.81576000  0.30681000  0.04893000  1.0 0.1006305141
H  H424  1  0.74212000  0.69319000  0.50895000  1.0 0.1006305141
H  H425  1  0.18424000  0.23317000  0.49105000  1.0 0.1006305141
H  H426  1  0.25788000  0.76683000  0.95107000  1.0 0.1006305141
H  H427  1  0.95573000  0.24913000  0.80206000  1.0 0.1186123608
H  H428  1  0.44707000  0.15367000  0.19794000  1.0 0.1186123608
H  H429  1  0.55293000  0.75087000  0.70660000  1.0 0.1186123608
H  H430  1  0.04427000  0.84633000  0.29340000  1.0 0.1186123608
H  H431  1  0.80206000  0.95573000  0.24913000  1.0 0.1186123608
H  H432  1  0.19794000  0.44707000  0.15367000  1.0 0.1186123608
H  H433  1  0.70660000  0.55293000  0.75087000  1.0 0.1186123608
H  H434  1  0.29340000  0.04427000  0.84633000  1.0 0.1186123608
H  H435  1  0.24913000  0.80206000  0.95573000  1.0 0.1186123608
H  H436  1  0.15367000  0.19794000  0.44707000  1.0 0.1186123608
H  H437  1  0.75087000  0.70660000  0.55293000  1.0 0.1186123608
H  H438  1  0.84633000  0.29340000  0.04427000  1.0 0.1186123608
H  H439  1  0.04427000  0.75087000  0.19794000  1.0 0.1186123608
H  H440  1  0.55293000  0.84633000  0.80206000  1.0 0.1186123608
H  H441  1  0.44707000  0.24913000  0.29340000  1.0 0.1186123608
H  H442  1  0.95573000  0.15367000  0.70660000  1.0 0.1186123608
H  H443  1  0.19794000  0.04427000  0.75087000  1.0 0.1186123608
H  H444  1  0.80206000  0.55293000  0.84633000  1.0 0.1186123608
H  H445  1  0.29340000  0.44707000  0.24913000  1.0 0.1186123608
H  H446  1  0.70660000  0.95573000  0.15367000  1.0 0.1186123608
H  H447  1  0.75087000  0.19794000  0.04427000  1.0 0.1186123608
H  H448  1  0.84633000  0.80206000  0.55293000  1.0 0.1186123608
H  H449  1  0.24913000  0.29340000  0.44707000  1.0 0.1186123608
H  H450  1  0.15367000  0.70660000  0.95573000  1.0 0.1186123608
H  H451  1  0.02584000  0.30173000  0.83001000  1.0 0.109276661
H  H452  1  0.47172000  0.19583000  0.16999000  1.0 0.109276661
H  H453  1  0.52828000  0.69827000  0.72411000  1.0 0.109276661
H  H454  1  0.97416000  0.80417000  0.27589000  1.0 0.109276661
H  H455  1  0.83001000  0.02584000  0.30173000  1.0 0.109276661
H  H456  1  0.16999000  0.47172000  0.19583000  1.0 0.109276661
H  H457  1  0.72411000  0.52828000  0.69827000  1.0 0.109276661
H  H458  1  0.27589000  0.97416000  0.80417000  1.0 0.109276661
H  H459  1  0.30173000  0.83001000  0.02584000  1.0 0.109276661
H  H460  1  0.19583000  0.16999000  0.47172000  1.0 0.109276661
H  H461  1  0.69827000  0.72411000  0.52828000  1.0 0.109276661
H  H462  1  0.80417000  0.27589000  0.97416000  1.0 0.109276661
H  H463  1  0.97416000  0.69827000  0.16999000  1.0 0.109276661
H  H464  1  0.52828000  0.80417000  0.83001000  1.0 0.109276661
H  H465  1  0.47172000  0.30173000  0.27589000  1.0 0.109276661
H  H466  1  0.02584000  0.19583000  0.72411000  1.0 0.109276661
H  H467  1  0.16999000  0.97416000  0.69827000  1.0 0.109276661
H  H468  1  0.83001000  0.52828000  0.80417000  1.0 0.109276661
H  H469  1  0.27589000  0.47172000  0.30173000  1.0 0.109276661
H  H470  1  0.72411000  0.02584000  0.19583000  1.0 0.109276661
H  H471  1  0.69827000  0.16999000  0.97416000  1.0 0.109276661
H  H472  1  0.80417000  0.83001000  0.52828000  1.0 0.109276661
H  H473  1  0.30173000  0.27589000  0.47172000  1.0 0.109276661
H  H474  1  0.19583000  0.72411000  0.02584000  1.0 0.109276661
H  H475  1  0.02081000  0.23806000  0.71969000  1.0 0.0897971753
H  H476  1  0.51837000  0.30112000  0.28031000  1.0 0.0897971753
H  H477  1  0.48163000  0.76194000  0.78275000  1.0 0.0897971753
H  H478  1  0.97919000  0.69888000  0.21725000  1.0 0.0897971753
H  H479  1  0.71969000  0.02081000  0.23806000  1.0 0.0897971753
H  H480  1  0.28031000  0.51837000  0.30112000  1.0 0.0897971753
H  H481  1  0.78275000  0.48163000  0.76194000  1.0 0.0897971753
H  H482  1  0.21725000  0.97919000  0.69888000  1.0 0.0897971753
H  H483  1  0.23806000  0.71969000  0.02081000  1.0 0.0897971753
H  H484  1  0.30112000  0.28031000  0.51837000  1.0 0.0897971753
H  H485  1  0.76194000  0.78275000  0.48163000  1.0 0.0897971753
H  H486  1  0.69888000  0.21725000  0.97919000  1.0 0.0897971753
H  H487  1  0.97919000  0.76194000  0.28031000  1.0 0.0897971753
H  H488  1  0.48163000  0.69888000  0.71969000  1.0 0.0897971753
H  H489  1  0.51837000  0.23806000  0.21725000  1.0 0.0897971753
H  H490  1  0.02081000  0.30112000  0.78275000  1.0 0.0897971753
H  H491  1  0.28031000  0.97919000  0.76194000  1.0 0.0897971753
H  H492  1  0.71969000  0.48163000  0.69888000  1.0 0.0897971753
H  H493  1  0.21725000  0.51837000  0.23806000  1.0 0.0897971753
H  H494  1  0.78275000  0.02081000  0.30112000  1.0 0.0897971753
H  H495  1  0.76194000  0.28031000  0.97919000  1.0 0.0897971753
H  H496  1  0.69888000  0.71969000  0.48163000  1.0 0.0897971753
H  H497  1  0.23806000  0.21725000  0.51837000  1.0 0.0897971753
H  H498  1  0.30112000  0.78275000  0.02081000  1.0 0.0897971753
H  H499  1  0.19957000  0.39228000  0.71747000  1.0 0.128134365
H  H500  1  0.67481000  0.48210000  0.28253000  1.0 0.128134365
H  H501  1  0.32519000  0.60772000  0.80729000  1.0 0.128134365
H  H502  1  0.80043000  0.51790000  0.19271000  1.0 0.128134365
H  H503  1  0.71747000  0.19957000  0.39228000  1.0 0.128134365
H  H504  1  0.28253000  0.67481000  0.48210000  1.0 0.128134365
H  H505  1  0.80729000  0.32519000  0.60772000  1.0 0.128134365
H  H506  1  0.19271000  0.80043000  0.51790000  1.0 0.128134365
H  H507  1  0.39228000  0.71747000  0.19957000  1.0 0.128134365
H  H508  1  0.48210000  0.28253000  0.67481000  1.0 0.128134365
H  H509  1  0.60772000  0.80729000  0.32519000  1.0 0.128134365
H  H510  1  0.51790000  0.19271000  0.80043000  1.0 0.128134365
H  H511  1  0.80043000  0.60772000  0.28253000  1.0 0.128134365
H  H512  1  0.32519000  0.51790000  0.71747000  1.0 0.128134365
H  H513  1  0.67481000  0.39228000  0.19271000  1.0 0.128134365
H  H514  1  0.19957000  0.48210000  0.80729000  1.0 0.128134365
H  H515  1  0.28253000  0.80043000  0.60772000  1.0 0.128134365
H  H516  1  0.71747000  0.32519000  0.51790000  1.0 0.128134365
H  H517  1  0.19271000  0.67481000  0.39228000  1.0 0.128134365
H  H518  1  0.80729000  0.19957000  0.48210000  1.0 0.128134365
H  H519  1  0.60772000  0.28253000  0.80043000  1.0 0.128134365
H  H520  1  0.51790000  0.71747000  0.32519000  1.0 0.128134365
H  H521  1  0.39228000  0.19271000  0.67481000  1.0 0.128134365
H  H522  1  0.48210000  0.80729000  0.19957000  1.0 0.128134365
H  H523  1  0.18980000  0.37676000  0.76852000  1.0 0.0847400073
H  H524  1  0.60824000  0.42128000  0.23148000  1.0 0.0847400073
H  H525  1  0.39176000  0.62324000  0.81304000  1.0 0.0847400073
H  H526  1  0.81020000  0.57872000  0.18696000  1.0 0.0847400073
H  H527  1  0.76852000  0.18980000  0.37676000  1.0 0.0847400073
H  H528  1  0.23148000  0.60824000  0.42128000  1.0 0.0847400073
H  H529  1  0.81304000  0.39176000  0.62324000  1.0 0.0847400073
H  H530  1  0.18696000  0.81020000  0.57872000  1.0 0.0847400073
H  H531  1  0.37676000  0.76852000  0.18980000  1.0 0.0847400073
H  H532  1  0.42128000  0.23148000  0.60824000  1.0 0.0847400073
H  H533  1  0.62324000  0.81304000  0.39176000  1.0 0.0847400073
H  H534  1  0.57872000  0.18696000  0.81020000  1.0 0.0847400073
H  H535  1  0.81020000  0.62324000  0.23148000  1.0 0.0847400073
H  H536  1  0.39176000  0.57872000  0.76852000  1.0 0.0847400073
H  H537  1  0.60824000  0.37676000  0.18696000  1.0 0.0847400073
H  H538  1  0.18980000  0.42128000  0.81304000  1.0 0.0847400073
H  H539  1  0.23148000  0.81020000  0.62324000  1.0 0.0847400073
H  H540  1  0.76852000  0.39176000  0.57872000  1.0 0.0847400073
H  H541  1  0.18696000  0.60824000  0.37676000  1.0 0.0847400073
H  H542  1  0.81304000  0.18980000  0.42128000  1.0 0.0847400073
H  H543  1  0.62324000  0.23148000  0.81020000  1.0 0.0847400073
H  H544  1  0.57872000  0.76852000  0.39176000  1.0 0.0847400073
H  H545  1  0.37676000  0.18696000  0.60824000  1.0 0.0847400073
H  H546  1  0.42128000  0.81304000  0.18980000  1.0 0.0847400073
H  H547  1  0.07298000  0.36557000  0.72057000  1.0 0.1006305141
H  H548  1  0.64500000  0.35241000  0.27943000  1.0 0.1006305141
H  H549  1  0.35500000  0.63443000  0.70741000  1.0 0.1006305141
H  H550  1  0.92702000  0.64759000  0.29259000  1.0 0.1006305141
H  H551  1  0.72057000  0.07298000  0.36557000  1.0 0.1006305141
H  H552  1  0.27943000  0.64500000  0.35241000  1.0 0.1006305141
H  H553  1  0.70741000  0.35500000  0.63443000  1.0 0.1006305141
H  H554  1  0.29259000  0.92702000  0.64759000  1.0 0.1006305141
H  H555  1  0.36557000  0.72057000  0.07298000  1.0 0.1006305141
H  H556  1  0.35241000  0.27943000  0.64500000  1.0 0.1006305141
H  H557  1  0.63443000  0.70741000  0.35500000  1.0 0.1006305141
H  H558  1  0.64759000  0.29259000  0.92702000  1.0 0.1006305141
H  H559  1  0.92702000  0.63443000  0.27943000  1.0 0.1006305141
H  H560  1  0.35500000  0.64759000  0.72057000  1.0 0.1006305141
H  H561  1  0.64500000  0.36557000  0.29259000  1.0 0.1006305141
H  H562  1  0.07298000  0.35241000  0.70741000  1.0 0.1006305141
H  H563  1  0.27943000  0.92702000  0.63443000  1.0 0.1006305141
H  H564  1  0.72057000  0.35500000  0.64759000  1.0 0.1006305141
H  H565  1  0.29259000  0.64500000  0.36557000  1.0 0.1006305141
H  H566  1  0.70741000  0.07298000  0.35241000  1.0 0.1006305141
H  H567  1  0.63443000  0.27943000  0.92702000  1.0 0.1006305141
H  H568  1  0.64759000  0.72057000  0.35500000  1.0 0.1006305141
H  H569  1  0.36557000  0.29259000  0.64500000  1.0 0.1006305141
H  H570  1  0.35241000  0.70741000  0.07298000  1.0 0.1006305141
H  H571  1  0.08275000  0.38109000  0.66952000  1.0 0.1006305141
H  H572  1  0.71157000  0.41323000  0.33048000  1.0 0.1006305141
H  H573  1  0.28843000  0.61891000  0.70166000  1.0 0.1006305141
H  H574  1  0.91725000  0.58677000  0.29834000  1.0 0.1006305141
H  H575  1  0.66952000  0.08275000  0.38109000  1.0 0.1006305141
H  H576  1  0.33048000  0.71157000  0.41323000  1.0 0.1006305141
H  H577  1  0.70166000  0.28843000  0.61891000  1.0 0.1006305141
H  H578  1  0.29834000  0.91725000  0.58677000  1.0 0.1006305141
H  H579  1  0.38109000  0.66952000  0.08275000  1.0 0.1006305141
H  H580  1  0.41323000  0.33048000  0.71157000  1.0 0.1006305141
H  H581  1  0.61891000  0.70166000  0.28843000  1.0 0.1006305141
H  H582  1  0.58677000  0.29834000  0.91725000  1.0 0.1006305141
H  H583  1  0.91725000  0.61891000  0.33048000  1.0 0.1006305141
H  H584  1  0.28843000  0.58677000  0.66952000  1.0 0.1006305141
H  H585  1  0.71157000  0.38109000  0.29834000  1.0 0.1006305141
H  H586  1  0.08275000  0.41323000  0.70166000  1.0 0.1006305141
H  H587  1  0.33048000  0.91725000  0.61891000  1.0 0.1006305141
H  H588  1  0.66952000  0.28843000  0.58677000  1.0 0.1006305141
H  H589  1  0.29834000  0.71157000  0.38109000  1.0 0.1006305141
H  H590  1  0.70166000  0.08275000  0.41323000  1.0 0.1006305141
H  H591  1  0.61891000  0.33048000  0.91725000  1.0 0.1006305141
H  H592  1  0.58677000  0.66952000  0.28843000  1.0 0.1006305141
H  H593  1  0.38109000  0.29834000  0.71157000  1.0 0.1006305141
H  H594  1  0.41323000  0.70166000  0.08275000  1.0 0.1006305141
H  H595  1  0.14497000  0.39300000  0.67687000  1.0 0.109276661
H  H596  1  0.71613000  0.46810000  0.32313000  1.0 0.109276661
H  H597  1  0.28387000  0.60700000  0.75197000  1.0 0.109276661
H  H598  1  0.85503000  0.53190000  0.24803000  1.0 0.109276661
H  H599  1  0.67687000  0.14497000  0.39300000  1.0 0.109276661
H  H600  1  0.32313000  0.71613000  0.46810000  1.0 0.109276661
H  H601  1  0.75197000  0.28387000  0.60700000  1.0 0.109276661
H  H602  1  0.24803000  0.85503000  0.53190000  1.0 0.109276661
H  H603  1  0.39300000  0.67687000  0.14497000  1.0 0.109276661
H  H604  1  0.46810000  0.32313000  0.71613000  1.0 0.109276661
H  H605  1  0.60700000  0.75197000  0.28387000  1.0 0.109276661
H  H606  1  0.53190000  0.24803000  0.85503000  1.0 0.109276661
H  H607  1  0.85503000  0.60700000  0.32313000  1.0 0.109276661
H  H608  1  0.28387000  0.53190000  0.67687000  1.0 0.109276661
H  H609  1  0.71613000  0.39300000  0.24803000  1.0 0.109276661
H  H610  1  0.14497000  0.46810000  0.75197000  1.0 0.109276661
H  H611  1  0.32313000  0.85503000  0.60700000  1.0 0.109276661
H  H612  1  0.67687000  0.28387000  0.53190000  1.0 0.109276661
H  H613  1  0.24803000  0.71613000  0.39300000  1.0 0.109276661
H  H614  1  0.75197000  0.14497000  0.46810000  1.0 0.109276661
H  H615  1  0.60700000  0.32313000  0.85503000  1.0 0.109276661
H  H616  1  0.53190000  0.67687000  0.28387000  1.0 0.109276661
H  H617  1  0.39300000  0.24803000  0.71613000  1.0 0.109276661
H  H618  1  0.46810000  0.75197000  0.14497000  1.0 0.109276661
C  C1  1  0.00000000  0.36260000  0.36260000  1.0 0.5659474303
C  C2  1  0.00000000  0.63740000  0.63740000  1.0 0.5659474303
C  C3  1  0.36260000  0.00000000  0.36260000  1.0 0.5659474303
C  C4  1  0.63740000  0.00000000  0.63740000  1.0 0.5659474303
C  C5  1  0.36260000  0.36260000  0.00000000  1.0 0.5659474303
C  C6  1  0.63740000  0.63740000  0.00000000  1.0 0.5659474303
C  C7  1  0.31940000  0.38114000  0.58480000  1.0 -0.0283888759
C  C8  1  0.79634000  0.73460000  0.41520000  1.0 -0.0283888759
C  C9  1  0.20366000  0.61886000  0.93826000  1.0 -0.0283888759
C  C10  1  0.68060000  0.26540000  0.06174000  1.0 -0.0283888759
C  C11  1  0.58480000  0.31940000  0.38114000  1.0 -0.0283888759
C  C12  1  0.41520000  0.79634000  0.73460000  1.0 -0.0283888759
C  C13  1  0.93826000  0.20366000  0.61886000  1.0 -0.0283888759
C  C14  1  0.06174000  0.68060000  0.26540000  1.0 -0.0283888759
C  C15  1  0.38114000  0.58480000  0.31940000  1.0 -0.0283888759
C  C16  1  0.73460000  0.41520000  0.79634000  1.0 -0.0283888759
C  C17  1  0.61886000  0.93826000  0.20366000  1.0 -0.0283888759
C  C18  1  0.26540000  0.06174000  0.68060000  1.0 -0.0283888759
C  C19  1  0.68060000  0.61886000  0.41520000  1.0 -0.0283888759
C  C20  1  0.20366000  0.26540000  0.58480000  1.0 -0.0283888759
C  C21  1  0.79634000  0.38114000  0.06174000  1.0 -0.0283888759
C  C22  1  0.31940000  0.73460000  0.93826000  1.0 -0.0283888759
C  C23  1  0.41520000  0.68060000  0.61886000  1.0 -0.0283888759
C  C24  1  0.58480000  0.20366000  0.26540000  1.0 -0.0283888759
C  C25  1  0.06174000  0.79634000  0.38114000  1.0 -0.0283888759
C  C26  1  0.93826000  0.31940000  0.73460000  1.0 -0.0283888759
C  C27  1  0.61886000  0.41520000  0.68060000  1.0 -0.0283888759
C  C28  1  0.26540000  0.58480000  0.20366000  1.0 -0.0283888759
C  C29  1  0.38114000  0.06174000  0.79634000  1.0 -0.0283888759
C  C30  1  0.73460000  0.93826000  0.31940000  1.0 -0.0283888759
C  C31  1  0.51353000  0.24428000  0.48943000  1.0 0.611872891
C  C32  1  0.75485000  0.02410000  0.51057000  1.0 0.611872891
C  C33  1  0.24515000  0.75572000  0.26925000  1.0 0.611872891
C  C34  1  0.48647000  0.97590000  0.73075000  1.0 0.611872891
C  C35  1  0.48943000  0.51353000  0.24428000  1.0 0.611872891
C  C36  1  0.51057000  0.75485000  0.02410000  1.0 0.611872891
C  C37  1  0.26925000  0.24515000  0.75572000  1.0 0.611872891
C  C38  1  0.73075000  0.48647000  0.97590000  1.0 0.611872891
C  C39  1  0.24428000  0.48943000  0.51353000  1.0 0.611872891
C  C40  1  0.02410000  0.51057000  0.75485000  1.0 0.611872891
C  C41  1  0.75572000  0.26925000  0.24515000  1.0 0.611872891
C  C42  1  0.97590000  0.73075000  0.48647000  1.0 0.611872891
C  C43  1  0.48647000  0.75572000  0.51057000  1.0 0.611872891
C  C44  1  0.24515000  0.97590000  0.48943000  1.0 0.611872891
C  C45  1  0.75485000  0.24428000  0.73075000  1.0 0.611872891
C  C46  1  0.51353000  0.02410000  0.26925000  1.0 0.611872891
C  C47  1  0.51057000  0.48647000  0.75572000  1.0 0.611872891
C  C48  1  0.48943000  0.24515000  0.97590000  1.0 0.611872891
C  C49  1  0.73075000  0.75485000  0.24428000  1.0 0.611872891
C  C50  1  0.26925000  0.51353000  0.02410000  1.0 0.611872891
C  C51  1  0.75572000  0.51057000  0.48647000  1.0 0.611872891
C  C52  1  0.97590000  0.48943000  0.24515000  1.0 0.611872891
C  C53  1  0.24428000  0.73075000  0.75485000  1.0 0.611872891
C  C54  1  0.02410000  0.26925000  0.51353000  1.0 0.611872891
C  C55  1  0.46113000  0.38785000  0.66888000  1.0 0.0312315905
C  C56  1  0.71897000  0.79225000  0.33112000  1.0 0.0312315905
C  C57  1  0.28103000  0.61215000  0.07328000  1.0 0.0312315905
C  C58  1  0.53887000  0.20775000  0.92672000  1.0 0.0312315905
C  C59  1  0.66888000  0.46113000  0.38785000  1.0 0.0312315905
C  C60  1  0.33112000  0.71897000  0.79225000  1.0 0.0312315905
C  C61  1  0.07328000  0.28103000  0.61215000  1.0 0.0312315905
C  C62  1  0.92672000  0.53887000  0.20775000  1.0 0.0312315905
C  C63  1  0.38785000  0.66888000  0.46113000  1.0 0.0312315905
C  C64  1  0.79225000  0.33112000  0.71897000  1.0 0.0312315905
C  C65  1  0.61215000  0.07328000  0.28103000  1.0 0.0312315905
C  C66  1  0.20775000  0.92672000  0.53887000  1.0 0.0312315905
C  C67  1  0.53887000  0.61215000  0.33112000  1.0 0.0312315905
C  C68  1  0.28103000  0.20775000  0.66888000  1.0 0.0312315905
C  C69  1  0.71897000  0.38785000  0.92672000  1.0 0.0312315905
C  C70  1  0.46113000  0.79225000  0.07328000  1.0 0.0312315905
C  C71  1  0.33112000  0.53887000  0.61215000  1.0 0.0312315905
C  C72  1  0.66888000  0.28103000  0.20775000  1.0 0.0312315905
C  C73  1  0.92672000  0.71897000  0.38785000  1.0 0.0312315905
C  C74  1  0.07328000  0.46113000  0.79225000  1.0 0.0312315905
C  C75  1  0.61215000  0.33112000  0.53887000  1.0 0.0312315905
C  C76  1  0.20775000  0.66888000  0.28103000  1.0 0.0312315905
C  C77  1  0.38785000  0.92672000  0.71897000  1.0 0.0312315905
C  C78  1  0.79225000  0.07328000  0.46113000  1.0 0.0312315905
C  C79  1  0.28133000  0.38725000  0.57160000  1.0 0.5868621413
C  C80  1  0.81565000  0.70973000  0.42840000  1.0 0.5868621413
C  C81  1  0.18435000  0.61275000  0.89408000  1.0 0.5868621413
C  C82  1  0.71867000  0.29027000  0.10592000  1.0 0.5868621413
C  C83  1  0.57160000  0.28133000  0.38725000  1.0 0.5868621413
C  C84  1  0.42840000  0.81565000  0.70973000  1.0 0.5868621413
C  C85  1  0.89408000  0.18435000  0.61275000  1.0 0.5868621413
C  C86  1  0.10592000  0.71867000  0.29027000  1.0 0.5868621413
C  C87  1  0.38725000  0.57160000  0.28133000  1.0 0.5868621413
C  C88  1  0.70973000  0.42840000  0.81565000  1.0 0.5868621413
C  C89  1  0.61275000  0.89408000  0.18435000  1.0 0.5868621413
C  C90  1  0.29027000  0.10592000  0.71867000  1.0 0.5868621413
C  C91  1  0.71867000  0.61275000  0.42840000  1.0 0.5868621413
C  C92  1  0.18435000  0.29027000  0.57160000  1.0 0.5868621413
C  C93  1  0.81565000  0.38725000  0.10592000  1.0 0.5868621413
C  C94  1  0.28133000  0.70973000  0.89408000  1.0 0.5868621413
C  C95  1  0.42840000  0.71867000  0.61275000  1.0 0.5868621413
C  C96  1  0.57160000  0.18435000  0.29027000  1.0 0.5868621413
C  C97  1  0.10592000  0.81565000  0.38725000  1.0 0.5868621413
C  C98  1  0.89408000  0.28133000  0.70973000  1.0 0.5868621413
C  C99  1  0.61275000  0.42840000  0.71867000  1.0 0.5868621413
C  C100  1  0.29027000  0.57160000  0.18435000  1.0 0.5868621413
C  C101  1  0.38725000  0.10592000  0.81565000  1.0 0.5868621413
C  C102  1  0.70973000  0.89408000  0.28133000  1.0 0.5868621413
C  C103  1  0.33904000  0.37804000  0.56068000  1.0 -0.1034248676
C  C104  1  0.81736000  0.77836000  0.43932000  1.0 -0.1034248676
C  C105  1  0.18264000  0.62196000  0.96100000  1.0 -0.1034248676
C  C106  1  0.66096000  0.22164000  0.03900000  1.0 -0.1034248676
C  C107  1  0.56068000  0.33904000  0.37804000  1.0 -0.1034248676
C  C108  1  0.43932000  0.81736000  0.77836000  1.0 -0.1034248676
C  C109  1  0.96100000  0.18264000  0.62196000  1.0 -0.1034248676
C  C110  1  0.03900000  0.66096000  0.22164000  1.0 -0.1034248676
C  C111  1  0.37804000  0.56068000  0.33904000  1.0 -0.1034248676
C  C112  1  0.77836000  0.43932000  0.81736000  1.0 -0.1034248676
C  C113  1  0.62196000  0.96100000  0.18264000  1.0 -0.1034248676
C  C114  1  0.22164000  0.03900000  0.66096000  1.0 -0.1034248676
C  C115  1  0.66096000  0.62196000  0.43932000  1.0 -0.1034248676
C  C116  1  0.18264000  0.22164000  0.56068000  1.0 -0.1034248676
C  C117  1  0.81736000  0.37804000  0.03900000  1.0 -0.1034248676
C  C118  1  0.33904000  0.77836000  0.96100000  1.0 -0.1034248676
C  C119  1  0.43932000  0.66096000  0.62196000  1.0 -0.1034248676
C  C120  1  0.56068000  0.18264000  0.22164000  1.0 -0.1034248676
C  C121  1  0.03900000  0.81736000  0.37804000  1.0 -0.1034248676
C  C122  1  0.96100000  0.33904000  0.77836000  1.0 -0.1034248676
C  C123  1  0.62196000  0.43932000  0.66096000  1.0 -0.1034248676
C  C124  1  0.22164000  0.56068000  0.18264000  1.0 -0.1034248676
C  C125  1  0.37804000  0.03900000  0.81736000  1.0 -0.1034248676
C  C126  1  0.77836000  0.96100000  0.33904000  1.0 -0.1034248676
C  C127  1  0.43906000  0.34332000  0.59638000  1.0 -0.1768941059
C  C128  1  0.74694000  0.84268000  0.40362000  1.0 -0.1768941059
C  C129  1  0.25306000  0.65668000  0.09574000  1.0 -0.1768941059
C  C130  1  0.56094000  0.15732000  0.90426000  1.0 -0.1768941059
C  C131  1  0.59638000  0.43906000  0.34332000  1.0 -0.1768941059
C  C132  1  0.40362000  0.74694000  0.84268000  1.0 -0.1768941059
C  C133  1  0.09574000  0.25306000  0.65668000  1.0 -0.1768941059
C  C134  1  0.90426000  0.56094000  0.15732000  1.0 -0.1768941059
C  C135  1  0.34332000  0.59638000  0.43906000  1.0 -0.1768941059
C  C136  1  0.84268000  0.40362000  0.74694000  1.0 -0.1768941059
C  C137  1  0.65668000  0.09574000  0.25306000  1.0 -0.1768941059
C  C138  1  0.15732000  0.90426000  0.56094000  1.0 -0.1768941059
C  C139  1  0.56094000  0.65668000  0.40362000  1.0 -0.1768941059
C  C140  1  0.25306000  0.15732000  0.59638000  1.0 -0.1768941059
C  C141  1  0.74694000  0.34332000  0.90426000  1.0 -0.1768941059
C  C142  1  0.43906000  0.84268000  0.09574000  1.0 -0.1768941059
C  C143  1  0.40362000  0.56094000  0.65668000  1.0 -0.1768941059
C  C144  1  0.59638000  0.25306000  0.15732000  1.0 -0.1768941059
C  C145  1  0.90426000  0.74694000  0.34332000  1.0 -0.1768941059
C  C146  1  0.09574000  0.43906000  0.84268000  1.0 -0.1768941059
C  C147  1  0.65668000  0.40362000  0.56094000  1.0 -0.1768941059
C  C148  1  0.15732000  0.59638000  0.25306000  1.0 -0.1768941059
C  C149  1  0.34332000  0.90426000  0.74694000  1.0 -0.1768941059
C  C150  1  0.84268000  0.09574000  0.43906000  1.0 -0.1768941059
C  C151  1  0.43139000  0.36751000  0.62586000  1.0 0.0312315905
C  C152  1  0.74165000  0.80553000  0.37414000  1.0 0.0312315905
C  C153  1  0.25835000  0.63249000  0.06388000  1.0 0.0312315905
C  C154  1  0.56861000  0.19447000  0.93612000  1.0 0.0312315905
C  C155  1  0.62586000  0.43139000  0.36751000  1.0 0.0312315905
C  C156  1  0.37414000  0.74165000  0.80553000  1.0 0.0312315905
C  C157  1  0.06388000  0.25835000  0.63249000  1.0 0.0312315905
C  C158  1  0.93612000  0.56861000  0.19447000  1.0 0.0312315905
C  C159  1  0.36751000  0.62586000  0.43139000  1.0 0.0312315905
C  C160  1  0.80553000  0.37414000  0.74165000  1.0 0.0312315905
C  C161  1  0.63249000  0.06388000  0.25835000  1.0 0.0312315905
C  C162  1  0.19447000  0.93612000  0.56861000  1.0 0.0312315905
C  C163  1  0.56861000  0.63249000  0.37414000  1.0 0.0312315905
C  C164  1  0.25835000  0.19447000  0.62586000  1.0 0.0312315905
C  C165  1  0.74165000  0.36751000  0.93612000  1.0 0.0312315905
C  C166  1  0.43139000  0.80553000  0.06388000  1.0 0.0312315905
C  C167  1  0.37414000  0.56861000  0.63249000  1.0 0.0312315905
C  C168  1  0.62586000  0.25835000  0.19447000  1.0 0.0312315905
C  C169  1  0.93612000  0.74165000  0.36751000  1.0 0.0312315905
C  C170  1  0.06388000  0.43139000  0.80553000  1.0 0.0312315905
C  C171  1  0.63249000  0.37414000  0.56861000  1.0 0.0312315905
C  C172  1  0.19447000  0.62586000  0.25835000  1.0 0.0312315905
C  C173  1  0.36751000  0.93612000  0.74165000  1.0 0.0312315905
C  C174  1  0.80553000  0.06388000  0.43139000  1.0 0.0312315905
C  C175  1  0.50450000  0.26977000  0.52147000  1.0 -0.0283888759
C  C176  1  0.74830000  0.98303000  0.47853000  1.0 -0.0283888759
C  C177  1  0.25170000  0.73023000  0.23473000  1.0 -0.0283888759
C  C178  1  0.49550000  0.01697000  0.76527000  1.0 -0.0283888759
C  C179  1  0.52147000  0.50450000  0.26977000  1.0 -0.0283888759
C  C180  1  0.47853000  0.74830000  0.98303000  1.0 -0.0283888759
C  C181  1  0.23473000  0.25170000  0.73023000  1.0 -0.0283888759
C  C182  1  0.76527000  0.49550000  0.01697000  1.0 -0.0283888759
C  C183  1  0.26977000  0.52147000  0.50450000  1.0 -0.0283888759
C  C184  1  0.98303000  0.47853000  0.74830000  1.0 -0.0283888759
C  C185  1  0.73023000  0.23473000  0.25170000  1.0 -0.0283888759
C  C186  1  0.01697000  0.76527000  0.49550000  1.0 -0.0283888759
C  C187  1  0.49550000  0.73023000  0.47853000  1.0 -0.0283888759
C  C188  1  0.25170000  0.01697000  0.52147000  1.0 -0.0283888759
C  C189  1  0.74830000  0.26977000  0.76527000  1.0 -0.0283888759
C  C190  1  0.50450000  0.98303000  0.23473000  1.0 -0.0283888759
C  C191  1  0.47853000  0.49550000  0.73023000  1.0 -0.0283888759
C  C192  1  0.52147000  0.25170000  0.01697000  1.0 -0.0283888759
C  C193  1  0.76527000  0.74830000  0.26977000  1.0 -0.0283888759
C  C194  1  0.23473000  0.50450000  0.98303000  1.0 -0.0283888759
C  C195  1  0.73023000  0.47853000  0.49550000  1.0 -0.0283888759
C  C196  1  0.01697000  0.52147000  0.25170000  1.0 -0.0283888759
C  C197  1  0.26977000  0.76527000  0.74830000  1.0 -0.0283888759
C  C198  1  0.98303000  0.23473000  0.50450000  1.0 -0.0283888759
C  C199  1  0.50576000  0.29255000  0.58851000  1.0 -0.144309679
C  C200  1  0.70404000  0.91725000  0.41149000  1.0 -0.144309679
C  C201  1  0.29596000  0.70745000  0.21321000  1.0 -0.144309679
C  C202  1  0.49424000  0.08275000  0.78679000  1.0 -0.144309679
C  C203  1  0.58851000  0.50576000  0.29255000  1.0 -0.144309679
C  C204  1  0.41149000  0.70404000  0.91725000  1.0 -0.144309679
C  C205  1  0.21321000  0.29596000  0.70745000  1.0 -0.144309679
C  C206  1  0.78679000  0.49424000  0.08275000  1.0 -0.144309679
C  C207  1  0.29255000  0.58851000  0.50576000  1.0 -0.144309679
C  C208  1  0.91725000  0.41149000  0.70404000  1.0 -0.144309679
C  C209  1  0.70745000  0.21321000  0.29596000  1.0 -0.144309679
C  C210  1  0.08275000  0.78679000  0.49424000  1.0 -0.144309679
C  C211  1  0.49424000  0.70745000  0.41149000  1.0 -0.144309679
C  C212  1  0.29596000  0.08275000  0.58851000  1.0 -0.144309679
C  C213  1  0.70404000  0.29255000  0.78679000  1.0 -0.144309679
C  C214  1  0.50576000  0.91725000  0.21321000  1.0 -0.144309679
C  C215  1  0.41149000  0.49424000  0.70745000  1.0 -0.144309679
C  C216  1  0.58851000  0.29596000  0.08275000  1.0 -0.144309679
C  C217  1  0.78679000  0.70404000  0.29255000  1.0 -0.144309679
C  C218  1  0.21321000  0.50576000  0.91725000  1.0 -0.144309679
C  C219  1  0.70745000  0.41149000  0.49424000  1.0 -0.144309679
C  C220  1  0.08275000  0.58851000  0.29596000  1.0 -0.144309679
C  C221  1  0.29255000  0.78679000  0.70404000  1.0 -0.144309679
C  C222  1  0.91725000  0.21321000  0.50576000  1.0 -0.144309679
C  C223  1  0.48579000  0.31555000  0.57874000  1.0 0.0897971753
C  C224  1  0.73681000  0.90705000  0.42126000  1.0 0.0897971753
C  C225  1  0.26319000  0.68445000  0.17024000  1.0 0.0897971753
C  C226  1  0.51421000  0.09295000  0.82976000  1.0 0.0897971753
C  C227  1  0.57874000  0.48579000  0.31555000  1.0 0.0897971753
C  C228  1  0.42126000  0.73681000  0.90705000  1.0 0.0897971753
C  C229  1  0.17024000  0.26319000  0.68445000  1.0 0.0897971753
C  C230  1  0.82976000  0.51421000  0.09295000  1.0 0.0897971753
C  C231  1  0.31555000  0.57874000  0.48579000  1.0 0.0897971753
C  C232  1  0.90705000  0.42126000  0.73681000  1.0 0.0897971753
C  C233  1  0.68445000  0.17024000  0.26319000  1.0 0.0897971753
C  C234  1  0.09295000  0.82976000  0.51421000  1.0 0.0897971753
C  C235  1  0.51421000  0.68445000  0.42126000  1.0 0.0897971753
C  C236  1  0.26319000  0.09295000  0.57874000  1.0 0.0897971753
C  C237  1  0.73681000  0.31555000  0.82976000  1.0 0.0897971753
C  C238  1  0.48579000  0.90705000  0.17024000  1.0 0.0897971753
C  C239  1  0.42126000  0.51421000  0.68445000  1.0 0.0897971753
C  C240  1  0.57874000  0.26319000  0.09295000  1.0 0.0897971753
C  C241  1  0.82976000  0.73681000  0.31555000  1.0 0.0897971753
C  C242  1  0.17024000  0.48579000  0.90705000  1.0 0.0897971753
C  C243  1  0.68445000  0.42126000  0.51421000  1.0 0.0897971753
C  C244  1  0.09295000  0.57874000  0.26319000  1.0 0.0897971753
C  C245  1  0.31555000  0.82976000  0.73681000  1.0 0.0897971753
C  C246  1  0.90705000  0.17024000  0.48579000  1.0 0.0897971753
C  C247  1  0.37100000  0.37342000  0.63474000  1.0 -0.2103382858
C  C248  1  0.73868000  0.73626000  0.36526000  1.0 -0.2103382858
C  C249  1  0.26132000  0.62658000  0.99758000  1.0 -0.2103382858
C  C250  1  0.62900000  0.26374000  0.00242000  1.0 -0.2103382858
C  C251  1  0.63474000  0.37100000  0.37342000  1.0 -0.2103382858
C  C252  1  0.36526000  0.73868000  0.73626000  1.0 -0.2103382858
C  C253  1  0.99758000  0.26132000  0.62658000  1.0 -0.2103382858
C  C254  1  0.00242000  0.62900000  0.26374000  1.0 -0.2103382858
C  C255  1  0.37342000  0.63474000  0.37100000  1.0 -0.2103382858
C  C256  1  0.73626000  0.36526000  0.73868000  1.0 -0.2103382858
C  C257  1  0.62658000  0.99758000  0.26132000  1.0 -0.2103382858
C  C258  1  0.26374000  0.00242000  0.62900000  1.0 -0.2103382858
C  C259  1  0.62900000  0.62658000  0.36526000  1.0 -0.2103382858
C  C260  1  0.26132000  0.26374000  0.63474000  1.0 -0.2103382858
C  C261  1  0.73868000  0.37342000  0.00242000  1.0 -0.2103382858
C  C262  1  0.37100000  0.73626000  0.99758000  1.0 -0.2103382858
C  C263  1  0.36526000  0.62900000  0.62658000  1.0 -0.2103382858
C  C264  1  0.63474000  0.26132000  0.26374000  1.0 -0.2103382858
C  C265  1  0.00242000  0.73868000  0.37342000  1.0 -0.2103382858
C  C266  1  0.99758000  0.37100000  0.73626000  1.0 -0.2103382858
C  C267  1  0.62658000  0.36526000  0.62900000  1.0 -0.2103382858
C  C268  1  0.26374000  0.63474000  0.26132000  1.0 -0.2103382858
C  C269  1  0.37342000  0.00242000  0.73868000  1.0 -0.2103382858
C  C270  1  0.73626000  0.99758000  0.37100000  1.0 -0.2103382858
C  C271  1  0.51551000  0.27097000  0.56008000  1.0 -0.0893341232
C  C272  1  0.71089000  0.95543000  0.43992000  1.0 -0.0893341232
C  C273  1  0.28911000  0.72903000  0.24454000  1.0 -0.0893341232
C  C274  1  0.48449000  0.04457000  0.75546000  1.0 -0.0893341232
C  C275  1  0.56008000  0.51551000  0.27097000  1.0 -0.0893341232
C  C276  1  0.43992000  0.71089000  0.95543000  1.0 -0.0893341232
C  C277  1  0.24454000  0.28911000  0.72903000  1.0 -0.0893341232
C  C278  1  0.75546000  0.48449000  0.04457000  1.0 -0.0893341232
C  C279  1  0.27097000  0.56008000  0.51551000  1.0 -0.0893341232
C  C280  1  0.95543000  0.43992000  0.71089000  1.0 -0.0893341232
C  C281  1  0.72903000  0.24454000  0.28911000  1.0 -0.0893341232
C  C282  1  0.04457000  0.75546000  0.48449000  1.0 -0.0893341232
C  C283  1  0.48449000  0.72903000  0.43992000  1.0 -0.0893341232
C  C284  1  0.28911000  0.04457000  0.56008000  1.0 -0.0893341232
C  C285  1  0.71089000  0.27097000  0.75546000  1.0 -0.0893341232
C  C286  1  0.51551000  0.95543000  0.24454000  1.0 -0.0893341232
C  C287  1  0.43992000  0.48449000  0.72903000  1.0 -0.0893341232
C  C288  1  0.56008000  0.28911000  0.04457000  1.0 -0.0893341232
C  C289  1  0.75546000  0.71089000  0.27097000  1.0 -0.0893341232
C  C290  1  0.24454000  0.51551000  0.95543000  1.0 -0.0893341232
C  C291  1  0.72903000  0.43992000  0.48449000  1.0 -0.0893341232
C  C292  1  0.04457000  0.56008000  0.28911000  1.0 -0.0893341232
C  C293  1  0.27097000  0.75546000  0.71089000  1.0 -0.0893341232
C  C294  1  0.95543000  0.24454000  0.51551000  1.0 -0.0893341232
C  C295  1  0.50381000  0.36254000  0.65429000  1.0 0.0409091223
C  C296  1  0.70825000  0.84952000  0.34571000  1.0 0.0409091223
C  C297  1  0.29175000  0.63746000  0.14127000  1.0 0.0409091223
C  C298  1  0.49619000  0.15048000  0.85873000  1.0 0.0409091223
C  C299  1  0.65429000  0.50381000  0.36254000  1.0 0.0409091223
C  C300  1  0.34571000  0.70825000  0.84952000  1.0 0.0409091223
C  C301  1  0.14127000  0.29175000  0.63746000  1.0 0.0409091223
C  C302  1  0.85873000  0.49619000  0.15048000  1.0 0.0409091223
C  C303  1  0.36254000  0.65429000  0.50381000  1.0 0.0409091223
C  C304  1  0.84952000  0.34571000  0.70825000  1.0 0.0409091223
C  C305  1  0.63746000  0.14127000  0.29175000  1.0 0.0409091223
C  C306  1  0.15048000  0.85873000  0.49619000  1.0 0.0409091223
C  C307  1  0.49619000  0.63746000  0.34571000  1.0 0.0409091223
C  C308  1  0.29175000  0.15048000  0.65429000  1.0 0.0409091223
C  C309  1  0.70825000  0.36254000  0.85873000  1.0 0.0409091223
C  C310  1  0.50381000  0.84952000  0.14127000  1.0 0.0409091223
C  C311  1  0.34571000  0.49619000  0.63746000  1.0 0.0409091223
C  C312  1  0.65429000  0.29175000  0.15048000  1.0 0.0409091223
C  C313  1  0.85873000  0.70825000  0.36254000  1.0 0.0409091223
C  C314  1  0.14127000  0.50381000  0.84952000  1.0 0.0409091223
C  C315  1  0.63746000  0.34571000  0.49619000  1.0 0.0409091223
C  C316  1  0.15048000  0.65429000  0.29175000  1.0 0.0409091223
C  C317  1  0.36254000  0.85873000  0.70825000  1.0 0.0409091223
C  C318  1  0.84952000  0.14127000  0.50381000  1.0 0.0409091223
C  C319  1  0.47624000  0.34073000  0.61037000  1.0 0.0312315905
C  C320  1  0.73036000  0.86587000  0.38963000  1.0 0.0312315905
C  C321  1  0.26964000  0.65927000  0.13551000  1.0 0.0312315905
C  C322  1  0.52376000  0.13413000  0.86449000  1.0 0.0312315905
C  C323  1  0.61037000  0.47624000  0.34073000  1.0 0.0312315905
C  C324  1  0.38963000  0.73036000  0.86587000  1.0 0.0312315905
C  C325  1  0.13551000  0.26964000  0.65927000  1.0 0.0312315905
C  C326  1  0.86449000  0.52376000  0.13413000  1.0 0.0312315905
C  C327  1  0.34073000  0.61037000  0.47624000  1.0 0.0312315905
C  C328  1  0.86587000  0.38963000  0.73036000  1.0 0.0312315905
C  C329  1  0.65927000  0.13551000  0.26964000  1.0 0.0312315905
C  C330  1  0.13413000  0.86449000  0.52376000  1.0 0.0312315905
C  C331  1  0.52376000  0.65927000  0.38963000  1.0 0.0312315905
C  C332  1  0.26964000  0.13413000  0.61037000  1.0 0.0312315905
C  C333  1  0.73036000  0.34073000  0.86449000  1.0 0.0312315905
C  C334  1  0.47624000  0.86587000  0.13551000  1.0 0.0312315905
C  C335  1  0.38963000  0.52376000  0.65927000  1.0 0.0312315905
C  C336  1  0.61037000  0.26964000  0.13413000  1.0 0.0312315905
C  C337  1  0.86449000  0.73036000  0.34073000  1.0 0.0312315905
C  C338  1  0.13551000  0.47624000  0.86587000  1.0 0.0312315905
C  C339  1  0.65927000  0.38963000  0.52376000  1.0 0.0312315905
C  C340  1  0.13413000  0.61037000  0.26964000  1.0 0.0312315905
C  C341  1  0.34073000  0.86449000  0.73036000  1.0 0.0312315905
C  C342  1  0.86587000  0.13551000  0.47624000  1.0 0.0312315905
C  C343  1  0.13580000  0.36350000  0.38770000  1.0 0.4788368624
C  C344  1  0.97580000  0.74810000  0.61230000  1.0 0.4788368624
C  C345  1  0.02420000  0.63650000  0.77230000  1.0 0.4788368624
C  C346  1  0.86420000  0.25190000  0.22770000  1.0 0.4788368624
C  C347  1  0.38770000  0.13580000  0.36350000  1.0 0.4788368624
C  C348  1  0.61230000  0.97580000  0.74810000  1.0 0.4788368624
C  C349  1  0.77230000  0.02420000  0.63650000  1.0 0.4788368624
C  C350  1  0.22770000  0.86420000  0.25190000  1.0 0.4788368624
C  C351  1  0.36350000  0.38770000  0.13580000  1.0 0.4788368624
C  C352  1  0.74810000  0.61230000  0.97580000  1.0 0.4788368624
C  C353  1  0.63650000  0.77230000  0.02420000  1.0 0.4788368624
C  C354  1  0.25190000  0.22770000  0.86420000  1.0 0.4788368624
C  C355  1  0.86420000  0.63650000  0.61230000  1.0 0.4788368624
C  C356  1  0.02420000  0.25190000  0.38770000  1.0 0.4788368624
C  C357  1  0.97580000  0.36350000  0.22770000  1.0 0.4788368624
C  C358  1  0.13580000  0.74810000  0.77230000  1.0 0.4788368624
C  C359  1  0.61230000  0.86420000  0.63650000  1.0 0.4788368624
C  C360  1  0.38770000  0.02420000  0.25190000  1.0 0.4788368624
C  C361  1  0.22770000  0.97580000  0.36350000  1.0 0.4788368624
C  C362  1  0.77230000  0.13580000  0.74810000  1.0 0.4788368624
C  C363  1  0.63650000  0.61230000  0.86420000  1.0 0.4788368624
C  C364  1  0.25190000  0.38770000  0.02420000  1.0 0.4788368624
C  C365  1  0.36350000  0.22770000  0.97580000  1.0 0.4788368624
C  C366  1  0.74810000  0.77230000  0.13580000  1.0 0.4788368624
C  C367  1  0.39194000  0.37124000  0.61118000  1.0 0.0700246197
C  C368  1  0.76006000  0.78076000  0.38882000  1.0 0.0700246197
C  C369  1  0.23994000  0.62876000  0.02070000  1.0 0.0700246197
C  C370  1  0.60806000  0.21924000  0.97930000  1.0 0.0700246197
C  C371  1  0.61118000  0.39194000  0.37124000  1.0 0.0700246197
C  C372  1  0.38882000  0.76006000  0.78076000  1.0 0.0700246197
C  C373  1  0.02070000  0.23994000  0.62876000  1.0 0.0700246197
C  C374  1  0.97930000  0.60806000  0.21924000  1.0 0.0700246197
C  C375  1  0.37124000  0.61118000  0.39194000  1.0 0.0700246197
C  C376  1  0.78076000  0.38882000  0.76006000  1.0 0.0700246197
C  C377  1  0.62876000  0.02070000  0.23994000  1.0 0.0700246197
C  C378  1  0.21924000  0.97930000  0.60806000  1.0 0.0700246197
C  C379  1  0.60806000  0.62876000  0.38882000  1.0 0.0700246197
C  C380  1  0.23994000  0.21924000  0.61118000  1.0 0.0700246197
C  C381  1  0.76006000  0.37124000  0.97930000  1.0 0.0700246197
C  C382  1  0.39194000  0.78076000  0.02070000  1.0 0.0700246197
C  C383  1  0.38882000  0.60806000  0.62876000  1.0 0.0700246197
C  C384  1  0.61118000  0.23994000  0.21924000  1.0 0.0700246197
C  C385  1  0.97930000  0.76006000  0.37124000  1.0 0.0700246197
C  C386  1  0.02070000  0.39194000  0.78076000  1.0 0.0700246197
C  C387  1  0.62876000  0.38882000  0.60806000  1.0 0.0700246197
C  C388  1  0.21924000  0.61118000  0.23994000  1.0 0.0700246197
C  C389  1  0.37124000  0.97930000  0.76006000  1.0 0.0700246197
C  C390  1  0.78076000  0.02070000  0.39194000  1.0 0.0700246197
C  C391  1  0.37567000  0.37341000  0.57428000  1.0 -0.1494414489
C  C392  1  0.79913000  0.80139000  0.42572000  1.0 -0.1494414489
C  C393  1  0.20087000  0.62659000  0.00226000  1.0 -0.1494414489
C  C394  1  0.62433000  0.19861000  0.99774000  1.0 -0.1494414489
C  C395  1  0.57428000  0.37567000  0.37341000  1.0 -0.1494414489
C  C396  1  0.42572000  0.79913000  0.80139000  1.0 -0.1494414489
C  C397  1  0.00226000  0.20087000  0.62659000  1.0 -0.1494414489
C  C398  1  0.99774000  0.62433000  0.19861000  1.0 -0.1494414489
C  C399  1  0.37341000  0.57428000  0.37567000  1.0 -0.1494414489
C  C400  1  0.80139000  0.42572000  0.79913000  1.0 -0.1494414489
C  C401  1  0.62659000  0.00226000  0.20087000  1.0 -0.1494414489
C  C402  1  0.19861000  0.99774000  0.62433000  1.0 -0.1494414489
C  C403  1  0.62433000  0.62659000  0.42572000  1.0 -0.1494414489
C  C404  1  0.20087000  0.19861000  0.57428000  1.0 -0.1494414489
C  C405  1  0.79913000  0.37341000  0.99774000  1.0 -0.1494414489
C  C406  1  0.37567000  0.80139000  0.00226000  1.0 -0.1494414489
C  C407  1  0.42572000  0.62433000  0.62659000  1.0 -0.1494414489
C  C408  1  0.57428000  0.20087000  0.19861000  1.0 -0.1494414489
C  C409  1  0.99774000  0.79913000  0.37341000  1.0 -0.1494414489
C  C410  1  0.00226000  0.37567000  0.80139000  1.0 -0.1494414489
C  C411  1  0.62659000  0.42572000  0.62433000  1.0 -0.1494414489
C  C412  1  0.19861000  0.57428000  0.20087000  1.0 -0.1494414489
C  C413  1  0.37341000  0.99774000  0.79913000  1.0 -0.1494414489
C  C414  1  0.80139000  0.00226000  0.37567000  1.0 -0.1494414489
C  C415  1  0.48560000  0.29250000  0.51250000  1.0 -0.0893341232
C  C416  1  0.78000000  0.97310000  0.48750000  1.0 -0.0893341232
C  C417  1  0.22000000  0.70750000  0.19310000  1.0 -0.0893341232
C  C418  1  0.51440000  0.02690000  0.80690000  1.0 -0.0893341232
C  C419  1  0.51250000  0.48560000  0.29250000  1.0 -0.0893341232
C  C420  1  0.48750000  0.78000000  0.97310000  1.0 -0.0893341232
C  C421  1  0.19310000  0.22000000  0.70750000  1.0 -0.0893341232
C  C422  1  0.80690000  0.51440000  0.02690000  1.0 -0.0893341232
C  C423  1  0.29250000  0.51250000  0.48560000  1.0 -0.0893341232
C  C424  1  0.97310000  0.48750000  0.78000000  1.0 -0.0893341232
C  C425  1  0.70750000  0.19310000  0.22000000  1.0 -0.0893341232
C  C426  1  0.02690000  0.80690000  0.51440000  1.0 -0.0893341232
C  C427  1  0.51440000  0.70750000  0.48750000  1.0 -0.0893341232
C  C428  1  0.22000000  0.02690000  0.51250000  1.0 -0.0893341232
C  C429  1  0.78000000  0.29250000  0.80690000  1.0 -0.0893341232
C  C430  1  0.48560000  0.97310000  0.19310000  1.0 -0.0893341232
C  C431  1  0.48750000  0.51440000  0.70750000  1.0 -0.0893341232
C  C432  1  0.51250000  0.22000000  0.02690000  1.0 -0.0893341232
C  C433  1  0.80690000  0.78000000  0.29250000  1.0 -0.0893341232
C  C434  1  0.19310000  0.48560000  0.97310000  1.0 -0.0893341232
C  C435  1  0.70750000  0.48750000  0.51440000  1.0 -0.0893341232
C  C436  1  0.02690000  0.51250000  0.22000000  1.0 -0.0893341232
C  C437  1  0.29250000  0.80690000  0.78000000  1.0 -0.0893341232
C  C438  1  0.97310000  0.19310000  0.48560000  1.0 -0.0893341232
C  C439  1  0.47580000  0.31562000  0.54062000  1.0 -0.1494414489
C  C440  1  0.77500000  0.93518000  0.45938000  1.0 -0.1494414489
C  C441  1  0.22500000  0.68438000  0.16018000  1.0 -0.1494414489
C  C442  1  0.52420000  0.06482000  0.83982000  1.0 -0.1494414489
C  C443  1  0.54062000  0.47580000  0.31562000  1.0 -0.1494414489
C  C444  1  0.45938000  0.77500000  0.93518000  1.0 -0.1494414489
C  C445  1  0.16018000  0.22500000  0.68438000  1.0 -0.1494414489
C  C446  1  0.83982000  0.52420000  0.06482000  1.0 -0.1494414489
C  C447  1  0.31562000  0.54062000  0.47580000  1.0 -0.1494414489
C  C448  1  0.93518000  0.45938000  0.77500000  1.0 -0.1494414489
C  C449  1  0.68438000  0.16018000  0.22500000  1.0 -0.1494414489
C  C450  1  0.06482000  0.83982000  0.52420000  1.0 -0.1494414489
C  C451  1  0.52420000  0.68438000  0.45938000  1.0 -0.1494414489
C  C452  1  0.22500000  0.06482000  0.54062000  1.0 -0.1494414489
C  C453  1  0.77500000  0.31562000  0.83982000  1.0 -0.1494414489
C  C454  1  0.47580000  0.93518000  0.16018000  1.0 -0.1494414489
C  C455  1  0.45938000  0.52420000  0.68438000  1.0 -0.1494414489
C  C456  1  0.54062000  0.22500000  0.06482000  1.0 -0.1494414489
C  C457  1  0.83982000  0.77500000  0.31562000  1.0 -0.1494414489
C  C458  1  0.16018000  0.47580000  0.93518000  1.0 -0.1494414489
C  C459  1  0.68438000  0.45938000  0.52420000  1.0 -0.1494414489
C  C460  1  0.06482000  0.54062000  0.22500000  1.0 -0.1494414489
C  C461  1  0.31562000  0.83982000  0.77500000  1.0 -0.1494414489
C  C462  1  0.93518000  0.16018000  0.47580000  1.0 -0.1494414489
C  C463  1  0.11181000  0.47190000  0.46891000  1.0 0.5229808812
C  C464  1  0.00299000  0.64290000  0.53109000  1.0 0.5229808812
C  C465  1  0.99701000  0.52810000  0.63991000  1.0 0.5229808812
C  C466  1  0.88819000  0.35710000  0.36009000  1.0 0.5229808812
C  C467  1  0.46891000  0.11181000  0.47190000  1.0 0.5229808812
C  C468  1  0.53109000  0.00299000  0.64290000  1.0 0.5229808812
C  C469  1  0.63991000  0.99701000  0.52810000  1.0 0.5229808812
C  C470  1  0.36009000  0.88819000  0.35710000  1.0 0.5229808812
C  C471  1  0.47190000  0.46891000  0.11181000  1.0 0.5229808812
C  C472  1  0.64290000  0.53109000  0.00299000  1.0 0.5229808812
C  C473  1  0.52810000  0.63991000  0.99701000  1.0 0.5229808812
C  C474  1  0.35710000  0.36009000  0.88819000  1.0 0.5229808812
C  C475  1  0.88819000  0.52810000  0.53109000  1.0 0.5229808812
C  C476  1  0.99701000  0.35710000  0.46891000  1.0 0.5229808812
C  C477  1  0.00299000  0.47190000  0.36009000  1.0 0.5229808812
C  C478  1  0.11181000  0.64290000  0.63991000  1.0 0.5229808812
C  C479  1  0.53109000  0.88819000  0.52810000  1.0 0.5229808812
C  C480  1  0.46891000  0.99701000  0.35710000  1.0 0.5229808812
C  C481  1  0.36009000  0.00299000  0.47190000  1.0 0.5229808812
C  C482  1  0.63991000  0.11181000  0.64290000  1.0 0.5229808812
C  C483  1  0.52810000  0.53109000  0.88819000  1.0 0.5229808812
C  C484  1  0.35710000  0.46891000  0.99701000  1.0 0.5229808812
C  C485  1  0.47190000  0.36009000  0.00299000  1.0 0.5229808812
C  C486  1  0.64290000  0.63991000  0.11181000  1.0 0.5229808812
C  C487  1  0.09210000  0.46150000  0.63060000  1.0 0.5229808812
C  C488  1  0.83090000  0.46150000  0.36940000  1.0 0.5250091721
C  C489  1  0.16910000  0.53850000  0.63060000  1.0 0.5229808812
C  C490  1  0.90790000  0.53850000  0.36940000  1.0 0.5250091721
C  C491  1  0.63060000  0.09210000  0.46150000  1.0 0.5250091721
C  C492  1  0.36940000  0.83090000  0.46150000  1.0 0.5250091721
C  C493  1  0.63060000  0.16910000  0.53850000  1.0 0.5250091721
C  C494  1  0.36940000  0.90790000  0.53850000  1.0 0.5250091721
C  C495  1  0.46150000  0.63060000  0.09210000  1.0 0.5250091721
C  C496  1  0.46150000  0.36940000  0.83090000  1.0 0.5250091721
C  C497  1  0.53850000  0.63060000  0.16910000  1.0 0.5229808812
C  C498  1  0.53850000  0.36940000  0.90790000  1.0 0.5250091721
C  C499  1  0.33547000  0.37922000  0.62171000  1.0 -0.1208240766
C  C500  1  0.75751000  0.71376000  0.37829000  1.0 -0.1208240766
C  C501  1  0.24249000  0.62078000  0.95625000  1.0 -0.1208240766
C  C502  1  0.66453000  0.28624000  0.04375000  1.0 -0.1208240766
C  C503  1  0.62171000  0.33547000  0.37922000  1.0 -0.1208240766
C  C504  1  0.37829000  0.75751000  0.71376000  1.0 -0.1208240766
C  C505  1  0.95625000  0.24249000  0.62078000  1.0 -0.1208240766
C  C506  1  0.04375000  0.66453000  0.28624000  1.0 -0.1208240766
C  C507  1  0.37922000  0.62171000  0.33547000  1.0 -0.1208240766
C  C508  1  0.71376000  0.37829000  0.75751000  1.0 -0.1208240766
C  C509  1  0.62078000  0.95625000  0.24249000  1.0 -0.1208240766
C  C510  1  0.28624000  0.04375000  0.66453000  1.0 -0.1208240766
C  C511  1  0.66453000  0.62078000  0.37829000  1.0 -0.1208240766
C  C512  1  0.24249000  0.28624000  0.62171000  1.0 -0.1208240766
C  C513  1  0.75751000  0.37922000  0.04375000  1.0 -0.1208240766
C  C514  1  0.33547000  0.71376000  0.95625000  1.0 -0.1208240766
C  C515  1  0.37829000  0.66453000  0.62078000  1.0 -0.1208240766
C  C516  1  0.62171000  0.24249000  0.28624000  1.0 -0.1208240766
C  C517  1  0.04375000  0.75751000  0.37922000  1.0 -0.1208240766
C  C518  1  0.95625000  0.33547000  0.71376000  1.0 -0.1208240766
C  C519  1  0.62078000  0.37829000  0.66453000  1.0 -0.1208240766
C  C520  1  0.28624000  0.62171000  0.24249000  1.0 -0.1208240766
C  C521  1  0.37922000  0.04375000  0.75751000  1.0 -0.1208240766
C  C522  1  0.71376000  0.95625000  0.33547000  1.0 -0.1208240766
C  C523  1  0.08185000  0.32475000  0.76690000  1.0 -0.0893341232
C  C524  1  0.55785000  0.31495000  0.23310000  1.0 -0.0893341232
C  C525  1  0.44215000  0.67525000  0.75710000  1.0 -0.0893341232
C  C526  1  0.91815000  0.68505000  0.24290000  1.0 -0.0893341232
C  C527  1  0.76690000  0.08185000  0.32475000  1.0 -0.0893341232
C  C528  1  0.23310000  0.55785000  0.31495000  1.0 -0.0893341232
C  C529  1  0.75710000  0.44215000  0.67525000  1.0 -0.0893341232
C  C530  1  0.24290000  0.91815000  0.68505000  1.0 -0.0893341232
C  C531  1  0.32475000  0.76690000  0.08185000  1.0 -0.0893341232
C  C532  1  0.31495000  0.23310000  0.55785000  1.0 -0.0893341232
C  C533  1  0.67525000  0.75710000  0.44215000  1.0 -0.0893341232
C  C534  1  0.68505000  0.24290000  0.91815000  1.0 -0.0893341232
C  C535  1  0.91815000  0.67525000  0.23310000  1.0 -0.0893341232
C  C536  1  0.44215000  0.68505000  0.76690000  1.0 -0.0893341232
C  C537  1  0.55785000  0.32475000  0.24290000  1.0 -0.0893341232
C  C538  1  0.08185000  0.31495000  0.75710000  1.0 -0.0893341232
C  C539  1  0.23310000  0.91815000  0.67525000  1.0 -0.0893341232
C  C540  1  0.76690000  0.44215000  0.68505000  1.0 -0.0893341232
C  C541  1  0.24290000  0.55785000  0.32475000  1.0 -0.0893341232
C  C542  1  0.75710000  0.08185000  0.31495000  1.0 -0.0893341232
C  C543  1  0.67525000  0.23310000  0.91815000  1.0 -0.0893341232
C  C544  1  0.68505000  0.76690000  0.44215000  1.0 -0.0893341232
C  C545  1  0.32475000  0.24290000  0.55785000  1.0 -0.0893341232
C  C546  1  0.31495000  0.75710000  0.08185000  1.0 -0.0893341232
C  C547  1  0.12256000  0.35676000  0.78100000  1.0 0.0409091223
C  C548  1  0.57576000  0.34156000  0.21900000  1.0 0.0409091223
C  C549  1  0.42424000  0.64324000  0.76580000  1.0 0.0409091223
C  C550  1  0.87744000  0.65844000  0.23420000  1.0 0.0409091223
C  C551  1  0.78100000  0.12256000  0.35676000  1.0 0.0409091223
C  C552  1  0.21900000  0.57576000  0.34156000  1.0 0.0409091223
C  C553  1  0.76580000  0.42424000  0.64324000  1.0 0.0409091223
C  C554  1  0.23420000  0.87744000  0.65844000  1.0 0.0409091223
C  C555  1  0.35676000  0.78100000  0.12256000  1.0 0.0409091223
C  C556  1  0.34156000  0.21900000  0.57576000  1.0 0.0409091223
C  C557  1  0.64324000  0.76580000  0.42424000  1.0 0.0409091223
C  C558  1  0.65844000  0.23420000  0.87744000  1.0 0.0409091223
C  C559  1  0.87744000  0.64324000  0.21900000  1.0 0.0409091223
C  C560  1  0.42424000  0.65844000  0.78100000  1.0 0.0409091223
C  C561  1  0.57576000  0.35676000  0.23420000  1.0 0.0409091223
C  C562  1  0.12256000  0.34156000  0.76580000  1.0 0.0409091223
C  C563  1  0.21900000  0.87744000  0.64324000  1.0 0.0409091223
C  C564  1  0.78100000  0.42424000  0.65844000  1.0 0.0409091223
C  C565  1  0.23420000  0.57576000  0.35676000  1.0 0.0409091223
C  C566  1  0.76580000  0.12256000  0.34156000  1.0 0.0409091223
C  C567  1  0.64324000  0.21900000  0.87744000  1.0 0.0409091223
C  C568  1  0.65844000  0.78100000  0.42424000  1.0 0.0409091223
C  C569  1  0.35676000  0.23420000  0.57576000  1.0 0.0409091223
C  C570  1  0.34156000  0.76580000  0.12256000  1.0 0.0409091223
C  C571  1  0.15492000  0.37664000  0.82328000  1.0 -0.0224654568
C  C572  1  0.55336000  0.33164000  0.17672000  1.0 -0.0224654568
C  C573  1  0.44664000  0.62336000  0.77828000  1.0 -0.0224654568
C  C574  1  0.84508000  0.66836000  0.22172000  1.0 -0.0224654568
C  C575  1  0.82328000  0.15492000  0.37664000  1.0 -0.0224654568
C  C576  1  0.17672000  0.55336000  0.33164000  1.0 -0.0224654568
C  C577  1  0.77828000  0.44664000  0.62336000  1.0 -0.0224654568
C  C578  1  0.22172000  0.84508000  0.66836000  1.0 -0.0224654568
C  C579  1  0.37664000  0.82328000  0.15492000  1.0 -0.0224654568
C  C580  1  0.33164000  0.17672000  0.55336000  1.0 -0.0224654568
C  C581  1  0.62336000  0.77828000  0.44664000  1.0 -0.0224654568
C  C582  1  0.66836000  0.22172000  0.84508000  1.0 -0.0224654568
C  C583  1  0.84508000  0.62336000  0.17672000  1.0 -0.0224654568
C  C584  1  0.44664000  0.66836000  0.82328000  1.0 -0.0224654568
C  C585  1  0.55336000  0.37664000  0.22172000  1.0 -0.0224654568
C  C586  1  0.15492000  0.33164000  0.77828000  1.0 -0.0224654568
C  C587  1  0.17672000  0.84508000  0.62336000  1.0 -0.0224654568
C  C588  1  0.82328000  0.44664000  0.66836000  1.0 -0.0224654568
C  C589  1  0.22172000  0.55336000  0.37664000  1.0 -0.0224654568
C  C590  1  0.77828000  0.15492000  0.33164000  1.0 -0.0224654568
C  C591  1  0.62336000  0.17672000  0.84508000  1.0 -0.0224654568
C  C592  1  0.66836000  0.82328000  0.44664000  1.0 -0.0224654568
C  C593  1  0.37664000  0.22172000  0.55336000  1.0 -0.0224654568
C  C594  1  0.33164000  0.77828000  0.15492000  1.0 -0.0224654568
C  C595  1  0.10583000  0.33248000  0.83735000  1.0 -0.1208240766
C  C596  1  0.49513000  0.26848000  0.16265000  1.0 -0.1208240766
C  C597  1  0.50487000  0.66752000  0.77335000  1.0 -0.1208240766
C  C598  1  0.89417000  0.73152000  0.22665000  1.0 -0.1208240766
C  C599  1  0.83735000  0.10583000  0.33248000  1.0 -0.1208240766
C  C600  1  0.16265000  0.49513000  0.26848000  1.0 -0.1073711299
C  C601  1  0.77335000  0.50487000  0.66752000  1.0 -0.1208240766
C  C602  1  0.22665000  0.89417000  0.73152000  1.0 -0.1208240766
C  C603  1  0.33248000  0.83735000  0.10583000  1.0 -0.1208240766
C  C604  1  0.26848000  0.16265000  0.49513000  1.0 -0.1208240766
C  C605  1  0.66752000  0.77335000  0.50487000  1.0 -0.1208240766
C  C606  1  0.73152000  0.22665000  0.89417000  1.0 -0.1208240766
C  C607  1  0.89417000  0.66752000  0.16265000  1.0 -0.1208240766
C  C608  1  0.50487000  0.73152000  0.83735000  1.0 -0.1208240766
C  C609  1  0.49513000  0.33248000  0.22665000  1.0 -0.1208240766
C  C610  1  0.10583000  0.26848000  0.77335000  1.0 -0.1208240766
C  C611  1  0.16265000  0.89417000  0.66752000  1.0 -0.1208240766
C  C612  1  0.83735000  0.50487000  0.73152000  1.0 -0.1208240766
C  C613  1  0.22665000  0.49513000  0.33248000  1.0 -0.1208240766
C  C614  1  0.77335000  0.10583000  0.26848000  1.0 -0.1208240766
C  C615  1  0.66752000  0.16265000  0.89417000  1.0 -0.1208240766
C  C616  1  0.73152000  0.83735000  0.50487000  1.0 -0.1208240766
C  C617  1  0.33248000  0.22665000  0.49513000  1.0 -0.1208240766
C  C618  1  0.26848000  0.77335000  0.10583000  1.0 -0.1208240766
C  C619  1  0.07351000  0.31261000  0.79510000  1.0 0.0232657736
C  C620  1  0.51751000  0.27841000  0.20490000  1.0 0.0232657736
C  C621  1  0.48249000  0.68739000  0.76090000  1.0 0.0232657736
C  C622  1  0.92649000  0.72159000  0.23910000  1.0 0.0232657736
C  C623  1  0.79510000  0.07351000  0.31261000  1.0 0.0232657736
C  C624  1  0.20490000  0.51751000  0.27841000  1.0 0.0232657736
C  C625  1  0.76090000  0.48249000  0.68739000  1.0 0.0232657736
C  C626  1  0.23910000  0.92649000  0.72159000  1.0 0.0232657736
C  C627  1  0.31261000  0.79510000  0.07351000  1.0 0.0232657736
C  C628  1  0.27841000  0.20490000  0.51751000  1.0 0.0232657736
C  C629  1  0.68739000  0.76090000  0.48249000  1.0 0.0232657736
C  C630  1  0.72159000  0.23910000  0.92649000  1.0 0.0232657736
C  C631  1  0.92649000  0.68739000  0.20490000  1.0 0.0232657736
C  C632  1  0.48249000  0.72159000  0.79510000  1.0 0.0232657736
C  C633  1  0.51751000  0.31261000  0.23910000  1.0 0.0232657736
C  C634  1  0.07351000  0.27841000  0.76090000  1.0 0.0232657736
C  C635  1  0.20490000  0.92649000  0.68739000  1.0 0.0232657736
C  C636  1  0.79510000  0.48249000  0.72159000  1.0 0.0232657736
C  C637  1  0.23910000  0.51751000  0.31261000  1.0 0.0232657736
C  C638  1  0.76090000  0.07351000  0.27841000  1.0 0.0232657736
C  C639  1  0.68739000  0.20490000  0.92649000  1.0 0.0232657736
C  C640  1  0.72159000  0.79510000  0.48249000  1.0 0.0232657736
C  C641  1  0.31261000  0.23910000  0.51751000  1.0 0.0232657736
C  C642  1  0.27841000  0.76090000  0.07351000  1.0 0.0232657736
C  C643  1  0.94630000  0.21130000  0.74440000  1.0 -0.0033162017
C  C644  1  0.46690000  0.20190000  0.25560000  1.0 -0.0033162017
C  C645  1  0.53310000  0.78870000  0.73500000  1.0 -0.0033162017
C  C646  1  0.05370000  0.79810000  0.26500000  1.0 -0.0033162017
C  C647  1  0.74440000  0.94630000  0.21130000  1.0 -0.0033162017
C  C648  1  0.25560000  0.46690000  0.20190000  1.0 -0.0033162017
C  C649  1  0.73500000  0.53310000  0.78870000  1.0 -0.0033162017
C  C650  1  0.26500000  0.05370000  0.79810000  1.0 -0.0033162017
C  C651  1  0.21130000  0.74440000  0.94630000  1.0 -0.0033162017
C  C652  1  0.20190000  0.25560000  0.46690000  1.0 -0.0033162017
C  C653  1  0.78870000  0.73500000  0.53310000  1.0 -0.0033162017
C  C654  1  0.79810000  0.26500000  0.05370000  1.0 -0.0033162017
C  C655  1  0.05370000  0.78870000  0.25560000  1.0 -0.0033162017
C  C656  1  0.53310000  0.79810000  0.74440000  1.0 -0.0033162017
C  C657  1  0.46690000  0.21130000  0.26500000  1.0 -0.0033162017
C  C658  1  0.94630000  0.20190000  0.73500000  1.0 -0.0033162017
C  C659  1  0.25560000  0.05370000  0.78870000  1.0 -0.0033162017
C  C660  1  0.74440000  0.53310000  0.79810000  1.0 -0.0033162017
C  C661  1  0.26500000  0.46690000  0.21130000  1.0 -0.0033162017
C  C662  1  0.73500000  0.94630000  0.20190000  1.0 -0.0033162017
C  C663  1  0.78870000  0.25560000  0.05370000  1.0 -0.0033162017
C  C664  1  0.79810000  0.74440000  0.53310000  1.0 -0.0033162017
C  C665  1  0.21130000  0.26500000  0.46690000  1.0 -0.0033162017
C  C666  1  0.20190000  0.73500000  0.94630000  1.0 -0.0033162017
C  C667  1  0.03030000  0.27500000  0.77810000  1.0 -0.0033162017
C  C668  1  0.49690000  0.25220000  0.22190000  1.0 -0.0033162017
C  C669  1  0.50310000  0.72500000  0.75530000  1.0 -0.0033162017
C  C670  1  0.96970000  0.74780000  0.24470000  1.0 -0.0033162017
C  C671  1  0.77810000  0.03030000  0.27500000  1.0 -0.0033162017
C  C672  1  0.22190000  0.49690000  0.25220000  1.0 -0.0033162017
C  C673  1  0.75530000  0.50310000  0.72500000  1.0 -0.0033162017
C  C674  1  0.24470000  0.96970000  0.74780000  1.0 -0.0033162017
C  C675  1  0.27500000  0.77810000  0.03030000  1.0 -0.0033162017
C  C676  1  0.25220000  0.22190000  0.49690000  1.0 -0.0033162017
C  C677  1  0.72500000  0.75530000  0.50310000  1.0 -0.0033162017
C  C678  1  0.74780000  0.24470000  0.96970000  1.0 -0.0033162017
C  C679  1  0.96970000  0.72500000  0.22190000  1.0 -0.0033162017
C  C680  1  0.50310000  0.74780000  0.77810000  1.0 -0.0033162017
C  C681  1  0.49690000  0.27500000  0.24470000  1.0 -0.0033162017
C  C682  1  0.03030000  0.25220000  0.75530000  1.0 -0.0033162017
C  C683  1  0.22190000  0.96970000  0.72500000  1.0 -0.0033162017
C  C684  1  0.77810000  0.50310000  0.74780000  1.0 -0.0033162017
C  C685  1  0.24470000  0.49690000  0.27500000  1.0 -0.0033162017
C  C686  1  0.75530000  0.03030000  0.25220000  1.0 -0.0033162017
C  C687  1  0.72500000  0.22190000  0.96970000  1.0 -0.0033162017
C  C688  1  0.74780000  0.77810000  0.50310000  1.0 -0.0033162017
C  C689  1  0.27500000  0.24470000  0.49690000  1.0 -0.0033162017
C  C690  1  0.25220000  0.75530000  0.03030000  1.0 -0.0033162017
C  C691  1  0.96570000  0.20800000  0.72050000  1.0 0.0088235394
C  C692  1  0.48750000  0.24520000  0.27950000  1.0 0.0088235394
C  C693  1  0.51250000  0.79200000  0.75770000  1.0 0.0088235394
C  C694  1  0.03430000  0.75480000  0.24230000  1.0 0.0088235394
C  C695  1  0.72050000  0.96570000  0.20800000  1.0 0.0088235394
C  C696  1  0.27950000  0.48750000  0.24520000  1.0 0.0088235394
C  C697  1  0.75770000  0.51250000  0.79200000  1.0 0.0088235394
C  C698  1  0.24230000  0.03430000  0.75480000  1.0 0.0088235394
C  C699  1  0.20800000  0.72050000  0.96570000  1.0 0.0088235394
C  C700  1  0.24520000  0.27950000  0.48750000  1.0 0.0088235394
C  C701  1  0.79200000  0.75770000  0.51250000  1.0 0.0088235394
C  C702  1  0.75480000  0.24230000  0.03430000  1.0 0.0088235394
C  C703  1  0.03430000  0.79200000  0.27950000  1.0 0.0088235394
C  C704  1  0.51250000  0.75480000  0.72050000  1.0 0.0088235394
C  C705  1  0.48750000  0.20800000  0.24230000  1.0 0.0088235394
C  C706  1  0.96570000  0.24520000  0.75770000  1.0 0.0088235394
C  C707  1  0.27950000  0.03430000  0.79200000  1.0 0.0088235394
C  C708  1  0.72050000  0.51250000  0.75480000  1.0 0.0088235394
C  C709  1  0.24230000  0.48750000  0.20800000  1.0 0.0088235394
C  C710  1  0.75770000  0.96570000  0.24520000  1.0 0.0088235394
C  C711  1  0.79200000  0.27950000  0.03430000  1.0 0.0088235394
C  C712  1  0.75480000  0.72050000  0.51250000  1.0 0.0088235394
C  C713  1  0.20800000  0.24230000  0.48750000  1.0 0.0088235394
C  C714  1  0.24520000  0.75770000  0.96570000  1.0 0.0088235394
C  C715  1  0.96890000  0.24660000  0.78550000  1.0 -0.0746695924
C  C716  1  0.46110000  0.18340000  0.21450000  1.0 -0.0746695924
C  C717  1  0.53890000  0.75340000  0.72230000  1.0 -0.0746695924
C  C718  1  0.03110000  0.81660000  0.27770000  1.0 -0.0746695924
C  C719  1  0.78550000  0.96890000  0.24660000  1.0 -0.0746695924
C  C720  1  0.21450000  0.46110000  0.18340000  1.0 -0.0746695924
C  C721  1  0.72230000  0.53890000  0.75340000  1.0 -0.0746695924
C  C722  1  0.27770000  0.03110000  0.81660000  1.0 -0.0746695924
C  C723  1  0.24660000  0.78550000  0.96890000  1.0 -0.0746695924
C  C724  1  0.18340000  0.21450000  0.46110000  1.0 -0.0746695924
C  C725  1  0.75340000  0.72230000  0.53890000  1.0 -0.0746695924
C  C726  1  0.81660000  0.27770000  0.03110000  1.0 -0.0746695924
C  C727  1  0.03110000  0.75340000  0.21450000  1.0 -0.0746695924
C  C728  1  0.53890000  0.81660000  0.78550000  1.0 -0.0746695924
C  C729  1  0.46110000  0.24660000  0.27770000  1.0 -0.0746695924
C  C730  1  0.96890000  0.18340000  0.72230000  1.0 -0.0746695924
C  C731  1  0.21450000  0.03110000  0.75340000  1.0 -0.0746695924
C  C732  1  0.78550000  0.53890000  0.81660000  1.0 -0.0746695924
C  C733  1  0.27770000  0.46110000  0.24660000  1.0 -0.0746695924
C  C734  1  0.72230000  0.96890000  0.18340000  1.0 -0.0746695924
C  C735  1  0.75340000  0.21450000  0.03110000  1.0 -0.0746695924
C  C736  1  0.81660000  0.78550000  0.53890000  1.0 -0.0746695924
C  C737  1  0.24660000  0.27770000  0.46110000  1.0 -0.0746695924
C  C738  1  0.18340000  0.72230000  0.96890000  1.0 -0.0746695924
C  C739  1  0.01110000  0.27840000  0.80230000  1.0 -0.1073711299
C  C740  1  0.47610000  0.20880000  0.19770000  1.0 -0.1073711299
C  C741  1  0.52390000  0.72160000  0.73270000  1.0 -0.1073711299
C  C742  1  0.98890000  0.79120000  0.26730000  1.0 -0.1073711299
C  C743  1  0.80230000  0.01110000  0.27840000  1.0 -0.1073711299
C  C744  1  0.19770000  0.47610000  0.20880000  1.0 -0.1073711299
C  C745  1  0.73270000  0.52390000  0.72160000  1.0 -0.1073711299
C  C746  1  0.26730000  0.98890000  0.79120000  1.0 -0.1073711299
C  C747  1  0.27840000  0.80230000  0.01110000  1.0 -0.1073711299
C  C748  1  0.20880000  0.19770000  0.47610000  1.0 -0.1073711299
C  C749  1  0.72160000  0.73270000  0.52390000  1.0 -0.1073711299
C  C750  1  0.79120000  0.26730000  0.98890000  1.0 -0.1073711299
C  C751  1  0.98890000  0.72160000  0.19770000  1.0 -0.1073711299
C  C752  1  0.52390000  0.79120000  0.80230000  1.0 -0.1073711299
C  C753  1  0.47610000  0.27840000  0.26730000  1.0 -0.1073711299
C  C754  1  0.01110000  0.20880000  0.73270000  1.0 -0.1073711299
C  C755  1  0.19770000  0.98890000  0.72160000  1.0 -0.1073711299
C  C756  1  0.80230000  0.52390000  0.79120000  1.0 -0.1073711299
C  C757  1  0.26730000  0.47610000  0.27840000  1.0 -0.1073711299
C  C758  1  0.73270000  0.01110000  0.20880000  1.0 -0.1073711299
C  C759  1  0.72160000  0.19770000  0.98890000  1.0 -0.1073711299
C  C760  1  0.79120000  0.80230000  0.52390000  1.0 -0.1073711299
C  C761  1  0.27840000  0.26730000  0.47610000  1.0 -0.1073711299
C  C762  1  0.20880000  0.73270000  0.01110000  1.0 -0.1073711299
C  C763  1  0.00810000  0.24020000  0.73670000  1.0 -0.0609279112
C  C764  1  0.50350000  0.27140000  0.26330000  1.0 -0.0609279112
C  C765  1  0.49650000  0.75980000  0.76790000  1.0 -0.0609279112
C  C766  1  0.99190000  0.72860000  0.23210000  1.0 -0.0609279112
C  C767  1  0.73670000  0.00810000  0.24020000  1.0 -0.0609279112
C  C768  1  0.26330000  0.50350000  0.27140000  1.0 -0.0609279112
C  C769  1  0.76790000  0.49650000  0.75980000  1.0 -0.0609279112
C  C770  1  0.23210000  0.99190000  0.72860000  1.0 -0.0609279112
C  C771  1  0.24020000  0.73670000  0.00810000  1.0 -0.0609279112
C  C772  1  0.27140000  0.26330000  0.50350000  1.0 -0.0609279112
C  C773  1  0.75980000  0.76790000  0.49650000  1.0 -0.0609279112
C  C774  1  0.72860000  0.23210000  0.99190000  1.0 -0.0609279112
C  C775  1  0.99190000  0.75980000  0.26330000  1.0 -0.0609279112
C  C776  1  0.49650000  0.72860000  0.73670000  1.0 -0.0609279112
C  C777  1  0.50350000  0.24020000  0.23210000  1.0 -0.0609279112
C  C778  1  0.00810000  0.27140000  0.76790000  1.0 -0.0609279112
C  C779  1  0.26330000  0.99190000  0.75980000  1.0 -0.0609279112
C  C780  1  0.73670000  0.49650000  0.72860000  1.0 -0.0609279112
C  C781  1  0.23210000  0.50350000  0.24020000  1.0 -0.0609279112
C  C782  1  0.76790000  0.00810000  0.27140000  1.0 -0.0609279112
C  C783  1  0.75980000  0.26330000  0.99190000  1.0 -0.0609279112
C  C784  1  0.72860000  0.73670000  0.49650000  1.0 -0.0609279112
C  C785  1  0.24020000  0.23210000  0.50350000  1.0 -0.0609279112
C  C786  1  0.27140000  0.76790000  0.00810000  1.0 -0.0609279112
C  C787  1  0.17419000  0.38691000  0.71808000  1.0 -0.1575812772
C  C788  1  0.66883000  0.45611000  0.28192000  1.0 -0.1575812772
C  C789  1  0.33117000  0.61309000  0.78728000  1.0 -0.1575812772
C  C790  1  0.82581000  0.54389000  0.21272000  1.0 -0.1575812772
C  C791  1  0.71808000  0.17419000  0.38691000  1.0 -0.1575812772
C  C792  1  0.28192000  0.66883000  0.45611000  1.0 -0.1575812772
C  C793  1  0.78728000  0.33117000  0.61309000  1.0 -0.1575812772
C  C794  1  0.21272000  0.82581000  0.54389000  1.0 -0.1575812772
C  C795  1  0.38691000  0.71808000  0.17419000  1.0 -0.1575812772
C  C796  1  0.45611000  0.28192000  0.66883000  1.0 -0.1575812772
C  C797  1  0.61309000  0.78728000  0.33117000  1.0 -0.1575812772
C  C798  1  0.54389000  0.21272000  0.82581000  1.0 -0.1575812772
C  C799  1  0.82581000  0.61309000  0.28192000  1.0 -0.1575812772
C  C800  1  0.33117000  0.54389000  0.71808000  1.0 -0.1575812772
C  C801  1  0.66883000  0.38691000  0.21272000  1.0 -0.1575812772
C  C802  1  0.17419000  0.45611000  0.78728000  1.0 -0.1575812772
C  C803  1  0.28192000  0.82581000  0.61309000  1.0 -0.1575812772
C  C804  1  0.71808000  0.33117000  0.54389000  1.0 -0.1575812772
C  C805  1  0.21272000  0.66883000  0.38691000  1.0 -0.1575812772
C  C806  1  0.78728000  0.17419000  0.45611000  1.0 -0.1575812772
C  C807  1  0.61309000  0.28192000  0.82581000  1.0 -0.1575812772
C  C808  1  0.54389000  0.71808000  0.33117000  1.0 -0.1575812772
C  C809  1  0.38691000  0.21272000  0.66883000  1.0 -0.1575812772
C  C810  1  0.45611000  0.78728000  0.17419000  1.0 -0.1575812772
C  C811  1  0.16834000  0.37764000  0.74870000  1.0 -0.0609279112
C  C812  1  0.62894000  0.41964000  0.25130000  1.0 -0.0609279112
C  C813  1  0.37106000  0.62236000  0.79070000  1.0 -0.0609279112
C  C814  1  0.83166000  0.58036000  0.20930000  1.0 -0.0609279112
C  C815  1  0.74870000  0.16834000  0.37764000  1.0 -0.0609279112
C  C816  1  0.25130000  0.62894000  0.41964000  1.0 -0.0609279112
C  C817  1  0.79070000  0.37106000  0.62236000  1.0 -0.0609279112
C  C818  1  0.20930000  0.83166000  0.58036000  1.0 -0.0609279112
C  C819  1  0.37764000  0.74870000  0.16834000  1.0 -0.0609279112
C  C820  1  0.41964000  0.25130000  0.62894000  1.0 -0.0609279112
C  C821  1  0.62236000  0.79070000  0.37106000  1.0 -0.0609279112
C  C822  1  0.58036000  0.20930000  0.83166000  1.0 -0.0609279112
C  C823  1  0.83166000  0.62236000  0.25130000  1.0 -0.0609279112
C  C824  1  0.37106000  0.58036000  0.74870000  1.0 -0.0609279112
C  C825  1  0.62894000  0.37764000  0.20930000  1.0 -0.0609279112
C  C826  1  0.16834000  0.41964000  0.79070000  1.0 -0.0609279112
C  C827  1  0.25130000  0.83166000  0.62236000  1.0 -0.0609279112
C  C828  1  0.74870000  0.37106000  0.58036000  1.0 -0.0609279112
C  C829  1  0.20930000  0.62894000  0.37764000  1.0 -0.0609279112
C  C830  1  0.79070000  0.16834000  0.41964000  1.0 -0.0609279112
C  C831  1  0.62236000  0.25130000  0.83166000  1.0 -0.0609279112
C  C832  1  0.58036000  0.74870000  0.37106000  1.0 -0.0609279112
C  C833  1  0.37764000  0.20930000  0.62894000  1.0 -0.0609279112
C  C834  1  0.41964000  0.79070000  0.16834000  1.0 -0.0609279112
C  C835  1  0.13042000  0.36962000  0.74960000  1.0 0.0700246197
C  C836  1  0.62002000  0.38082000  0.25040000  1.0 0.0700246197
C  C837  1  0.37998000  0.63038000  0.76080000  1.0 0.0700246197
C  C838  1  0.86958000  0.61918000  0.23920000  1.0 0.0700246197
C  C839  1  0.74960000  0.13042000  0.36962000  1.0 0.0700246197
C  C840  1  0.25040000  0.62002000  0.38082000  1.0 0.0700246197
C  C841  1  0.76080000  0.37998000  0.63038000  1.0 0.0700246197
C  C842  1  0.23920000  0.86958000  0.61918000  1.0 0.0700246197
C  C843  1  0.36962000  0.74960000  0.13042000  1.0 0.0700246197
C  C844  1  0.38082000  0.25040000  0.62002000  1.0 0.0700246197
C  C845  1  0.63038000  0.76080000  0.37998000  1.0 0.0700246197
C  C846  1  0.61918000  0.23920000  0.86958000  1.0 0.0700246197
C  C847  1  0.86958000  0.63038000  0.25040000  1.0 0.0700246197
C  C848  1  0.37998000  0.61918000  0.74960000  1.0 0.0700246197
C  C849  1  0.62002000  0.36962000  0.23920000  1.0 0.0700246197
C  C850  1  0.13042000  0.38082000  0.76080000  1.0 0.0700246197
C  C851  1  0.25040000  0.86958000  0.63038000  1.0 0.0700246197
C  C852  1  0.74960000  0.37998000  0.61918000  1.0 0.0700246197
C  C853  1  0.23920000  0.62002000  0.36962000  1.0 0.0700246197
C  C854  1  0.76080000  0.13042000  0.38082000  1.0 0.0700246197
C  C855  1  0.63038000  0.25040000  0.86958000  1.0 0.0700246197
C  C856  1  0.61918000  0.74960000  0.37998000  1.0 0.0700246197
C  C857  1  0.36962000  0.23920000  0.62002000  1.0 0.0700246197
C  C858  1  0.38082000  0.76080000  0.13042000  1.0 0.0700246197
C  C859  1  0.09835000  0.37096000  0.71999000  1.0 -0.1494414489
C  C860  1  0.65097000  0.37836000  0.28001000  1.0 -0.1494414489
C  C861  1  0.34903000  0.62904000  0.72739000  1.0 -0.1494414489
C  C862  1  0.90165000  0.62164000  0.27261000  1.0 -0.1494414489
C  C863  1  0.71999000  0.09835000  0.37096000  1.0 -0.1494414489
C  C864  1  0.28001000  0.65097000  0.37836000  1.0 -0.1494414489
C  C865  1  0.72739000  0.34903000  0.62904000  1.0 -0.1494414489
C  C866  1  0.27261000  0.90165000  0.62164000  1.0 -0.1494414489
C  C867  1  0.37096000  0.71999000  0.09835000  1.0 -0.1494414489
C  C868  1  0.37836000  0.28001000  0.65097000  1.0 -0.1494414489
C  C869  1  0.62904000  0.72739000  0.34903000  1.0 -0.1494414489
C  C870  1  0.62164000  0.27261000  0.90165000  1.0 -0.1494414489
C  C871  1  0.90165000  0.62904000  0.28001000  1.0 -0.1494414489
C  C872  1  0.34903000  0.62164000  0.71999000  1.0 -0.1494414489
C  C873  1  0.65097000  0.37096000  0.27261000  1.0 -0.1494414489
C  C874  1  0.09835000  0.37836000  0.72739000  1.0 -0.1494414489
C  C875  1  0.28001000  0.90165000  0.62904000  1.0 -0.1494414489
C  C876  1  0.71999000  0.34903000  0.62164000  1.0 -0.1494414489
C  C877  1  0.27261000  0.65097000  0.37096000  1.0 -0.1494414489
C  C878  1  0.72739000  0.09835000  0.37836000  1.0 -0.1494414489
C  C879  1  0.62904000  0.28001000  0.90165000  1.0 -0.1494414489
C  C880  1  0.62164000  0.71999000  0.34903000  1.0 -0.1494414489
C  C881  1  0.37096000  0.27261000  0.65097000  1.0 -0.1494414489
C  C882  1  0.37836000  0.72739000  0.09835000  1.0 -0.1494414489
C  C883  1  0.10420000  0.38023000  0.68937000  1.0 -0.011472803
C  C884  1  0.69086000  0.41483000  0.31063000  1.0 -0.011472803
C  C885  1  0.30914000  0.61977000  0.72397000  1.0 -0.011472803
C  C886  1  0.89580000  0.58517000  0.27603000  1.0 -0.011472803
C  C887  1  0.68937000  0.10420000  0.38023000  1.0 -0.011472803
C  C888  1  0.31063000  0.69086000  0.41483000  1.0 -0.011472803
C  C889  1  0.72397000  0.30914000  0.61977000  1.0 -0.011472803
C  C890  1  0.27603000  0.89580000  0.58517000  1.0 -0.011472803
C  C891  1  0.38023000  0.68937000  0.10420000  1.0 -0.011472803
C  C892  1  0.41483000  0.31063000  0.69086000  1.0 -0.011472803
C  C893  1  0.61977000  0.72397000  0.30914000  1.0 -0.011472803
C  C894  1  0.58517000  0.27603000  0.89580000  1.0 -0.011472803
C  C895  1  0.89580000  0.61977000  0.31063000  1.0 -0.011472803
C  C896  1  0.30914000  0.58517000  0.68937000  1.0 -0.011472803
C  C897  1  0.69086000  0.38023000  0.27603000  1.0 -0.011472803
C  C898  1  0.10420000  0.41483000  0.72397000  1.0 -0.011472803
C  C899  1  0.31063000  0.89580000  0.61977000  1.0 -0.011472803
C  C900  1  0.68937000  0.30914000  0.58517000  1.0 -0.011472803
C  C901  1  0.27603000  0.69086000  0.38023000  1.0 -0.011472803
C  C902  1  0.72397000  0.10420000  0.41483000  1.0 -0.011472803
C  C903  1  0.61977000  0.31063000  0.89580000  1.0 -0.011472803
C  C904  1  0.58517000  0.68937000  0.30914000  1.0 -0.011472803
C  C905  1  0.38023000  0.27603000  0.69086000  1.0 -0.011472803
C  C906  1  0.41483000  0.72397000  0.10420000  1.0 -0.011472803
C  C907  1  0.14213000  0.38823000  0.68844000  1.0 -0.1208240766
C  C908  1  0.69979000  0.45369000  0.31156000  1.0 -0.1208240766
C  C909  1  0.30021000  0.61177000  0.75390000  1.0 -0.1208240766
C  C910  1  0.85787000  0.54631000  0.24610000  1.0 -0.1208240766
C  C911  1  0.68844000  0.14213000  0.38823000  1.0 -0.1208240766
C  C912  1  0.31156000  0.69979000  0.45369000  1.0 -0.1208240766
C  C913  1  0.75390000  0.30021000  0.61177000  1.0 -0.1208240766
C  C914  1  0.24610000  0.85787000  0.54631000  1.0 -0.1208240766
C  C915  1  0.38823000  0.68844000  0.14213000  1.0 -0.1208240766
C  C916  1  0.45369000  0.31156000  0.69979000  1.0 -0.1208240766
C  C917  1  0.61177000  0.75390000  0.30021000  1.0 -0.1208240766
C  C918  1  0.54631000  0.24610000  0.85787000  1.0 -0.1208240766
C  C919  1  0.85787000  0.61177000  0.31156000  1.0 -0.1208240766
C  C920  1  0.30021000  0.54631000  0.68844000  1.0 -0.1208240766
C  C921  1  0.69979000  0.38823000  0.24610000  1.0 -0.1208240766
C  C922  1  0.14213000  0.45369000  0.75390000  1.0 -0.1208240766
C  C923  1  0.31156000  0.85787000  0.61177000  1.0 -0.1208240766
C  C924  1  0.68844000  0.30021000  0.54631000  1.0 -0.1208240766
C  C925  1  0.24610000  0.69979000  0.38823000  1.0 -0.1208240766
C  C926  1  0.75390000  0.14213000  0.45369000  1.0 -0.1208240766
C  C927  1  0.61177000  0.31156000  0.85787000  1.0 -0.1208240766
C  C928  1  0.54631000  0.68844000  0.30021000  1.0 -0.1208240766
C  C929  1  0.38823000  0.24610000  0.69979000  1.0 -0.1208240766
C  C930  1  0.45369000  0.75390000  0.14213000  1.0 -0.1208240766
C  C931  1  0.90030000  0.17760000  0.72270000  1.0 0.4672101606
C  C932  1  0.45490000  0.17760000  0.27730000  1.0 0.4672101606
C  C933  1  0.54510000  0.82240000  0.72270000  1.0 0.4672101606
C  C934  1  0.09970000  0.82240000  0.27730000  1.0 0.4672101606
C  C935  1  0.72270000  0.90030000  0.17760000  1.0 0.4672101606
C  C936  1  0.27730000  0.45490000  0.17760000  1.0 0.4672101606
C  C937  1  0.72270000  0.54510000  0.82240000  1.0 0.4672101606
C  C938  1  0.27730000  0.09970000  0.82240000  1.0 0.4672101606
C  C939  1  0.17760000  0.72270000  0.90030000  1.0 0.4672101606
C  C940  1  0.17760000  0.27730000  0.45490000  1.0 0.4672101606
C  C941  1  0.82240000  0.72270000  0.54510000  1.0 0.4672101606
C  C942  1  0.82240000  0.27730000  0.09970000  1.0 0.4672101606
C  C943  1  0.14936000  0.39586000  0.65530000  1.0 0.5478322376
C  C944  1  0.74056000  0.49406000  0.34470000  1.0 0.5478322376
C  C945  1  0.25944000  0.60414000  0.75350000  1.0 0.5478322376
C  C946  1  0.85064000  0.50594000  0.24650000  1.0 0.5478322376
C  C947  1  0.65530000  0.14936000  0.39586000  1.0 0.5478322376
C  C948  1  0.34470000  0.74056000  0.49406000  1.0 0.5478322376
C  C949  1  0.75350000  0.25944000  0.60414000  1.0 0.5478322376
C  C950  1  0.24650000  0.85064000  0.50594000  1.0 0.5478322376
C  C951  1  0.39586000  0.65530000  0.14936000  1.0 0.5478322376
C  C952  1  0.49406000  0.34470000  0.74056000  1.0 0.5478322376
C  C953  1  0.60414000  0.75350000  0.25944000  1.0 0.5478322376
C  C954  1  0.50594000  0.24650000  0.85064000  1.0 0.5478322376
C  C955  1  0.85064000  0.60414000  0.34470000  1.0 0.5478322376
C  C956  1  0.25944000  0.50594000  0.65530000  1.0 0.5478322376
C  C957  1  0.74056000  0.39586000  0.24650000  1.0 0.5478322376
C  C958  1  0.14936000  0.49406000  0.75350000  1.0 0.5478322376
C  C959  1  0.34470000  0.85064000  0.60414000  1.0 0.5478322376
C  C960  1  0.65530000  0.25944000  0.50594000  1.0 0.5478322376
C  C961  1  0.24650000  0.74056000  0.39586000  1.0 0.5478322376
C  C962  1  0.75350000  0.14936000  0.49406000  1.0 0.5478322376
C  C963  1  0.60414000  0.34470000  0.85064000  1.0 0.5478322376
C  C964  1  0.50594000  0.65530000  0.25944000  1.0 0.5478322376
C  C965  1  0.39586000  0.24650000  0.74056000  1.0 0.5478322376
C  C966  1  0.49406000  0.75350000  0.14936000  1.0 0.5478322376
C  C967  1  0.14500000  0.39470000  0.65310000  1.0 0.5478322376
C  C968  1  0.74160000  0.49190000  0.34690000  1.0 0.5478322376
C  C969  1  0.25840000  0.60530000  0.75030000  1.0 0.5478322376
C  C970  1  0.85500000  0.50810000  0.24970000  1.0 0.5478322376
C  C971  1  0.65310000  0.14500000  0.39470000  1.0 0.5478322376
C  C972  1  0.34690000  0.74160000  0.49190000  1.0 0.5478322376
C  C973  1  0.75030000  0.25840000  0.60530000  1.0 0.5478322376
C  C974  1  0.24970000  0.85500000  0.50810000  1.0 0.5478322376
C  C975  1  0.39470000  0.65310000  0.14500000  1.0 0.5478322376
C  C976  1  0.49190000  0.34690000  0.74160000  1.0 0.5478322376
C  C977  1  0.60530000  0.75030000  0.25840000  1.0 0.5478322376
C  C978  1  0.50810000  0.24970000  0.85500000  1.0 0.5478322376
C  C979  1  0.85500000  0.60530000  0.34690000  1.0 0.5478322376
C  C980  1  0.25840000  0.50810000  0.65310000  1.0 0.5478322376
C  C981  1  0.74160000  0.39470000  0.24970000  1.0 0.5478322376
C  C982  1  0.14500000  0.49190000  0.75030000  1.0 0.5478322376
C  C983  1  0.34690000  0.85500000  0.60530000  1.0 0.5478322376
C  C984  1  0.65310000  0.25840000  0.50810000  1.0 0.5478322376
C  C985  1  0.24970000  0.74160000  0.39470000  1.0 0.5478322376
C  C986  1  0.75030000  0.14500000  0.49190000  1.0 0.5478322376
C  C987  1  0.60530000  0.34690000  0.85500000  1.0 0.5478322376
C  C988  1  0.50810000  0.65310000  0.25840000  1.0 0.5478322376
C  C989  1  0.39470000  0.24970000  0.74160000  1.0 0.5478322376
C  C990  1  0.49190000  0.75030000  0.14500000  1.0 0.5478322376
N  N1  1  0.49700000  0.38576000  0.68316000  1.0 -0.1283131552
N  N2  1  0.70260000  0.81384000  0.31684000  1.0 -0.1283131552
N  N3  1  0.29740000  0.61424000  0.11124000  1.0 -0.1283131552
N  N4  1  0.50300000  0.18616000  0.88876000  1.0 -0.1283131552
N  N5  1  0.68316000  0.49700000  0.38576000  1.0 -0.1283131552
N  N6  1  0.31684000  0.70260000  0.81384000  1.0 -0.1283131552
N  N7  1  0.11124000  0.29740000  0.61424000  1.0 -0.1283131552
N  N8  1  0.88876000  0.50300000  0.18616000  1.0 -0.1283131552
N  N9  1  0.38576000  0.68316000  0.49700000  1.0 -0.1283131552
N  N10  1  0.81384000  0.31684000  0.70260000  1.0 -0.1283131552
N  N11  1  0.61424000  0.11124000  0.29740000  1.0 -0.1283131552
N  N12  1  0.18616000  0.88876000  0.50300000  1.0 -0.1283131552
N  N13  1  0.50300000  0.61424000  0.31684000  1.0 -0.1283131552
N  N14  1  0.29740000  0.18616000  0.68316000  1.0 -0.1283131552
N  N15  1  0.70260000  0.38576000  0.88876000  1.0 -0.1283131552
N  N16  1  0.49700000  0.81384000  0.11124000  1.0 -0.1283131552
N  N17  1  0.31684000  0.50300000  0.61424000  1.0 -0.1283131552
N  N18  1  0.68316000  0.29740000  0.18616000  1.0 -0.1283131552
N  N19  1  0.88876000  0.70260000  0.38576000  1.0 -0.1283131552
N  N20  1  0.11124000  0.49700000  0.81384000  1.0 -0.1283131552
N  N21  1  0.61424000  0.31684000  0.50300000  1.0 -0.1283131552
N  N22  1  0.18616000  0.68316000  0.29740000  1.0 -0.1283131552
N  N23  1  0.38576000  0.88876000  0.70260000  1.0 -0.1283131552
N  N24  1  0.81384000  0.11124000  0.49700000  1.0 -0.1283131552
N  N25  1  0.14656000  0.36450000  0.85146000  1.0 -0.2182515803
N  N26  1  0.51304000  0.29510000  0.14854000  1.0 -0.2182515803
N  N27  1  0.48696000  0.63550000  0.78206000  1.0 -0.2182515803
N  N28  1  0.85344000  0.70490000  0.21794000  1.0 -0.2182515803
N  N29  1  0.85146000  0.14656000  0.36450000  1.0 -0.2182515803
N  N30  1  0.14854000  0.51304000  0.29510000  1.0 -0.2182515803
N  N31  1  0.78206000  0.48696000  0.63550000  1.0 -0.2182515803
N  N32  1  0.21794000  0.85344000  0.70490000  1.0 -0.2182515803
N  N33  1  0.36450000  0.85146000  0.14656000  1.0 -0.2182515803
N  N34  1  0.29510000  0.14854000  0.51304000  1.0 -0.2182515803
N  N35  1  0.63550000  0.78206000  0.48696000  1.0 -0.2182515803
N  N36  1  0.70490000  0.21794000  0.85344000  1.0 -0.2182515803
N  N37  1  0.85344000  0.63550000  0.14854000  1.0 -0.2182515803
N  N38  1  0.48696000  0.70490000  0.85146000  1.0 -0.2182515803
N  N39  1  0.51304000  0.36450000  0.21794000  1.0 -0.2182515803
N  N40  1  0.14656000  0.29510000  0.78206000  1.0 -0.2182515803
N  N41  1  0.14854000  0.85344000  0.63550000  1.0 -0.2182515803
N  N42  1  0.85146000  0.48696000  0.70490000  1.0 -0.2182515803
N  N43  1  0.21794000  0.51304000  0.36450000  1.0 -0.2182515803
N  N44  1  0.78206000  0.14656000  0.29510000  1.0 -0.2182515803
N  N45  1  0.63550000  0.14854000  0.85344000  1.0 -0.2182515803
N  N46  1  0.70490000  0.85146000  0.48696000  1.0 -0.2182515803
N  N47  1  0.36450000  0.21794000  0.51304000  1.0 -0.2182515803
N  N48  1  0.29510000  0.78206000  0.14656000  1.0 -0.2182515803
O  O1  1  0.09723000  0.42001000  0.51724000  1.0 -0.9027566921
O  O2  1  0.90277000  0.57999000  0.48276000  1.0 -0.9027566921
O  O3  1  0.09723000  0.57999000  0.67722000  1.0 -0.9027566921
O  O4  1  0.90277000  0.42001000  0.32278000  1.0 -0.9027566921
O  O5  1  0.51724000  0.09723000  0.42001000  1.0 -0.9063153844
O  O6  1  0.48276000  0.90277000  0.57999000  1.0 -0.9027566921
O  O7  1  0.67722000  0.09723000  0.57999000  1.0 -0.9027566921
O  O8  1  0.32278000  0.90277000  0.42001000  1.0 -0.9027566921
O  O9  1  0.42001000  0.51724000  0.09723000  1.0 -0.9027566921
O  O10  1  0.57999000  0.48276000  0.90277000  1.0 -0.9063153844
O  O11  1  0.57999000  0.67722000  0.09723000  1.0 -0.9063153844
O  O12  1  0.42001000  0.32278000  0.90277000  1.0 -0.9063153844
O  O13  1  0.15828000  0.42024000  0.57852000  1.0 -0.9831457665
O  O14  1  0.84172000  0.57976000  0.42148000  1.0 -0.9831457665
O  O15  1  0.15828000  0.57976000  0.73804000  1.0 -0.9831457665
O  O16  1  0.84172000  0.42024000  0.26196000  1.0 -0.9831457665
O  O17  1  0.57852000  0.15828000  0.42024000  1.0 -0.9831457665
O  O18  1  0.42148000  0.84172000  0.57976000  1.0 -0.9831457665
O  O19  1  0.73804000  0.15828000  0.57976000  1.0 -0.9831457665
O  O20  1  0.26196000  0.84172000  0.42024000  1.0 -0.9831457665
O  O21  1  0.42024000  0.57852000  0.15828000  1.0 -0.9831457665
O  O22  1  0.57976000  0.42148000  0.84172000  1.0 -0.9831457665
O  O23  1  0.57976000  0.73804000  0.15828000  1.0 -0.9831457665
O  O24  1  0.42024000  0.26196000  0.84172000  1.0 -0.9831457665
O  O25  1  0.11982000  0.32301000  0.44283000  1.0 -0.9027566921
O  O26  1  0.88018000  0.67699000  0.55717000  1.0 -0.9027566921
O  O27  1  0.11982000  0.67699000  0.79681000  1.0 -0.9027566921
O  O28  1  0.88018000  0.32301000  0.20319000  1.0 -0.9027566921
O  O29  1  0.44283000  0.11982000  0.32301000  1.0 -0.9027566921
O  O30  1  0.55717000  0.88018000  0.67699000  1.0 -0.9027566921
O  O31  1  0.79681000  0.11982000  0.67699000  1.0 -0.9027566921
O  O32  1  0.20319000  0.88018000  0.32301000  1.0 -0.9027566921
O  O33  1  0.32301000  0.44283000  0.11982000  1.0 -0.9027566921
O  O34  1  0.67699000  0.55717000  0.88018000  1.0 -0.9027566921
O  O35  1  0.67699000  0.79681000  0.11982000  1.0 -0.9027566921
O  O36  1  0.32301000  0.20319000  0.88018000  1.0 -0.9027566921
O  O37  1  0.22607000  0.43660000  0.56339000  1.0 -0.8091322115
O  O38  1  0.87321000  0.66268000  0.43661000  1.0 -0.8091322115
O  O39  1  0.12679000  0.56340000  0.78947000  1.0 -0.8091322115
O  O40  1  0.77393000  0.33732000  0.21053000  1.0 -0.8091322115
O  O41  1  0.56339000  0.22607000  0.43660000  1.0 -0.8091322115
O  O42  1  0.43661000  0.87321000  0.66268000  1.0 -0.8091322115
O  O43  1  0.78947000  0.12679000  0.56340000  1.0 -0.8091322115
O  O44  1  0.21053000  0.77393000  0.33732000  1.0 -0.8091322115
O  O45  1  0.43660000  0.56339000  0.22607000  1.0 -0.8091322115
O  O46  1  0.66268000  0.43661000  0.87321000  1.0 -0.8091322115
O  O47  1  0.56340000  0.78947000  0.12679000  1.0 -0.8091322115
O  O48  1  0.33732000  0.21053000  0.77393000  1.0 -0.8091322115
O  O49  1  0.77393000  0.56340000  0.43661000  1.0 -0.8091322115
O  O50  1  0.12679000  0.33732000  0.56339000  1.0 -0.8091322115
O  O51  1  0.87321000  0.43660000  0.21053000  1.0 -0.8091322115
O  O52  1  0.22607000  0.66268000  0.78947000  1.0 -0.8091322115
O  O53  1  0.43661000  0.77393000  0.56340000  1.0 -0.8091322115
O  O54  1  0.56339000  0.12679000  0.33732000  1.0 -0.8091322115
O  O55  1  0.21053000  0.87321000  0.43660000  1.0 -0.8091322115
O  O56  1  0.78947000  0.22607000  0.66268000  1.0 -0.8091322115
O  O57  1  0.56340000  0.43661000  0.77393000  1.0 -0.8091322115
O  O58  1  0.33732000  0.56339000  0.12679000  1.0 -0.8091322115
O  O59  1  0.43660000  0.21053000  0.87321000  1.0 -0.8091322115
O  O60  1  0.66268000  0.78947000  0.22607000  1.0 -0.8091322115
O  O61  1  0.17552000  0.34949000  0.52501000  1.0 -1.0601777366
O  O62  1  0.82448000  0.65051000  0.47499000  1.0 -1.0601777366
O  O63  1  0.17552000  0.65051000  0.82603000  1.0 -1.0601777366
O  O64  1  0.82448000  0.34949000  0.17397000  1.0 -1.0601777366
O  O65  1  0.52501000  0.17552000  0.34949000  1.0 -1.0601777366
O  O66  1  0.47499000  0.82448000  0.65051000  1.0 -1.0601777366
O  O67  1  0.82603000  0.17552000  0.65051000  1.0 -1.0601777366
O  O68  1  0.17397000  0.82448000  0.34949000  1.0 -1.0601777366
O  O69  1  0.34949000  0.52501000  0.17552000  1.0 -1.0601777366
O  O70  1  0.65051000  0.47499000  0.82448000  1.0 -1.0601777366
O  O71  1  0.65051000  0.82603000  0.17552000  1.0 -1.0601777366
O  O72  1  0.34949000  0.17397000  0.82448000  1.0 -1.0601777366
O  O73  1  0.53643000  0.22884000  0.50179000  1.0 -0.5782848429
O  O74  1  0.72705000  0.03464000  0.49821000  1.0 -0.5782848429
O  O75  1  0.27295000  0.77116000  0.30759000  1.0 -0.5782848429
O  O76  1  0.46357000  0.96536000  0.69241000  1.0 -0.5782848429
O  O77  1  0.50179000  0.53643000  0.22884000  1.0 -0.5782848429
O  O78  1  0.49821000  0.72705000  0.03464000  1.0 -0.5782848429
O  O79  1  0.30759000  0.27295000  0.77116000  1.0 -0.5782848429
O  O80  1  0.69241000  0.46357000  0.96536000  1.0 -0.5782848429
O  O81  1  0.22884000  0.50179000  0.53643000  1.0 -0.5782848429
O  O82  1  0.03464000  0.49821000  0.72705000  1.0 -0.5782848429
O  O83  1  0.77116000  0.30759000  0.27295000  1.0 -0.5782848429
O  O84  1  0.96536000  0.69241000  0.46357000  1.0 -0.5782848429
O  O85  1  0.46357000  0.77116000  0.49821000  1.0 -0.5782848429
O  O86  1  0.27295000  0.96536000  0.50179000  1.0 -0.5782848429
O  O87  1  0.72705000  0.22884000  0.69241000  1.0 -0.5782848429
O  O88  1  0.53643000  0.03464000  0.30759000  1.0 -0.5782848429
O  O89  1  0.49821000  0.46357000  0.77116000  1.0 -0.5782848429
O  O90  1  0.50179000  0.27295000  0.96536000  1.0 -0.5782848429
O  O91  1  0.69241000  0.72705000  0.22884000  1.0 -0.5782848429
O  O92  1  0.30759000  0.53643000  0.03464000  1.0 -0.5782848429
O  O93  1  0.77116000  0.49821000  0.46357000  1.0 -0.5782848429
O  O94  1  0.96536000  0.50179000  0.27295000  1.0 -0.5782848429
O  O95  1  0.22884000  0.69241000  0.72705000  1.0 -0.5782848429
O  O96  1  0.03464000  0.30759000  0.53643000  1.0 -0.5782848429
O  O97  1  0.02507000  0.34998000  0.37505000  1.0 -0.4881270178
O  O98  1  0.97493000  0.65002000  0.62495000  1.0 -0.4881270178
O  O99  1  0.02507000  0.65002000  0.67509000  1.0 -0.4881270178
O  O100  1  0.97493000  0.34998000  0.32491000  1.0 -0.4881270178
O  O101  1  0.37505000  0.02507000  0.34998000  1.0 -0.4881270178
O  O102  1  0.62495000  0.97493000  0.65002000  1.0 -0.4881270178
O  O103  1  0.67509000  0.02507000  0.65002000  1.0 -0.4881270178
O  O104  1  0.32491000  0.97493000  0.34998000  1.0 -0.4881270178
O  O105  1  0.34998000  0.37505000  0.02507000  1.0 -0.4881270178
O  O106  1  0.65002000  0.62495000  0.97493000  1.0 -0.4881270178
O  O107  1  0.65002000  0.67509000  0.02507000  1.0 -0.4881270178
O  O108  1  0.34998000  0.32491000  0.97493000  1.0 -0.4881270178
O  O109  1  0.26564000  0.38525000  0.53563000  1.0 -0.5939669143
O  O110  1  0.84962000  0.73001000  0.46437000  1.0 -0.5939669143
O  O111  1  0.15038000  0.61475000  0.88039000  1.0 -0.5939669143
O  O112  1  0.73436000  0.26999000  0.11961000  1.0 -0.5939669143
O  O113  1  0.53563000  0.26564000  0.38525000  1.0 -0.5939669143
O  O114  1  0.46437000  0.84962000  0.73001000  1.0 -0.5939669143
O  O115  1  0.88039000  0.15038000  0.61475000  1.0 -0.5939669143
O  O116  1  0.11961000  0.73436000  0.26999000  1.0 -0.5939669143
O  O117  1  0.38525000  0.53563000  0.26564000  1.0 -0.5939669143
O  O118  1  0.73001000  0.46437000  0.84962000  1.0 -0.5939669143
O  O119  1  0.61475000  0.88039000  0.15038000  1.0 -0.5939669143
O  O120  1  0.26999000  0.11961000  0.73436000  1.0 -0.5939669143
O  O121  1  0.73436000  0.61475000  0.46437000  1.0 -0.5939669143
O  O122  1  0.15038000  0.26999000  0.53563000  1.0 -0.5939669143
O  O123  1  0.84962000  0.38525000  0.11961000  1.0 -0.5939669143
O  O124  1  0.26564000  0.73001000  0.88039000  1.0 -0.5939669143
O  O125  1  0.46437000  0.73436000  0.61475000  1.0 -0.5939669143
O  O126  1  0.53563000  0.15038000  0.26999000  1.0 -0.5939669143
O  O127  1  0.11961000  0.84962000  0.38525000  1.0 -0.5939669143
O  O128  1  0.88039000  0.26564000  0.73001000  1.0 -0.5939669143
O  O129  1  0.61475000  0.46437000  0.73436000  1.0 -0.5939669143
O  O130  1  0.26999000  0.53563000  0.15038000  1.0 -0.5939669143
O  O131  1  0.38525000  0.11961000  0.84962000  1.0 -0.5939669143
O  O132  1  0.73001000  0.88039000  0.26564000  1.0 -0.5939669143
O  O133  1  0.15299000  0.40864000  0.48969000  1.0 -1.0601777366
O  O134  1  0.91895000  0.66330000  0.51031000  1.0 -1.0601777366
O  O135  1  0.08105000  0.59136000  0.74435000  1.0 -1.0601777366
O  O136  1  0.84701000  0.33670000  0.25565000  1.0 -1.0601777366
O  O137  1  0.48969000  0.15299000  0.40864000  1.0 -1.0601777366
O  O138  1  0.51031000  0.91895000  0.66330000  1.0 -1.0601777366
O  O139  1  0.74435000  0.08105000  0.59136000  1.0 -1.0601777366
O  O140  1  0.25565000  0.84701000  0.33670000  1.0 -1.0601777366
O  O141  1  0.40864000  0.48969000  0.15299000  1.0 -1.0601777366
O  O142  1  0.66330000  0.51031000  0.91895000  1.0 -1.0601777366
O  O143  1  0.59136000  0.74435000  0.08105000  1.0 -1.0601777366
O  O144  1  0.33670000  0.25565000  0.84701000  1.0 -1.0601777366
O  O145  1  0.84701000  0.59136000  0.51031000  1.0 -1.0601777366
O  O146  1  0.08105000  0.33670000  0.48969000  1.0 -1.0601777366
O  O147  1  0.91895000  0.40864000  0.25565000  1.0 -1.0601777366
O  O148  1  0.15299000  0.66330000  0.74435000  1.0 -1.0601777366
O  O149  1  0.51031000  0.84701000  0.59136000  1.0 -1.0601777366
O  O150  1  0.48969000  0.08105000  0.33670000  1.0 -1.0601777366
O  O151  1  0.25565000  0.91895000  0.40864000  1.0 -1.0601777366
O  O152  1  0.74435000  0.15299000  0.66330000  1.0 -1.0601777366
O  O153  1  0.59136000  0.51031000  0.84701000  1.0 -1.0601777366
O  O154  1  0.33670000  0.48969000  0.08105000  1.0 -1.0601777366
O  O155  1  0.40864000  0.25565000  0.91895000  1.0 -1.0601777366
O  O156  1  0.66330000  0.74435000  0.15299000  1.0 -1.0601777366
O  O157  1  0.26855000  0.39562000  0.59791000  1.0 -0.5492805745
O  O158  1  0.79771000  0.67064000  0.40209000  1.0 -0.5492805745
O  O159  1  0.20229000  0.60438000  0.87293000  1.0 -0.5492805745
O  O160  1  0.73145000  0.32936000  0.12707000  1.0 -0.5492805745
O  O161  1  0.59791000  0.26855000  0.39562000  1.0 -0.5492805745
O  O162  1  0.40209000  0.79771000  0.67064000  1.0 -0.5492805745
O  O163  1  0.87293000  0.20229000  0.60438000  1.0 -0.5492805745
O  O164  1  0.12707000  0.73145000  0.32936000  1.0 -0.5492805745
O  O165  1  0.39562000  0.59791000  0.26855000  1.0 -0.5492805745
O  O166  1  0.67064000  0.40209000  0.79771000  1.0 -0.5492805745
O  O167  1  0.60438000  0.87293000  0.20229000  1.0 -0.5492805745
O  O168  1  0.32936000  0.12707000  0.73145000  1.0 -0.5492805745
O  O169  1  0.73145000  0.60438000  0.40209000  1.0 -0.5492805745
O  O170  1  0.20229000  0.32936000  0.59791000  1.0 -0.5492805745
O  O171  1  0.79771000  0.39562000  0.12707000  1.0 -0.5492805745
O  O172  1  0.26855000  0.67064000  0.87293000  1.0 -0.5492805745
O  O173  1  0.40209000  0.73145000  0.60438000  1.0 -0.5492805745
O  O174  1  0.59791000  0.20229000  0.32936000  1.0 -0.5492805745
O  O175  1  0.12707000  0.79771000  0.39562000  1.0 -0.5492805745
O  O176  1  0.87293000  0.26855000  0.67064000  1.0 -0.5492805745
O  O177  1  0.60438000  0.40209000  0.73145000  1.0 -0.5492805745
O  O178  1  0.32936000  0.59791000  0.20229000  1.0 -0.5492805745
O  O179  1  0.39562000  0.12707000  0.79771000  1.0 -0.5492805745
O  O180  1  0.67064000  0.87293000  0.26855000  1.0 -0.5492805745
O  O181  1  0.14249000  0.49154000  0.50625000  1.0 -0.5036679131
O  O182  1  0.98529000  0.63624000  0.49375000  1.0 -0.5036679131
O  O183  1  0.01471000  0.50846000  0.65095000  1.0 -0.5036679131
O  O184  1  0.85751000  0.36376000  0.34905000  1.0 -0.5036679131
O  O185  1  0.50625000  0.14249000  0.49154000  1.0 -0.5036679131
O  O186  1  0.49375000  0.98529000  0.63624000  1.0 -0.5036679131
O  O187  1  0.65095000  0.01471000  0.50846000  1.0 -0.5036679131
O  O188  1  0.34905000  0.85751000  0.36376000  1.0 -0.5036679131
O  O189  1  0.49154000  0.50625000  0.14249000  1.0 -0.5036679131
O  O190  1  0.63624000  0.49375000  0.98529000  1.0 -0.5036679131
O  O191  1  0.50846000  0.65095000  0.01471000  1.0 -0.5036679131
O  O192  1  0.36376000  0.34905000  0.85751000  1.0 -0.5036679131
O  O193  1  0.85751000  0.50846000  0.49375000  1.0 -0.5036679131
O  O194  1  0.01471000  0.36376000  0.50625000  1.0 -0.5036679131
O  O195  1  0.98529000  0.49154000  0.34905000  1.0 -0.5036679131
O  O196  1  0.14249000  0.63624000  0.65095000  1.0 -0.5036679131
O  O197  1  0.49375000  0.85751000  0.50846000  1.0 -0.5036679131
O  O198  1  0.50625000  0.01471000  0.36376000  1.0 -0.5036679131
O  O199  1  0.34905000  0.98529000  0.49154000  1.0 -0.5036679131
O  O200  1  0.65095000  0.14249000  0.63624000  1.0 -0.5036679131
O  O201  1  0.50846000  0.49375000  0.85751000  1.0 -0.5036679131
O  O202  1  0.36376000  0.50625000  0.01471000  1.0 -0.5036679131
O  O203  1  0.49154000  0.34905000  0.98529000  1.0 -0.5036679131
O  O204  1  0.63624000  0.65095000  0.14249000  1.0 -0.5036679131
O  O205  1  0.16968000  0.36895000  0.41403000  1.0 -0.5380917247
O  O206  1  0.95492000  0.75565000  0.58597000  1.0 -0.5380917247
O  O207  1  0.04508000  0.63105000  0.80073000  1.0 -0.5380917247
O  O208  1  0.83032000  0.24435000  0.19927000  1.0 -0.5380917247
O  O209  1  0.41403000  0.16968000  0.36895000  1.0 -0.5380917247
O  O210  1  0.58597000  0.95492000  0.75565000  1.0 -0.5380917247
O  O211  1  0.80073000  0.04508000  0.63105000  1.0 -0.5380917247
O  O212  1  0.19927000  0.83032000  0.24435000  1.0 -0.5380917247
O  O213  1  0.36895000  0.41403000  0.16968000  1.0 -0.5380917247
O  O214  1  0.75565000  0.58597000  0.95492000  1.0 -0.5380917247
O  O215  1  0.63105000  0.80073000  0.04508000  1.0 -0.5380917247
O  O216  1  0.24435000  0.19927000  0.83032000  1.0 -0.5380917247
O  O217  1  0.83032000  0.63105000  0.58597000  1.0 -0.5380917247
O  O218  1  0.04508000  0.24435000  0.41403000  1.0 -0.5380917247
O  O219  1  0.95492000  0.36895000  0.19927000  1.0 -0.5380917247
O  O220  1  0.16968000  0.75565000  0.80073000  1.0 -0.5380917247
O  O221  1  0.58597000  0.83032000  0.63105000  1.0 -0.5380917247
O  O222  1  0.41403000  0.04508000  0.24435000  1.0 -0.5380917247
O  O223  1  0.19927000  0.95492000  0.36895000  1.0 -0.5380917247
O  O224  1  0.80073000  0.16968000  0.75565000  1.0 -0.5380917247
O  O225  1  0.63105000  0.58597000  0.83032000  1.0 -0.5380917247
O  O226  1  0.24435000  0.41403000  0.04508000  1.0 -0.5380917247
O  O227  1  0.36895000  0.19927000  0.95492000  1.0 -0.5380917247
O  O228  1  0.75565000  0.80073000  0.16968000  1.0 -0.5380917247
O  O229  1  0.10436000  0.36268000  0.39058000  1.0 -0.5036679131
O  O230  1  0.97210000  0.71378000  0.60942000  1.0 -0.5036679131
O  O231  1  0.02790000  0.63732000  0.74168000  1.0 -0.510775453
O  O232  1  0.89564000  0.28622000  0.25832000  1.0 -0.5036679131
O  O233  1  0.39058000  0.10436000  0.36268000  1.0 -0.5036679131
O  O234  1  0.60942000  0.97210000  0.71378000  1.0 -0.5036679131
O  O235  1  0.74168000  0.02790000  0.63732000  1.0 -0.510775453
O  O236  1  0.25832000  0.89564000  0.28622000  1.0 -0.5036679131
O  O237  1  0.36268000  0.39058000  0.10436000  1.0 -0.5036679131
O  O238  1  0.71378000  0.60942000  0.97210000  1.0 -0.5036679131
O  O239  1  0.63732000  0.74168000  0.02790000  1.0 -0.5036679131
O  O240  1  0.28622000  0.25832000  0.89564000  1.0 -0.5036679131
O  O241  1  0.89564000  0.63732000  0.60942000  1.0 -0.5036679131
O  O242  1  0.02790000  0.28622000  0.39058000  1.0 -0.5036679131
O  O243  1  0.97210000  0.36268000  0.25832000  1.0 -0.5036679131
O  O244  1  0.10436000  0.71378000  0.74168000  1.0 -0.5036679131
O  O245  1  0.60942000  0.89564000  0.63732000  1.0 -0.5036679131
O  O246  1  0.39058000  0.02790000  0.28622000  1.0 -0.5036679131
O  O247  1  0.25832000  0.97210000  0.36268000  1.0 -0.5036679131
O  O248  1  0.74168000  0.10436000  0.71378000  1.0 -0.5036679131
O  O249  1  0.63732000  0.60942000  0.89564000  1.0 -0.5036679131
O  O250  1  0.28622000  0.39058000  0.02790000  1.0 -0.5036679131
O  O251  1  0.36268000  0.25832000  0.97210000  1.0 -0.5036679131
O  O252  1  0.71378000  0.74168000  0.10436000  1.0 -0.5036679131
O  O253  1  0.09034000  0.43279000  0.44437000  1.0 -0.5288528814
O  O254  1  0.98842000  0.64597000  0.55563000  1.0 -0.5288528814
O  O255  1  0.01158000  0.56721000  0.65755000  1.0 -0.5288528814
O  O256  1  0.90966000  0.35403000  0.34245000  1.0 -0.5288528814
O  O257  1  0.44437000  0.09034000  0.43279000  1.0 -0.5288528814
O  O258  1  0.55563000  0.98842000  0.64597000  1.0 -0.5288528814
O  O259  1  0.65755000  0.01158000  0.56721000  1.0 -0.5288528814
O  O260  1  0.34245000  0.90966000  0.35403000  1.0 -0.5288528814
O  O261  1  0.43279000  0.44437000  0.09034000  1.0 -0.5288528814
O  O262  1  0.64597000  0.55563000  0.98842000  1.0 -0.5288528814
O  O263  1  0.56721000  0.65755000  0.01158000  1.0 -0.5288528814
O  O264  1  0.35403000  0.34245000  0.90966000  1.0 -0.5288528814
O  O265  1  0.90966000  0.56721000  0.55563000  1.0 -0.5288528814
O  O266  1  0.01158000  0.35403000  0.44437000  1.0 -0.5288528814
O  O267  1  0.98842000  0.43279000  0.34245000  1.0 -0.5288528814
O  O268  1  0.09034000  0.64597000  0.65755000  1.0 -0.5288528814
O  O269  1  0.55563000  0.90966000  0.56721000  1.0 -0.5288528814
O  O270  1  0.44437000  0.01158000  0.35403000  1.0 -0.5288528814
O  O271  1  0.34245000  0.98842000  0.43279000  1.0 -0.5288528814
O  O272  1  0.65755000  0.09034000  0.64597000  1.0 -0.5288528814
O  O273  1  0.56721000  0.55563000  0.90966000  1.0 -0.5288528814
O  O274  1  0.35403000  0.44437000  0.01158000  1.0 -0.5288528814
O  O275  1  0.43279000  0.34245000  0.98842000  1.0 -0.5288528814
O  O276  1  0.64597000  0.65755000  0.09034000  1.0 -0.5288528814
O  O277  1  0.49770000  0.23990000  0.45234000  1.0 -0.5976414388
O  O278  1  0.78756000  0.04536000  0.54766000  1.0 -0.5976414388
O  O279  1  0.21244000  0.76010000  0.25780000  1.0 -0.5976414388
O  O280  1  0.50230000  0.95464000  0.74220000  1.0 -0.5976414388
O  O281  1  0.45234000  0.49770000  0.23990000  1.0 -0.5976414388
O  O282  1  0.54766000  0.78756000  0.04536000  1.0 -0.5976414388
O  O283  1  0.25780000  0.21244000  0.76010000  1.0 -0.5976414388
O  O284  1  0.74220000  0.50230000  0.95464000  1.0 -0.5976414388
O  O285  1  0.23990000  0.45234000  0.49770000  1.0 -0.5976414388
O  O286  1  0.04536000  0.54766000  0.78756000  1.0 -0.5976414388
O  O287  1  0.76010000  0.25780000  0.21244000  1.0 -0.5976414388
O  O288  1  0.95464000  0.74220000  0.50230000  1.0 -0.5976414388
O  O289  1  0.50230000  0.76010000  0.54766000  1.0 -0.5976414388
O  O290  1  0.21244000  0.95464000  0.45234000  1.0 -0.5976414388
O  O291  1  0.78756000  0.23990000  0.74220000  1.0 -0.5976414388
O  O292  1  0.49770000  0.04536000  0.25780000  1.0 -0.5976414388
O  O293  1  0.54766000  0.50230000  0.76010000  1.0 -0.5976414388
O  O294  1  0.45234000  0.21244000  0.95464000  1.0 -0.5976414388
O  O295  1  0.74220000  0.78756000  0.23990000  1.0 -0.5976414388
O  O296  1  0.25780000  0.49770000  0.04536000  1.0 -0.5976414388
O  O297  1  0.76010000  0.54766000  0.50230000  1.0 -0.5976414388
O  O298  1  0.95464000  0.45234000  0.21244000  1.0 -0.5976414388
O  O299  1  0.23990000  0.74220000  0.78756000  1.0 -0.5976414388
O  O300  1  0.04536000  0.25780000  0.49770000  1.0 -0.5976414388
O  O301  1  0.07952000  0.43651000  0.59253000  1.0 -0.510775453
O  O302  1  0.84398000  0.48699000  0.40747000  1.0 -0.510775453
O  O303  1  0.15602000  0.56349000  0.64301000  1.0 -0.510775453
O  O304  1  0.92048000  0.51301000  0.35699000  1.0 -0.510775453
O  O305  1  0.59253000  0.07952000  0.43651000  1.0 -0.510775453
O  O306  1  0.40747000  0.84398000  0.48699000  1.0 -0.510775453
O  O307  1  0.64301000  0.15602000  0.56349000  1.0 -0.510775453
O  O308  1  0.35699000  0.92048000  0.51301000  1.0 -0.510775453
O  O309  1  0.43651000  0.59253000  0.07952000  1.0 -0.510775453
O  O310  1  0.48699000  0.40747000  0.84398000  1.0 -0.510775453
O  O311  1  0.56349000  0.64301000  0.15602000  1.0 -0.510775453
O  O312  1  0.51301000  0.35699000  0.92048000  1.0 -0.510775453
O  O313  1  0.92048000  0.56349000  0.40747000  1.0 -0.510775453
O  O314  1  0.15602000  0.51301000  0.59253000  1.0 -0.510775453
O  O315  1  0.84398000  0.43651000  0.35699000  1.0 -0.510775453
O  O316  1  0.07952000  0.48699000  0.64301000  1.0 -0.510775453
O  O317  1  0.40747000  0.92048000  0.56349000  1.0 -0.510775453
O  O318  1  0.59253000  0.15602000  0.51301000  1.0 -0.510775453
O  O319  1  0.35699000  0.84398000  0.43651000  1.0 -0.510775453
O  O320  1  0.64301000  0.07952000  0.48699000  1.0 -0.510775453
O  O321  1  0.56349000  0.40747000  0.92048000  1.0 -0.510775453
O  O322  1  0.51301000  0.59253000  0.15602000  1.0 -0.510775453
O  O323  1  0.43651000  0.35699000  0.84398000  1.0 -0.510775453
O  O324  1  0.48699000  0.64301000  0.07952000  1.0 -0.510775453
O  O325  1  0.88198000  0.19187000  0.74059000  1.0 -0.5288528814
O  O326  1  0.45128000  0.14139000  0.25941000  1.0 -0.5288528814
O  O327  1  0.54872000  0.80813000  0.69011000  1.0 -0.5288528814
O  O328  1  0.11802000  0.85861000  0.30989000  1.0 -0.5288528814
O  O329  1  0.74059000  0.88198000  0.19187000  1.0 -0.5288528814
O  O330  1  0.25941000  0.45128000  0.14139000  1.0 -0.5288528814
O  O331  1  0.69011000  0.54872000  0.80813000  1.0 -0.5288528814
O  O332  1  0.30989000  0.11802000  0.85861000  1.0 -0.5288528814
O  O333  1  0.19187000  0.74059000  0.88198000  1.0 -0.5288528814
O  O334  1  0.14139000  0.25941000  0.45128000  1.0 -0.5288528814
O  O335  1  0.80813000  0.69011000  0.54872000  1.0 -0.5288528814
O  O336  1  0.85861000  0.30989000  0.11802000  1.0 -0.5288528814
O  O337  1  0.11802000  0.80813000  0.25941000  1.0 -0.5288528814
O  O338  1  0.54872000  0.85861000  0.74059000  1.0 -0.5288528814
O  O339  1  0.45128000  0.19187000  0.30989000  1.0 -0.5288528814
O  O340  1  0.88198000  0.14139000  0.69011000  1.0 -0.5288528814
O  O341  1  0.25941000  0.11802000  0.80813000  1.0 -0.5288528814
O  O342  1  0.74059000  0.54872000  0.85861000  1.0 -0.5288528814
O  O343  1  0.30989000  0.45128000  0.19187000  1.0 -0.5288528814
O  O344  1  0.69011000  0.88198000  0.14139000  1.0 -0.5288528814
O  O345  1  0.80813000  0.25941000  0.11802000  1.0 -0.5288528814
O  O346  1  0.85861000  0.74059000  0.54872000  1.0 -0.5288528814
O  O347  1  0.19187000  0.30989000  0.45128000  1.0 -0.5288528814
O  O348  1  0.14139000  0.69011000  0.88198000  1.0 -0.5288528814
O  O349  1  0.11850000  0.39470000  0.62780000  1.0 -0.4881270178
O  O350  1  0.76690000  0.49070000  0.37220000  1.0 -0.4881270178
O  O351  1  0.23310000  0.60530000  0.72380000  1.0 -0.4881270178
O  O352  1  0.88150000  0.50930000  0.27620000  1.0 -0.4881270178
O  O353  1  0.62780000  0.11850000  0.39470000  1.0 -0.4881270178
O  O354  1  0.37220000  0.76690000  0.49070000  1.0 -0.4881270178
O  O355  1  0.72380000  0.23310000  0.60530000  1.0 -0.4881270178
O  O356  1  0.27620000  0.88150000  0.50930000  1.0 -0.4881270178
O  O357  1  0.39470000  0.62780000  0.11850000  1.0 -0.4881270178
O  O358  1  0.49070000  0.37220000  0.76690000  1.0 -0.4881270178
O  O359  1  0.60530000  0.72380000  0.23310000  1.0 -0.4881270178
O  O360  1  0.50930000  0.27620000  0.88150000  1.0 -0.4881270178
O  O361  1  0.88150000  0.60530000  0.37220000  1.0 -0.4881270178
O  O362  1  0.23310000  0.50930000  0.62780000  1.0 -0.4881270178
O  O363  1  0.76690000  0.39470000  0.27620000  1.0 -0.4881270178
O  O364  1  0.11850000  0.49070000  0.72380000  1.0 -0.4881270178
O  O365  1  0.37220000  0.88150000  0.60530000  1.0 -0.4881270178
O  O366  1  0.62780000  0.23310000  0.50930000  1.0 -0.4881270178
O  O367  1  0.27620000  0.76690000  0.39470000  1.0 -0.4881270178
O  O368  1  0.72380000  0.11850000  0.49070000  1.0 -0.4881270178
O  O369  1  0.60530000  0.37220000  0.88150000  1.0 -0.4881270178
O  O370  1  0.50930000  0.62780000  0.23310000  1.0 -0.4881270178
O  O371  1  0.39470000  0.27620000  0.76690000  1.0 -0.4881270178
O  O372  1  0.49070000  0.72380000  0.11850000  1.0 -0.4881270178
O  O373  1  0.18170000  0.39920000  0.65350000  1.0 -0.5174048648
O  O374  1  0.74570000  0.52820000  0.34650000  1.0 -0.5174048648
O  O375  1  0.25430000  0.60080000  0.78250000  1.0 -0.5174048648
O  O376  1  0.81830000  0.47180000  0.21750000  1.0 -0.5174048648
O  O377  1  0.65350000  0.18170000  0.39920000  1.0 -0.5174048648
O  O378  1  0.34650000  0.74570000  0.52820000  1.0 -0.5174048648
O  O379  1  0.78250000  0.25430000  0.60080000  1.0 -0.5174048648
O  O380  1  0.21750000  0.81830000  0.47180000  1.0 -0.5174048648
O  O381  1  0.39920000  0.65350000  0.18170000  1.0 -0.5174048648
O  O382  1  0.52820000  0.34650000  0.74570000  1.0 -0.5174048648
O  O383  1  0.60080000  0.78250000  0.25430000  1.0 -0.5174048648
O  O384  1  0.47180000  0.21750000  0.81830000  1.0 -0.5174048648
O  O385  1  0.81830000  0.60080000  0.34650000  1.0 -0.5174048648
O  O386  1  0.25430000  0.47180000  0.65350000  1.0 -0.5174048648
O  O387  1  0.74570000  0.39920000  0.21750000  1.0 -0.5174048648
O  O388  1  0.18170000  0.52820000  0.78250000  1.0 -0.5174048648
O  O389  1  0.34650000  0.81830000  0.60080000  1.0 -0.5174048648
O  O390  1  0.65350000  0.25430000  0.47180000  1.0 -0.5174048648
O  O391  1  0.21750000  0.74570000  0.39920000  1.0 -0.5174048648
O  O392  1  0.78250000  0.18170000  0.52820000  1.0 -0.5174048648
O  O393  1  0.60080000  0.34650000  0.81830000  1.0 -0.5174048648
O  O394  1  0.47180000  0.65350000  0.25430000  1.0 -0.5174048648
O  O395  1  0.39920000  0.21750000  0.74570000  1.0 -0.5174048648
O  O396  1  0.52820000  0.78250000  0.18170000  1.0 -0.5174048648
O  O397  1  0.18040000  0.40420000  0.65380000  1.0 -0.4726905916
O  O398  1  0.75040000  0.52660000  0.34620000  1.0 -0.4726905916
O  O399  1  0.24960000  0.59580000  0.77620000  1.0 -0.4726905916
O  O400  1  0.81960000  0.47340000  0.22380000  1.0 -0.4726905916
O  O401  1  0.65380000  0.18040000  0.40420000  1.0 -0.4726905916
O  O402  1  0.34620000  0.75040000  0.52660000  1.0 -0.4726905916
O  O403  1  0.77620000  0.24960000  0.59580000  1.0 -0.4726905916
O  O404  1  0.22380000  0.81960000  0.47340000  1.0 -0.4726905916
O  O405  1  0.40420000  0.65380000  0.18040000  1.0 -0.4726905916
O  O406  1  0.52660000  0.34620000  0.75040000  1.0 -0.4726905916
O  O407  1  0.59580000  0.77620000  0.24960000  1.0 -0.4726905916
O  O408  1  0.47340000  0.22380000  0.81960000  1.0 -0.4726905916
O  O409  1  0.81960000  0.59580000  0.34620000  1.0 -0.4726905916
O  O410  1  0.24960000  0.47340000  0.65380000  1.0 -0.4726905916
O  O411  1  0.75040000  0.40420000  0.22380000  1.0 -0.4726905916
O  O412  1  0.18040000  0.52660000  0.77620000  1.0 -0.4726905916
O  O413  1  0.34620000  0.81960000  0.59580000  1.0 -0.4726905916
O  O414  1  0.65380000  0.24960000  0.47340000  1.0 -0.4726905916
O  O415  1  0.22380000  0.75040000  0.40420000  1.0 -0.4726905916
O  O416  1  0.77620000  0.18040000  0.52660000  1.0 -0.4726905916
O  O417  1  0.59580000  0.34620000  0.81960000  1.0 -0.4726905916
O  O418  1  0.47340000  0.65380000  0.24960000  1.0 -0.4726905916
O  O419  1  0.40420000  0.22380000  0.75040000  1.0 -0.4726905916
O  O420  1  0.52660000  0.77620000  0.18040000  1.0 -0.4726905916
O  O421  1  0.11080000  0.38730000  0.62630000  1.0 -0.5288528814
O  O422  1  0.76100000  0.48450000  0.37370000  1.0 -0.5288528814
O  O423  1  0.23900000  0.61270000  0.72350000  1.0 -0.5288528814
O  O424  1  0.88920000  0.51550000  0.27650000  1.0 -0.5288528814
O  O425  1  0.62630000  0.11080000  0.38730000  1.0 -0.5288528814
O  O426  1  0.37370000  0.76100000  0.48450000  1.0 -0.5288528814
O  O427  1  0.72350000  0.23900000  0.61270000  1.0 -0.5288528814
O  O428  1  0.27650000  0.88920000  0.51550000  1.0 -0.5288528814
O  O429  1  0.38730000  0.62630000  0.11080000  1.0 -0.5288528814
O  O430  1  0.48450000  0.37370000  0.76100000  1.0 -0.5288528814
O  O431  1  0.61270000  0.72350000  0.23900000  1.0 -0.5288528814
O  O432  1  0.51550000  0.27650000  0.88920000  1.0 -0.5288528814
O  O433  1  0.88920000  0.61270000  0.37370000  1.0 -0.5288528814
O  O434  1  0.23900000  0.51550000  0.62630000  1.0 -0.5288528814
O  O435  1  0.76100000  0.38730000  0.27650000  1.0 -0.5288528814
O  O436  1  0.11080000  0.48450000  0.72350000  1.0 -0.5288528814
O  O437  1  0.37370000  0.88920000  0.61270000  1.0 -0.5288528814
O  O438  1  0.62630000  0.23900000  0.51550000  1.0 -0.5288528814
O  O439  1  0.27650000  0.76100000  0.38730000  1.0 -0.5288528814
O  O440  1  0.72350000  0.11080000  0.48450000  1.0 -0.5288528814
O  O441  1  0.61270000  0.37370000  0.88920000  1.0 -0.5288528814
O  O442  1  0.51550000  0.62630000  0.23900000  1.0 -0.5288528814
O  O443  1  0.38730000  0.27650000  0.76100000  1.0 -0.5288528814
O  O444  1  0.48450000  0.72350000  0.11080000  1.0 -0.5288528814
