# DDEC6 charges by PACMAN v1.1 (https://github.com/mtap-research/PACMAN-charge/)
data_NINTEM_ASR_pacman
_symmetry_space_group_name_H-M   'P 1'
_cell_length_a   18.79790000
_cell_length_b   18.79790000
_cell_length_c   8.16570000
_cell_angle_alpha   90.00000000
_cell_angle_beta   90.00000000
_cell_angle_gamma   106.69700000
_symmetry_Int_Tables_number   1
_chemical_formula_structural   ZnH14C20(NO4)2
_chemical_formula_sum   'Zn4 H56 C80 N8 O32'
_cell_volume   2763.78301905
_cell_formula_units_Z   4
loop_
 _symmetry_equiv_pos_site_id
 _symmetry_equiv_pos_as_xyz
  1  'x, y, z'
loop_
 _atom_site_type_symbol
 _atom_site_label
 _atom_site_symmetry_multiplicity
 _atom_site_fract_x
 _atom_site_fract_y
 _atom_site_fract_z
 _atom_site_occupancy
 _atom_site_charge
Zn  Zn1  1  0.25000000  0.25000000  0.75000000  1.0 0.9947233526
Zn  Zn2  1  0.75000000  0.75000000  0.75000000  1.0 0.9952564566
Zn  Zn3  1  0.75000000  0.75000000  0.25000000  1.0 0.9947233526
Zn  Zn4  1  0.25000000  0.25000000  0.25000000  1.0 0.9947233526
H  H1  1  0.11250000  0.36510000  0.96220000  1.0 0.1211814797
H  H2  1  0.03710000  0.43710000  0.03360000  1.0 0.1211814797
H  H3  1  0.92310000  0.42010000  0.90940000  1.0 0.1211814797
H  H4  1  0.96140000  0.25880000  0.63150000  1.0 0.139780852
H  H5  1  0.67950000  0.40230000  0.60490000  1.0 0.139780852
H  H6  1  0.85020000  0.28560000  0.61000000  1.0 0.2876820592
H  H7  1  0.16470000  0.20910000  0.51800000  1.0 0.363386604
H  H8  1  0.88750000  0.63490000  0.96220000  1.0 0.1211814797
H  H9  1  0.96290000  0.56290000  0.03360000  1.0 0.1211814797
H  H10  1  0.07690000  0.57990000  0.90940000  1.0 0.1211814797
H  H11  1  0.03860000  0.74120000  0.63150000  1.0 0.139780852
H  H12  1  0.32050000  0.59770000  0.60490000  1.0 0.1451068698
H  H13  1  0.14980000  0.71440000  0.61000000  1.0 0.2876820592
H  H14  1  0.83530000  0.79090000  0.51800000  1.0 0.363386604
H  H15  1  0.63490000  0.88750000  0.03780000  1.0 0.1211814797
H  H16  1  0.56290000  0.96290000  0.96640000  1.0 0.1211814797
H  H17  1  0.57990000  0.07690000  0.09060000  1.0 0.1211814797
H  H18  1  0.74120000  0.03860000  0.36850000  1.0 0.139780852
H  H19  1  0.59770000  0.32050000  0.39510000  1.0 0.1451068698
H  H20  1  0.71440000  0.14980000  0.39000000  1.0 0.2876820592
H  H21  1  0.79090000  0.83530000  0.48200000  1.0 0.363386604
H  H22  1  0.36510000  0.11250000  0.03780000  1.0 0.1211814797
H  H23  1  0.43710000  0.03710000  0.96640000  1.0 0.1211814797
H  H24  1  0.42010000  0.92310000  0.09060000  1.0 0.1211814797
H  H25  1  0.25880000  0.96140000  0.36850000  1.0 0.139780852
H  H26  1  0.40230000  0.67950000  0.39510000  1.0 0.1451068698
H  H27  1  0.28560000  0.85020000  0.39000000  1.0 0.2876820592
H  H28  1  0.20910000  0.16470000  0.48200000  1.0 0.363386604
H  H29  1  0.38750000  0.13490000  0.53780000  1.0 0.1211814797
H  H30  1  0.46290000  0.06290000  0.46640000  1.0 0.1211814797
H  H31  1  0.57690000  0.07990000  0.59060000  1.0 0.1211814797
H  H32  1  0.53860000  0.24120000  0.86850000  1.0 0.139780852
H  H33  1  0.82050000  0.09770000  0.89510000  1.0 0.139780852
H  H34  1  0.64980000  0.21440000  0.89000000  1.0 0.2876820592
H  H35  1  0.33530000  0.29090000  0.98200000  1.0 0.363386604
H  H36  1  0.61250000  0.86510000  0.53780000  1.0 0.1211814797
H  H37  1  0.53710000  0.93710000  0.46640000  1.0 0.1211814797
H  H38  1  0.42310000  0.92010000  0.59060000  1.0 0.1211814797
H  H39  1  0.46140000  0.75880000  0.86850000  1.0 0.139780852
H  H40  1  0.17950000  0.90230000  0.89510000  1.0 0.1451068698
H  H41  1  0.35020000  0.78560000  0.89000000  1.0 0.2876820592
H  H42  1  0.66470000  0.70910000  0.98200000  1.0 0.363386604
H  H43  1  0.86510000  0.61250000  0.46220000  1.0 0.1211814797
H  H44  1  0.93710000  0.53710000  0.53360000  1.0 0.1211814797
H  H45  1  0.92010000  0.42310000  0.40940000  1.0 0.1211814797
H  H46  1  0.75880000  0.46140000  0.13150000  1.0 0.139780852
H  H47  1  0.90230000  0.17950000  0.10490000  1.0 0.139780852
H  H48  1  0.78560000  0.35020000  0.11000000  1.0 0.2876820592
H  H49  1  0.70910000  0.66470000  0.01800000  1.0 0.363386604
H  H50  1  0.13490000  0.38750000  0.46220000  1.0 0.1211814797
H  H51  1  0.06290000  0.46290000  0.53360000  1.0 0.1211814797
H  H52  1  0.07990000  0.57690000  0.40940000  1.0 0.1211814797
H  H53  1  0.24120000  0.53860000  0.13150000  1.0 0.139780852
H  H54  1  0.09770000  0.82050000  0.10490000  1.0 0.1451068698
H  H55  1  0.21440000  0.64980000  0.11000000  1.0 0.2876820592
H  H56  1  0.29090000  0.33530000  0.01800000  1.0 0.363386604
C  C1  1  0.09663000  0.26361000  0.72730000  1.0 0.5800121306
C  C2  1  0.04540000  0.30556000  0.78680000  1.0 -0.0192125002
C  C3  1  0.06721000  0.35843000  0.90960000  1.0 -0.1001172913
C  C4  1  0.02158000  0.40092000  0.95320000  1.0 -0.0740299607
C  C5  1  0.95313000  0.39069000  0.87940000  1.0 -0.1823914023
C  C6  1  0.92934000  0.33600000  0.75950000  1.0 0.2187399277
C  C7  1  0.97629000  0.29451000  0.71310000  1.0 -0.2001383351
C  C8  1  0.80770000  0.35632000  0.69530000  1.0 0.425685796
C  C9  1  0.74241000  0.33037000  0.58990000  1.0 0.0626705541
C  C10  1  0.68644000  0.35966000  0.55830000  1.0 -0.153416786
C  C11  1  0.90337000  0.73639000  0.72730000  1.0 0.5800121306
C  C12  1  0.95460000  0.69444000  0.78680000  1.0 -0.0192125002
C  C13  1  0.93279000  0.64157000  0.90960000  1.0 -0.1001172913
C  C14  1  0.97842000  0.59908000  0.95320000  1.0 -0.0740299607
C  C15  1  0.04687000  0.60931000  0.87940000  1.0 -0.1823914023
C  C16  1  0.07066000  0.66400000  0.75950000  1.0 0.2187399277
C  C17  1  0.02371000  0.70549000  0.71310000  1.0 -0.2001383351
C  C18  1  0.19230000  0.64368000  0.69530000  1.0 0.425685796
C  C19  1  0.25759000  0.66963000  0.58990000  1.0 0.0626705541
C  C20  1  0.31356000  0.64034000  0.55830000  1.0 -0.153416786
C  C21  1  0.73639000  0.90337000  0.27270000  1.0 0.5800121306
C  C22  1  0.69444000  0.95460000  0.21320000  1.0 -0.0192125002
C  C23  1  0.64157000  0.93279000  0.09040000  1.0 -0.1001172913
C  C24  1  0.59908000  0.97842000  0.04680000  1.0 -0.0740299607
C  C25  1  0.60931000  0.04687000  0.12060000  1.0 -0.1823914023
C  C26  1  0.66400000  0.07066000  0.24050000  1.0 0.2187399277
C  C27  1  0.70549000  0.02371000  0.28690000  1.0 -0.2001383351
C  C28  1  0.64368000  0.19230000  0.30470000  1.0 0.425685796
C  C29  1  0.66963000  0.25759000  0.41010000  1.0 0.0626705541
C  C30  1  0.64034000  0.31356000  0.44170000  1.0 -0.153416786
C  C31  1  0.26361000  0.09663000  0.27270000  1.0 0.5800121306
C  C32  1  0.30556000  0.04540000  0.21320000  1.0 -0.0192125002
C  C33  1  0.35843000  0.06721000  0.09040000  1.0 -0.1001172913
C  C34  1  0.40092000  0.02158000  0.04680000  1.0 -0.0740299607
C  C35  1  0.39069000  0.95313000  0.12060000  1.0 -0.1823914023
C  C36  1  0.33600000  0.92934000  0.24050000  1.0 0.2187399277
C  C37  1  0.29451000  0.97629000  0.28690000  1.0 -0.2001383351
C  C38  1  0.35632000  0.80770000  0.30470000  1.0 0.425685796
C  C39  1  0.33037000  0.74241000  0.41010000  1.0 0.0626705541
C  C40  1  0.35966000  0.68644000  0.44170000  1.0 -0.153416786
C  C41  1  0.40337000  0.23639000  0.77270000  1.0 0.5800121306
C  C42  1  0.45460000  0.19444000  0.71320000  1.0 -0.0192125002
C  C43  1  0.43279000  0.14157000  0.59040000  1.0 -0.1001172913
C  C44  1  0.47842000  0.09908000  0.54680000  1.0 -0.0740299607
C  C45  1  0.54687000  0.10931000  0.62060000  1.0 -0.1823914023
C  C46  1  0.57066000  0.16400000  0.74050000  1.0 0.2187399277
C  C47  1  0.52371000  0.20549000  0.78690000  1.0 -0.2001383351
C  C48  1  0.69230000  0.14368000  0.80470000  1.0 0.425685796
C  C49  1  0.75759000  0.16963000  0.91010000  1.0 0.0626705541
C  C50  1  0.81356000  0.14034000  0.94170000  1.0 -0.153416786
C  C51  1  0.59663000  0.76361000  0.77270000  1.0 0.5800121306
C  C52  1  0.54540000  0.80556000  0.71320000  1.0 -0.0192125002
C  C53  1  0.56721000  0.85843000  0.59040000  1.0 -0.1001172913
C  C54  1  0.52158000  0.90092000  0.54680000  1.0 -0.0740299607
C  C55  1  0.45313000  0.89069000  0.62060000  1.0 -0.1823914023
C  C56  1  0.42934000  0.83600000  0.74050000  1.0 0.2187399277
C  C57  1  0.47629000  0.79451000  0.78690000  1.0 -0.2001383351
C  C58  1  0.30770000  0.85632000  0.80470000  1.0 0.425685796
C  C59  1  0.24241000  0.83037000  0.91010000  1.0 0.0626705541
C  C60  1  0.18644000  0.85966000  0.94170000  1.0 -0.153416786
C  C61  1  0.76361000  0.59663000  0.22730000  1.0 0.5800121306
C  C62  1  0.80556000  0.54540000  0.28680000  1.0 -0.0192125002
C  C63  1  0.85843000  0.56721000  0.40960000  1.0 -0.1001172913
C  C64  1  0.90092000  0.52158000  0.45320000  1.0 -0.0740299607
C  C65  1  0.89069000  0.45313000  0.37940000  1.0 -0.1823914023
C  C66  1  0.83600000  0.42934000  0.25950000  1.0 0.2187399277
C  C67  1  0.79451000  0.47629000  0.21310000  1.0 -0.2001383351
C  C68  1  0.85632000  0.30770000  0.19530000  1.0 0.425685796
C  C69  1  0.83037000  0.24241000  0.08990000  1.0 0.0626705541
C  C70  1  0.85966000  0.18644000  0.05830000  1.0 -0.153416786
C  C71  1  0.23639000  0.40337000  0.22730000  1.0 0.5800121306
C  C72  1  0.19444000  0.45460000  0.28680000  1.0 -0.0192125002
C  C73  1  0.14157000  0.43279000  0.40960000  1.0 -0.1001172913
C  C74  1  0.09908000  0.47842000  0.45320000  1.0 -0.0740299607
C  C75  1  0.10931000  0.54687000  0.37940000  1.0 -0.1823914023
C  C76  1  0.16400000  0.57066000  0.25950000  1.0 0.2187399277
C  C77  1  0.20549000  0.52371000  0.21310000  1.0 -0.2001383351
C  C78  1  0.14368000  0.69230000  0.19530000  1.0 0.425685796
C  C79  1  0.16963000  0.75759000  0.08990000  1.0 0.0626705541
C  C80  1  0.14034000  0.81356000  0.05830000  1.0 -0.153416786
N  N1  1  0.85938000  0.31932000  0.68210000  1.0 -0.3562128106
N  N2  1  0.14062000  0.68068000  0.68210000  1.0 -0.3562128106
N  N3  1  0.68068000  0.14062000  0.31790000  1.0 -0.3562128106
N  N4  1  0.31932000  0.85938000  0.31790000  1.0 -0.3562128106
N  N5  1  0.64062000  0.18068000  0.81790000  1.0 -0.3562128106
N  N6  1  0.35938000  0.81932000  0.81790000  1.0 -0.3562128106
N  N7  1  0.81932000  0.35938000  0.18210000  1.0 -0.3562128106
N  N8  1  0.18068000  0.64062000  0.18210000  1.0 -0.3562128106
O  O1  1  0.81273000  0.40891000  0.78730000  1.0 -0.4699736806
O  O2  1  0.08668000  0.23512000  0.58740000  1.0 -0.5329287993
O  O3  1  0.14924000  0.26016000  0.82090000  1.0 -0.56983265
O  O4  1  0.18727000  0.59109000  0.78730000  1.0 -0.4699736806
O  O5  1  0.91332000  0.76488000  0.58740000  1.0 -0.5329287993
O  O6  1  0.85076000  0.73984000  0.82090000  1.0 -0.56983265
O  O7  1  0.59109000  0.18727000  0.21270000  1.0 -0.4699736806
O  O8  1  0.76488000  0.91332000  0.41260000  1.0 -0.5329287993
O  O9  1  0.73984000  0.85076000  0.17910000  1.0 -0.56983265
O  O10  1  0.40891000  0.81273000  0.21270000  1.0 -0.4699736806
O  O11  1  0.23512000  0.08668000  0.41260000  1.0 -0.5329287993
O  O12  1  0.26016000  0.14924000  0.17910000  1.0 -0.56983265
O  O13  1  0.68727000  0.09109000  0.71270000  1.0 -0.4699736806
O  O14  1  0.41332000  0.26488000  0.91260000  1.0 -0.5329287993
O  O15  1  0.35076000  0.23984000  0.67910000  1.0 -0.56983265
O  O16  1  0.31273000  0.90891000  0.71270000  1.0 -0.4699736806
O  O17  1  0.58668000  0.73512000  0.91260000  1.0 -0.5329287993
O  O18  1  0.64924000  0.76016000  0.67910000  1.0 -0.56983265
O  O19  1  0.90891000  0.31273000  0.28730000  1.0 -0.4699736806
O  O20  1  0.73512000  0.58668000  0.08740000  1.0 -0.5329287993
O  O21  1  0.76016000  0.64924000  0.32090000  1.0 -0.56983265
O  O22  1  0.09109000  0.68727000  0.28730000  1.0 -0.4699736806
O  O23  1  0.26488000  0.41332000  0.08740000  1.0 -0.5329287993
O  O24  1  0.23984000  0.35076000  0.32090000  1.0 -0.56983265
O  O25  1  0.73344000  0.26656000  0.50000000  1.0 -0.153416786
O  O26  1  0.26656000  0.73344000  0.50000000  1.0 -0.153416786
O  O27  1  0.76656000  0.23344000  0.00000000  1.0 -0.153416786
O  O28  1  0.23344000  0.76656000  0.00000000  1.0 -0.153416786
O  O29  1  0.20937000  0.20937000  0.50000000  1.0 -0.6941553624
O  O30  1  0.79063000  0.79063000  0.50000000  1.0 -0.6941553624
O  O31  1  0.29063000  0.29063000  0.00000000  1.0 -0.6941553624
O  O32  1  0.70937000  0.70937000  0.00000000  1.0 -0.6941553624
