# DDEC6 charges by PACMAN v1.1 (https://github.com/mtap-research/PACMAN-charge/)
data_NIRDAT_ASR_pacman
_symmetry_space_group_name_H-M   'P 1'
_cell_length_a   10.04300000
_cell_length_b   10.04300000
_cell_length_c   13.82800000
_cell_angle_alpha   90.00000000
_cell_angle_beta   90.00000000
_cell_angle_gamma   90.00000000
_symmetry_Int_Tables_number   1
_chemical_formula_structural   Ga3P2O12F
_chemical_formula_sum   'Ga12 P8 O48 F4'
_cell_volume   1394.71764797
_cell_formula_units_Z   4
loop_
 _symmetry_equiv_pos_site_id
 _symmetry_equiv_pos_as_xyz
  1  'x, y, z'
loop_
 _atom_site_type_symbol
 _atom_site_label
 _atom_site_symmetry_multiplicity
 _atom_site_fract_x
 _atom_site_fract_y
 _atom_site_fract_z
 _atom_site_occupancy
 _atom_site_charge
Ga  Ga1  1  0.25000000  0.75000000  0.75000000  1.0 1.4498127144
Ga  Ga2  1  0.75000000  0.75000000  0.25000000  1.0 1.4498127144
Ga  Ga3  1  0.25000000  0.25000000  0.25000000  1.0 1.4498127144
Ga  Ga4  1  0.75000000  0.25000000  0.75000000  1.0 1.4498127144
Ga  Ga5  1  0.12640000  0.62640000  0.57208000  1.0 1.4767124774
Ga  Ga6  1  0.87360000  0.62640000  0.07208000  1.0 1.4747954251
Ga  Ga7  1  0.12640000  0.37360000  0.07208000  1.0 1.4767124774
Ga  Ga8  1  0.62640000  0.12640000  0.92792000  1.0 1.4747954251
Ga  Ga9  1  0.37360000  0.87360000  0.92792000  1.0 1.4767124774
Ga  Ga10  1  0.62640000  0.87360000  0.42792000  1.0 1.4767124774
Ga  Ga11  1  0.37360000  0.12640000  0.42792000  1.0 1.4767124774
Ga  Ga12  1  0.87360000  0.37360000  0.57208000  1.0 1.4747954251
P  P1  1  0.34760000  0.84760000  0.54170000  1.0 1.4498127144
P  P2  1  0.65240000  0.84760000  0.04170000  1.0 1.4498127144
P  P3  1  0.34760000  0.15240000  0.04170000  1.0 1.4498127144
P  P4  1  0.84760000  0.34760000  0.95830000  1.0 1.4498127144
P  P5  1  0.15240000  0.65240000  0.95830000  1.0 1.4498127144
P  P6  1  0.84760000  0.65240000  0.45830000  1.0 1.4498127144
P  P7  1  0.15240000  0.34760000  0.45830000  1.0 1.4498127144
P  P8  1  0.65240000  0.15240000  0.54170000  1.0 1.4498127144
O  O1  1  0.34990000  0.84990000  0.65430000  1.0 -0.647667071
O  O2  1  0.65010000  0.84990000  0.15430000  1.0 -0.647667071
O  O3  1  0.34990000  0.15010000  0.15430000  1.0 -0.647667071
O  O4  1  0.84990000  0.34990000  0.84570000  1.0 -0.647667071
O  O5  1  0.15010000  0.65010000  0.84570000  1.0 -0.647667071
O  O6  1  0.84990000  0.65010000  0.34570000  1.0 -0.647667071
O  O7  1  0.15010000  0.34990000  0.34570000  1.0 -0.647667071
O  O8  1  0.65010000  0.15010000  0.65430000  1.0 -0.647667071
O  O9  1  0.24670000  0.74670000  0.50550000  1.0 -0.6693805365
O  O10  1  0.75330000  0.74670000  0.00550000  1.0 -0.6693805365
O  O11  1  0.24670000  0.25330000  0.00550000  1.0 -0.6693805365
O  O12  1  0.74670000  0.24670000  0.99450000  1.0 -0.6693805365
O  O13  1  0.25330000  0.75330000  0.99450000  1.0 -0.6693805365
O  O14  1  0.74670000  0.75330000  0.49450000  1.0 -0.6693805365
O  O15  1  0.25330000  0.24670000  0.49450000  1.0 -0.6693805365
O  O16  1  0.75330000  0.25330000  0.50550000  1.0 -0.6693805365
O  O17  1  0.31010000  0.98660000  0.50700000  1.0 -0.6270229167
O  O18  1  0.51340000  0.81010000  0.00700000  1.0 -0.6270229167
O  O19  1  0.48660000  0.18990000  0.00700000  1.0 -0.6270229167
O  O20  1  0.98660000  0.31010000  0.99300000  1.0 -0.6270229167
O  O21  1  0.81010000  0.48660000  0.99300000  1.0 -0.6270229167
O  O22  1  0.31010000  0.01340000  0.00700000  1.0 -0.6270229167
O  O23  1  0.68990000  0.98660000  0.00700000  1.0 -0.6270229167
O  O24  1  0.48660000  0.81010000  0.50700000  1.0 -0.6270229167
O  O25  1  0.18990000  0.51340000  0.99300000  1.0 -0.6270229167
O  O26  1  0.98660000  0.68990000  0.49300000  1.0 -0.6270229167
O  O27  1  0.01340000  0.31010000  0.49300000  1.0 -0.6270229167
O  O28  1  0.51340000  0.18990000  0.50700000  1.0 -0.6270229167
O  O29  1  0.68990000  0.01340000  0.50700000  1.0 -0.6270229167
O  O30  1  0.18990000  0.48660000  0.49300000  1.0 -0.6270229167
O  O31  1  0.81010000  0.51340000  0.49300000  1.0 -0.6270229167
O  O32  1  0.01340000  0.68990000  0.99300000  1.0 -0.6270229167
O  O33  1  0.41360000  0.73930000  0.82610000  1.0 -0.4357623457
O  O34  1  0.76070000  0.91360000  0.32610000  1.0 -0.4357623457
O  O35  1  0.23930000  0.08640000  0.32610000  1.0 -0.4357623457
O  O36  1  0.73930000  0.41360000  0.67390000  1.0 -0.4357623457
O  O37  1  0.91360000  0.23930000  0.67390000  1.0 -0.4357623457
O  O38  1  0.41360000  0.26070000  0.32610000  1.0 -0.4357623457
O  O39  1  0.58640000  0.73930000  0.32610000  1.0 -0.4357623457
O  O40  1  0.23930000  0.91360000  0.82610000  1.0 -0.4357623457
O  O41  1  0.08640000  0.76070000  0.67390000  1.0 -0.4357623457
O  O42  1  0.73930000  0.58640000  0.17390000  1.0 -0.4357623457
O  O43  1  0.26070000  0.41360000  0.17390000  1.0 -0.4357623457
O  O44  1  0.76070000  0.08640000  0.82610000  1.0 -0.4346995114
O  O45  1  0.58640000  0.26070000  0.82610000  1.0 -0.4357623457
O  O46  1  0.08640000  0.23930000  0.17390000  1.0 -0.4357623457
O  O47  1  0.91360000  0.76070000  0.17390000  1.0 -0.4357623457
O  O48  1  0.26070000  0.58640000  0.67390000  1.0 -0.4357623457
F  F1  1  0.00000000  0.50000000  0.63720000  1.0 -0.4164547531
F  F2  1  0.00000000  0.50000000  0.13720000  1.0 -0.4164547531
F  F3  1  0.50000000  0.00000000  0.86280000  1.0 -0.4164547531
F  F4  1  0.50000000  0.00000000  0.36280000  1.0 -0.4164547531
