# DDEC6 charges by PACMAN v1.1 (https://github.com/mtap-research/PACMAN-charge/)
data_NISFOO_ASR_pacman
_symmetry_space_group_name_H-M   'P 1'
_cell_length_a   28.42610000
_cell_length_b   28.42610000
_cell_length_c   28.42610000
_cell_angle_alpha   131.96400000
_cell_angle_beta   110.00000000
_cell_angle_gamma   89.38730000
_symmetry_Int_Tables_number   1
_chemical_formula_structural   Zr3H52(C22O5)3
_chemical_formula_sum   'Zr12 H208 C264 O60'
_cell_volume   15248.16099338
_cell_formula_units_Z   4
loop_
 _symmetry_equiv_pos_site_id
 _symmetry_equiv_pos_as_xyz
  1  'x, y, z'
loop_
 _atom_site_type_symbol
 _atom_site_label
 _atom_site_symmetry_multiplicity
 _atom_site_fract_x
 _atom_site_fract_y
 _atom_site_fract_z
 _atom_site_occupancy
 _atom_site_charge
Zr  Zr1  1  0.30956000  0.23363000  0.92407000  1.0 2.4338382409
Zr  Zr2  1  0.30956000  0.38549000  0.07593000  1.0 2.4338382409
Zr  Zr3  1  0.69044000  0.76637000  0.07593000  1.0 2.4338382409
Zr  Zr4  1  0.69044000  0.61451000  0.92407000  1.0 2.4338382409
Zr  Zr5  1  0.22270000  0.14752000  0.92482000  1.0 2.3926247881
Zr  Zr6  1  0.22270000  0.29788000  0.07518000  1.0 2.3926247881
Zr  Zr7  1  0.77730000  0.85248000  0.07518000  1.0 2.3926247881
Zr  Zr8  1  0.77730000  0.70212000  0.92482000  1.0 2.3926247881
Zr  Zr9  1  0.34160000  0.26579000  0.07581000  1.0 2.3926247881
Zr  Zr10  1  0.18998000  0.26579000  0.92419000  1.0 2.3926247881
Zr  Zr11  1  0.81002000  0.73421000  0.07581000  1.0 2.3926247881
Zr  Zr12  1  0.65840000  0.73421000  0.92419000  1.0 2.3926247881
H  H1  1  0.48174000  0.41274000  0.28362000  1.0 0.1289849823
H  H2  1  0.12912000  0.19812000  0.71638000  1.0 0.1289849823
H  H3  1  0.87088000  0.58726000  0.06900000  1.0 0.1289849823
H  H4  1  0.51826000  0.80188000  0.93100000  1.0 0.1289849823
H  H5  1  0.51826000  0.58726000  0.71638000  1.0 0.1289849823
H  H6  1  0.87088000  0.80188000  0.28362000  1.0 0.1289849823
H  H7  1  0.12912000  0.41274000  0.93100000  1.0 0.1289849823
H  H8  1  0.48174000  0.19812000  0.06900000  1.0 0.1289849823
H  H9  1  0.55533000  0.49124000  0.38883000  1.0 0.1202650432
H  H10  1  0.10241000  0.16650000  0.61117000  1.0 0.1202650432
H  H11  1  0.89759000  0.50876000  0.06409000  1.0 0.1202650432
H  H12  1  0.44467000  0.83350000  0.93591000  1.0 0.1202650432
H  H13  1  0.44467000  0.50876000  0.61117000  1.0 0.1202650432
H  H14  1  0.89759000  0.83350000  0.38883000  1.0 0.1202650432
H  H15  1  0.10241000  0.49124000  0.93591000  1.0 0.1202650432
H  H16  1  0.55533000  0.16650000  0.06409000  1.0 0.1202650432
H  H17  1  0.53982000  0.61655000  0.36739000  1.0 0.1289849823
H  H18  1  0.24916000  0.17243000  0.63261000  1.0 0.1289849823
H  H19  1  0.75084000  0.38345000  0.92327000  1.0 0.1289849823
H  H20  1  0.46018000  0.82757000  0.07673000  1.0 0.1289849823
H  H21  1  0.46018000  0.38345000  0.63261000  1.0 0.1289849823
H  H22  1  0.75084000  0.82757000  0.36739000  1.0 0.1289849823
H  H23  1  0.24916000  0.61655000  0.07673000  1.0 0.1289849823
H  H24  1  0.53982000  0.17243000  0.92327000  1.0 0.1289849823
H  H25  1  0.46329000  0.53785000  0.26388000  1.0 0.1202650432
H  H26  1  0.27397000  0.19941000  0.73612000  1.0 0.1202650432
H  H27  1  0.72603000  0.46215000  0.92544000  1.0 0.1202650432
H  H28  1  0.53671000  0.80059000  0.07456000  1.0 0.1202650432
H  H29  1  0.53671000  0.46215000  0.73612000  1.0 0.1202650432
H  H30  1  0.72603000  0.80059000  0.26388000  1.0 0.1202650432
H  H31  1  0.27397000  0.53785000  0.07456000  1.0 0.1202650432
H  H32  1  0.46329000  0.19941000  0.92544000  1.0 0.1202650432
H  H33  1  0.58861000  0.59923000  0.51308000  1.0 0.1202650432
H  H34  1  0.08615000  0.07553000  0.48692000  1.0 0.1202650432
H  H35  1  0.91385000  0.40076000  0.98938000  1.0 0.1202650432
H  H36  1  0.41138000  0.92446000  0.01062000  1.0 0.1202650432
H  H37  1  0.41138000  0.40076000  0.48692000  1.0 0.1202650432
H  H38  1  0.91384000  0.92446000  0.51308000  1.0 0.1202650432
H  H39  1  0.08615000  0.59923000  0.01062000  1.0 0.1202650432
H  H40  1  0.58861000  0.07553000  0.98938000  1.0 0.1202650432
H  H41  1  0.72576000  0.73922000  0.62854000  1.0 0.1481818036
H  H42  1  0.11068000  0.09722000  0.37146000  1.0 0.1481818036
H  H43  1  0.88932000  0.26078000  0.98654000  1.0 0.1481818036
H  H44  1  0.27424000  0.90278000  0.01346000  1.0 0.1481818036
H  H45  1  0.27424000  0.26078000  0.37146000  1.0 0.1481818036
H  H46  1  0.88932000  0.90278000  0.62854000  1.0 0.1481818036
H  H47  1  0.11068000  0.73922000  0.01346000  1.0 0.1481818036
H  H48  1  0.72576000  0.09722000  0.98654000  1.0 0.1481818036
H  H49  1  0.63598000  0.64686000  0.42802000  1.0 0.1586323047
H  H50  1  0.21884000  0.20796000  0.57198000  1.0 0.1586323047
H  H51  1  0.78116000  0.35314000  0.98912000  1.0 0.1586323047
H  H52  1  0.36402000  0.79204000  0.01088000  1.0 0.1586323047
H  H53  1  0.36402000  0.35314000  0.57198000  1.0 0.1586323047
H  H54  1  0.78116000  0.79204000  0.42802000  1.0 0.1586323047
H  H55  1  0.21884000  0.64686000  0.01088000  1.0 0.1586323047
H  H56  1  0.63598000  0.20796000  0.98912000  1.0 0.1586323047
H  H57  1  0.59329000  0.67311000  0.62952000  1.0 0.1202650432
H  H58  1  0.04359000  0.96377000  0.37048000  1.0 0.1202650432
H  H59  1  0.95641000  0.32689000  0.92018000  1.0 0.1202650432
H  H60  1  0.40671000  0.03623000  0.07982000  1.0 0.1202650432
H  H61  1  0.40671000  0.32689000  0.37048000  1.0 0.1202650432
H  H62  1  0.95641000  0.03623000  0.62952000  1.0 0.1202650432
H  H63  1  0.04359000  0.67311000  0.07982000  1.0 0.1063863828
H  H64  1  0.59329000  0.96377000  0.92018000  1.0 0.1202650432
H  H65  1  0.60805000  0.68481000  0.72196000  1.0 0.1289849823
H  H66  1  0.96285000  0.88609000  0.27804000  1.0 0.1202650432
H  H67  1  0.03715000  0.31519000  0.92324000  1.0 0.1289849823
H  H68  1  0.39195000  0.11391000  0.07676000  1.0 0.1289849823
H  H69  1  0.39195000  0.31519000  0.27804000  1.0 0.1289849823
H  H70  1  0.03715000  0.11391000  0.72196000  1.0 0.1289849823
H  H71  1  0.96285000  0.68481000  0.07676000  1.0 0.1289849823
H  H72  1  0.60805000  0.88609000  0.92324000  1.0 0.1289849823
H  H73  1  0.75928000  0.69625000  0.76201000  1.0 0.1202650432
H  H74  1  0.93424000  0.99727000  0.23799000  1.0 0.1202650432
H  H75  1  0.06576000  0.30375000  0.06303000  1.0 0.1202650432
H  H76  1  0.24072000  0.00273000  0.93697000  1.0 0.1202650432
H  H77  1  0.24072000  0.30375000  0.23799000  1.0 0.1202650432
H  H78  1  0.06576000  0.00273000  0.76201000  1.0 0.1202650432
H  H79  1  0.93424000  0.69625000  0.93697000  1.0 0.1202650432
H  H80  1  0.75928000  0.99727000  0.06303000  1.0 0.1202650432
H  H81  1  0.74592000  0.68829000  0.67219000  1.0 0.1289849823
H  H82  1  0.01610000  0.07373000  0.32781000  1.0 0.1289849823
H  H83  1  0.98390000  0.31171000  0.05763000  1.0 0.1289849823
H  H84  1  0.25408000  0.92627000  0.94237000  1.0 0.1289849823
H  H85  1  0.25408000  0.31171000  0.32781000  1.0 0.1289849823
H  H86  1  0.98390000  0.92627000  0.67219000  1.0 0.1289849823
H  H87  1  0.01610000  0.68829000  0.94237000  1.0 0.1289849823
H  H88  1  0.74592000  0.07373000  0.05763000  1.0 0.1289849823
H  H89  1  0.73849000  0.89314000  0.66415000  1.0 0.0909738962
H  H90  1  0.22899000  0.07434000  0.33585000  1.0 0.0909738962
H  H91  1  0.77101000  0.10686000  0.84535000  1.0 0.0909738962
H  H92  1  0.26151000  0.92566000  0.15465000  1.0 0.0909738962
H  H93  1  0.26151000  0.10686000  0.33585000  1.0 0.0909738962
H  H94  1  0.77101000  0.92566000  0.66415000  1.0 0.0909738962
H  H95  1  0.22899000  0.89314000  0.15465000  1.0 0.0909738962
H  H96  1  0.73849000  0.07434000  0.84535000  1.0 0.0909738962
H  H97  1  0.68611000  0.83533000  0.61716000  1.0 0.099829291
H  H98  1  0.21817000  0.06895000  0.38284000  1.0 0.099829291
H  H99  1  0.78183000  0.16467000  0.85078000  1.0 0.099829291
H  H100  1  0.31389000  0.93105000  0.14922000  1.0 0.099829291
H  H101  1  0.31389000  0.16467000  0.38284000  1.0 0.099829291
H  H102  1  0.78183000  0.93105000  0.61716000  1.0 0.099829291
H  H103  1  0.21817000  0.83533000  0.14922000  1.0 0.099829291
H  H104  1  0.68611000  0.06895000  0.85078000  1.0 0.099829291
H  H105  1  0.73631000  0.84133000  0.66880000  1.0 0.099829291
H  H106  1  0.17253000  0.06751000  0.33120000  1.0 0.099829291
H  H107  1  0.82747000  0.15867000  0.89498000  1.0 0.099829291
H  H108  1  0.26369000  0.93249000  0.10502000  1.0 0.099829291
H  H109  1  0.26369000  0.15867000  0.33120000  1.0 0.099829291
H  H110  1  0.82747000  0.93249000  0.66880000  1.0 0.099829291
H  H111  1  0.17253000  0.84133000  0.10502000  1.0 0.099829291
H  H112  1  0.73631000  0.06751000  0.89498000  1.0 0.099829291
H  H113  1  0.11328000  0.19887000  0.08559000  1.0 0.1289849823
H  H114  1  0.11328000  0.02769000  0.91441000  1.0 0.1289849823
H  H115  1  0.88672000  0.80113000  0.91441000  1.0 0.1289849823
H  H116  1  0.88672000  0.97231000  0.08559000  1.0 0.1289849823
H  H117  1  0.05613000  0.14366000  0.08752000  1.0 0.1202650432
H  H118  1  0.05614000  0.96862000  0.91248000  1.0 0.1202650432
H  H119  1  0.94386000  0.85634000  0.91248000  1.0 0.1202650432
H  H120  1  0.94386000  0.03139000  0.08752000  1.0 0.1202650432
H  H121  1  0.21769000  0.95226000  0.73457000  1.0 0.1289849823
H  H122  1  0.21769000  0.48312000  0.26543000  1.0 0.1289849823
H  H123  1  0.78231000  0.04774000  0.26543000  1.0 0.1289849823
H  H124  1  0.78231000  0.51688000  0.73457000  1.0 0.1289849823
H  H125  1  0.21666000  0.85195000  0.63529000  1.0 0.1481818036
H  H126  1  0.21666000  0.58137000  0.36471000  1.0 0.1481818036
H  H127  1  0.78334000  0.14805000  0.36471000  1.0 0.1481818036
H  H128  1  0.78334000  0.41863000  0.63529000  1.0 0.1481818036
H  H129  1  0.31510000  0.94794000  0.63284000  1.0 0.1384390668
H  H130  1  0.31510000  0.68226000  0.36716000  1.0 0.1384390668
H  H131  1  0.68490000  0.05206000  0.36716000  1.0 0.1384390668
H  H132  1  0.68490000  0.31774000  0.63284000  1.0 0.1384390668
H  H133  1  0.31435000  0.05042000  0.73607000  1.0 0.1202650432
H  H134  1  0.31435000  0.57828000  0.26393000  1.0 0.1202650432
H  H135  1  0.68565000  0.94958000  0.26393000  1.0 0.1202650432
H  H136  1  0.68565000  0.42172000  0.73607000  1.0 0.1202650432
H  H137  1  0.17067000  0.83931000  0.51858000  1.0 0.0909738962
H  H138  1  0.32073000  0.65209000  0.48142000  1.0 0.0909738962
H  H139  1  0.67927000  0.16069000  0.33136000  1.0 0.0909738962
H  H140  1  0.82933000  0.34791000  0.66864000  1.0 0.0909738962
H  H141  1  0.82933000  0.16069000  0.48142000  1.0 0.0909738962
H  H142  1  0.67927000  0.34791000  0.51858000  1.0 0.0909738962
H  H143  1  0.32073000  0.83931000  0.66864000  1.0 0.0909738962
H  H144  1  0.17067000  0.65209000  0.33136000  1.0 0.0909738962
H  H145  1  0.16145000  0.79745000  0.44090000  1.0 0.099829291
H  H146  1  0.35655000  0.72055000  0.55910000  1.0 0.099829291
H  H147  1  0.64345000  0.20255000  0.36400000  1.0 0.099829291
H  H148  1  0.83855000  0.27945000  0.63600000  1.0 0.099829291
H  H149  1  0.83855000  0.20255000  0.55910000  1.0 0.099829291
H  H150  1  0.64345000  0.27945000  0.44090000  1.0 0.099829291
H  H151  1  0.35655000  0.79745000  0.63600000  1.0 0.099829291
H  H152  1  0.16145000  0.72055000  0.36400000  1.0 0.099829291
H  H153  1  0.14482000  0.76181000  0.45989000  1.0 0.1063863828
H  H154  1  0.30192000  0.68493000  0.54011000  1.0 0.1063863828
H  H155  1  0.69808000  0.23819000  0.38301000  1.0 0.099829291
H  H156  1  0.85518000  0.31507000  0.61699000  1.0 0.1063863828
H  H157  1  0.85518000  0.23819000  0.54011000  1.0 0.1063863828
H  H158  1  0.69808000  0.31507000  0.45989000  1.0 0.1063863828
H  H159  1  0.30192000  0.76181000  0.61699000  1.0 0.1063863828
H  H160  1  0.14482000  0.68493000  0.38301000  1.0 0.099829291
H  H161  1  0.75028000  0.61530000  0.39644000  1.0 0.0638972559
H  H162  1  0.21886000  0.35384000  0.60356000  1.0 0.0638972559
H  H163  1  0.78114000  0.38470000  0.13498000  1.0 0.0638972559
H  H164  1  0.24972000  0.64616000  0.86502000  1.0 0.0638972559
H  H165  1  0.24972000  0.38470000  0.60356000  1.0 0.0638972559
H  H166  1  0.78114000  0.64616000  0.39644000  1.0 0.0638972559
H  H167  1  0.21886000  0.61530000  0.86502000  1.0 0.0638972559
H  H168  1  0.75028000  0.35384000  0.13498000  1.0 0.0638972559
H  H169  1  0.74509000  0.61018000  0.44615000  1.0 0.099829291
H  H170  1  0.16403000  0.29894000  0.55385000  1.0 0.099829291
H  H171  1  0.83597000  0.38982000  0.13491000  1.0 0.099829291
H  H172  1  0.25491000  0.70106000  0.86509000  1.0 0.099829291
H  H173  1  0.25491000  0.38982000  0.55385000  1.0 0.099829291
H  H174  1  0.83597000  0.70106000  0.44615000  1.0 0.099829291
H  H175  1  0.16403000  0.61018000  0.86509000  1.0 0.099829291
H  H176  1  0.74509000  0.29894000  0.13491000  1.0 0.099829291
H  H177  1  0.69540000  0.60487000  0.39461000  1.0 0.0909738962
H  H178  1  0.21026000  0.30079000  0.60539000  1.0 0.0909738962
H  H179  1  0.78974000  0.39513000  0.09053000  1.0 0.0909738962
H  H180  1  0.30460000  0.69921000  0.90947000  1.0 0.0909738962
H  H181  1  0.30460000  0.39513000  0.60539000  1.0 0.0909738962
H  H182  1  0.78974000  0.69921000  0.39461000  1.0 0.0909738962
H  H183  1  0.21026000  0.60487000  0.90947000  1.0 0.0909738962
H  H184  1  0.69540000  0.30079000  0.09053000  1.0 0.0909738962
H  H185  1  0.72065000  0.81889000  0.61458000  1.0 -0.0103210409
H  H186  1  0.20431000  0.10607000  0.38542000  1.0 -0.0103210409
H  H187  1  0.79569000  0.18111000  0.90176000  1.0 -0.0103210409
H  H188  1  0.27935000  0.89393000  0.09824000  1.0 -0.0103210409
H  H189  1  0.27935000  0.18111000  0.38542000  1.0 -0.0103210409
H  H190  1  0.79569000  0.89393000  0.61458000  1.0 -0.0103210409
H  H191  1  0.20431000  0.81889000  0.09824000  1.0 -0.0103210409
H  H192  1  0.72065000  0.10607000  0.90176000  1.0 -0.0103210409
H  H193  1  0.72819000  0.64493000  0.44832000  1.0 -0.0289629636
H  H194  1  0.19661000  0.27987000  0.55168000  1.0 -0.0245058572
H  H195  1  0.80339000  0.35507000  0.08326000  1.0 -0.0289629636
H  H196  1  0.27181000  0.72013000  0.91674000  1.0 -0.0245058572
H  H197  1  0.27181000  0.35507000  0.55168000  1.0 -0.0245058572
H  H198  1  0.80339000  0.72013000  0.44832000  1.0 -0.0289629636
H  H199  1  0.19661000  0.64493000  0.91674000  1.0 -0.0245058572
H  H200  1  0.72819000  0.27987000  0.08326000  1.0 -0.0289629636
H  H201  1  0.19203000  0.79685000  0.48746000  1.0 0.0402965319
H  H202  1  0.30939000  0.70457000  0.51254000  1.0 0.0402965319
H  H203  1  0.69061000  0.20315000  0.39518000  1.0 0.0402965319
H  H204  1  0.80797000  0.29543000  0.60482000  1.0 0.0402965319
H  H205  1  0.80797000  0.20315000  0.51254000  1.0 0.0402965319
H  H206  1  0.69061000  0.29543000  0.48746000  1.0 0.0402965319
H  H207  1  0.30939000  0.79685000  0.60482000  1.0 0.0402965319
H  H208  1  0.19203000  0.70457000  0.39518000  1.0 0.0402965319
C  C1  1  0.41685000  0.41655000  0.19530000  1.0 0.6467486547
C  C2  1  0.22125000  0.22155000  0.80470000  1.0 0.6467486547
C  C3  1  0.77875000  0.58345000  0.00030000  1.0 0.6467486547
C  C4  1  0.58315000  0.77845000  0.99970000  1.0 0.6467486547
C  C5  1  0.58315000  0.58345000  0.80470000  1.0 0.6467486547
C  C6  1  0.77875000  0.77845000  0.19530000  1.0 0.6467486547
C  C7  1  0.22125000  0.41655000  0.99970000  1.0 0.6467486547
C  C8  1  0.41685000  0.22155000  0.00030000  1.0 0.6467486547
C  C9  1  0.46567000  0.46777000  0.26270000  1.0 -0.0521560608
C  C10  1  0.20507000  0.20297000  0.73730000  1.0 -0.0521560608
C  C11  1  0.79493000  0.53223000  0.99790000  1.0 -0.0521560608
C  C12  1  0.53433000  0.79703000  0.00210000  1.0 -0.0521560608
C  C13  1  0.53433000  0.53223000  0.73730000  1.0 -0.0521560608
C  C14  1  0.79493000  0.79703000  0.26270000  1.0 -0.0521560608
C  C15  1  0.20507000  0.46777000  0.00210000  1.0 -0.0521560608
C  C16  1  0.46567000  0.20297000  0.99790000  1.0 -0.0521560608
C  C17  1  0.49332000  0.45432000  0.30100000  1.0 -0.0879687991
C  C18  1  0.15332000  0.19232000  0.69900000  1.0 -0.0879687991
C  C19  1  0.84668000  0.54568000  0.03900000  1.0 -0.0879687991
C  C20  1  0.50668000  0.80768000  0.96100000  1.0 -0.0879687991
C  C21  1  0.50668000  0.54568000  0.69900000  1.0 -0.0879687991
C  C22  1  0.84668000  0.80768000  0.30100000  1.0 -0.0879687991
C  C23  1  0.15332000  0.45432000  0.96100000  1.0 -0.0879687991
C  C24  1  0.49332000  0.19232000  0.03900000  1.0 -0.0879687991
C  C25  1  0.53720000  0.50100000  0.36360000  1.0 -0.1421079206
C  C26  1  0.13740000  0.17360000  0.63640000  1.0 -0.1421079206
C  C27  1  0.86260000  0.49900000  0.03620000  1.0 -0.1421079206
C  C28  1  0.46280000  0.82640000  0.96380000  1.0 -0.1421079206
C  C29  1  0.46280000  0.49900000  0.63640000  1.0 -0.1421079206
C  C30  1  0.86260000  0.82640000  0.36360000  1.0 -0.1421079206
C  C31  1  0.13740000  0.50100000  0.96380000  1.0 -0.1421079206
C  C32  1  0.53720000  0.17360000  0.03620000  1.0 -0.1421079206
C  C33  1  0.55510000  0.56370000  0.39040000  1.0 0.0816047188
C  C34  1  0.17330000  0.16470000  0.60960000  1.0 0.0816047188
C  C35  1  0.82670000  0.43630000  0.99140000  1.0 0.0816047188
C  C36  1  0.44490000  0.83530000  0.00860000  1.0 0.0816047188
C  C37  1  0.44490000  0.43630000  0.60960000  1.0 0.0816047188
C  C38  1  0.82670000  0.83530000  0.39040000  1.0 0.0816047188
C  C39  1  0.17330000  0.56370000  0.00860000  1.0 0.0816047188
C  C40  1  0.55510000  0.16470000  0.99140000  1.0 0.0816047188
C  C41  1  0.52790000  0.57580000  0.35150000  1.0 -0.1328416043
C  C42  1  0.22430000  0.17640000  0.64850000  1.0 -0.1328416043
C  C43  1  0.77570000  0.42420000  0.95210000  1.0 -0.1328416043
C  C44  1  0.47210000  0.82360000  0.04790000  1.0 -0.1328416043
C  C45  1  0.47210000  0.42420000  0.64850000  1.0 -0.1328416043
C  C46  1  0.77570000  0.82360000  0.35150000  1.0 -0.1328416043
C  C47  1  0.22430000  0.57580000  0.04790000  1.0 -0.1328416043
C  C48  1  0.52790000  0.17640000  0.95210000  1.0 -0.1328416043
C  C49  1  0.48240000  0.52800000  0.28860000  1.0 -0.0879687991
C  C50  1  0.23940000  0.19380000  0.71140000  1.0 -0.0879687991
C  C51  1  0.76060000  0.47200000  0.95440000  1.0 -0.0879687991
C  C52  1  0.51760000  0.80620000  0.04560000  1.0 -0.0879687991
C  C53  1  0.51760000  0.47200000  0.71140000  1.0 -0.0879687991
C  C54  1  0.76060000  0.80620000  0.28860000  1.0 -0.0879687991
C  C55  1  0.23940000  0.52800000  0.04560000  1.0 -0.0879687991
C  C56  1  0.48240000  0.19380000  0.95440000  1.0 -0.0879687991
C  C57  1  0.60425000  0.61405000  0.45840000  1.0 0.0816047188
C  C58  1  0.15565000  0.14585000  0.54160000  1.0 0.0816047188
C  C59  1  0.84435000  0.38595000  0.99020000  1.0 0.0816047188
C  C60  1  0.39575000  0.85415000  0.00980000  1.0 0.0816047188
C  C61  1  0.39575000  0.38595000  0.54160000  1.0 0.0816047188
C  C62  1  0.84435000  0.85415000  0.45840000  1.0 0.0816047188
C  C63  1  0.15565000  0.61405000  0.00980000  1.0 0.0816047188
C  C64  1  0.60425000  0.14585000  0.99020000  1.0 0.0816047188
C  C65  1  0.61360000  0.62390000  0.51690000  1.0 -0.1818261704
C  C66  1  0.10700000  0.09670000  0.48310000  1.0 -0.1818261704
C  C67  1  0.89300000  0.37610000  0.98970000  1.0 -0.1818261704
C  C68  1  0.38640000  0.90330000  0.01030000  1.0 -0.1818261704
C  C69  1  0.38640000  0.37610000  0.48310000  1.0 -0.1818261704
C  C70  1  0.89300000  0.90330000  0.51690000  1.0 -0.1818261704
C  C71  1  0.10700000  0.62390000  0.01030000  1.0 -0.1818261704
C  C72  1  0.61360000  0.09670000  0.98970000  1.0 -0.1818261704
C  C73  1  0.65910000  0.66920000  0.57930000  1.0 0.0705418079
C  C74  1  0.08990000  0.07980000  0.42070000  1.0 0.0705418079
C  C75  1  0.91010000  0.33080000  0.98990000  1.0 0.0705418079
C  C76  1  0.34090000  0.92020000  0.01010000  1.0 0.0705418079
C  C77  1  0.34090000  0.33080000  0.42070000  1.0 0.0705418079
C  C78  1  0.91010000  0.92020000  0.57930000  1.0 0.0705418079
C  C79  1  0.08990000  0.66920000  0.01010000  1.0 0.0705418079
C  C80  1  0.65910000  0.07980000  0.98990000  1.0 0.0705418079
C  C81  1  0.69530000  0.70780000  0.58610000  1.0 -0.200646201
C  C82  1  0.12170000  0.10920000  0.41390000  1.0 -0.200646201
C  C83  1  0.87830000  0.29220000  0.98750000  1.0 -0.200646201
C  C84  1  0.30470000  0.89080000  0.01250000  1.0 -0.200646201
C  C85  1  0.30470000  0.29220000  0.41390000  1.0 -0.200646201
C  C86  1  0.87830000  0.89080000  0.58610000  1.0 -0.200646201
C  C87  1  0.12170000  0.70780000  0.01250000  1.0 -0.200646201
C  C88  1  0.69530000  0.10920000  0.98750000  1.0 -0.200646201
C  C89  1  0.68631000  0.69971000  0.52940000  1.0 0.099829291
C  C90  1  0.17031000  0.15691000  0.47060000  1.0 0.0909738962
C  C91  1  0.82969000  0.30029000  0.98660000  1.0 0.099829291
C  C92  1  0.31369000  0.84309000  0.01340000  1.0 0.0909738962
C  C93  1  0.31369000  0.30029000  0.47060000  1.0 0.099829291
C  C94  1  0.82969000  0.84309000  0.52940000  1.0 0.0909738962
C  C95  1  0.17031000  0.69971000  0.01340000  1.0 0.0909738962
C  C96  1  0.68631000  0.15691000  0.98660000  1.0 0.099829291
C  C97  1  0.64130000  0.65270000  0.46600000  1.0 -0.2136831282
C  C98  1  0.18670000  0.17530000  0.53400000  1.0 -0.2136831282
C  C99  1  0.81330000  0.34730000  0.98860000  1.0 -0.2136831282
C  C100  1  0.35870000  0.82470000  0.01140000  1.0 -0.2136831282
C  C101  1  0.35870000  0.34730000  0.53400000  1.0 -0.2136831282
C  C102  1  0.81330000  0.82470000  0.46600000  1.0 -0.2136831282
C  C103  1  0.18670000  0.65270000  0.01140000  1.0 -0.2136831282
C  C104  1  0.64130000  0.17530000  0.98860000  1.0 -0.2136831282
C  C105  1  0.66750000  0.67800000  0.63930000  1.0 0.0909738962
C  C106  1  0.03870000  0.02820000  0.36070000  1.0 0.0909738962
C  C107  1  0.96130000  0.32200000  0.98950000  1.0 0.0909738962
C  C108  1  0.33250000  0.97180000  0.01050000  1.0 0.0909738962
C  C109  1  0.33250000  0.32200000  0.36070000  1.0 0.0909738962
C  C110  1  0.96130000  0.97180000  0.63930000  1.0 0.0909738962
C  C111  1  0.03870000  0.67800000  0.01050000  1.0 0.0909738962
C  C112  1  0.66750000  0.02820000  0.98950000  1.0 0.0909738962
C  C113  1  0.62670000  0.67770000  0.65580000  1.0 -0.1556008904
C  C114  1  0.02190000  0.97090000  0.34420000  1.0 -0.1556008904
C  C115  1  0.97810000  0.32230000  0.94900000  1.0 -0.1556008904
C  C116  1  0.37330000  0.02910000  0.05100000  1.0 -0.1556008904
C  C117  1  0.37330000  0.32230000  0.34420000  1.0 -0.1556008904
C  C118  1  0.97810000  0.02910000  0.65580000  1.0 -0.1556008904
C  C119  1  0.02190000  0.67770000  0.05100000  1.0 -0.1556008904
C  C120  1  0.62670000  0.97090000  0.94900000  1.0 -0.1556008904
C  C121  1  0.63563000  0.68423000  0.71120000  1.0 -0.0879687991
C  C122  1  0.97303000  0.92443000  0.28880000  1.0 -0.0879687991
C  C123  1  0.02697000  0.31577000  0.95140000  1.0 -0.0879687991
C  C124  1  0.36437000  0.07557000  0.04860000  1.0 -0.0879687991
C  C125  1  0.36437000  0.31577000  0.28880000  1.0 -0.0879687991
C  C126  1  0.02697000  0.07557000  0.71120000  1.0 -0.0879687991
C  C127  1  0.97303000  0.68423000  0.04860000  1.0 -0.0879687991
C  C128  1  0.63563000  0.92443000  0.95140000  1.0 -0.0879687991
C  C129  1  0.68475000  0.68985000  0.75110000  1.0 -0.068976458
C  C130  1  0.93875000  0.93365000  0.24890000  1.0 -0.068976458
C  C131  1  0.06125000  0.31015000  0.99490000  1.0 -0.068976458
C  C132  1  0.31525000  0.06635000  0.00510000  1.0 -0.068976458
C  C133  1  0.31525000  0.31015000  0.24890000  1.0 -0.068976458
C  C134  1  0.06125000  0.06635000  0.75110000  1.0 -0.068976458
C  C135  1  0.93875000  0.68985000  0.00510000  1.0 -0.068976458
C  C136  1  0.68475000  0.93365000  0.99490000  1.0 -0.068976458
C  C137  1  0.72590000  0.69150000  0.73540000  1.0 -0.081648588
C  C138  1  0.95610000  0.99050000  0.26460000  1.0 -0.081648588
C  C139  1  0.04390000  0.30850000  0.03440000  1.0 -0.081648588
C  C140  1  0.27410000  0.00950000  0.96560000  1.0 -0.081648588
C  C141  1  0.27410000  0.30850000  0.26460000  1.0 -0.081648588
C  C142  1  0.04390000  0.00950000  0.73540000  1.0 -0.081648588
C  C143  1  0.95610000  0.69150000  0.96560000  1.0 -0.081648588
C  C144  1  0.72590000  0.99050000  0.03440000  1.0 -0.081648588
C  C145  1  0.71788000  0.68628000  0.68120000  1.0 -0.1490149012
C  C146  1  0.00508000  0.03668000  0.31880000  1.0 -0.1490149012
C  C147  1  0.99492000  0.31372000  0.03160000  1.0 -0.1490149012
C  C148  1  0.28212000  0.96332000  0.96840000  1.0 -0.1490149012
C  C149  1  0.28212000  0.31372000  0.31880000  1.0 -0.1490149012
C  C150  1  0.99492000  0.96332000  0.68120000  1.0 -0.1490149012
C  C151  1  0.00508000  0.68628000  0.96840000  1.0 -0.1490149012
C  C152  1  0.71788000  0.03668000  0.03160000  1.0 -0.1490149012
C  C153  1  0.69430000  0.69640000  0.80970000  1.0 0.6300398753
C  C154  1  0.88670000  0.88460000  0.19030000  1.0 0.6300398753
C  C155  1  0.11330000  0.30360000  0.99790000  1.0 0.6300398753
C  C156  1  0.30570000  0.11540000  0.00210000  1.0 0.6300398753
C  C157  1  0.30570000  0.30360000  0.19030000  1.0 0.6300398753
C  C158  1  0.11330000  0.11540000  0.80970000  1.0 0.6300398753
C  C159  1  0.88670000  0.69640000  0.00210000  1.0 0.6300398753
C  C160  1  0.69430000  0.88460000  0.99790000  1.0 0.6300398753
C  C161  1  0.72650000  0.73610000  0.53260000  1.0 -0.1179989705
C  C162  1  0.20350000  0.19390000  0.46740000  1.0 -0.1179989705
C  C163  1  0.79650000  0.26390000  0.99040000  1.0 -0.1179989705
C  C164  1  0.27350000  0.80610000  0.00960000  1.0 -0.1179989705
C  C165  1  0.27350000  0.26390000  0.46740000  1.0 -0.1179989705
C  C166  1  0.79650000  0.80610000  0.53260000  1.0 -0.1179989705
C  C167  1  0.20350000  0.73610000  0.00960000  1.0 -0.1179989705
C  C168  1  0.72650000  0.19390000  0.99040000  1.0 -0.1179989705
C  C169  1  0.74100000  0.80290000  0.57850000  1.0 -0.0103210409
C  C170  1  0.22440000  0.16250000  0.42150000  1.0 -0.0103210409
C  C171  1  0.77560000  0.19710000  0.93810000  1.0 -0.0103210409
C  C172  1  0.25900000  0.83750000  0.06190000  1.0 -0.0103210409
C  C173  1  0.25900000  0.19710000  0.42150000  1.0 -0.0103210409
C  C174  1  0.77560000  0.83750000  0.57850000  1.0 -0.0103210409
C  C175  1  0.22440000  0.80290000  0.06190000  1.0 -0.0103210409
C  C176  1  0.74100000  0.16250000  0.93810000  1.0 -0.0103210409
C  C177  1  0.72380000  0.84730000  0.63770000  1.0 -0.3043181416
C  C178  1  0.20960000  0.08610000  0.36230000  1.0 -0.3043181416
C  C179  1  0.79040000  0.15270000  0.87650000  1.0 -0.3043181416
C  C180  1  0.27620000  0.91390000  0.12350000  1.0 -0.3059519006
C  C181  1  0.27620000  0.15270000  0.36230000  1.0 -0.3043181416
C  C182  1  0.79040000  0.91390000  0.63770000  1.0 -0.3043181416
C  C183  1  0.20960000  0.84730000  0.12350000  1.0 -0.3043181416
C  C184  1  0.72380000  0.08610000  0.87650000  1.0 -0.3043181416
C  C185  1  0.74450000  0.70180000  0.48230000  1.0 0.0294222255
C  C186  1  0.21950000  0.26220000  0.51770000  1.0 0.0294222255
C  C187  1  0.78050000  0.29820000  0.04270000  1.0 0.0294222255
C  C188  1  0.25550000  0.73780000  0.95730000  1.0 0.0294222255
C  C189  1  0.25550000  0.29820000  0.51770000  1.0 0.0294222255
C  C190  1  0.78050000  0.73780000  0.48230000  1.0 0.0294222255
C  C191  1  0.21950000  0.70180000  0.95730000  1.0 0.0294222255
C  C192  1  0.74450000  0.26220000  0.04270000  1.0 0.0294222255
C  C193  1  0.15530000  0.15530000  0.00000000  1.0 0.6300398753
C  C194  1  0.84470000  0.84470000  0.00000000  1.0 0.6300398753
C  C195  1  0.11880000  0.11880000  0.00000000  1.0 -0.0521560608
C  C196  1  0.88120000  0.88120000  0.00000000  1.0 -0.0521560608
C  C197  1  0.10160000  0.15260000  0.05100000  1.0 -0.0879687991
C  C198  1  0.10160000  0.05060000  0.94900000  1.0 -0.0879687991
C  C199  1  0.89840000  0.84740000  0.94900000  1.0 -0.0879687991
C  C200  1  0.89840000  0.94940000  0.05100000  1.0 -0.0879687991
C  C201  1  0.06750000  0.12010000  0.05260000  1.0 -0.1490149012
C  C202  1  0.06750000  0.01490000  0.94740000  1.0 -0.1490149012
C  C203  1  0.93250000  0.87990000  0.94740000  1.0 -0.1490149012
C  C204  1  0.93250000  0.98510000  0.05260000  1.0 -0.1490149012
C  C205  1  0.05090000  0.05090000  0.00000000  1.0 0.1384390668
C  C206  1  0.94910000  0.94910000  0.00000000  1.0 0.1384390668
C  C207  1  0.01450000  0.01450000  0.00000000  1.0 -0.0879687991
C  C208  1  0.98550000  0.98550000  0.00000000  1.0 -0.0879687991
C  C209  1  0.26620000  0.07660000  0.81040000  1.0 0.6428743975
C  C210  1  0.26620000  0.45580000  0.18960000  1.0 0.6428743975
C  C211  1  0.73380000  0.92340000  0.18960000  1.0 0.6428743975
C  C212  1  0.73380000  0.54420000  0.81040000  1.0 0.6428743975
C  C213  1  0.26570000  0.01150000  0.74580000  1.0 -0.0377951077
C  C214  1  0.26570000  0.51990000  0.25420000  1.0 -0.0377951077
C  C215  1  0.73430000  0.98850000  0.25420000  1.0 -0.0377951077
C  C216  1  0.73430000  0.48010000  0.74580000  1.0 -0.0377951077
C  C217  1  0.23770000  0.95250000  0.71480000  1.0 -0.081648588
C  C218  1  0.23770000  0.52290000  0.28520000  1.0 -0.081648588
C  C219  1  0.76230000  0.04750000  0.28520000  1.0 -0.081648588
C  C220  1  0.76230000  0.47710000  0.71480000  1.0 -0.081648588
C  C221  1  0.23690000  0.89140000  0.65450000  1.0 -0.1328416043
C  C222  1  0.23690000  0.58240000  0.34550000  1.0 -0.1328416043
C  C223  1  0.76310000  0.10860000  0.34550000  1.0 -0.1328416043
C  C224  1  0.76310000  0.41760000  0.65450000  1.0 -0.1328416043
C  C225  1  0.26440000  0.88920000  0.62480000  1.0 0.0705418079
C  C226  1  0.26440000  0.63960000  0.37520000  1.0 0.0705418079
C  C227  1  0.73560000  0.11080000  0.37520000  1.0 0.0705418079
C  C228  1  0.73560000  0.36040000  0.62480000  1.0 0.0705418079
C  C229  1  0.29530000  0.94850000  0.65320000  1.0 -0.0879687991
C  C230  1  0.29530000  0.64210000  0.34680000  1.0 -0.0879687991
C  C231  1  0.70470000  0.05150000  0.34680000  1.0 -0.0879687991
C  C232  1  0.70470000  0.35790000  0.65320000  1.0 -0.0879687991
C  C233  1  0.29450000  0.01030000  0.71580000  1.0 -0.0879687991
C  C234  1  0.29450000  0.57870000  0.28420000  1.0 -0.0879687991
C  C235  1  0.70550000  0.98970000  0.28420000  1.0 -0.0879687991
C  C236  1  0.70550000  0.42130000  0.71580000  1.0 -0.0879687991
C  C237  1  0.26850000  0.82900000  0.56050000  1.0 -0.081648588
C  C238  1  0.26850000  0.70800000  0.43950000  1.0 -0.081648588
C  C239  1  0.73150000  0.17100000  0.43950000  1.0 -0.081648588
C  C240  1  0.73150000  0.29200000  0.56050000  1.0 -0.081648588
C  C241  1  0.22540000  0.78920000  0.49500000  1.0 -0.0289629636
C  C242  1  0.29420000  0.73040000  0.50500000  1.0 -0.0289629636
C  C243  1  0.70580000  0.21080000  0.43620000  1.0 -0.0289629636
C  C244  1  0.77460000  0.26960000  0.56380000  1.0 -0.0289629636
C  C245  1  0.77460000  0.21080000  0.50500000  1.0 -0.0289629636
C  C246  1  0.70580000  0.26960000  0.49500000  1.0 -0.0289629636
C  C247  1  0.29420000  0.78920000  0.56380000  1.0 -0.0289629636
C  C248  1  0.22540000  0.73040000  0.43620000  1.0 -0.0289629636
C  C249  1  0.17040000  0.79770000  0.47690000  1.0 -0.3441542077
C  C250  1  0.32080000  0.69350000  0.52310000  1.0 -0.345632769
C  C251  1  0.67920000  0.20230000  0.37270000  1.0 -0.3441542077
C  C252  1  0.82960000  0.30650000  0.62730000  1.0 -0.3441542077
C  C253  1  0.82960000  0.20230000  0.52310000  1.0 -0.3441542077
C  C254  1  0.67920000  0.30650000  0.47690000  1.0 -0.3441542077
C  C255  1  0.32080000  0.79770000  0.62730000  1.0 -0.3441542077
C  C256  1  0.17040000  0.69350000  0.37270000  1.0 -0.3441542077
C  C257  1  0.73270000  0.62590000  0.42440000  1.0 -0.2726743518
C  C258  1  0.20150000  0.30830000  0.57560000  1.0 -0.2726743518
C  C259  1  0.79850000  0.37410000  0.10680000  1.0 -0.2726743518
C  C260  1  0.26730000  0.69170000  0.89320000  1.0 -0.2726743518
C  C261  1  0.26730000  0.37410000  0.57560000  1.0 -0.2726743518
C  C262  1  0.79850000  0.69170000  0.42440000  1.0 -0.2726743518
C  C263  1  0.20150000  0.62590000  0.89320000  1.0 -0.2726743518
C  C264  1  0.73270000  0.30830000  0.10680000  1.0 -0.2726743518
O  O1  1  0.30316000  0.19064000  0.96252000  1.0 -1.0923068426
O  O2  1  0.22812000  0.34064000  0.03748000  1.0 -1.0973706319
O  O3  1  0.77188000  0.80936000  0.11252000  1.0 -1.0923068426
O  O4  1  0.69684000  0.65936000  0.88748000  1.0 -1.0923068426
O  O5  1  0.69684000  0.80936000  0.03748000  1.0 -1.0923068426
O  O6  1  0.77188000  0.65936000  0.96252000  1.0 -1.0923068426
O  O7  1  0.22812000  0.19064000  0.88748000  1.0 -1.0923068426
O  O8  1  0.30316000  0.34064000  0.11252000  1.0 -1.0923068426
O  O9  1  0.26000000  0.22260000  0.03740000  1.0 -1.0736068163
O  O10  1  0.18520000  0.22260000  0.96260000  1.0 -1.0788157059
O  O11  1  0.81480000  0.77740000  0.03740000  1.0 -1.0736068163
O  O12  1  0.74000000  0.77740000  0.96260000  1.0 -1.0736068163
O  O13  1  0.27260000  0.30940000  0.96320000  1.0 -1.1508055999
O  O14  1  0.34620000  0.30940000  0.03680000  1.0 -1.1508055999
O  O15  1  0.65380000  0.69060000  0.96320000  1.0 -1.1508055999
O  O16  1  0.72740000  0.69060000  0.03680000  1.0 -1.1508055999
O  O17  1  0.17008000  0.12228000  0.95220000  1.0 -0.5584752633
O  O18  1  0.17008000  0.21788000  0.04780000  1.0 -0.5584752633
O  O19  1  0.82992000  0.87772000  0.04780000  1.0 -0.5584752633
O  O20  1  0.82992000  0.78212000  0.95220000  1.0 -0.5584752633
O  O21  1  0.29457000  0.12807000  0.83350000  1.0 -0.6005727722
O  O22  1  0.29457000  0.46107000  0.16650000  1.0 -0.5937848462
O  O23  1  0.70543000  0.87193000  0.16650000  1.0 -0.6005727722
O  O24  1  0.70543000  0.53893000  0.83350000  1.0 -0.6005727722
O  O25  1  0.23726000  0.07066000  0.83340000  1.0 -0.5937848462
O  O26  1  0.23726000  0.40386000  0.16660000  1.0 -0.5937848462
O  O27  1  0.76274000  0.92934000  0.16660000  1.0 -0.6005727722
O  O28  1  0.76274000  0.59614000  0.83340000  1.0 -0.5937848462
O  O29  1  0.40768000  0.35744000  0.16804000  1.0 -0.579591063
O  O30  1  0.18940000  0.23964000  0.83196000  1.0 -0.579591063
O  O31  1  0.81060000  0.64256000  0.05024000  1.0 -0.579591063
O  O32  1  0.59232000  0.76036000  0.94976000  1.0 -0.579591063
O  O33  1  0.59232000  0.64256000  0.83196000  1.0 -0.579591063
O  O34  1  0.81060000  0.76036000  0.16804000  1.0 -0.579591063
O  O35  1  0.18940000  0.35744000  0.94976000  1.0 -0.579591063
O  O36  1  0.40768000  0.23964000  0.05024000  1.0 -0.579591063
O  O37  1  0.38761000  0.43531000  0.16890000  1.0 -0.6005727722
O  O38  1  0.26641000  0.21871000  0.83110000  1.0 -0.6005727722
O  O39  1  0.73359000  0.56469000  0.95230000  1.0 -0.6005727722
O  O40  1  0.61239000  0.78129000  0.04770000  1.0 -0.6005727722
O  O41  1  0.61239000  0.56469000  0.83110000  1.0 -0.6005727722
O  O42  1  0.73359000  0.78129000  0.16890000  1.0 -0.6005727722
O  O43  1  0.26641000  0.43531000  0.04770000  1.0 -0.6005727722
O  O44  1  0.38761000  0.21871000  0.95230000  1.0 -0.6005727722
O  O45  1  0.73710000  0.68889000  0.83381000  1.0 -0.579591063
O  O46  1  0.85508000  0.90329000  0.16619000  1.0 -0.579591063
O  O47  1  0.14492000  0.31111000  0.04821000  1.0 -0.5719493237
O  O48  1  0.26290000  0.09671000  0.95179000  1.0 -0.579591063
O  O49  1  0.26290000  0.31111000  0.16619000  1.0 -0.579591063
O  O50  1  0.14492000  0.09671000  0.83381000  1.0 -0.579591063
O  O51  1  0.85508000  0.68889000  0.95179000  1.0 -0.579591063
O  O52  1  0.73710000  0.90329000  0.04821000  1.0 -0.579591063
O  O53  1  0.66014000  0.70936000  0.83218000  1.0 -0.5719493237
O  O54  1  0.87718000  0.82796000  0.16782000  1.0 -0.5719493237
O  O55  1  0.12282000  0.29064000  0.95078000  1.0 -0.5719493237
O  O56  1  0.33986000  0.17204000  0.04922000  1.0 -0.5719493237
O  O57  1  0.33986000  0.29064000  0.16782000  1.0 -0.5719493237
O  O58  1  0.12282000  0.17204000  0.83218000  1.0 -0.5719493237
O  O59  1  0.87718000  0.70936000  0.04922000  1.0 -0.5719493237
O  O60  1  0.66014000  0.82796000  0.95078000  1.0 -0.5719493237
