# DDEC6 charges by PACMAN v1.1 (https://github.com/mtap-research/PACMAN-charge/)
data_NISFAA_ASR_pacman
_symmetry_space_group_name_H-M   'P 1'
_cell_length_a   28.35960000
_cell_length_b   28.35960000
_cell_length_c   28.35960000
_cell_angle_alpha   135.86000000
_cell_angle_beta   106.98500000
_cell_angle_gamma   89.44100000
_symmetry_Int_Tables_number   1
_chemical_formula_structural   Zr3H60(C14O3)5
_chemical_formula_sum   'Zr12 H240 C280 O60'
_cell_volume   14491.20007515
_cell_formula_units_Z   4
loop_
 _symmetry_equiv_pos_site_id
 _symmetry_equiv_pos_as_xyz
  1  'x, y, z'
loop_
 _atom_site_type_symbol
 _atom_site_label
 _atom_site_symmetry_multiplicity
 _atom_site_fract_x
 _atom_site_fract_y
 _atom_site_fract_z
 _atom_site_occupancy
 _atom_site_charge
Zr  Zr1  1  0.33968000  0.26693000  0.07275000  1.0 2.3810781385
Zr  Zr2  1  0.19418000  0.26693000  0.92725000  1.0 2.3810781385
Zr  Zr3  1  0.80582000  0.73307000  0.07275000  1.0 2.3810781385
Zr  Zr4  1  0.66032000  0.73307000  0.92725000  1.0 2.3810781385
Zr  Zr5  1  0.31054000  0.22760000  0.91706000  1.0 2.4293604637
Zr  Zr6  1  0.31054000  0.39348000  0.08294000  1.0 2.4293604637
Zr  Zr7  1  0.68946000  0.77240000  0.08294000  1.0 2.4293604637
Zr  Zr8  1  0.68946000  0.60652000  0.91706000  1.0 2.4293604637
Zr  Zr9  1  0.22335000  0.14159000  0.91824000  1.0 2.3942493941
Zr  Zr10  1  0.22335000  0.30511000  0.08176000  1.0 2.3942493941
Zr  Zr11  1  0.77665000  0.85841000  0.08176000  1.0 2.3942493941
Zr  Zr12  1  0.77665000  0.69489000  0.91824000  1.0 2.3942493941
H  H1  1  0.11410000  0.20603000  0.09193000  1.0 0.1315489595
H  H2  1  0.11410000  0.02217000  0.90807000  1.0 0.1315489595
H  H3  1  0.88590000  0.79397000  0.90807000  1.0 0.1315489595
H  H4  1  0.88590000  0.97783000  0.09193000  1.0 0.1315489595
H  H5  1  0.05640000  0.15213000  0.09574000  1.0 0.1206124087
H  H6  1  0.05640000  0.96067000  0.90427000  1.0 0.1206124087
H  H7  1  0.94360000  0.84787000  0.90427000  1.0 0.1206124087
H  H8  1  0.94360000  0.03934000  0.09574000  1.0 0.1206124087
H  H9  1  0.21621000  0.93100000  0.71479000  1.0 0.1315489595
H  H10  1  0.21621000  0.50142000  0.28521000  1.0 0.1315489595
H  H11  1  0.78379000  0.06900000  0.28521000  1.0 0.1315489595
H  H12  1  0.78379000  0.49858000  0.71479000  1.0 0.1315489595
H  H13  1  0.21653000  0.82174000  0.60521000  1.0 0.1206124087
H  H14  1  0.21653000  0.61132000  0.39479000  1.0 0.1206124087
H  H15  1  0.78347000  0.17826000  0.39479000  1.0 0.1206124087
H  H16  1  0.78347000  0.38868000  0.60521000  1.0 0.1206124087
H  H17  1  0.31456000  0.91991000  0.60535000  1.0 0.1206124087
H  H18  1  0.31456000  0.70921000  0.39465000  1.0 0.1206124087
H  H19  1  0.68544000  0.08009000  0.39465000  1.0 0.1206124087
H  H20  1  0.68544000  0.29079000  0.60535000  1.0 0.1206124087
H  H21  1  0.31530000  0.02860000  0.71330000  1.0 0.1382003019
H  H22  1  0.31530000  0.60201000  0.28670000  1.0 0.1382003019
H  H23  1  0.68470000  0.97140000  0.28670000  1.0 0.1382003019
H  H24  1  0.68470000  0.39799000  0.71330000  1.0 0.1382003019
H  H25  1  0.46410000  0.18302000  0.90736000  1.0 0.1206124087
H  H26  1  0.27566000  0.55674000  0.09264000  1.0 0.1206124087
H  H27  1  0.72434000  0.81698000  0.28108000  1.0 0.1206124087
H  H28  1  0.53590000  0.44326000  0.71892000  1.0 0.1206124087
H  H29  1  0.53590000  0.81698000  0.09264000  1.0 0.1206124087
H  H30  1  0.72434000  0.44326000  0.90736000  1.0 0.1206124087
H  H31  1  0.27566000  0.18302000  0.71892000  1.0 0.1206124087
H  H32  1  0.46410000  0.55674000  0.28108000  1.0 0.1206124087
H  H33  1  0.53934000  0.15163000  0.90325000  1.0 0.1315489595
H  H34  1  0.24838000  0.63609000  0.09675000  1.0 0.1315489595
H  H35  1  0.75162000  0.84837000  0.38771000  1.0 0.1315489595
H  H36  1  0.46066000  0.36391000  0.61229000  1.0 0.1315489595
H  H37  1  0.46066000  0.84837000  0.09675000  1.0 0.1315489595
H  H38  1  0.75162000  0.36391000  0.90325000  1.0 0.1315489595
H  H39  1  0.24838000  0.15163000  0.61229000  1.0 0.1315489595
H  H40  1  0.53934000  0.63609000  0.38771000  1.0 0.1315489595
H  H41  1  0.54941000  0.16293000  0.05534000  1.0 0.1206124087
H  H42  1  0.10759000  0.49407000  0.94466000  1.0 0.1206124087
H  H43  1  0.89241000  0.83707000  0.38648000  1.0 0.1206124087
H  H44  1  0.45059000  0.50593000  0.61352000  1.0 0.1206124087
H  H45  1  0.45059000  0.83707000  0.94466000  1.0 0.1206124087
H  H46  1  0.89241000  0.50593000  0.05534000  1.0 0.1206124087
H  H47  1  0.10759000  0.16293000  0.61352000  1.0 0.1206124087
H  H48  1  0.54941000  0.49407000  0.38648000  1.0 0.1206124087
H  H49  1  0.47593000  0.19665000  0.06118000  1.0 0.1382003019
H  H50  1  0.13547000  0.41475000  0.93882000  1.0 0.1382003019
H  H51  1  0.86453000  0.80335000  0.27928000  1.0 0.1382003019
H  H52  1  0.52407000  0.58525000  0.72072000  1.0 0.1382003019
H  H53  1  0.52407000  0.80335000  0.93882000  1.0 0.1382003019
H  H54  1  0.86453000  0.58525000  0.06118000  1.0 0.1382003019
H  H55  1  0.13547000  0.19665000  0.72072000  1.0 0.1382003019
H  H56  1  0.47593000  0.41475000  0.27928000  1.0 0.1382003019
H  H57  1  0.63246000  0.19404000  0.97234000  1.0 0.1382003019
H  H58  1  0.22170000  0.66012000  0.02766000  1.0 0.1382003019
H  H59  1  0.77830000  0.80596000  0.43842000  1.0 0.1382003019
H  H60  1  0.36754000  0.33988000  0.56158000  1.0 0.1382003019
H  H61  1  0.36754000  0.80596000  0.02766000  1.0 0.1382003019
H  H62  1  0.77830000  0.33988000  0.97234000  1.0 0.1382003019
H  H63  1  0.22170000  0.19404000  0.56158000  1.0 0.1382003019
H  H64  1  0.63246000  0.66012000  0.43842000  1.0 0.1382003019
H  H65  1  0.58772000  0.07158000  0.98520000  1.0 0.1206124087
H  H66  1  0.08638000  0.60252000  0.01480000  1.0 0.1206124087
H  H67  1  0.91362000  0.92842000  0.51614000  1.0 0.1206124087
H  H68  1  0.41228000  0.39748000  0.48386000  1.0 0.1206124087
H  H69  1  0.41228000  0.92842000  0.01480000  1.0 0.1206124087
H  H70  1  0.91362000  0.39748000  0.98520000  1.0 0.1206124087
H  H71  1  0.08638000  0.07158000  0.48386000  1.0 0.1206124087
H  H72  1  0.58772000  0.60252000  0.51614000  1.0 0.1206124087
H  H73  1  0.72841000  0.09974000  0.99137000  1.0 0.1315489595
H  H74  1  0.10837000  0.73704000  0.00863000  1.0 0.1315489595
H  H75  1  0.89163000  0.90026000  0.62867000  1.0 0.1315489595
H  H76  1  0.27159000  0.26296000  0.37133000  1.0 0.1315489595
H  H77  1  0.27159000  0.90026000  0.00863000  1.0 0.1315489595
H  H78  1  0.89163000  0.26296000  0.99137000  1.0 0.1315489595
H  H79  1  0.10837000  0.09974000  0.37133000  1.0 0.1315489595
H  H80  1  0.72841000  0.73704000  0.62867000  1.0 0.1315489595
H  H81  1  0.59795000  0.95750000  0.92039000  1.0 0.1206124087
H  H82  1  0.03711000  0.67756000  0.07961000  1.0 0.1206124087
H  H83  1  0.96289000  0.04250000  0.64045000  1.0 0.1206124087
H  H84  1  0.40205000  0.32244000  0.35955000  1.0 0.1206124087
H  H85  1  0.40205000  0.04250000  0.07961000  1.0 0.1206124087
H  H86  1  0.96289000  0.32244000  0.92039000  1.0 0.1206124087
H  H87  1  0.03711000  0.95750000  0.35955000  1.0 0.1206124087
H  H88  1  0.59795000  0.67756000  0.64045000  1.0 0.1206124087
H  H89  1  0.61382000  0.88322000  0.92844000  1.0 0.1315489595
H  H90  1  0.95478000  0.68538000  0.07156000  1.0 0.1315489595
H  H91  1  0.04522000  0.11678000  0.73060000  1.0 0.1315489595
H  H92  1  0.38618000  0.31462000  0.26940000  1.0 0.1315489595
H  H93  1  0.38618000  0.11678000  0.07156000  1.0 0.1315489595
H  H94  1  0.04522000  0.31462000  0.92844000  1.0 0.1315489595
H  H95  1  0.95478000  0.88322000  0.26940000  1.0 0.1315489595
H  H96  1  0.61382000  0.68538000  0.73060000  1.0 0.1315489595
H  H97  1  0.75837000  0.00963000  0.07660000  1.0 0.1315489595
H  H98  1  0.93303000  0.68177000  0.92340000  1.0 0.1315489595
H  H99  1  0.06697000  0.99037000  0.74874000  1.0 0.1315489595
H  H100  1  0.24163000  0.31823000  0.25126000  1.0 0.1315489595
H  H101  1  0.24163000  0.99037000  0.92340000  1.0 0.1315489595
H  H102  1  0.06697000  0.31823000  0.07660000  1.0 0.1315489595
H  H103  1  0.93303000  0.00963000  0.25126000  1.0 0.1315489595
H  H104  1  0.75837000  0.68177000  0.74874000  1.0 0.1315489595
H  H105  1  0.74484000  0.08497000  0.06899000  1.0 0.1315489595
H  H106  1  0.01598000  0.67585000  0.93101000  1.0 0.1315489595
H  H107  1  0.98402000  0.91503000  0.65987000  1.0 0.1315489595
H  H108  1  0.25516000  0.32415000  0.34013000  1.0 0.1315489595
H  H109  1  0.25516000  0.91503000  0.93101000  1.0 0.1315489595
H  H110  1  0.98402000  0.32415000  0.06899000  1.0 0.1315489595
H  H111  1  0.01598000  0.08497000  0.34013000  1.0 0.1315489595
H  H112  1  0.74484000  0.67585000  0.65987000  1.0 0.1315489595
H  H113  1  0.69791000  0.28681000  0.09496000  1.0 0.1022556333
H  H114  1  0.19185000  0.60295000  0.90504000  1.0 0.1022556333
H  H115  1  0.80815000  0.71319000  0.41110000  1.0 0.1022556333
H  H116  1  0.30209000  0.39705000  0.58890000  1.0 0.1022556333
H  H117  1  0.30209000  0.71319000  0.90504000  1.0 0.1022556333
H  H118  1  0.80815000  0.39705000  0.09496000  1.0 0.1022556333
H  H119  1  0.19185000  0.28681000  0.58890000  1.0 0.1022556333
H  H120  1  0.69791000  0.60295000  0.41110000  1.0 0.1022556333
H  H121  1  0.75077000  0.34595000  0.14550000  1.0 0.1022556333
H  H122  1  0.20045000  0.60527000  0.85450000  1.0 0.1022556333
H  H123  1  0.79955000  0.65405000  0.40482000  1.0 0.1022556333
H  H124  1  0.24923000  0.39473000  0.59518000  1.0 0.1022556333
H  H125  1  0.24923000  0.65405000  0.85450000  1.0 0.1022556333
H  H126  1  0.79955000  0.39473000  0.14550000  1.0 0.1022556333
H  H127  1  0.20045000  0.34595000  0.59518000  1.0 0.1022556333
H  H128  1  0.75077000  0.60527000  0.40482000  1.0 0.1022556333
H  H129  1  0.70441000  0.34125000  0.09444000  1.0 0.1088441789
H  H130  1  0.24681000  0.60997000  0.90556000  1.0 0.1088441789
H  H131  1  0.75319000  0.65875000  0.36316000  1.0 0.1088441789
H  H132  1  0.29559000  0.39003000  0.63684000  1.0 0.1088441789
H  H133  1  0.29559000  0.65875000  0.90556000  1.0 0.1088441789
H  H134  1  0.75319000  0.39003000  0.09444000  1.0 0.1088441789
H  H135  1  0.24681000  0.34125000  0.63684000  1.0 0.1088441789
H  H136  1  0.70441000  0.60997000  0.36316000  1.0 0.1088441789
H  H137  1  0.75949000  0.06009000  0.84586000  1.0 0.0807059618
H  H138  1  0.21423000  0.91363000  0.15414000  1.0 0.0807059618
H  H139  1  0.78577000  0.93991000  0.69940000  1.0 0.0807059618
H  H140  1  0.24051000  0.08637000  0.30060000  1.0 0.0807059618
H  H141  1  0.24051000  0.93991000  0.15414000  1.0 0.0807059618
H  H142  1  0.78577000  0.08637000  0.84586000  1.0 0.0807059618
H  H143  1  0.21423000  0.06009000  0.30060000  1.0 0.0807059618
H  H144  1  0.75949000  0.91363000  0.69940000  1.0 0.0807059618
H  H145  1  0.74541000  0.05230000  0.88990000  1.0 0.1088441789
H  H146  1  0.16239000  0.85550000  0.11009000  1.0 0.1088441789
H  H147  1  0.83761000  0.94771000  0.69312000  1.0 0.1088441789
H  H148  1  0.25459000  0.14450000  0.30689000  1.0 0.1088441789
H  H149  1  0.25459000  0.94771000  0.11009000  1.0 0.1088441789
H  H150  1  0.83761000  0.14449000  0.88990000  1.0 0.1088441789
H  H151  1  0.16239000  0.05230000  0.30689000  1.0 0.1088441789
H  H152  1  0.74541000  0.85550000  0.69312000  1.0 0.1088441789
H  H153  1  0.70235000  0.04908000  0.83747000  1.0 0.1088441789
H  H154  1  0.21161000  0.86488000  0.16253000  1.0 0.1088441789
H  H155  1  0.78839000  0.95092000  0.65327000  1.0 0.1088441789
H  H156  1  0.29765000  0.13512000  0.34673000  1.0 0.1088441789
H  H157  1  0.29765000  0.95092000  0.16253000  1.0 0.1088441789
H  H158  1  0.78839000  0.13512000  0.83747000  1.0 0.1088441789
H  H159  1  0.21161000  0.04908000  0.34673000  1.0 0.1088441789
H  H160  1  0.70235000  0.86488000  0.65327000  1.0 0.1088441789
H  H161  1  0.77131000  0.20813000  0.09166000  1.0 0.1088441789
H  H162  1  0.11647000  0.67965000  0.90834000  1.0 0.1088441789
H  H163  1  0.88353000  0.79187000  0.56318000  1.0 0.1088441789
H  H164  1  0.22869000  0.32035000  0.43682000  1.0 0.1088441789
H  H165  1  0.22869000  0.79187000  0.90834000  1.0 0.1088441789
H  H166  1  0.88353000  0.32035000  0.09166000  1.0 0.1088441789
H  H167  1  0.11647000  0.20813000  0.43682000  1.0 0.1088441789
H  H168  1  0.77131000  0.67965000  0.56318000  1.0 0.1088441789
H  H169  1  0.82926000  0.22487000  0.10525000  1.0 0.1206124087
H  H170  1  0.11962000  0.72401000  0.89475000  1.0 0.1206124087
H  H171  1  0.88038000  0.77513000  0.60439000  1.0 0.1206124087
H  H172  1  0.17074000  0.27599000  0.39561000  1.0 0.1206124087
H  H173  1  0.17074000  0.77513000  0.89475000  1.0 0.1206124087
H  H174  1  0.88038000  0.27599000  0.10525000  1.0 0.1206124087
H  H175  1  0.11962000  0.22487000  0.39561000  1.0 0.1206124087
H  H176  1  0.82926000  0.72401000  0.60439000  1.0 0.1206124087
H  H177  1  0.80181000  0.28421000  0.13714000  1.0 0.1022556333
H  H178  1  0.14707000  0.66467000  0.86286000  1.0 0.1022556333
H  H179  1  0.85293000  0.71579000  0.51760000  1.0 0.1022556333
H  H180  1  0.19819000  0.33533000  0.48240000  1.0 0.1022556333
H  H181  1  0.19819000  0.71579000  0.86286000  1.0 0.1022556333
H  H182  1  0.85293000  0.33533000  0.13714000  1.0 0.1022556333
H  H183  1  0.14707000  0.28421000  0.48240000  1.0 0.1022556333
H  H184  1  0.80181000  0.66467000  0.51760000  1.0 0.1022556333
H  H185  1  0.65727000  0.13270000  0.82233000  1.0 0.0685469009
H  H186  1  0.31037000  0.83494000  0.17767000  1.0 0.0685469009
H  H187  1  0.68963000  0.86730000  0.52457000  1.0 0.0685469009
H  H188  1  0.34273000  0.16506000  0.47543000  1.0 0.0685469009
H  H189  1  0.34273000  0.86730000  0.17767000  1.0 0.0685469009
H  H190  1  0.68963000  0.16506000  0.82233000  1.0 0.0685469009
H  H191  1  0.31037000  0.13270000  0.47543000  1.0 0.0685469009
H  H192  1  0.65727000  0.83494000  0.52457000  1.0 0.0685469009
H  H193  1  0.64716000  0.09002000  0.83620000  1.0 0.1022556333
H  H194  1  0.25382000  0.81096000  0.16380000  1.0 0.1022556333
H  H195  1  0.74618000  0.90998000  0.55714000  1.0 0.1022556333
H  H196  1  0.35284000  0.18904000  0.44286000  1.0 0.1022556333
H  H197  1  0.35284000  0.90998000  0.16380000  1.0 0.1022556333
H  H198  1  0.74618000  0.18904000  0.83620000  1.0 0.1022556333
H  H199  1  0.25382000  0.09002000  0.44286000  1.0 0.1022556333
H  H200  1  0.64716000  0.81096000  0.55714000  1.0 0.1022556333
H  H201  1  0.63380000  0.16170000  0.87956000  1.0 0.1022556333
H  H202  1  0.28214000  0.75424000  0.12044000  1.0 0.1022556333
H  H203  1  0.71786000  0.83830000  0.47210000  1.0 0.1022556333
H  H204  1  0.36620000  0.24576000  0.52790000  1.0 0.1022556333
H  H205  1  0.36620000  0.83830000  0.12044000  1.0 0.1022556333
H  H206  1  0.71786000  0.24576000  0.87956000  1.0 0.1022556333
H  H207  1  0.28214000  0.16170000  0.52790000  1.0 0.1022556333
H  H208  1  0.63380000  0.75424000  0.47210000  1.0 0.1022556333
H  H209  1  0.73906000  0.10427000  0.89701000  1.0 0.0575874911
H  H210  1  0.20726000  0.84205000  0.10299000  1.0 0.0575874911
H  H211  1  0.79274000  0.89573000  0.63479000  1.0 0.0575874911
H  H212  1  0.26094000  0.15795000  0.36521000  1.0 0.0575874911
H  H213  1  0.26094000  0.89573000  0.10299000  1.0 0.0575874911
H  H214  1  0.79274000  0.15795000  0.89701000  1.0 0.0575874911
H  H215  1  0.20726000  0.10427000  0.36521000  1.0 0.0575874911
H  H216  1  0.73906000  0.84205000  0.63479000  1.0 0.0575874911
H  H217  1  0.67863000  0.14330000  0.87859000  1.0 0.047286869
H  H218  1  0.26471000  0.80004000  0.12141000  1.0 0.047286869
H  H219  1  0.73529000  0.85670000  0.53533000  1.0 0.047286869
H  H220  1  0.32137000  0.19996000  0.46467000  1.0 0.047286869
H  H221  1  0.32137000  0.85670000  0.12141000  1.0 0.047286869
H  H222  1  0.73529000  0.19996000  0.87859000  1.0 0.047286869
H  H223  1  0.26471000  0.14330000  0.46467000  1.0 0.047286869
H  H224  1  0.67863000  0.80004000  0.53533000  1.0 0.047286869
H  H225  1  0.72760000  0.29402000  0.07452000  1.0 0.047286869
H  H226  1  0.21950000  0.65308000  0.92548000  1.0 0.047286869
H  H227  1  0.78050000  0.70598000  0.43358000  1.0 0.047286869
H  H228  1  0.27240000  0.34692000  0.56642000  1.0 0.047286869
H  H229  1  0.27240000  0.70598000  0.92548000  1.0 0.047286869
H  H230  1  0.78050000  0.34692000  0.07452000  1.0 0.047286869
H  H231  1  0.21950000  0.29402000  0.56642000  1.0 0.047286869
H  H232  1  0.72760000  0.65308000  0.43358000  1.0 0.047286869
H  H233  1  0.78773000  0.23352000  0.07221000  1.0 0.0575874911
H  H234  1  0.16131000  0.71552000  0.92779000  1.0 0.0575874911
H  H235  1  0.83869000  0.76648000  0.55421000  1.0 0.0575874911
H  H236  1  0.21227000  0.28448000  0.44579000  1.0 0.0575874911
H  H237  1  0.21227000  0.76648000  0.92779000  1.0 0.0575874911
H  H238  1  0.83869000  0.28448000  0.07221000  1.0 0.0575874911
H  H239  1  0.16131000  0.23352000  0.44579000  1.0 0.0575874911
H  H240  1  0.78773000  0.71552000  0.55421000  1.0 0.0575874911
C  C1  1  0.15613000  0.15613000  0.00000000  1.0 0.639362273
C  C2  1  0.84387000  0.84387000  0.00000000  1.0 0.639362273
C  C3  1  0.11986000  0.11986000  0.00000000  1.0 -0.0686613327
C  C4  1  0.88014000  0.88014000  0.00000000  1.0 -0.0686613327
C  C5  1  0.10231000  0.15671000  0.05440000  1.0 -0.0820624579
C  C6  1  0.10231000  0.04791000  0.94560000  1.0 -0.0820624579
C  C7  1  0.89769000  0.84329000  0.94560000  1.0 -0.0820624579
C  C8  1  0.89769000  0.95209000  0.05440000  1.0 -0.0820624579
C  C9  1  0.06760000  0.12520000  0.05760000  1.0 -0.1593275361
C  C10  1  0.06760000  0.01000000  0.94240000  1.0 -0.1593275361
C  C11  1  0.93240000  0.87480000  0.94240000  1.0 -0.1593275361
C  C12  1  0.93240000  0.99000000  0.05760000  1.0 -0.1593275361
C  C13  1  0.05062000  0.05062000  0.00000000  1.0 0.1480654995
C  C14  1  0.94938000  0.94938000  0.00000000  1.0 0.1480654995
C  C15  1  0.01487000  0.01487000  0.00000000  1.0 -0.0884544437
C  C16  1  0.98513000  0.98513000  0.00000000  1.0 -0.0884544437
C  C17  1  0.26767000  0.06067000  0.79300000  1.0 0.639362273
C  C18  1  0.26767000  0.47467000  0.20700000  1.0 0.639362273
C  C19  1  0.73233000  0.93933000  0.20700000  1.0 0.639362273
C  C20  1  0.73233000  0.52533000  0.79300000  1.0 0.639362273
C  C21  1  0.26710000  0.99090000  0.72380000  1.0 -0.0482735236
C  C22  1  0.26710000  0.54330000  0.27620000  1.0 -0.0482735236
C  C23  1  0.73290000  0.00910000  0.27620000  1.0 -0.0482735236
C  C24  1  0.73290000  0.45670000  0.72380000  1.0 -0.0482735236
C  C25  1  0.23610000  0.92860000  0.69250000  1.0 -0.0996017498
C  C26  1  0.23610000  0.54360000  0.30750000  1.0 -0.0996017498
C  C27  1  0.76390000  0.07140000  0.30750000  1.0 -0.0996017498
C  C28  1  0.76390000  0.45640000  0.69250000  1.0 -0.0996017498
C  C29  1  0.23640000  0.86390000  0.62750000  1.0 -0.122300996
C  C30  1  0.23640000  0.60890000  0.37250000  1.0 -0.122300996
C  C31  1  0.76360000  0.13610000  0.37250000  1.0 -0.122300996
C  C32  1  0.76360000  0.39110000  0.62750000  1.0 -0.122300996
C  C33  1  0.26810000  0.86250000  0.59440000  1.0 0.1315489595
C  C34  1  0.26810000  0.67370000  0.40560000  1.0 0.1315489595
C  C35  1  0.73190000  0.13750000  0.40560000  1.0 0.1315489595
C  C36  1  0.73190000  0.32630000  0.59440000  1.0 0.1315489595
C  C37  1  0.29440000  0.92100000  0.62660000  1.0 -0.122300996
C  C38  1  0.29440000  0.66780000  0.37340000  1.0 -0.122300996
C  C39  1  0.70560000  0.07900000  0.37340000  1.0 -0.122300996
C  C40  1  0.70560000  0.33220000  0.62660000  1.0 -0.122300996
C  C41  1  0.29510000  0.98730000  0.69220000  1.0 -0.0884544437
C  C42  1  0.29510000  0.60290000  0.30780000  1.0 -0.0884544437
C  C43  1  0.70490000  0.01270000  0.30780000  1.0 -0.0884544437
C  C44  1  0.70490000  0.39710000  0.69220000  1.0 -0.0884544437
C  C45  1  0.26780000  0.79640000  0.52860000  1.0 -0.0996017498
C  C46  1  0.26780000  0.73920000  0.47140000  1.0 -0.0996017498
C  C47  1  0.73220000  0.20360000  0.47140000  1.0 -0.0996017498
C  C48  1  0.73220000  0.26080000  0.52860000  1.0 -0.0996017498
C  C49  1  0.41402000  0.21449000  0.98889000  1.0 0.639362273
C  C50  1  0.22560000  0.42513000  0.01111000  1.0 0.639362273
C  C51  1  0.77440000  0.78551000  0.19953000  1.0 0.639362273
C  C52  1  0.58598000  0.57487000  0.80047000  1.0 0.639362273
C  C53  1  0.58598000  0.78551000  0.01111000  1.0 0.639362273
C  C54  1  0.77440000  0.57487000  0.98889000  1.0 0.639362273
C  C55  1  0.22560000  0.21449000  0.80047000  1.0 0.639362273
C  C56  1  0.41402000  0.42513000  0.19953000  1.0 0.639362273
C  C57  1  0.46264000  0.19290000  0.98448000  1.0 -0.0406666976
C  C58  1  0.20842000  0.47816000  0.01552000  1.0 -0.0406666976
C  C59  1  0.79158000  0.80710000  0.26974000  1.0 -0.0406666976
C  C60  1  0.53736000  0.52184000  0.73026000  1.0 -0.0406666976
C  C61  1  0.53736000  0.80710000  0.01552000  1.0 -0.0406666976
C  C62  1  0.79158000  0.52184000  0.98448000  1.0 -0.0406666976
C  C63  1  0.20842000  0.19290000  0.73026000  1.0 -0.0406666976
C  C64  1  0.46264000  0.47816000  0.26974000  1.0 -0.0406666976
C  C65  1  0.48167000  0.17945000  0.93754000  1.0 -0.0884544437
C  C66  1  0.24191000  0.54413000  0.06246000  1.0 -0.0884544437
C  C67  1  0.75809000  0.82055000  0.30222000  1.0 -0.0884544437
C  C68  1  0.51833000  0.45587000  0.69778000  1.0 -0.0884544437
C  C69  1  0.51833000  0.82055000  0.06246000  1.0 -0.0884544437
C  C70  1  0.75809000  0.45587000  0.93754000  1.0 -0.0884544437
C  C71  1  0.24191000  0.17945000  0.69778000  1.0 -0.0884544437
C  C72  1  0.48167000  0.54413000  0.30222000  1.0 -0.0884544437
C  C73  1  0.52664000  0.16074000  0.93510000  1.0 -0.1505313037
C  C74  1  0.22564000  0.59154000  0.06490000  1.0 -0.1505313037
C  C75  1  0.77436000  0.83926000  0.36590000  1.0 -0.1505313037
C  C76  1  0.47336000  0.40846000  0.63410000  1.0 -0.1505313037
C  C77  1  0.47336000  0.83926000  0.06490000  1.0 -0.1505313037
C  C78  1  0.77436000  0.40846000  0.93510000  1.0 -0.1505313037
C  C79  1  0.22564000  0.16074000  0.63410000  1.0 -0.1505313037
C  C80  1  0.52664000  0.59154000  0.36590000  1.0 -0.1505313037
C  C81  1  0.55323000  0.15532000  0.98051000  1.0 0.0807059618
C  C82  1  0.17481000  0.57272000  0.01949000  1.0 0.0807059618
C  C83  1  0.82519000  0.84468000  0.39791000  1.0 0.0807059618
C  C84  1  0.44677000  0.42728000  0.60209000  1.0 0.0807059618
C  C85  1  0.44677000  0.84468000  0.01949000  1.0 0.0807059618
C  C86  1  0.82519000  0.42728000  0.98051000  1.0 0.0807059618
C  C87  1  0.17481000  0.15532000  0.60209000  1.0 0.0807059618
C  C88  1  0.55323000  0.57272000  0.39791000  1.0 0.0807059618
C  C89  1  0.53273000  0.16782000  0.02611000  1.0 -0.1505313037
C  C90  1  0.14171000  0.50662000  0.97389000  1.0 -0.1505313037
C  C91  1  0.85829000  0.83218000  0.36491000  1.0 -0.1505313037
C  C92  1  0.46727000  0.49338000  0.63509000  1.0 -0.1505313037
C  C93  1  0.46727000  0.83218000  0.97389000  1.0 -0.1505313037
C  C94  1  0.85829000  0.49338000  0.02611000  1.0 -0.1505313037
C  C95  1  0.14171000  0.16782000  0.63509000  1.0 -0.1505313037
C  C96  1  0.53273000  0.50662000  0.36491000  1.0 -0.1505313037
C  C97  1  0.48859000  0.18723000  0.02916000  1.0 -0.0884544437
C  C98  1  0.15807000  0.45943000  0.97084000  1.0 -0.0884544437
C  C99  1  0.84193000  0.81277000  0.30136000  1.0 -0.0884544437
C  C100  1  0.51141000  0.54057000  0.69864000  1.0 -0.0884544437
C  C101  1  0.51141000  0.81277000  0.97084000  1.0 -0.0884544437
C  C102  1  0.84193000  0.54057000  0.02916000  1.0 -0.0884544437
C  C103  1  0.15807000  0.18723000  0.69864000  1.0 -0.0884544437
C  C104  1  0.48859000  0.45943000  0.30136000  1.0 -0.0884544437
C  C105  1  0.60273000  0.13747000  0.98046000  1.0 0.0807059618
C  C106  1  0.15701000  0.62227000  0.01954000  1.0 0.0807059618
C  C107  1  0.84299000  0.86253000  0.46526000  1.0 0.0807059618
C  C108  1  0.39727000  0.37773000  0.53474000  1.0 0.0807059618
C  C109  1  0.39727000  0.86253000  0.01954000  1.0 0.0807059618
C  C110  1  0.84299000  0.37773000  0.98046000  1.0 0.0807059618
C  C111  1  0.15701000  0.13747000  0.53474000  1.0 0.0807059618
C  C112  1  0.60273000  0.62227000  0.46526000  1.0 0.0807059618
C  C113  1  0.63955000  0.16541000  0.97734000  1.0 -0.2486290043
C  C114  1  0.18807000  0.66221000  0.02266000  1.0 -0.2486290043
C  C115  1  0.81193000  0.83459000  0.47414000  1.0 -0.2486290043
C  C116  1  0.36045000  0.33779000  0.52586000  1.0 -0.2486290043
C  C117  1  0.36045000  0.83459000  0.02266000  1.0 -0.2486290043
C  C118  1  0.81193000  0.33779000  0.97734000  1.0 -0.2486290043
C  C119  1  0.18807000  0.16541000  0.52586000  1.0 -0.2486290043
C  C120  1  0.63955000  0.66221000  0.47414000  1.0 -0.2486290043
C  C121  1  0.61274000  0.09213000  0.98481000  1.0 -0.192720112
C  C122  1  0.10732000  0.62793000  0.01519000  1.0 -0.192720112
C  C123  1  0.89268000  0.90787000  0.52061000  1.0 -0.192720112
C  C124  1  0.38726000  0.37207000  0.47939000  1.0 -0.192720112
C  C125  1  0.38726000  0.90787000  0.01519000  1.0 -0.192720112
C  C126  1  0.89268000  0.37207000  0.98481000  1.0 -0.192720112
C  C127  1  0.10732000  0.09213000  0.47939000  1.0 -0.192720112
C  C128  1  0.61274000  0.62793000  0.52061000  1.0 -0.192720112
C  C129  1  0.66001000  0.07739000  0.98862000  1.0 0.0807059618
C  C130  1  0.08877000  0.67139000  0.01138000  1.0 0.0807059618
C  C131  1  0.91123000  0.92261000  0.58262000  1.0 0.0807059618
C  C132  1  0.33999000  0.32861000  0.41738000  1.0 0.0807059618
C  C133  1  0.33999000  0.92261000  0.01138000  1.0 0.0807059618
C  C134  1  0.91123000  0.32861000  0.98862000  1.0 0.0807059618
C  C135  1  0.08877000  0.07739000  0.41738000  1.0 0.0807059618
C  C136  1  0.66001000  0.67139000  0.58262000  1.0 0.0807059618
C  C137  1  0.69652000  0.10834000  0.98778000  1.0 -0.2329369398
C  C138  1  0.12056000  0.70874000  0.01222000  1.0 -0.2329369398
C  C139  1  0.87944000  0.89166000  0.58818000  1.0 -0.2329369398
C  C140  1  0.30348000  0.29126000  0.41182000  1.0 -0.2329369398
C  C141  1  0.30348000  0.89166000  0.01222000  1.0 -0.2329369398
C  C142  1  0.87944000  0.29126000  0.98778000  1.0 -0.2329369398
C  C143  1  0.12056000  0.10834000  0.41182000  1.0 -0.2329369398
C  C144  1  0.69652000  0.70874000  0.58818000  1.0 -0.2329369398
C  C145  1  0.68625000  0.15232000  0.98153000  1.0 0.0375016066
C  C146  1  0.17079000  0.70472000  0.01847000  1.0 0.0375016066
C  C147  1  0.82921000  0.84768000  0.53393000  1.0 0.0375016066
C  C148  1  0.31375000  0.29528000  0.46607000  1.0 0.0375016066
C  C149  1  0.31375000  0.84768000  0.01847000  1.0 0.0375016066
C  C150  1  0.82921000  0.29528000  0.98153000  1.0 0.0375016066
C  C151  1  0.17079000  0.15232000  0.46607000  1.0 0.0375016066
C  C152  1  0.68625000  0.70472000  0.53393000  1.0 0.0375016066
C  C153  1  0.66955000  0.02914000  0.99361000  1.0 0.0855950708
C  C154  1  0.03553000  0.67594000  0.00639000  1.0 0.0855950708
C  C155  1  0.96447000  0.97086000  0.64041000  1.0 0.0855950708
C  C156  1  0.33045000  0.32406000  0.35959000  1.0 0.0855950708
C  C157  1  0.33045000  0.97086000  0.00639000  1.0 0.0855950708
C  C158  1  0.96447000  0.32406000  0.99361000  1.0 0.0855950708
C  C159  1  0.03553000  0.02914000  0.35959000  1.0 0.0855950708
C  C160  1  0.66955000  0.67594000  0.64041000  1.0 0.0855950708
C  C161  1  0.63030000  0.96820000  0.95170000  1.0 -0.1676832815
C  C162  1  0.01650000  0.67860000  0.04830000  1.0 -0.1676832815
C  C163  1  0.98350000  0.03180000  0.66210000  1.0 -0.1676832815
C  C164  1  0.36970000  0.32140000  0.33790000  1.0 -0.1676832815
C  C165  1  0.36970000  0.03180000  0.04830000  1.0 -0.1676832815
C  C166  1  0.98350000  0.32140000  0.95170000  1.0 -0.1676832815
C  C167  1  0.01650000  0.96820000  0.33790000  1.0 -0.1676832815
C  C168  1  0.63030000  0.67860000  0.66210000  1.0 -0.1676832815
C  C169  1  0.63977000  0.92425000  0.95712000  1.0 -0.0884544437
C  C170  1  0.96713000  0.68265000  0.04288000  1.0 -0.0884544437
C  C171  1  0.03287000  0.07575000  0.71552000  1.0 -0.0884544437
C  C172  1  0.36023000  0.31735000  0.28448000  1.0 -0.0884544437
C  C173  1  0.36023000  0.07575000  0.04288000  1.0 -0.0884544437
C  C174  1  0.03287000  0.31735000  0.95712000  1.0 -0.0884544437
C  C175  1  0.96713000  0.92425000  0.28448000  1.0 -0.0884544437
C  C176  1  0.63977000  0.68265000  0.71552000  1.0 -0.0884544437
C  C177  1  0.68739000  0.94008000  0.00447000  1.0 -0.0482735236
C  C178  1  0.93561000  0.68292000  0.99553000  1.0 -0.0482735236
C  C179  1  0.06439000  0.05992000  0.74731000  1.0 -0.0482735236
C  C180  1  0.31261000  0.31708000  0.25269000  1.0 -0.0482735236
C  C181  1  0.31261000  0.05992000  0.99553000  1.0 -0.0482735236
C  C182  1  0.06439000  0.31708000  0.00447000  1.0 -0.0482735236
C  C183  1  0.93561000  0.94008000  0.25269000  1.0 -0.0482735236
C  C184  1  0.68739000  0.68292000  0.74731000  1.0 -0.0482735236
C  C185  1  0.72625000  0.99955000  0.04544000  1.0 -0.0820624579
C  C186  1  0.95411000  0.68081000  0.95456000  1.0 -0.0820624579
C  C187  1  0.04589000  0.00045000  0.72670000  1.0 -0.0820624579
C  C188  1  0.27375000  0.31919000  0.27330000  1.0 -0.0820624579
C  C189  1  0.27375000  0.00045000  0.95456000  1.0 -0.0820624579
C  C190  1  0.04589000  0.31919000  0.04544000  1.0 -0.0820624579
C  C191  1  0.95411000  0.99955000  0.27330000  1.0 -0.0820624579
C  C192  1  0.72625000  0.68081000  0.72670000  1.0 -0.0820624579
C  C193  1  0.71830000  0.04473000  0.04097000  1.0 -0.1593275361
C  C194  1  0.00376000  0.67733000  0.95903000  1.0 -0.1593275361
C  C195  1  0.99624000  0.95527000  0.67357000  1.0 -0.1593275361
C  C196  1  0.28170000  0.32267000  0.32643000  1.0 -0.1593275361
C  C197  1  0.28170000  0.95527000  0.95903000  1.0 -0.1593275361
C  C198  1  0.99624000  0.32267000  0.04097000  1.0 -0.1593275361
C  C199  1  0.00376000  0.04473000  0.32643000  1.0 -0.1593275361
C  C200  1  0.71830000  0.67733000  0.67357000  1.0 -0.1593275361
C  C201  1  0.69660000  0.89048000  0.00760000  1.0 0.6323540354
C  C202  1  0.88288000  0.68900000  0.99240000  1.0 0.6323540354
C  C203  1  0.11712000  0.10952000  0.80612000  1.0 0.6323540354
C  C204  1  0.30340000  0.31100000  0.19388000  1.0 0.6323540354
C  C205  1  0.30340000  0.10952000  0.99240000  1.0 0.6323540354
C  C206  1  0.11712000  0.31100000  0.00760000  1.0 0.6323540354
C  C207  1  0.88288000  0.89048000  0.19388000  1.0 0.6323540354
C  C208  1  0.69660000  0.68900000  0.80612000  1.0 0.6323540354
C  C209  1  0.72604000  0.18723000  0.98221000  1.0 -0.005806873
C  C210  1  0.20502000  0.74383000  0.01779000  1.0 -0.005806873
C  C211  1  0.79498000  0.81277000  0.53881000  1.0 -0.005806873
C  C212  1  0.27396000  0.25617000  0.46119000  1.0 -0.005806873
C  C213  1  0.27396000  0.81277000  0.01779000  1.0 -0.005806873
C  C214  1  0.79498000  0.25617000  0.98221000  1.0 -0.005806873
C  C215  1  0.20502000  0.18723000  0.46119000  1.0 -0.005806873
C  C216  1  0.72604000  0.74383000  0.53881000  1.0 -0.005806873
C  C217  1  0.74167000  0.26317000  0.03850000  1.0 -0.0035347221
C  C218  1  0.22467000  0.70317000  0.96150000  1.0 -0.0035347221
C  C219  1  0.77533000  0.73683000  0.47850000  1.0 -0.0035347221
C  C220  1  0.25833000  0.29683000  0.52150000  1.0 -0.0035347221
C  C221  1  0.25833000  0.73683000  0.96150000  1.0 -0.0035347221
C  C222  1  0.77533000  0.29683000  0.03850000  1.0 -0.0035347221
C  C223  1  0.22467000  0.26317000  0.52150000  1.0 -0.0035347221
C  C224  1  0.74167000  0.70317000  0.47850000  1.0 -0.0035347221
C  C225  1  0.72150000  0.31420000  0.09850000  1.0 -0.3633854618
C  C226  1  0.21570000  0.62300000  0.90150000  1.0 -0.3633854618
C  C227  1  0.78430000  0.68580000  0.40730000  1.0 -0.3633854618
C  C228  1  0.27850000  0.37700000  0.59270000  1.0 -0.3633854618
C  C229  1  0.27850000  0.68580000  0.90150000  1.0 -0.3633854618
C  C230  1  0.78430000  0.37700000  0.09850000  1.0 -0.3633854618
C  C231  1  0.21570000  0.31420000  0.59270000  1.0 -0.3633854618
C  C232  1  0.72150000  0.62300000  0.40730000  1.0 -0.3633854618
C  C233  1  0.74754000  0.15034000  0.93260000  1.0 -0.005806873
C  C234  1  0.21774000  0.81494000  0.06740000  1.0 -0.005806873
C  C235  1  0.78226000  0.84966000  0.59720000  1.0 -0.0035347221
C  C236  1  0.25246000  0.18506000  0.40280000  1.0 -0.005806873
C  C237  1  0.25246000  0.84966000  0.06740000  1.0 -0.005806873
C  C238  1  0.78226000  0.18506000  0.93260000  1.0 -0.005806873
C  C239  1  0.21774000  0.15034000  0.40280000  1.0 -0.005806873
C  C240  1  0.74754000  0.81494000  0.59720000  1.0 -0.005806873
C  C241  1  0.73800000  0.07060000  0.87120000  1.0 -0.3471958792
C  C242  1  0.19940000  0.86680000  0.12880000  1.0 -0.3471958792
C  C243  1  0.80060000  0.92940000  0.66740000  1.0 -0.3471958792
C  C244  1  0.26200000  0.13320000  0.33260000  1.0 -0.3471958792
C  C245  1  0.26200000  0.92940000  0.12880000  1.0 -0.3471958792
C  C246  1  0.80060000  0.13320000  0.87120000  1.0 -0.3471958792
C  C247  1  0.19940000  0.07060000  0.33260000  1.0 -0.3471958792
C  C248  1  0.73800000  0.86680000  0.66740000  1.0 -0.3471958792
C  C249  1  0.77520000  0.22570000  0.03410000  1.0 -0.0035347221
C  C250  1  0.19160000  0.74110000  0.96590000  1.0 -0.0035347221
C  C251  1  0.80840000  0.77430000  0.54950000  1.0 -0.0035347221
C  C252  1  0.22480000  0.25890000  0.45050000  1.0 -0.0035347221
C  C253  1  0.22480000  0.77430000  0.96590000  1.0 -0.0035347221
C  C254  1  0.80840000  0.25890000  0.03410000  1.0 -0.0035347221
C  C255  1  0.19160000  0.22570000  0.45050000  1.0 -0.0035347221
C  C256  1  0.77520000  0.74110000  0.54950000  1.0 -0.0035347221
C  C257  1  0.79720000  0.23460000  0.09660000  1.0 -0.3664997746
C  C258  1  0.13800000  0.70060000  0.90340000  1.0 -0.3664997746
C  C259  1  0.86200000  0.76540000  0.56260000  1.0 -0.3664997746
C  C260  1  0.20280000  0.29940000  0.43740000  1.0 -0.3664997746
C  C261  1  0.20280000  0.76540000  0.90340000  1.0 -0.3664997746
C  C262  1  0.86200000  0.29940000  0.09660000  1.0 -0.3664997746
C  C263  1  0.13800000  0.23460000  0.43740000  1.0 -0.3664997746
C  C264  1  0.79720000  0.70060000  0.56260000  1.0 -0.3664997746
C  C265  1  0.71110000  0.17240000  0.91950000  1.0 -0.005806873
C  C266  1  0.25290000  0.79160000  0.08050000  1.0 -0.005806873
C  C267  1  0.74710000  0.82760000  0.53870000  1.0 -0.005806873
C  C268  1  0.28890000  0.20840000  0.46130000  1.0 -0.005806873
C  C269  1  0.28890000  0.82760000  0.08050000  1.0 -0.005806873
C  C270  1  0.74710000  0.20840000  0.91950000  1.0 -0.005806873
C  C271  1  0.25290000  0.17240000  0.46130000  1.0 -0.005806873
C  C272  1  0.71110000  0.79160000  0.53870000  1.0 -0.005806873
C  C273  1  0.65750000  0.13660000  0.85890000  1.0 -0.3471958792
C  C274  1  0.27770000  0.79860000  0.14110000  1.0 -0.3471958792
C  C275  1  0.72230000  0.86340000  0.52090000  1.0 -0.3471958792
C  C276  1  0.34250000  0.20140000  0.47910000  1.0 -0.3471958792
C  C277  1  0.34250000  0.86340000  0.14110000  1.0 -0.3471958792
C  C278  1  0.72230000  0.20140000  0.85890000  1.0 -0.3471958792
C  C279  1  0.27770000  0.13660000  0.47910000  1.0 -0.3471958792
C  C280  1  0.65750000  0.79860000  0.52090000  1.0 -0.3471958792
O  O1  1  0.30291000  0.18612000  0.95465000  1.0 -1.0909963106
O  O2  1  0.23147000  0.34826000  0.04535000  1.0 -1.0909963106
O  O3  1  0.76853000  0.81388000  0.11679000  1.0 -1.0909963106
O  O4  1  0.69709000  0.65174000  0.88321000  1.0 -1.0909963106
O  O5  1  0.69709000  0.81388000  0.04535000  1.0 -1.0909963106
O  O6  1  0.76853000  0.65174000  0.95465000  1.0 -1.0909963106
O  O7  1  0.23147000  0.18612000  0.88321000  1.0 -1.0909963106
O  O8  1  0.30291000  0.34826000  0.11679000  1.0 -1.0909963106
O  O9  1  0.26001000  0.22374000  0.03627000  1.0 -1.0909963106
O  O10  1  0.18747000  0.22374000  0.96373000  1.0 -1.0909963106
O  O11  1  0.81253000  0.77626000  0.03627000  1.0 -1.0818858003
O  O12  1  0.73999000  0.77626000  0.96373000  1.0 -1.0818858003
O  O13  1  0.17074000  0.11810000  0.94736000  1.0 -0.5657351022
O  O14  1  0.17074000  0.22338000  0.05264000  1.0 -0.5657351022
O  O15  1  0.82926000  0.88190000  0.05264000  1.0 -0.5657351022
O  O16  1  0.82926000  0.77662000  0.94736000  1.0 -0.5657351022
O  O17  1  0.23742000  0.05621000  0.81879000  1.0 -0.6196586644
O  O18  1  0.23742000  0.41863000  0.18121000  1.0 -0.6196586644
O  O19  1  0.76258000  0.94379000  0.18121000  1.0 -0.6196586644
O  O20  1  0.76258000  0.58137000  0.81879000  1.0 -0.6196586644
O  O21  1  0.29557000  0.11398000  0.81841000  1.0 -0.5900280729
O  O22  1  0.29557000  0.47716000  0.18159000  1.0 -0.5900280729
O  O23  1  0.70443000  0.88602000  0.18159000  1.0 -0.5900280729
O  O24  1  0.70443000  0.52284000  0.81841000  1.0 -0.5900280729
O  O25  1  0.38722000  0.20989000  0.94103000  1.0 -0.5900280729
O  O26  1  0.26886000  0.44619000  0.05897000  1.0 -0.5900280729
O  O27  1  0.73114000  0.79011000  0.17733000  1.0 -0.5900280729
O  O28  1  0.61278000  0.55381000  0.82267000  1.0 -0.5900280729
O  O29  1  0.61278000  0.79011000  0.05897000  1.0 -0.5900280729
O  O30  1  0.73114000  0.55381000  0.94103000  1.0 -0.5900280729
O  O31  1  0.26886000  0.20989000  0.82267000  1.0 -0.5900280729
O  O32  1  0.38722000  0.44619000  0.17733000  1.0 -0.5900280729
O  O33  1  0.40474000  0.23645000  0.04197000  1.0 -0.5818148261
O  O34  1  0.19448000  0.36277000  0.95803000  1.0 -0.5818148261
O  O35  1  0.80552000  0.76355000  0.16829000  1.0 -0.5818148261
O  O36  1  0.59526000  0.63723000  0.83171000  1.0 -0.5818148261
O  O37  1  0.59526000  0.76355000  0.95803000  1.0 -0.5818148261
O  O38  1  0.80552000  0.63723000  0.04197000  1.0 -0.5818148261
O  O39  1  0.19448000  0.23645000  0.83171000  1.0 -0.5818148261
O  O40  1  0.40474000  0.36277000  0.16829000  1.0 -0.5818148261
O  O41  1  0.66302000  0.83137000  0.95931000  1.0 -0.5628135359
O  O42  1  0.87206000  0.70371000  0.04069000  1.0 -0.5628135359
O  O43  1  0.12794000  0.16863000  0.83165000  1.0 -0.5628135359
O  O44  1  0.33698000  0.29629000  0.16835000  1.0 -0.5628135359
O  O45  1  0.33698000  0.16863000  0.04069000  1.0 -0.5628135359
O  O46  1  0.12794000  0.29629000  0.95931000  1.0 -0.5628135359
O  O47  1  0.87206000  0.83137000  0.16835000  1.0 -0.5628135359
O  O48  1  0.66302000  0.70371000  0.83165000  1.0 -0.5628135359
O  O49  1  0.73842000  0.91217000  0.05901000  1.0 -0.5818148261
O  O50  1  0.85316000  0.67941000  0.94099000  1.0 -0.5818148261
O  O51  1  0.14684000  0.08783000  0.82625000  1.0 -0.5818148261
O  O52  1  0.26158000  0.32059000  0.17375000  1.0 -0.5818148261
O  O53  1  0.26158000  0.08783000  0.94099000  1.0 -0.5818148261
O  O54  1  0.14684000  0.32059000  0.05901000  1.0 -0.5818148261
O  O55  1  0.85316000  0.91217000  0.17375000  1.0 -0.5818148261
O  O56  1  0.73842000  0.67941000  0.82625000  1.0 -0.5818148261
O  O57  1  0.34623000  0.31087000  0.03536000  1.0 -1.1403416847
O  O58  1  0.27551000  0.31087000  0.96464000  1.0 -1.1403416847
O  O59  1  0.72449000  0.68913000  0.03536000  1.0 -1.1403416847
O  O60  1  0.65377000  0.68913000  0.96464000  1.0 -1.1403416847
