# DDEC6 charges by PACMAN v1.1 (https://github.com/mtap-research/PACMAN-charge/)
data_NISGAB_ASR_pacman
_symmetry_space_group_name_H-M   'P 1'
_cell_length_a   28.33560000
_cell_length_b   28.33560000
_cell_length_c   28.33560000
_cell_angle_alpha   131.76000000
_cell_angle_beta   108.85100000
_cell_angle_gamma   90.62340000
_symmetry_Int_Tables_number   1
_chemical_formula_structural   Zr6H152(C31O6)5
_chemical_formula_sum   'Zr12 H304 C310 O60'
_cell_volume   15214.64548660
_cell_formula_units_Z   2
loop_
 _symmetry_equiv_pos_site_id
 _symmetry_equiv_pos_as_xyz
  1  'x, y, z'
loop_
 _atom_site_type_symbol
 _atom_site_label
 _atom_site_symmetry_multiplicity
 _atom_site_fract_x
 _atom_site_fract_y
 _atom_site_fract_z
 _atom_site_occupancy
 _atom_site_charge
Zr  Zr1  1  0.80529000  0.73002000  0.92473000  1.0 2.3906408558
Zr  Zr2  1  0.80529000  0.88056000  0.07527000  1.0 2.3906408558
Zr  Zr3  1  0.19471000  0.26998000  0.07527000  1.0 2.3956726799
Zr  Zr4  1  0.19471000  0.11944000  0.92473000  1.0 2.3906408558
Zr  Zr5  1  0.71731000  0.64145000  0.92414000  1.0 2.424159488
Zr  Zr6  1  0.71731000  0.79317000  0.07586000  1.0 2.424159488
Zr  Zr7  1  0.28269000  0.35855000  0.07586000  1.0 2.4253078709
Zr  Zr8  1  0.28269000  0.20683000  0.92414000  1.0 2.424159488
Zr  Zr9  1  0.83578000  0.76102000  0.07476000  1.0 2.3906408558
Zr  Zr10  1  0.68626000  0.76102000  0.92524000  1.0 2.3906408558
Zr  Zr11  1  0.31374000  0.23898000  0.07476000  1.0 2.3906408558
Zr  Zr12  1  0.16422000  0.23898000  0.92524000  1.0 2.3906408558
H  H1  1  0.95821000  0.03713000  0.26214000  1.0 0.1304484345
H  H2  1  0.77499000  0.69607000  0.73786000  1.0 0.1304484345
H  H3  1  0.22501000  0.96287000  0.92108000  1.0 0.1304484345
H  H4  1  0.04179000  0.30393000  0.07892000  1.0 0.1304484345
H  H5  1  0.04179000  0.96287000  0.73786000  1.0 0.1304484345
H  H6  1  0.22501000  0.30393000  0.26214000  1.0 0.1304484345
H  H7  1  0.77499000  0.03713000  0.07892000  1.0 0.1304484345
H  H8  1  0.95821000  0.69607000  0.92108000  1.0 0.1304484345
H  H9  1  0.03286000  0.11703000  0.36749000  1.0 0.1304484345
H  H10  1  0.74954000  0.66537000  0.63251000  1.0 0.1304484345
H  H11  1  0.25046000  0.88297000  0.91583000  1.0 0.1304484345
H  H12  1  0.96714000  0.33463000  0.08417000  1.0 0.1304484345
H  H13  1  0.96714000  0.88297000  0.63251000  1.0 0.1304484345
H  H14  1  0.25046000  0.33463000  0.36749000  1.0 0.1304484345
H  H15  1  0.74954000  0.11703000  0.08417000  1.0 0.1304484345
H  H16  1  0.03286000  0.66537000  0.91583000  1.0 0.1304484345
H  H17  1  0.04839000  0.98834000  0.38593000  1.0 0.1201543358
H  H18  1  0.60241000  0.66246000  0.61407000  1.0 0.1201543358
H  H19  1  0.39759000  0.01166000  0.06005000  1.0 0.1201543358
H  H20  1  0.95161000  0.33754000  0.93995000  1.0 0.1201543358
H  H21  1  0.95161000  0.01166000  0.61407000  1.0 0.1201543358
H  H22  1  0.39759000  0.33754000  0.38593000  1.0 0.1201543358
H  H23  1  0.60241000  0.98834000  0.93995000  1.0 0.1201543358
H  H24  1  0.04839000  0.66246000  0.06005000  1.0 0.1201543358
H  H25  1  0.97454000  0.90800000  0.27936000  1.0 0.1304484345
H  H26  1  0.62864000  0.69518000  0.72064000  1.0 0.1304484345
H  H27  1  0.37136000  0.09200000  0.06654000  1.0 0.1304484345
H  H28  1  0.02546000  0.30482000  0.93346000  1.0 0.1304484345
H  H29  1  0.02546000  0.09200000  0.72064000  1.0 0.1304484345
H  H30  1  0.37136000  0.30482000  0.27936000  1.0 0.1304484345
H  H31  1  0.62864000  0.90800000  0.93346000  1.0 0.1304484345
H  H32  1  0.97454000  0.69518000  0.06654000  1.0 0.1304484345
H  H33  1  0.12753000  0.14469000  0.42228000  1.0 0.1394155918
H  H34  1  0.72241000  0.70525000  0.57772000  1.0 0.1394155918
H  H35  1  0.27759000  0.85531000  0.98284000  1.0 0.1394155918
H  H36  1  0.87247000  0.29475000  0.01716000  1.0 0.1394155918
H  H37  1  0.87247000  0.85531000  0.57772000  1.0 0.1394155918
H  H38  1  0.27759000  0.29475000  0.42228000  1.0 0.1394155918
H  H39  1  0.72241000  0.14469000  0.01716000  1.0 0.1394155918
H  H40  1  0.12753000  0.70525000  0.98284000  1.0 0.1394155918
H  H41  1  0.22260000  0.23367000  0.61865000  1.0 0.1394155918
H  H42  1  0.61502000  0.60395000  0.38135000  1.0 0.1394155918
H  H43  1  0.38498000  0.76633000  0.98893000  1.0 0.1394155918
H  H44  1  0.77740000  0.39605000  0.01107000  1.0 0.1394155918
H  H45  1  0.77740000  0.76633000  0.38135000  1.0 0.1394155918
H  H46  1  0.38498000  0.39605000  0.61865000  1.0 0.1394155918
H  H47  1  0.61502000  0.23367000  0.01107000  1.0 0.1394155918
H  H48  1  0.22260000  0.60395000  0.98893000  1.0 0.1394155918
H  H49  1  0.08324000  0.09491000  0.50822000  1.0 0.1304484345
H  H50  1  0.58669000  0.57503000  0.49178000  1.0 0.1304484345
H  H51  1  0.41331000  0.90509000  0.98834000  1.0 0.1304484345
H  H52  1  0.91675000  0.42497000  0.01166000  1.0 0.1304484345
H  H53  1  0.91675000  0.90509000  0.49178000  1.0 0.1304484345
H  H54  1  0.41331000  0.42497000  0.50822000  1.0 0.1304484345
H  H55  1  0.58669000  0.09491000  0.01166000  1.0 0.1304484345
H  H56  1  0.08324000  0.57503000  0.98834000  1.0 0.1304484345
H  H57  1  0.24201000  0.17868000  0.65809000  1.0 0.1394155918
H  H58  1  0.52059000  0.58392000  0.34191000  1.0 0.1394155918
H  H59  1  0.47941000  0.82132000  0.06333000  1.0 0.1394155918
H  H60  1  0.75799000  0.41608000  0.93667000  1.0 0.1394155918
H  H61  1  0.75799000  0.82132000  0.34191000  1.0 0.1394155918
H  H62  1  0.47941000  0.41608000  0.65809000  1.0 0.1394155918
H  H63  1  0.52059000  0.17868000  0.93667000  1.0 0.1394155918
H  H64  1  0.24201000  0.58392000  0.06333000  1.0 0.1394155918
H  H65  1  0.25915000  0.18854000  0.75039000  1.0 0.1201543358
H  H66  1  0.43815000  0.50876000  0.24961000  1.0 0.1201543358
H  H67  1  0.56185000  0.81146000  0.07061000  1.0 0.1201543358
H  H68  1  0.74085000  0.49124000  0.92939000  1.0 0.1201543358
H  H69  1  0.74085000  0.81146000  0.24961000  1.0 0.1201543358
H  H70  1  0.56185000  0.49124000  0.75039000  1.0 0.1201543358
H  H71  1  0.43815000  0.18854000  0.92939000  1.0 0.1201543358
H  H72  1  0.25915000  0.50876000  0.07061000  1.0 0.1201543358
H  H73  1  0.11130000  0.18779000  0.72533000  1.0 0.1304484345
H  H74  1  0.46246000  0.38597000  0.27467000  1.0 0.1304484345
H  H75  1  0.53754000  0.81221000  0.92351000  1.0 0.1304484345
H  H76  1  0.88870000  0.61403000  0.07649000  1.0 0.1304484345
H  H77  1  0.88870000  0.81221000  0.27467000  1.0 0.1304484345
H  H78  1  0.53754000  0.61403000  0.72533000  1.0 0.1304484345
H  H79  1  0.46246000  0.18779000  0.07649000  1.0 0.1304484345
H  H80  1  0.11130000  0.38597000  0.92351000  1.0 0.1304484345
H  H81  1  0.09350000  0.17205000  0.62948000  1.0 0.1201543358
H  H82  1  0.54258000  0.46402000  0.37052000  1.0 0.1201543358
H  H83  1  0.45743000  0.82795000  0.92144000  1.0 0.1201543358
H  H84  1  0.90651000  0.53599000  0.07856000  1.0 0.1201543358
H  H85  1  0.90651000  0.82795000  0.37052000  1.0 0.1201543358
H  H86  1  0.45743000  0.53599000  0.62948000  1.0 0.1201543358
H  H87  1  0.54258000  0.17206000  0.07856000  1.0 0.1201543358
H  H88  1  0.09350000  0.46402000  0.92144000  1.0 0.1201543358
H  H89  1  0.12510000  0.26137000  0.49619000  1.0 0.1009069765
H  H90  1  0.76518000  0.62891000  0.50381000  1.0 0.1009069765
H  H91  1  0.23482000  0.73863000  0.86373000  1.0 0.1009069765
H  H92  1  0.87490000  0.37109000  0.13627000  1.0 0.1009069765
H  H93  1  0.87490000  0.73863000  0.50381000  1.0 0.1009069765
H  H94  1  0.23482000  0.37109000  0.49619000  1.0 0.1009069765
H  H95  1  0.76518000  0.26137000  0.13627000  1.0 0.1009069765
H  H96  1  0.12510000  0.62891000  0.86373000  1.0 0.1009069765
H  H97  1  0.15327000  0.33226000  0.53113000  1.0 0.1093016833
H  H98  1  0.80113000  0.62214000  0.46887000  1.0 0.1093016833
H  H99  1  0.19887000  0.66774000  0.82101000  1.0 0.1093016833
H  H100  1  0.84673000  0.37786000  0.17899000  1.0 0.1093016833
H  H101  1  0.84673000  0.66774000  0.46887000  1.0 0.1093016833
H  H102  1  0.19887000  0.37786000  0.53113000  1.0 0.1093016833
H  H103  1  0.80113000  0.33226000  0.17899000  1.0 0.1093016833
H  H104  1  0.15327000  0.62214000  0.82101000  1.0 0.1093016833
H  H105  1  0.13529000  0.26959000  0.45048000  1.0 0.1093016833
H  H106  1  0.81911000  0.68481000  0.54952000  1.0 0.1093016833
H  H107  1  0.18089000  0.73041000  0.86570000  1.0 0.1093016833
H  H108  1  0.86471000  0.31519000  0.13430000  1.0 0.1093016833
H  H109  1  0.86471000  0.73041000  0.54952000  1.0 0.1093016833
H  H110  1  0.18089000  0.31519000  0.45048000  1.0 0.1093016833
H  H111  1  0.81911000  0.26959000  0.13430000  1.0 0.1093016833
H  H112  1  0.13529000  0.68481000  0.86570000  1.0 0.1093016833
H  H113  1  0.33133000  0.21269000  0.57630000  1.0 0.0625730655
H  H114  1  0.63639000  0.75503000  0.42370000  1.0 0.0625730655
H  H115  1  0.36361000  0.78731000  0.11864000  1.0 0.0625730655
H  H116  1  0.66867000  0.24497000  0.88136000  1.0 0.0714509859
H  H117  1  0.66867000  0.78731000  0.42370000  1.0 0.0625730655
H  H118  1  0.36361000  0.24497000  0.57630000  1.0 0.0714509859
H  H119  1  0.63639000  0.21269000  0.88136000  1.0 0.0714509859
H  H120  1  0.33133000  0.75503000  0.11864000  1.0 0.0625730655
H  H121  1  0.28950000  0.21769000  0.60333000  1.0 0.1009069765
H  H122  1  0.61436000  0.68617000  0.39667000  1.0 0.1009069765
H  H123  1  0.38564000  0.78231000  0.07181000  1.0 0.1009069765
H  H124  1  0.71050000  0.31383000  0.92819000  1.0 0.1009069765
H  H125  1  0.71050000  0.78231000  0.39667000  1.0 0.1009069765
H  H126  1  0.38564000  0.31383000  0.60333000  1.0 0.1009069765
H  H127  1  0.61436000  0.21769000  0.92819000  1.0 0.1009069765
H  H128  1  0.28950000  0.68617000  0.07181000  1.0 0.1009069765
H  H129  1  0.27709000  0.15560000  0.52441000  1.0 0.1009069765
H  H130  1  0.63119000  0.75268000  0.47559000  1.0 0.1009069765
H  H131  1  0.36881000  0.84440000  0.12149000  1.0 0.1009069765
H  H132  1  0.72291000  0.24732000  0.87851000  1.0 0.1009069765
H  H133  1  0.72291000  0.84440000  0.47559000  1.0 0.1009069765
H  H134  1  0.36881000  0.24732000  0.52441000  1.0 0.1009069765
H  H135  1  0.63119000  0.15560000  0.87851000  1.0 0.1009069765
H  H136  1  0.27709000  0.75268000  0.12149000  1.0 0.1009069765
H  H137  1  0.81139000  0.54633000  0.73494000  1.0 0.1304484345
H  H138  1  0.81139000  0.07645000  0.26506000  1.0 0.1304484345
H  H139  1  0.18861000  0.45367000  0.26506000  1.0 0.1304484345
H  H140  1  0.18861000  0.92355000  0.73494000  1.0 0.1304484345
H  H141  1  0.81049000  0.44494000  0.63445000  1.0 0.1594611863
H  H142  1  0.81049000  0.17604000  0.36555000  1.0 0.1594611863
H  H143  1  0.18951000  0.55506000  0.36555000  1.0 0.1594611863
H  H144  1  0.18951000  0.82396000  0.63445000  1.0 0.1594611863
H  H145  1  0.71247000  0.34726000  0.63479000  1.0 0.152576075
H  H146  1  0.71247000  0.07768000  0.36521000  1.0 0.152576075
H  H147  1  0.28753000  0.65274000  0.36521000  1.0 0.152576075
H  H148  1  0.28753000  0.92232000  0.63479000  1.0 0.152576075
H  H149  1  0.71177000  0.44571000  0.73394000  1.0 0.1304484345
H  H150  1  0.71177000  0.97783000  0.26606000  1.0 0.1304484345
H  H151  1  0.28823000  0.55429000  0.26606000  1.0 0.1304484345
H  H152  1  0.28823000  0.02217000  0.73394000  1.0 0.1304484345
H  H153  1  0.91706000  0.00214000  0.08508000  1.0 0.1394155918
H  H154  1  0.91706000  0.83198000  0.91492000  1.0 0.1394155918
H  H155  1  0.08294000  0.99786000  0.91492000  1.0 0.1394155918
H  H156  1  0.08294000  0.16802000  0.08508000  1.0 0.1394155918
H  H157  1  0.97444000  0.05996000  0.08552000  1.0 0.1093016833
H  H158  1  0.97444000  0.88892000  0.91448000  1.0 0.1093016833
H  H159  1  0.02556000  0.94004000  0.91448000  1.0 0.1093016833
H  H160  1  0.02556000  0.11108000  0.08552000  1.0 0.1093016833
H  H161  1  0.63927000  0.26128000  0.48093000  1.0 0.1093016833
H  H162  1  0.78035000  0.15834000  0.51907000  1.0 0.1093016833
H  H163  1  0.21965000  0.73872000  0.37799000  1.0 0.1093016833
H  H164  1  0.36073000  0.84166000  0.62201000  1.0 0.1093016833
H  H165  1  0.36073000  0.73872000  0.51907000  1.0 0.1093016833
H  H166  1  0.21965000  0.84166000  0.48093000  1.0 0.1093016833
H  H167  1  0.78035000  0.26128000  0.62201000  1.0 0.1093016833
H  H168  1  0.63927000  0.15834000  0.37799000  1.0 0.1093016833
H  H169  1  0.66418000  0.33258000  0.51458000  1.0 0.1009069765
H  H170  1  0.81800000  0.14960000  0.48542000  1.0 0.1009069765
H  H171  1  0.18200000  0.66742000  0.33160000  1.0 0.1009069765
H  H172  1  0.33582000  0.85040000  0.66840000  1.0 0.1009069765
H  H173  1  0.33582000  0.66742000  0.48542000  1.0 0.1009069765
H  H174  1  0.18200000  0.85040000  0.51458000  1.0 0.1009069765
H  H175  1  0.81800000  0.33258000  0.66840000  1.0 0.1009069765
H  H176  1  0.66418000  0.14960000  0.33160000  1.0 0.1009069765
H  H177  1  0.64660000  0.26967000  0.43411000  1.0 0.0625730655
H  H178  1  0.83556000  0.21249000  0.56589000  1.0 0.0625730655
H  H179  1  0.16444000  0.73033000  0.37693000  1.0 0.0625730655
H  H180  1  0.35340000  0.78751000  0.62307000  1.0 0.0625730655
H  H181  1  0.35340000  0.73033000  0.56589000  1.0 0.0625730655
H  H182  1  0.16444000  0.78751000  0.43411000  1.0 0.0625730655
H  H183  1  0.83556000  0.26967000  0.62307000  1.0 0.0625730655
H  H184  1  0.64660000  0.21249000  0.37693000  1.0 0.0625730655
H  H185  1  0.24396000  0.11552000  0.38343000  1.0 0.0811737422
H  H186  1  0.73210000  0.86052000  0.61657000  1.0 0.0811737422
H  H187  1  0.26791000  0.88447000  0.12843000  1.0 0.0811737422
H  H188  1  0.75604000  0.13947000  0.87157000  1.0 0.0811737422
H  H189  1  0.75604000  0.88448000  0.61657000  1.0 0.0811737422
H  H190  1  0.26791000  0.13947000  0.38343000  1.0 0.0811737422
H  H191  1  0.73210000  0.11552000  0.87157000  1.0 0.0811737422
H  H192  1  0.24396000  0.86052000  0.12843000  1.0 0.0811737422
H  H193  1  0.22935000  0.10033000  0.42190000  1.0 0.1009069765
H  H194  1  0.67843000  0.80745000  0.57810000  1.0 0.1009069765
H  H195  1  0.32157000  0.89967000  0.12902000  1.0 0.1009069765
H  H196  1  0.77065000  0.19255000  0.87098000  1.0 0.1009069765
H  H197  1  0.77065000  0.89967000  0.57810000  1.0 0.1009069765
H  H198  1  0.32157000  0.19255000  0.42190000  1.0 0.1009069765
H  H199  1  0.67843000  0.10033000  0.87098000  1.0 0.1009069765
H  H200  1  0.22935000  0.80745000  0.12902000  1.0 0.1009069765
H  H201  1  0.18653000  0.10608000  0.37599000  1.0 0.1009069765
H  H202  1  0.73009000  0.81054000  0.62401000  1.0 0.1009069765
H  H203  1  0.26991000  0.89392000  0.08045000  1.0 0.1009069765
H  H204  1  0.81347000  0.18946000  0.91955000  1.0 0.1009069765
H  H205  1  0.81347000  0.89392000  0.62401000  1.0 0.1009069765
H  H206  1  0.26991000  0.18946000  0.37599000  1.0 0.1009069765
H  H207  1  0.73009000  0.10608000  0.91955000  1.0 0.1009069765
H  H208  1  0.18653000  0.81054000  0.08045000  1.0 0.1009069765
H  H209  1  0.24876000  0.39299000  0.66873000  1.0 0.0714509859
H  H210  1  0.72426000  0.58003000  0.33127000  1.0 0.0714509859
H  H211  1  0.27574000  0.60701000  0.85577000  1.0 0.0714509859
H  H212  1  0.75124000  0.41997000  0.14423000  1.0 0.0714509859
H  H213  1  0.75124000  0.60701000  0.33127000  1.0 0.0714509859
H  H214  1  0.27574000  0.41997000  0.66873000  1.0 0.0714509859
H  H215  1  0.72426000  0.39299000  0.14423000  1.0 0.0714509859
H  H216  1  0.24876000  0.58003000  0.85577000  1.0 0.0714509859
H  H217  1  0.19231000  0.34197000  0.62424000  1.0 0.1093016833
H  H218  1  0.71773000  0.56807000  0.37576000  1.0 0.1093016833
H  H219  1  0.28227000  0.65803000  0.85034000  1.0 0.1093016833
H  H220  1  0.80769000  0.43193000  0.14966000  1.0 0.1093016833
H  H221  1  0.80769000  0.65803000  0.37576000  1.0 0.1093016833
H  H222  1  0.28227000  0.43193000  0.62424000  1.0 0.1093016833
H  H223  1  0.71773000  0.34197000  0.14966000  1.0 0.1093016833
H  H224  1  0.19231000  0.56807000  0.85034000  1.0 0.1093016833
H  H225  1  0.23966000  0.33668000  0.66642000  1.0 0.1009069765
H  H226  1  0.67026000  0.57324000  0.33358000  1.0 0.1009069765
H  H227  1  0.32974000  0.66332000  0.90298000  1.0 0.1009069765
H  H228  1  0.76034000  0.42676000  0.09702000  1.0 0.1009069765
H  H229  1  0.76034000  0.66332000  0.33358000  1.0 0.1009069765
H  H230  1  0.32974000  0.42676000  0.66642000  1.0 0.1009069765
H  H231  1  0.67026000  0.33668000  0.09702000  1.0 0.1009069765
H  H232  1  0.23966000  0.57324000  0.90298000  1.0 0.1009069765
H  H233  1  0.88219000  0.36624000  0.61347000  1.0 0.1093016833
H  H234  1  0.75277000  0.26872000  0.38653000  1.0 0.1093016833
H  H235  1  0.24723000  0.63376000  0.51595000  1.0 0.1093016833
H  H236  1  0.11781000  0.73128000  0.48405000  1.0 0.1093016833
H  H237  1  0.11781000  0.63376000  0.38653000  1.0 0.1093016833
H  H238  1  0.24723000  0.73128000  0.61347000  1.0 0.1093016833
H  H239  1  0.75277000  0.36624000  0.48405000  1.0 0.1093016833
H  H240  1  0.88219000  0.26872000  0.51595000  1.0 0.1093016833
H  H241  1  0.86064000  0.37762000  0.66370000  1.0 0.0910308864
H  H242  1  0.71391000  0.19693000  0.33630000  1.0 0.0910308864
H  H243  1  0.28609000  0.62239000  0.48302000  1.0 0.0910308864
H  H244  1  0.13936000  0.80307000  0.51698000  1.0 0.0910308864
H  H245  1  0.13936000  0.62238000  0.33630000  1.0 0.0910308864
H  H246  1  0.28608000  0.80307000  0.66370000  1.0 0.0910308864
H  H247  1  0.71391000  0.37762000  0.51698000  1.0 0.0910308864
H  H248  1  0.86064000  0.19694000  0.48302000  1.0 0.0910308864
H  H249  1  0.87868000  0.31499000  0.61907000  1.0 0.0509693568
H  H250  1  0.69592000  0.25961000  0.38093000  1.0 0.0509693568
H  H251  1  0.30408000  0.68501000  0.56369000  1.0 0.0509693568
H  H252  1  0.12132000  0.74039000  0.43631000  1.0 0.0509693568
H  H253  1  0.12132000  0.68501000  0.38093000  1.0 0.0509693568
H  H254  1  0.30408000  0.74039000  0.61907000  1.0 0.0509693568
H  H255  1  0.69592000  0.31499000  0.43631000  1.0 0.0509693568
H  H256  1  0.87868000  0.25961000  0.56369000  1.0 0.0509693568
H  H257  1  0.16991000  0.27366000  0.50237000  1.0 0.0625730655
H  H258  1  0.77129000  0.66754000  0.49763000  1.0 0.0625730655
H  H259  1  0.22871000  0.72634000  0.89625000  1.0 0.0625730655
H  H260  1  0.83009000  0.33246000  0.10375000  1.0 0.0625730655
H  H261  1  0.83009000  0.72634000  0.49763000  1.0 0.0625730655
H  H262  1  0.22871000  0.33246000  0.50237000  1.0 0.0625730655
H  H263  1  0.77129000  0.27366000  0.10375000  1.0 0.0625730655
H  H264  1  0.16991000  0.66754000  0.89625000  1.0 0.0625730655
H  H265  1  0.23148000  0.32311000  0.61069000  1.0 0.0625730655
H  H266  1  0.71242000  0.62079000  0.38931000  1.0 0.0625730655
H  H267  1  0.28758000  0.67689000  0.90837000  1.0 0.0625730655
H  H268  1  0.76852000  0.37921000  0.09163000  1.0 0.0625730655
H  H269  1  0.76852000  0.67689000  0.38931000  1.0 0.0625730655
H  H270  1  0.28758000  0.37921000  0.61069000  1.0 0.0625730655
H  H271  1  0.71242000  0.32311000  0.09163000  1.0 0.0625730655
H  H272  1  0.23148000  0.62079000  0.90837000  1.0 0.0625730655
H  H273  1  0.68606000  0.28438000  0.49204000  1.0 0.0714509859
H  H274  1  0.79234000  0.19402000  0.50796000  1.0 0.0714509859
H  H275  1  0.20766000  0.71562000  0.40168000  1.0 0.0714509859
H  H276  1  0.31394000  0.80598000  0.59832000  1.0 0.0714509859
H  H277  1  0.31394000  0.71562000  0.50796000  1.0 0.0714509859
H  H278  1  0.20766000  0.80598000  0.49204000  1.0 0.0714509859
H  H279  1  0.79234000  0.28438000  0.59832000  1.0 0.0714509859
H  H280  1  0.68606000  0.19402000  0.40168000  1.0 0.0714509859
H  H281  1  0.84074000  0.33127000  0.59819000  1.0 0.0509693568
H  H282  1  0.73308000  0.24255000  0.40181000  1.0 0.0509693568
H  H283  1  0.26692000  0.66873000  0.50947000  1.0 0.0509693568
H  H284  1  0.15926000  0.75745000  0.49053000  1.0 0.0509693568
H  H285  1  0.15926000  0.66873000  0.40181000  1.0 0.0509693568
H  H286  1  0.26692000  0.75745000  0.59819000  1.0 0.0509693568
H  H287  1  0.73308000  0.33127000  0.49053000  1.0 0.0509693568
H  H288  1  0.84074000  0.24255000  0.50947000  1.0 0.0509693568
H  H289  1  0.28555000  0.21245000  0.55434000  1.0 0.0400986882
H  H290  1  0.65811000  0.73121000  0.44566000  1.0 0.0400986882
H  H291  1  0.34189000  0.78755000  0.07310000  1.0 0.0400986882
H  H292  1  0.71445000  0.26879000  0.92690000  1.0 0.0400986882
H  H293  1  0.71445000  0.78755000  0.44566000  1.0 0.0400986882
H  H294  1  0.34189000  0.26879000  0.55434000  1.0 0.0400986882
H  H295  1  0.65811000  0.21245000  0.92690000  1.0 0.0400986882
H  H296  1  0.28555000  0.73121000  0.07310000  1.0 0.0400986882
H  H297  1  0.22935000  0.14832000  0.43501000  1.0 0.0509693568
H  H298  1  0.71331000  0.79434000  0.56499000  1.0 0.0400986882
H  H299  1  0.28669000  0.85168000  0.08103000  1.0 0.0509693568
H  H300  1  0.77065000  0.20566000  0.91897000  1.0 0.0509693568
H  H301  1  0.77065000  0.85168000  0.56499000  1.0 0.0400986882
H  H302  1  0.28669000  0.20566000  0.43501000  1.0 0.0509693568
H  H303  1  0.71331000  0.14832000  0.91897000  1.0 0.0509693568
H  H304  1  0.22935000  0.79434000  0.08103000  1.0 0.0509693568
C  C1  1  0.91107000  0.91303000  0.19272000  1.0 0.6333617816
C  C2  1  0.72031000  0.71835000  0.80728000  1.0 0.6333617816
C  C3  1  0.27969000  0.08697000  0.99804000  1.0 0.6333617816
C  C4  1  0.08893000  0.28165000  0.00196000  1.0 0.6333617816
C  C5  1  0.08893000  0.08697000  0.80728000  1.0 0.6333617816
C  C6  1  0.27969000  0.28165000  0.19272000  1.0 0.6333617816
C  C7  1  0.72031000  0.91303000  0.00196000  1.0 0.6333617816
C  C8  1  0.91107000  0.71835000  0.99804000  1.0 0.6333617816
C  C9  1  0.95925000  0.96490000  0.26057000  1.0 -0.047713737
C  C10  1  0.70433000  0.69868000  0.73943000  1.0 -0.047713737
C  C11  1  0.29567000  0.03510000  0.99435000  1.0 -0.047713737
C  C12  1  0.04075000  0.30132000  0.00565000  1.0 -0.047713737
C  C13  1  0.04075000  0.03510000  0.73943000  1.0 -0.047713737
C  C14  1  0.29567000  0.30132000  0.26057000  1.0 -0.047713737
C  C15  1  0.70433000  0.96490000  0.00565000  1.0 -0.047713737
C  C16  1  0.95925000  0.69868000  0.99435000  1.0 -0.047713737
C  C17  1  0.97660000  0.02736000  0.28688000  1.0 -0.0895700551
C  C18  1  0.74048000  0.68972000  0.71312000  1.0 -0.0895700551
C  C19  1  0.25952000  0.97264000  0.94924000  1.0 -0.0895700551
C  C20  1  0.02340000  0.31028000  0.05076000  1.0 -0.0895700551
C  C21  1  0.02340000  0.97264000  0.71312000  1.0 -0.0895700551
C  C22  1  0.25952000  0.31028000  0.28688000  1.0 -0.0895700551
C  C23  1  0.74048000  0.02736000  0.05076000  1.0 -0.0895700551
C  C24  1  0.97660000  0.68972000  0.94924000  1.0 -0.0895700551
C  C25  1  0.02125000  0.07513000  0.34992000  1.0 -0.1522790462
C  C26  1  0.72521000  0.67133000  0.65008000  1.0 -0.1522790462
C  C27  1  0.27479000  0.92487000  0.94612000  1.0 -0.1522790462
C  C28  1  0.97875000  0.32867000  0.05388000  1.0 -0.1522790462
C  C29  1  0.97875000  0.92487000  0.65008000  1.0 -0.1522790462
C  C30  1  0.27479000  0.32867000  0.34992000  1.0 -0.1522790462
C  C31  1  0.72521000  0.07513000  0.05388000  1.0 -0.1522790462
C  C32  1  0.02125000  0.67133000  0.94612000  1.0 -0.1522790462
C  C33  1  0.04937000  0.06083000  0.38774000  1.0 0.0811737422
C  C34  1  0.67309000  0.66163000  0.61226000  1.0 0.0811737422
C  C35  1  0.32691000  0.93917000  0.98854000  1.0 0.0811737422
C  C36  1  0.95063000  0.33837000  0.01146000  1.0 0.0811737422
C  C37  1  0.95063000  0.93917000  0.61226000  1.0 0.0811737422
C  C38  1  0.32691000  0.33837000  0.38774000  1.0 0.0811737422
C  C39  1  0.67309000  0.06083000  0.01146000  1.0 0.0811737422
C  C40  1  0.04937000  0.66163000  0.98854000  1.0 0.0811737422
C  C41  1  0.03076000  0.99808000  0.36088000  1.0 -0.1552198371
C  C42  1  0.63720000  0.66988000  0.63912000  1.0 -0.1552198371
C  C43  1  0.36280000  0.00192000  0.03268000  1.0 -0.1552198371
C  C44  1  0.96924000  0.33012000  0.96732000  1.0 -0.1522790462
C  C45  1  0.96924000  0.00192000  0.63912000  1.0 -0.1522790462
C  C46  1  0.36280000  0.33012000  0.36088000  1.0 -0.1552198371
C  C47  1  0.63720000  0.99808000  0.96732000  1.0 -0.1552198371
C  C48  1  0.03076000  0.66988000  0.03268000  1.0 -0.1552198371
C  C49  1  0.98628000  0.95009000  0.29735000  1.0 -0.0895700551
C  C50  1  0.65274000  0.68893000  0.70265000  1.0 -0.0895700551
C  C51  1  0.34726000  0.04991000  0.03619000  1.0 -0.0895700551
C  C52  1  0.01372000  0.31107000  0.96381000  1.0 -0.0895700551
C  C53  1  0.01372000  0.04991000  0.70265000  1.0 -0.0895700551
C  C54  1  0.34726000  0.31107000  0.29735000  1.0 -0.0895700551
C  C55  1  0.65274000  0.95009000  0.96381000  1.0 -0.0895700551
C  C56  1  0.98628000  0.68893000  0.03619000  1.0 -0.0895700551
C  C57  1  0.09798000  0.11168000  0.45470000  1.0 0.0811737422
C  C58  1  0.65698000  0.64328000  0.54530000  1.0 0.0811737422
C  C59  1  0.34302000  0.88832000  0.98630000  1.0 0.0811737422
C  C60  1  0.90202000  0.35672000  0.01370000  1.0 0.0811737422
C  C61  1  0.90202000  0.88832000  0.54530000  1.0 0.0811737422
C  C62  1  0.34302000  0.35672000  0.45470000  1.0 0.0811737422
C  C63  1  0.65698000  0.11168000  0.01370000  1.0 0.0811737422
C  C64  1  0.09798000  0.64328000  0.98630000  1.0 0.0811737422
C  C65  1  0.13440000  0.14986000  0.46014000  1.0 -0.2483223211
C  C66  1  0.68972000  0.67426000  0.53986000  1.0 -0.2483223211
C  C67  1  0.31028000  0.85014000  0.98454000  1.0 -0.2483223211
C  C68  1  0.86560000  0.32574000  0.01546000  1.0 -0.2483223211
C  C69  1  0.86560000  0.85014000  0.53986000  1.0 -0.2483223211
C  C70  1  0.31028000  0.32574000  0.46014000  1.0 -0.2483223211
C  C71  1  0.68972000  0.14986000  0.01546000  1.0 -0.2483223211
C  C72  1  0.13440000  0.67426000  0.98454000  1.0 -0.2483223211
C  C73  1  0.18127000  0.19589000  0.52158000  1.0 0.0316212345
C  C74  1  0.67431000  0.65969000  0.47842000  1.0 0.0316212345
C  C75  1  0.32569000  0.80411000  0.98538000  1.0 0.0316212345
C  C76  1  0.81873000  0.34031000  0.01462000  1.0 0.0316212345
C  C77  1  0.81873000  0.80411000  0.47842000  1.0 0.0316212345
C  C78  1  0.32569000  0.34031000  0.52158000  1.0 0.0316212345
C  C79  1  0.67431000  0.19589000  0.01462000  1.0 0.0316212345
C  C80  1  0.18127000  0.65969000  0.98538000  1.0 0.0316212345
C  C81  1  0.19122000  0.20328000  0.57774000  1.0 -0.2483223211
C  C82  1  0.62554000  0.61348000  0.42226000  1.0 -0.2483223211
C  C83  1  0.37446000  0.79672000  0.98794000  1.0 -0.2483223211
C  C84  1  0.80878000  0.38652000  0.01206000  1.0 -0.2483223211
C  C85  1  0.80878000  0.79672000  0.42226000  1.0 -0.2483223211
C  C86  1  0.37446000  0.38652000  0.57774000  1.0 -0.2483223211
C  C87  1  0.62554000  0.20328000  0.01206000  1.0 -0.2483223211
C  C88  1  0.19122000  0.61348000  0.98794000  1.0 -0.2483223211
C  C89  1  0.15466000  0.16554000  0.57372000  1.0 0.0910308864
C  C90  1  0.59182000  0.58094000  0.42628000  1.0 0.0910308864
C  C91  1  0.40818000  0.83446000  0.98912000  1.0 0.0910308864
C  C92  1  0.84534000  0.41906000  0.01088000  1.0 0.0910308864
C  C93  1  0.84534000  0.83446000  0.42628000  1.0 0.0910308864
C  C94  1  0.40818000  0.41906000  0.57372000  1.0 0.0910308864
C  C95  1  0.59182000  0.16554000  0.01088000  1.0 0.0910308864
C  C96  1  0.15466000  0.58094000  0.98912000  1.0 0.0910308864
C  C97  1  0.10804000  0.12004000  0.51160000  1.0 -0.1947014677
C  C98  1  0.60844000  0.59644000  0.48840000  1.0 -0.1947014677
C  C99  1  0.39156000  0.87996000  0.98800000  1.0 -0.1947014677
C  C100  1  0.89196000  0.40356000  0.01200000  1.0 -0.1947014677
C  C101  1  0.89196000  0.87996000  0.48840000  1.0 -0.1947014677
C  C102  1  0.39156000  0.40356000  0.51160000  1.0 -0.1947014677
C  C103  1  0.60844000  0.12004000  0.01200000  1.0 -0.1947014677
C  C104  1  0.10804000  0.59644000  0.98800000  1.0 -0.1947014677
C  C105  1  0.16564000  0.17402000  0.63422000  1.0 0.0714509859
C  C106  1  0.53980000  0.53142000  0.36578000  1.0 0.0714509859
C  C107  1  0.46020000  0.82598000  0.99162000  1.0 0.0714509859
C  C108  1  0.83436000  0.46858000  0.00838000  1.0 0.0714509859
C  C109  1  0.83436000  0.82598000  0.36578000  1.0 0.0714509859
C  C110  1  0.46020000  0.46858000  0.63422000  1.0 0.0714509859
C  C111  1  0.53980000  0.17402000  0.00838000  1.0 0.0714509859
C  C112  1  0.16564000  0.53142000  0.99162000  1.0 0.0714509859
C  C113  1  0.21556000  0.17962000  0.67114000  1.0 -0.1437982516
C  C114  1  0.50848000  0.54442000  0.32886000  1.0 -0.1437982516
C  C115  1  0.49152000  0.82038000  0.03594000  1.0 -0.1437982516
C  C116  1  0.78444000  0.45558000  0.96406000  1.0 -0.1437982516
C  C117  1  0.78444000  0.82038000  0.32886000  1.0 -0.1437982516
C  C118  1  0.49152000  0.45558000  0.67114000  1.0 -0.1437982516
C  C119  1  0.50848000  0.17962000  0.96406000  1.0 -0.1437982516
C  C120  1  0.21556000  0.54442000  0.03594000  1.0 -0.1437982516
C  C121  1  0.22611000  0.18641000  0.72694000  1.0 -0.0895700551
C  C122  1  0.45947000  0.49917000  0.27306000  1.0 -0.0895700551
C  C123  1  0.54053000  0.81359000  0.03970000  1.0 -0.0895700551
C  C124  1  0.77389000  0.50083000  0.96030000  1.0 -0.0895700551
C  C125  1  0.77389000  0.81359000  0.27306000  1.0 -0.0895700551
C  C126  1  0.54053000  0.50083000  0.72694000  1.0 -0.0895700551
C  C127  1  0.45947000  0.18641000  0.96030000  1.0 -0.0895700551
C  C128  1  0.22611000  0.49917000  0.03970000  1.0 -0.0895700551
C  C129  1  0.18735000  0.19004000  0.74749000  1.0 -0.039711852
C  C130  1  0.44255000  0.43986000  0.25251000  1.0 -0.039711852
C  C131  1  0.55745000  0.80996000  0.99731000  1.0 -0.039711852
C  C132  1  0.81265000  0.56014000  0.00269000  1.0 -0.039711852
C  C133  1  0.81265000  0.80996000  0.25251000  1.0 -0.039711852
C  C134  1  0.55745000  0.56014000  0.74749000  1.0 -0.039711852
C  C135  1  0.44255000  0.19004000  0.00269000  1.0 -0.039711852
C  C136  1  0.18735000  0.43986000  0.99731000  1.0 -0.039711852
C  C137  1  0.13744000  0.18517000  0.71127000  1.0 -0.0895700551
C  C138  1  0.47390000  0.42617000  0.28873000  1.0 -0.0895700551
C  C139  1  0.52610000  0.81483000  0.95227000  1.0 -0.0895700551
C  C140  1  0.86256000  0.57383000  0.04773000  1.0 -0.0895700551
C  C141  1  0.86256000  0.81483000  0.28873000  1.0 -0.0895700551
C  C142  1  0.52610000  0.57383000  0.71127000  1.0 -0.0895700551
C  C143  1  0.47390000  0.18517000  0.04773000  1.0 -0.0895700551
C  C144  1  0.13744000  0.42617000  0.95227000  1.0 -0.0895700551
C  C145  1  0.12703000  0.17642000  0.65441000  1.0 -0.1522790462
C  C146  1  0.52201000  0.47262000  0.34559000  1.0 -0.1522790462
C  C147  1  0.47799000  0.82358000  0.95061000  1.0 -0.1522790462
C  C148  1  0.87297000  0.52738000  0.04939000  1.0 -0.1522790462
C  C149  1  0.87297000  0.82358000  0.34559000  1.0 -0.1522790462
C  C150  1  0.47799000  0.52738000  0.65441000  1.0 -0.1522790462
C  C151  1  0.52201000  0.17642000  0.04939000  1.0 -0.1522790462
C  C152  1  0.12703000  0.47262000  0.95061000  1.0 -0.1522790462
C  C153  1  0.19881000  0.19957000  0.80934000  1.0 0.6333617816
C  C154  1  0.39023000  0.38947000  0.19066000  1.0 0.6333617816
C  C155  1  0.60977000  0.80043000  0.99924000  1.0 0.6333617816
C  C156  1  0.80119000  0.61053000  0.00076000  1.0 0.6333617816
C  C157  1  0.80119000  0.80043000  0.19066000  1.0 0.6333617816
C  C158  1  0.60977000  0.61053000  0.80934000  1.0 0.6333617816
C  C159  1  0.39023000  0.19957000  0.00076000  1.0 0.6333617816
C  C160  1  0.19881000  0.38947000  0.99924000  1.0 0.6333617816
C  C161  1  0.21986000  0.23469000  0.52437000  1.0 -0.006363934
C  C162  1  0.71032000  0.69549000  0.47563000  1.0 -0.0039907633
C  C163  1  0.28968000  0.76531000  0.98517000  1.0 -0.0039907633
C  C164  1  0.78014000  0.30451000  0.01483000  1.0 -0.0039907633
C  C165  1  0.78014000  0.76531000  0.47563000  1.0 -0.0039907633
C  C166  1  0.28968000  0.30451000  0.52437000  1.0 -0.006363934
C  C167  1  0.71032000  0.23469000  0.01483000  1.0 -0.006363934
C  C168  1  0.21986000  0.69549000  0.98517000  1.0 -0.0039907633
C  C169  1  0.27087000  0.23917000  0.54410000  1.0 -0.006363934
C  C170  1  0.69507000  0.72677000  0.45590000  1.0 -0.006363934
C  C171  1  0.30493000  0.76083000  0.03170000  1.0 -0.006363934
C  C172  1  0.72913000  0.27323000  0.96830000  1.0 -0.006363934
C  C173  1  0.72913000  0.76083000  0.45590000  1.0 -0.006363934
C  C174  1  0.30493000  0.27323000  0.54410000  1.0 -0.006363934
C  C175  1  0.69507000  0.23917000  0.96830000  1.0 -0.006363934
C  C176  1  0.27087000  0.72677000  0.03170000  1.0 -0.006363934
C  C177  1  0.20265000  0.27495000  0.51310000  1.0 0.0026224966
C  C178  1  0.76185000  0.68955000  0.48690000  1.0 0.0026224966
C  C179  1  0.23815000  0.72505000  0.92770000  1.0 0.0026224966
C  C180  1  0.79735000  0.31045000  0.07230000  1.0 0.0026224966
C  C181  1  0.79735000  0.72505000  0.48690000  1.0 0.0026224966
C  C182  1  0.23815000  0.31045000  0.51310000  1.0 0.0026224966
C  C183  1  0.76185000  0.27495000  0.07230000  1.0 0.0026224966
C  C184  1  0.20265000  0.68955000  0.92770000  1.0 0.0026224966
C  C185  1  0.14900000  0.28550000  0.49610000  1.0 -0.3877732894
C  C186  1  0.78940000  0.65290000  0.50390000  1.0 -0.3877732894
C  C187  1  0.21060000  0.71450000  0.86350000  1.0 -0.3877732894
C  C188  1  0.85100000  0.34710000  0.13650000  1.0 -0.3877732894
C  C189  1  0.85100000  0.71450000  0.50390000  1.0 -0.3877732894
C  C190  1  0.21060000  0.34710000  0.49610000  1.0 -0.3877732894
C  C191  1  0.78940000  0.28550000  0.13650000  1.0 -0.3877732894
C  C192  1  0.14900000  0.65290000  0.86350000  1.0 -0.3877732894
C  C193  1  0.29440000  0.20290000  0.56390000  1.0 -0.3109266748
C  C194  1  0.63900000  0.73050000  0.43610000  1.0 -0.3109266748
C  C195  1  0.36100000  0.79710000  0.09150000  1.0 -0.3109266748
C  C196  1  0.70560000  0.26950000  0.90850000  1.0 -0.3109266748
C  C197  1  0.70560000  0.79710000  0.43610000  1.0 -0.3109266748
C  C198  1  0.36100000  0.26950000  0.56390000  1.0 -0.3109266748
C  C199  1  0.63900000  0.20290000  0.90850000  1.0 -0.3109266748
C  C200  1  0.29440000  0.73050000  0.09150000  1.0 -0.3109266748
C  C201  1  0.76134000  0.57004000  0.80870000  1.0 0.6333617816
C  C202  1  0.76134000  0.95264000  0.19130000  1.0 0.6333617816
C  C203  1  0.23866000  0.42996000  0.19130000  1.0 0.6333617816
C  C204  1  0.23866000  0.04736000  0.80870000  1.0 0.6333617816
C  C205  1  0.76144000  0.50574000  0.74430000  1.0 -0.039711852
C  C206  1  0.76144000  0.01714000  0.25570000  1.0 -0.039711852
C  C207  1  0.23856000  0.49426000  0.25570000  1.0 -0.039711852
C  C208  1  0.23856000  0.98286000  0.74430000  1.0 -0.039711852
C  C209  1  0.79108000  0.50628000  0.71520000  1.0 -0.0715404218
C  C210  1  0.79108000  0.07588000  0.28480000  1.0 -0.0715404218
C  C211  1  0.20892000  0.49372000  0.28480000  1.0 -0.0715404218
C  C212  1  0.20892000  0.92412000  0.71520000  1.0 -0.0715404218
C  C213  1  0.79030000  0.44480000  0.65450000  1.0 -0.175461865
C  C214  1  0.79030000  0.13580000  0.34550000  1.0 -0.175461865
C  C215  1  0.20970000  0.55520000  0.34550000  1.0 -0.175461865
C  C216  1  0.20970000  0.86420000  0.65450000  1.0 -0.175461865
C  C217  1  0.76210000  0.38680000  0.62470000  1.0 0.0104210973
C  C218  1  0.76210000  0.13740000  0.37530000  1.0 0.0104210973
C  C219  1  0.23790000  0.61320000  0.37530000  1.0 0.0104210973
C  C220  1  0.23790000  0.86260000  0.62470000  1.0 0.0104210973
C  C221  1  0.73270000  0.38760000  0.65490000  1.0 -0.175461865
C  C222  1  0.73270000  0.07780000  0.34510000  1.0 -0.175461865
C  C223  1  0.26730000  0.61240000  0.34510000  1.0 -0.175461865
C  C224  1  0.26730000  0.92220000  0.65490000  1.0 -0.175461865
C  C225  1  0.73214000  0.44644000  0.71430000  1.0 -0.0812786137
C  C226  1  0.73214000  0.01784000  0.28570000  1.0 -0.0812786137
C  C227  1  0.26786000  0.55356000  0.28570000  1.0 -0.0812786137
C  C228  1  0.26786000  0.98216000  0.71430000  1.0 -0.0812786137
C  C229  1  0.76180000  0.32160000  0.55980000  1.0 -0.0039907633
C  C230  1  0.76180000  0.20200000  0.44020000  1.0 -0.0039907633
C  C231  1  0.23820000  0.67840000  0.44020000  1.0 -0.006363934
C  C232  1  0.23820000  0.79800000  0.55980000  1.0 -0.006363934
C  C233  1  0.87355000  0.87355000  0.00000000  1.0 0.6390465805
C  C234  1  0.12645000  0.12645000  0.00000000  1.0 0.6390465805
C  C235  1  0.91097000  0.91097000  0.00000000  1.0 -0.039711852
C  C236  1  0.08903000  0.08903000  0.00000000  1.0 -0.039711852
C  C237  1  0.92856000  0.97866000  0.05010000  1.0 -0.0895700551
C  C238  1  0.92856000  0.87846000  0.94990000  1.0 -0.0895700551
C  C239  1  0.07144000  0.02134000  0.94990000  1.0 -0.0895700551
C  C240  1  0.07144000  0.12154000  0.05010000  1.0 -0.0895700551
C  C241  1  0.96324000  0.01354000  0.05030000  1.0 -0.1522790462
C  C242  1  0.96324000  0.91294000  0.94970000  1.0 -0.1522790462
C  C243  1  0.03676000  0.98646000  0.94970000  1.0 -0.1522790462
C  C244  1  0.03676000  0.08706000  0.05030000  1.0 -0.1522790462
C  C245  1  0.98187000  0.98187000  0.00000000  1.0 0.0714509859
C  C246  1  0.01813000  0.01813000  0.00000000  1.0 0.0714509859
C  C247  1  0.71580000  0.27920000  0.49720000  1.0 0.0026224966
C  C248  1  0.78200000  0.21860000  0.50280000  1.0 0.0026224966
C  C249  1  0.21800000  0.72080000  0.43660000  1.0 0.0026224966
C  C250  1  0.28420000  0.78140000  0.56340000  1.0 0.0026224966
C  C251  1  0.28420000  0.72080000  0.50280000  1.0 0.0026224966
C  C252  1  0.21800000  0.78140000  0.49720000  1.0 0.0026224966
C  C253  1  0.78200000  0.27920000  0.56340000  1.0 0.0026224966
C  C254  1  0.71580000  0.21860000  0.43660000  1.0 0.0026224966
C  C255  1  0.66140000  0.28630000  0.48010000  1.0 -0.3668087711
C  C256  1  0.80620000  0.18130000  0.51990000  1.0 -0.3668087711
C  C257  1  0.19380000  0.71370000  0.37510000  1.0 -0.3668087711
C  C258  1  0.33860000  0.81870000  0.62490000  1.0 -0.3668087711
C  C259  1  0.33860000  0.71370000  0.51990000  1.0 -0.3668087711
C  C260  1  0.19380000  0.81870000  0.48010000  1.0 -0.3668087711
C  C261  1  0.80620000  0.28630000  0.62490000  1.0 -0.3668087711
C  C262  1  0.66140000  0.18130000  0.37510000  1.0 -0.3668087711
C  C263  1  0.23840000  0.19800000  0.47220000  1.0 -0.0039907633
C  C264  1  0.72580000  0.76620000  0.52780000  1.0 -0.0039907633
C  C265  1  0.27420000  0.80200000  0.04040000  1.0 -0.0039907633
C  C266  1  0.76160000  0.23380000  0.95960000  1.0 -0.0039907633
C  C267  1  0.76160000  0.80200000  0.52780000  1.0 -0.0039907633
C  C268  1  0.27420000  0.23380000  0.47220000  1.0 -0.0039907633
C  C269  1  0.72580000  0.19800000  0.95960000  1.0 -0.0039907633
C  C270  1  0.23840000  0.76620000  0.04040000  1.0 -0.0039907633
C  C271  1  0.24040000  0.30130000  0.57570000  1.0 -0.006363934
C  C272  1  0.72560000  0.66470000  0.42430000  1.0 -0.006363934
C  C273  1  0.27440000  0.69870000  0.93910000  1.0 -0.006363934
C  C274  1  0.75960000  0.33530000  0.06090000  1.0 -0.006363934
C  C275  1  0.75960000  0.69870000  0.42430000  1.0 -0.006363934
C  C276  1  0.27440000  0.33530000  0.57570000  1.0 -0.006363934
C  C277  1  0.72560000  0.30130000  0.06090000  1.0 -0.006363934
C  C278  1  0.24040000  0.66470000  0.93910000  1.0 -0.006363934
C  C279  1  0.22310000  0.12300000  0.40730000  1.0 -0.3217186099
C  C280  1  0.71570000  0.81580000  0.59270000  1.0 -0.3217186099
C  C281  1  0.28430000  0.87700000  0.10010000  1.0 -0.3217186099
C  C282  1  0.77690000  0.18420000  0.89990000  1.0 -0.3217186099
C  C283  1  0.77690000  0.87700000  0.59270000  1.0 -0.3217186099
C  C284  1  0.28430000  0.18420000  0.40730000  1.0 -0.3217186099
C  C285  1  0.71570000  0.12300000  0.89990000  1.0 -0.3217186099
C  C286  1  0.22310000  0.81580000  0.10010000  1.0 -0.3217186099
C  C287  1  0.22920000  0.34750000  0.63970000  1.0 -0.3303571967
C  C288  1  0.70780000  0.58950000  0.36030000  1.0 -0.3303571967
C  C289  1  0.29220000  0.65250000  0.88170000  1.0 -0.3303571967
C  C290  1  0.77080000  0.41050000  0.11830000  1.0 -0.3303571967
C  C291  1  0.77080000  0.65250000  0.36030000  1.0 -0.3303571967
C  C292  1  0.29220000  0.41050000  0.63970000  1.0 -0.3303571967
C  C293  1  0.70780000  0.34750000  0.11830000  1.0 -0.3303571967
C  C294  1  0.22920000  0.58950000  0.88170000  1.0 -0.3303571967
C  C295  1  0.80650000  0.30470000  0.55940000  1.0 0.0026224966
C  C296  1  0.74530000  0.24710000  0.44060000  1.0 0.0026224966
C  C297  1  0.25470000  0.69530000  0.50180000  1.0 0.0026224966
C  C298  1  0.19350000  0.75290000  0.49820000  1.0 0.0026224966
C  C299  1  0.19350000  0.69530000  0.44060000  1.0 0.0026224966
C  C300  1  0.25470000  0.75290000  0.55940000  1.0 0.0026224966
C  C301  1  0.74530000  0.30470000  0.49820000  1.0 0.0026224966
C  C302  1  0.80650000  0.24710000  0.50180000  1.0 0.0026224966
C  C303  1  0.86210000  0.34460000  0.61950000  1.0 -0.3303571967
C  C304  1  0.72510000  0.24260000  0.38050000  1.0 -0.3303571967
C  C305  1  0.27490000  0.65540000  0.51750000  1.0 -0.3303571967
C  C306  1  0.13790000  0.75740000  0.48250000  1.0 -0.3303571967
C  C307  1  0.13790000  0.65540000  0.38050000  1.0 -0.3303571967
C  C308  1  0.27490000  0.75740000  0.61950000  1.0 -0.3303571967
C  C309  1  0.72510000  0.34460000  0.48250000  1.0 -0.3303571967
C  C310  1  0.86210000  0.24260000  0.51750000  1.0 -0.3303571967
O  O1  1  0.79771000  0.68736000  0.96233000  1.0 -1.0738444319
O  O2  1  0.72503000  0.83538000  0.03767000  1.0 -1.0738444319
O  O3  1  0.27497000  0.31264000  0.11035000  1.0 -1.0762234619
O  O4  1  0.20229000  0.16462000  0.88965000  1.0 -1.0762234619
O  O5  1  0.20229000  0.31264000  0.03767000  1.0 -1.0762234619
O  O6  1  0.27497000  0.16462000  0.96233000  1.0 -1.0762234619
O  O7  1  0.72503000  0.68736000  0.88965000  1.0 -1.0738444319
O  O8  1  0.79771000  0.83538000  0.11035000  1.0 -1.0738444319
O  O9  1  0.84070000  0.80410000  0.03660000  1.0 -1.0545049896
O  O10  1  0.76750000  0.80410000  0.96340000  1.0 -1.0545049896
O  O11  1  0.23250000  0.19590000  0.03660000  1.0 -1.060196816
O  O12  1  0.15930000  0.19590000  0.96340000  1.0 -1.060196816
O  O13  1  0.75434000  0.71748000  0.03686000  1.0 -1.1382363131
O  O14  1  0.68062000  0.71748000  0.96314000  1.0 -1.1382363131
O  O15  1  0.31938000  0.28252000  0.03686000  1.0 -1.1382363131
O  O16  1  0.24566000  0.28252000  0.96314000  1.0 -1.1382363131
O  O17  1  0.73309000  0.56596000  0.83287000  1.0 -0.5867574504
O  O18  1  0.73309000  0.90022000  0.16713000  1.0 -0.5867574504
O  O19  1  0.26691000  0.43404000  0.16713000  1.0 -0.5867574504
O  O20  1  0.26691000  0.09978000  0.83287000  1.0 -0.5867574504
O  O21  1  0.78970000  0.62274000  0.83304000  1.0 -0.5782434397
O  O22  1  0.78970000  0.95666000  0.16696000  1.0 -0.5782434397
O  O23  1  0.21030000  0.37726000  0.16696000  1.0 -0.5782434397
O  O24  1  0.21030000  0.04334000  0.83304000  1.0 -0.5782434397
O  O25  1  0.85880000  0.80962000  0.95082000  1.0 -0.5867574504
O  O26  1  0.85880000  0.90798000  0.04918000  1.0 -0.5867574504
O  O27  1  0.14120000  0.19038000  0.04918000  1.0 -0.5867574504
O  O28  1  0.14120000  0.09202000  0.95082000  1.0 -0.5867574504
O  O29  1  0.90188000  0.85451000  0.16623000  1.0 -0.5705897202
O  O30  1  0.68828000  0.73565000  0.83377000  1.0 -0.5705897202
O  O31  1  0.31172000  0.14549000  0.04737000  1.0 -0.5705897202
O  O32  1  0.09812000  0.26435000  0.95263000  1.0 -0.5705897202
O  O33  1  0.09812000  0.14549000  0.83377000  1.0 -0.5705897202
O  O34  1  0.31172000  0.26435000  0.16623000  1.0 -0.5705897202
O  O35  1  0.68828000  0.85451000  0.95263000  1.0 -0.5705897202
O  O36  1  0.90188000  0.73565000  0.04737000  1.0 -0.5705897202
O  O37  1  0.88317000  0.93194000  0.16675000  1.0 -0.5782434397
O  O38  1  0.76519000  0.71642000  0.83325000  1.0 -0.5782434397
O  O39  1  0.23481000  0.06806000  0.95123000  1.0 -0.5782434397
O  O40  1  0.11683000  0.28358000  0.04877000  1.0 -0.5782434397
O  O41  1  0.11683000  0.06806000  0.83325000  1.0 -0.5782434397
O  O42  1  0.23481000  0.28358000  0.16675000  1.0 -0.5782434397
O  O43  1  0.76519000  0.93194000  0.04877000  1.0 -0.5782434397
O  O44  1  0.88317000  0.71642000  0.95123000  1.0 -0.5782434397
O  O45  1  0.16527000  0.21433000  0.83360000  1.0 -0.5782434397
O  O46  1  0.38073000  0.33167000  0.16640000  1.0 -0.5782434397
O  O47  1  0.61927000  0.78567000  0.95094000  1.0 -0.5782434397
O  O48  1  0.83473000  0.66833000  0.04906000  1.0 -0.5705897202
O  O49  1  0.83473000  0.78567000  0.16640000  1.0 -0.5782434397
O  O50  1  0.61927000  0.66833000  0.83360000  1.0 -0.5782434397
O  O51  1  0.38073000  0.21433000  0.04906000  1.0 -0.5782434397
O  O52  1  0.16527000  0.33167000  0.95094000  1.0 -0.5782434397
O  O53  1  0.24180000  0.19329000  0.83285000  1.0 -0.5982736042
O  O54  1  0.36044000  0.40895000  0.16715000  1.0 -0.5982736042
O  O55  1  0.63956000  0.80671000  0.04851000  1.0 -0.5982736042
O  O56  1  0.75820000  0.59105000  0.95149000  1.0 -0.5982736042
O  O57  1  0.75820000  0.80671000  0.16715000  1.0 -0.5982736042
O  O58  1  0.63956000  0.59105000  0.83285000  1.0 -0.5982736042
O  O59  1  0.36044000  0.19329000  0.95149000  1.0 -0.5982736042
O  O60  1  0.24180000  0.40895000  0.04851000  1.0 -0.5982736042
