# DDEC6 charges by PACMAN v1.1 (https://github.com/mtap-research/PACMAN-charge/)
data_NITKEJ_FSR_pacman
_symmetry_space_group_name_H-M   'P 1'
_cell_length_a   18.97640000
_cell_length_b   18.97640000
_cell_length_c   18.97640000
_cell_angle_alpha   60.00000000
_cell_angle_beta   60.00000000
_cell_angle_gamma   60.00000000
_symmetry_Int_Tables_number   1
_chemical_formula_structural   Zr3H148C150(S12O5)4
_chemical_formula_sum   'Zr6 H296 C300 S96 O40'
_cell_volume   4831.99505039
_cell_formula_units_Z   2
loop_
 _symmetry_equiv_pos_site_id
 _symmetry_equiv_pos_as_xyz
  1  'x, y, z'
loop_
 _atom_site_type_symbol
 _atom_site_label
 _atom_site_symmetry_multiplicity
 _atom_site_fract_x
 _atom_site_fract_y
 _atom_site_fract_z
 _atom_site_occupancy
 _atom_site_charge
Zr  Zr1  1  0.59197000  0.59197000  0.40803000  1.0 1.7815887944
Zr  Zr2  1  0.40803000  0.40803000  0.59197000  1.0 1.7815887944
Zr  Zr3  1  0.40803000  0.59197000  0.59197000  1.0 1.7815887944
Zr  Zr4  1  0.59197000  0.40803000  0.40803000  1.0 1.7815887944
Zr  Zr5  1  0.59197000  0.40803000  0.59197000  1.0 1.7815887944
Zr  Zr6  1  0.40803000  0.59197000  0.40803000  1.0 1.7815887944
H  H1  1  0.45280000  0.78280000  0.63220000  1.0 0.0780953282
H  H2  1  0.48980000  0.69640000  0.71780000  1.0 0.0780953282
H  H3  1  0.45420000  0.90800000  0.62820000  1.0 0.0707142343
H  H4  1  0.41130000  0.81130000  0.61810000  1.0 0.0707142343
H  H5  1  0.36700000  0.73300000  0.66740000  1.0 0.0263836805
H  H6  1  0.41130000  0.93410000  0.61910000  1.0 0.0601881653
H  H7  1  0.78280000  0.45280000  0.13220000  1.0 0.0780953282
H  H8  1  0.69640000  0.48980000  0.09600000  1.0 0.0780953282
H  H9  1  0.90800000  0.45420000  0.00960000  1.0 0.0707142343
H  H10  1  0.81130000  0.41130000  0.15930000  1.0 0.0707142343
H  H11  1  0.73300000  0.36700000  0.23260000  1.0 0.0263836805
H  H12  1  0.93410000  0.41130000  0.03550000  1.0 0.0601881653
H  H13  1  0.63220000  0.13220000  0.45280000  1.0 0.0780953282
H  H14  1  0.71780000  0.09600000  0.48980000  1.0 0.0780953282
H  H15  1  0.62820000  0.00960000  0.45420000  1.0 0.0707142343
H  H16  1  0.61810000  0.15930000  0.41130000  1.0 0.0707142343
H  H17  1  0.66740000  0.23260000  0.36700000  1.0 0.0263836805
H  H18  1  0.61910000  0.03550000  0.41130000  1.0 0.0601881653
H  H19  1  0.13220000  0.63220000  0.78280000  1.0 0.0780953282
H  H20  1  0.09600000  0.71780000  0.69640000  1.0 0.0780953282
H  H21  1  0.00960000  0.62820000  0.90800000  1.0 0.0707142343
H  H22  1  0.15930000  0.61810000  0.81130000  1.0 0.0707142343
H  H23  1  0.23260000  0.66740000  0.73300000  1.0 0.0263836805
H  H24  1  0.03550000  0.61910000  0.93410000  1.0 0.0601881653
H  H25  1  0.63220000  0.45280000  0.78280000  1.0 0.0780953282
H  H26  1  0.71780000  0.48980000  0.69640000  1.0 0.0780953282
H  H27  1  0.62820000  0.45420000  0.90800000  1.0 0.0707142343
H  H28  1  0.61810000  0.41130000  0.81130000  1.0 0.0707142343
H  H29  1  0.66740000  0.36700000  0.73300000  1.0 0.0263836805
H  H30  1  0.61910000  0.41130000  0.93410000  1.0 0.0601881653
H  H31  1  0.13220000  0.78280000  0.45280000  1.0 0.0780953282
H  H32  1  0.09600000  0.69640000  0.48980000  1.0 0.0780953282
H  H33  1  0.00960000  0.90800000  0.45420000  1.0 0.0707142343
H  H34  1  0.15930000  0.81130000  0.41130000  1.0 0.0707142343
H  H35  1  0.23260000  0.73300000  0.36700000  1.0 0.0263836805
H  H36  1  0.03550000  0.93410000  0.41130000  1.0 0.0601881653
H  H37  1  0.45280000  0.63220000  0.13220000  1.0 0.0780953282
H  H38  1  0.48980000  0.71780000  0.09600000  1.0 0.0780953282
H  H39  1  0.45420000  0.62820000  0.00960000  1.0 0.0707142343
H  H40  1  0.41130000  0.61810000  0.15930000  1.0 0.0707142343
H  H41  1  0.36700000  0.66740000  0.23260000  1.0 0.0263836805
H  H42  1  0.41130000  0.61910000  0.03550000  1.0 0.0601881653
H  H43  1  0.78280000  0.13220000  0.63220000  1.0 0.0780953282
H  H44  1  0.69640000  0.09600000  0.71780000  1.0 0.0780953282
H  H45  1  0.90800000  0.00960000  0.62820000  1.0 0.0707142343
H  H46  1  0.81130000  0.15930000  0.61810000  1.0 0.0707142343
H  H47  1  0.73300000  0.23260000  0.66740000  1.0 0.0263836805
H  H48  1  0.93410000  0.03550000  0.61910000  1.0 0.0601881653
H  H49  1  0.78280000  0.63220000  0.45280000  1.0 0.0780953282
H  H50  1  0.69640000  0.71780000  0.48980000  1.0 0.0780953282
H  H51  1  0.90800000  0.62820000  0.45420000  1.0 0.0707142343
H  H52  1  0.81130000  0.61810000  0.41130000  1.0 0.0707142343
H  H53  1  0.73300000  0.66740000  0.36700000  1.0 0.0263836805
H  H54  1  0.93410000  0.61910000  0.41130000  1.0 0.0601881653
H  H55  1  0.45280000  0.13220000  0.78280000  1.0 0.0780953282
H  H56  1  0.48980000  0.09600000  0.69640000  1.0 0.0780953282
H  H57  1  0.45420000  0.00960000  0.90800000  1.0 0.0707142343
H  H58  1  0.41130000  0.15930000  0.81130000  1.0 0.0707142343
H  H59  1  0.36700000  0.23260000  0.73300000  1.0 0.0263836805
H  H60  1  0.41130000  0.03550000  0.93410000  1.0 0.0601881653
H  H61  1  0.13220000  0.45280000  0.63220000  1.0 0.0780953282
H  H62  1  0.09600000  0.48980000  0.71780000  1.0 0.0780953282
H  H63  1  0.00960000  0.45420000  0.62820000  1.0 0.0707142343
H  H64  1  0.15930000  0.41130000  0.61810000  1.0 0.0707142343
H  H65  1  0.23260000  0.36700000  0.66740000  1.0 0.0263836805
H  H66  1  0.03550000  0.41130000  0.61910000  1.0 0.0601881653
H  H67  1  0.63220000  0.78280000  0.13220000  1.0 0.0780953282
H  H68  1  0.71780000  0.69640000  0.09600000  1.0 0.0780953282
H  H69  1  0.62820000  0.90800000  0.00960000  1.0 0.0707142343
H  H70  1  0.61810000  0.81130000  0.15930000  1.0 0.0707142343
H  H71  1  0.66740000  0.73300000  0.23260000  1.0 0.0263836805
H  H72  1  0.61910000  0.93410000  0.03550000  1.0 0.0601881653
H  H73  1  0.54720000  0.21720000  0.86780000  1.0 0.0780953282
H  H74  1  0.51020000  0.30360000  0.90400000  1.0 0.0780953282
H  H75  1  0.54580000  0.09200000  0.99040000  1.0 0.0707142343
H  H76  1  0.58870000  0.18870000  0.84070000  1.0 0.0707142343
H  H77  1  0.63300000  0.26700000  0.76740000  1.0 0.0263836805
H  H78  1  0.58870000  0.06590000  0.96450000  1.0 0.0601881653
H  H79  1  0.21720000  0.54720000  0.36780000  1.0 0.0780953282
H  H80  1  0.30360000  0.51020000  0.28220000  1.0 0.0780953282
H  H81  1  0.09200000  0.54580000  0.37180000  1.0 0.0707142343
H  H82  1  0.18870000  0.58870000  0.38190000  1.0 0.0707142343
H  H83  1  0.26700000  0.63300000  0.33260000  1.0 0.0263836805
H  H84  1  0.06590000  0.58870000  0.38090000  1.0 0.0601881653
H  H85  1  0.36780000  0.86780000  0.21720000  1.0 0.0780953282
H  H86  1  0.28220000  0.90400000  0.30360000  1.0 0.0780953282
H  H87  1  0.37180000  0.99040000  0.09200000  1.0 0.0707142343
H  H88  1  0.38190000  0.84070000  0.18870000  1.0 0.0707142343
H  H89  1  0.33260000  0.76740000  0.26700000  1.0 0.0263836805
H  H90  1  0.38090000  0.96450000  0.06590000  1.0 0.0601881653
H  H91  1  0.86780000  0.36780000  0.54720000  1.0 0.0780953282
H  H92  1  0.90400000  0.28220000  0.51020000  1.0 0.0780953282
H  H93  1  0.99040000  0.37180000  0.54580000  1.0 0.0707142343
H  H94  1  0.84070000  0.38190000  0.58870000  1.0 0.0707142343
H  H95  1  0.76740000  0.33260000  0.63300000  1.0 0.0263836805
H  H96  1  0.96450000  0.38090000  0.58870000  1.0 0.0601881653
H  H97  1  0.36780000  0.54720000  0.86780000  1.0 0.0780953282
H  H98  1  0.28220000  0.51020000  0.90400000  1.0 0.0780953282
H  H99  1  0.37180000  0.54580000  0.99040000  1.0 0.0707142343
H  H100  1  0.38190000  0.58870000  0.84070000  1.0 0.0707142343
H  H101  1  0.33260000  0.63300000  0.76740000  1.0 0.0263836805
H  H102  1  0.38090000  0.58870000  0.96450000  1.0 0.0601881653
H  H103  1  0.86780000  0.21720000  0.36780000  1.0 0.0780953282
H  H104  1  0.90400000  0.30360000  0.28220000  1.0 0.0780953282
H  H105  1  0.99040000  0.09200000  0.37180000  1.0 0.0707142343
H  H106  1  0.84070000  0.18870000  0.38190000  1.0 0.0707142343
H  H107  1  0.76740000  0.26700000  0.33260000  1.0 0.0263836805
H  H108  1  0.96450000  0.06590000  0.38090000  1.0 0.0601881653
H  H109  1  0.54720000  0.36780000  0.21720000  1.0 0.0780953282
H  H110  1  0.51020000  0.28220000  0.30360000  1.0 0.0780953282
H  H111  1  0.54580000  0.37180000  0.09200000  1.0 0.0707142343
H  H112  1  0.58870000  0.38190000  0.18870000  1.0 0.0707142343
H  H113  1  0.63300000  0.33260000  0.26700000  1.0 0.0263836805
H  H114  1  0.58870000  0.38090000  0.06590000  1.0 0.0601881653
H  H115  1  0.21720000  0.86780000  0.54720000  1.0 0.0780953282
H  H116  1  0.30360000  0.90400000  0.51020000  1.0 0.0780953282
H  H117  1  0.09200000  0.99040000  0.54580000  1.0 0.0707142343
H  H118  1  0.18870000  0.84070000  0.58870000  1.0 0.0707142343
H  H119  1  0.26700000  0.76740000  0.63300000  1.0 0.0263836805
H  H120  1  0.06590000  0.96450000  0.58870000  1.0 0.0601881653
H  H121  1  0.21720000  0.36780000  0.86780000  1.0 0.0780953282
H  H122  1  0.30360000  0.28220000  0.90400000  1.0 0.0780953282
H  H123  1  0.09200000  0.37180000  0.99040000  1.0 0.0707142343
H  H124  1  0.18870000  0.38190000  0.84070000  1.0 0.0707142343
H  H125  1  0.26700000  0.33260000  0.76740000  1.0 0.0263836805
H  H126  1  0.06590000  0.38090000  0.96450000  1.0 0.0601881653
H  H127  1  0.54720000  0.86780000  0.36780000  1.0 0.0780953282
H  H128  1  0.51020000  0.90400000  0.28220000  1.0 0.0780953282
H  H129  1  0.54580000  0.99040000  0.37180000  1.0 0.0707142343
H  H130  1  0.58870000  0.84070000  0.38190000  1.0 0.0707142343
H  H131  1  0.63300000  0.76740000  0.33260000  1.0 0.0263836805
H  H132  1  0.58870000  0.96450000  0.38090000  1.0 0.0601881653
H  H133  1  0.86780000  0.54720000  0.21720000  1.0 0.0780953282
H  H134  1  0.90400000  0.51020000  0.30360000  1.0 0.0780953282
H  H135  1  0.99040000  0.54580000  0.09200000  1.0 0.0707142343
H  H136  1  0.84070000  0.58870000  0.18870000  1.0 0.0707142343
H  H137  1  0.76740000  0.63300000  0.26700000  1.0 0.0263836805
H  H138  1  0.96450000  0.58870000  0.06590000  1.0 0.0601881653
H  H139  1  0.36780000  0.21720000  0.54720000  1.0 0.0780953282
H  H140  1  0.28220000  0.30360000  0.51020000  1.0 0.0780953282
H  H141  1  0.37180000  0.09200000  0.54580000  1.0 0.0707142343
H  H142  1  0.38190000  0.18870000  0.58870000  1.0 0.0707142343
H  H143  1  0.33260000  0.26700000  0.63300000  1.0 0.0263836805
H  H144  1  0.38090000  0.06590000  0.58870000  1.0 0.0601881653
H  H145  1  0.54720000  0.21720000  0.36780000  1.0 0.0780953282
H  H146  1  0.51020000  0.30360000  0.28220000  1.0 0.0780953282
H  H147  1  0.54580000  0.09200000  0.37180000  1.0 0.0707142343
H  H148  1  0.58870000  0.18870000  0.38190000  1.0 0.0707142343
H  H149  1  0.63300000  0.26700000  0.33260000  1.0 0.0263836805
H  H150  1  0.58870000  0.06590000  0.38090000  1.0 0.0601881653
H  H151  1  0.21720000  0.54720000  0.86780000  1.0 0.0780953282
H  H152  1  0.30360000  0.51020000  0.90400000  1.0 0.0780953282
H  H153  1  0.09200000  0.54580000  0.99040000  1.0 0.0707142343
H  H154  1  0.18870000  0.58870000  0.84070000  1.0 0.0707142343
H  H155  1  0.26700000  0.63300000  0.76740000  1.0 0.0263836805
H  H156  1  0.06590000  0.58870000  0.96450000  1.0 0.0601881653
H  H157  1  0.36780000  0.86780000  0.54720000  1.0 0.0780953282
H  H158  1  0.28220000  0.90400000  0.51020000  1.0 0.0780953282
H  H159  1  0.37180000  0.99040000  0.54580000  1.0 0.0707142343
H  H160  1  0.38190000  0.84070000  0.58870000  1.0 0.0707142343
H  H161  1  0.33260000  0.76740000  0.63300000  1.0 0.0263836805
H  H162  1  0.38090000  0.96450000  0.58870000  1.0 0.0601881653
H  H163  1  0.86780000  0.36780000  0.21720000  1.0 0.0780953282
H  H164  1  0.90400000  0.28220000  0.30360000  1.0 0.0780953282
H  H165  1  0.99040000  0.37180000  0.09200000  1.0 0.0707142343
H  H166  1  0.84070000  0.38190000  0.18870000  1.0 0.0707142343
H  H167  1  0.76740000  0.33260000  0.26700000  1.0 0.0263836805
H  H168  1  0.96450000  0.38090000  0.06590000  1.0 0.0601881653
H  H169  1  0.36780000  0.54720000  0.21720000  1.0 0.0780953282
H  H170  1  0.28220000  0.51020000  0.30360000  1.0 0.0780953282
H  H171  1  0.37180000  0.54580000  0.09200000  1.0 0.0707142343
H  H172  1  0.38190000  0.58870000  0.18870000  1.0 0.0707142343
H  H173  1  0.33260000  0.63300000  0.26700000  1.0 0.0263836805
H  H174  1  0.38090000  0.58870000  0.06590000  1.0 0.0601881653
H  H175  1  0.86780000  0.21720000  0.54720000  1.0 0.0780953282
H  H176  1  0.90400000  0.30360000  0.51020000  1.0 0.0780953282
H  H177  1  0.99040000  0.09200000  0.54580000  1.0 0.0707142343
H  H178  1  0.84070000  0.18870000  0.58870000  1.0 0.0707142343
H  H179  1  0.76740000  0.26700000  0.63300000  1.0 0.0263836805
H  H180  1  0.96450000  0.06590000  0.58870000  1.0 0.0601881653
H  H181  1  0.54720000  0.36780000  0.86780000  1.0 0.0780953282
H  H182  1  0.51020000  0.28220000  0.90400000  1.0 0.0780953282
H  H183  1  0.54580000  0.37180000  0.99040000  1.0 0.0707142343
H  H184  1  0.58870000  0.38190000  0.84070000  1.0 0.0707142343
H  H185  1  0.63300000  0.33260000  0.76740000  1.0 0.0263836805
H  H186  1  0.58870000  0.38090000  0.96450000  1.0 0.0601881653
H  H187  1  0.21720000  0.86780000  0.36780000  1.0 0.0780953282
H  H188  1  0.30360000  0.90400000  0.28220000  1.0 0.0780953282
H  H189  1  0.09200000  0.99040000  0.37180000  1.0 0.0707142343
H  H190  1  0.18870000  0.84070000  0.38190000  1.0 0.0707142343
H  H191  1  0.26700000  0.76740000  0.33260000  1.0 0.0263836805
H  H192  1  0.06590000  0.96450000  0.38090000  1.0 0.0601881653
H  H193  1  0.21720000  0.36780000  0.54720000  1.0 0.0780953282
H  H194  1  0.30360000  0.28220000  0.51020000  1.0 0.0780953282
H  H195  1  0.09200000  0.37180000  0.54580000  1.0 0.0707142343
H  H196  1  0.18870000  0.38190000  0.58870000  1.0 0.0707142343
H  H197  1  0.26700000  0.33260000  0.63300000  1.0 0.0263836805
H  H198  1  0.06590000  0.38090000  0.58870000  1.0 0.0601881653
H  H199  1  0.54720000  0.86780000  0.21720000  1.0 0.0780953282
H  H200  1  0.51020000  0.90400000  0.30360000  1.0 0.0780953282
H  H201  1  0.54580000  0.99040000  0.09200000  1.0 0.0707142343
H  H202  1  0.58870000  0.84070000  0.18870000  1.0 0.0707142343
H  H203  1  0.63300000  0.76740000  0.26700000  1.0 0.0263836805
H  H204  1  0.58870000  0.96450000  0.06590000  1.0 0.0601881653
H  H205  1  0.86780000  0.54720000  0.36780000  1.0 0.0780953282
H  H206  1  0.90400000  0.51020000  0.28220000  1.0 0.0780953282
H  H207  1  0.99040000  0.54580000  0.37180000  1.0 0.0707142343
H  H208  1  0.84070000  0.58870000  0.38190000  1.0 0.0707142343
H  H209  1  0.76740000  0.63300000  0.33260000  1.0 0.0263836805
H  H210  1  0.96450000  0.58870000  0.38090000  1.0 0.0601881653
H  H211  1  0.36780000  0.21720000  0.86780000  1.0 0.0780953282
H  H212  1  0.28220000  0.30360000  0.90400000  1.0 0.0780953282
H  H213  1  0.37180000  0.09200000  0.99040000  1.0 0.0707142343
H  H214  1  0.38190000  0.18870000  0.84070000  1.0 0.0707142343
H  H215  1  0.33260000  0.26700000  0.76740000  1.0 0.0263836805
H  H216  1  0.38090000  0.06590000  0.96450000  1.0 0.0601881653
H  H217  1  0.45280000  0.78280000  0.13220000  1.0 0.0780953282
H  H218  1  0.48980000  0.69640000  0.09600000  1.0 0.0780953282
H  H219  1  0.45420000  0.90800000  0.00960000  1.0 0.0707142343
H  H220  1  0.41130000  0.81130000  0.15930000  1.0 0.0707142343
H  H221  1  0.36700000  0.73300000  0.23260000  1.0 0.0263836805
H  H222  1  0.41130000  0.93410000  0.03550000  1.0 0.0601881653
H  H223  1  0.78280000  0.45280000  0.63220000  1.0 0.0780953282
H  H224  1  0.69640000  0.48980000  0.71780000  1.0 0.0780953282
H  H225  1  0.90800000  0.45420000  0.62820000  1.0 0.0707142343
H  H226  1  0.81130000  0.41130000  0.61810000  1.0 0.0707142343
H  H227  1  0.73300000  0.36700000  0.66740000  1.0 0.0263836805
H  H228  1  0.93410000  0.41130000  0.61910000  1.0 0.0601881653
H  H229  1  0.63220000  0.13220000  0.78280000  1.0 0.0780953282
H  H230  1  0.71780000  0.09600000  0.69640000  1.0 0.0780953282
H  H231  1  0.62820000  0.00960000  0.90800000  1.0 0.0707142343
H  H232  1  0.61810000  0.15930000  0.81130000  1.0 0.0707142343
H  H233  1  0.66740000  0.23260000  0.73300000  1.0 0.0263836805
H  H234  1  0.61910000  0.03550000  0.93410000  1.0 0.0601881653
H  H235  1  0.13220000  0.63220000  0.45280000  1.0 0.0780953282
H  H236  1  0.09600000  0.71780000  0.48980000  1.0 0.0780953282
H  H237  1  0.00960000  0.62820000  0.45420000  1.0 0.0707142343
H  H238  1  0.15930000  0.61810000  0.41130000  1.0 0.0707142343
H  H239  1  0.23260000  0.66740000  0.36700000  1.0 0.0263836805
H  H240  1  0.03550000  0.61910000  0.41130000  1.0 0.0601881653
H  H241  1  0.63220000  0.45280000  0.13220000  1.0 0.0780953282
H  H242  1  0.71780000  0.48980000  0.09600000  1.0 0.0780953282
H  H243  1  0.62820000  0.45420000  0.00960000  1.0 0.0707142343
H  H244  1  0.61810000  0.41130000  0.15930000  1.0 0.0707142343
H  H245  1  0.66740000  0.36700000  0.23260000  1.0 0.0263836805
H  H246  1  0.61910000  0.41130000  0.03550000  1.0 0.0601881653
H  H247  1  0.13220000  0.78280000  0.63220000  1.0 0.0780953282
H  H248  1  0.09600000  0.69640000  0.71780000  1.0 0.0780953282
H  H249  1  0.00960000  0.90800000  0.62820000  1.0 0.0707142343
H  H250  1  0.15930000  0.81130000  0.61810000  1.0 0.0707142343
H  H251  1  0.23260000  0.73300000  0.66740000  1.0 0.0263836805
H  H252  1  0.03550000  0.93410000  0.61910000  1.0 0.0601881653
H  H253  1  0.45280000  0.63220000  0.78280000  1.0 0.0780953282
H  H254  1  0.48980000  0.71780000  0.69640000  1.0 0.0780953282
H  H255  1  0.45420000  0.62820000  0.90800000  1.0 0.0707142343
H  H256  1  0.41130000  0.61810000  0.81130000  1.0 0.0707142343
H  H257  1  0.36700000  0.66740000  0.73300000  1.0 0.0263836805
H  H258  1  0.41130000  0.61910000  0.93410000  1.0 0.0601881653
H  H259  1  0.78280000  0.13220000  0.45280000  1.0 0.0780953282
H  H260  1  0.69640000  0.09600000  0.48980000  1.0 0.0780953282
H  H261  1  0.90800000  0.00960000  0.45420000  1.0 0.0707142343
H  H262  1  0.81130000  0.15930000  0.41130000  1.0 0.0707142343
H  H263  1  0.73300000  0.23260000  0.36700000  1.0 0.0263836805
H  H264  1  0.93410000  0.03550000  0.41130000  1.0 0.0601881653
H  H265  1  0.78280000  0.63220000  0.13220000  1.0 0.0780953282
H  H266  1  0.69640000  0.71780000  0.09600000  1.0 0.0780953282
H  H267  1  0.90800000  0.62820000  0.00960000  1.0 0.0707142343
H  H268  1  0.81130000  0.61810000  0.15930000  1.0 0.0707142343
H  H269  1  0.73300000  0.66740000  0.23260000  1.0 0.0263836805
H  H270  1  0.93410000  0.61910000  0.03550000  1.0 0.0601881653
H  H271  1  0.45280000  0.13220000  0.63220000  1.0 0.0780953282
H  H272  1  0.48980000  0.09600000  0.71780000  1.0 0.0780953282
H  H273  1  0.45420000  0.00960000  0.62820000  1.0 0.0707142343
H  H274  1  0.41130000  0.15930000  0.61810000  1.0 0.0707142343
H  H275  1  0.36700000  0.23260000  0.66740000  1.0 0.0263836805
H  H276  1  0.41130000  0.03550000  0.61910000  1.0 0.0601881653
H  H277  1  0.13220000  0.45280000  0.78280000  1.0 0.0780953282
H  H278  1  0.09600000  0.48980000  0.69640000  1.0 0.0780953282
H  H279  1  0.00960000  0.45420000  0.90800000  1.0 0.0707142343
H  H280  1  0.15930000  0.41130000  0.81130000  1.0 0.0707142343
H  H281  1  0.23260000  0.36700000  0.73300000  1.0 0.0263836805
H  H282  1  0.03550000  0.41130000  0.93410000  1.0 0.0601881653
H  H283  1  0.63220000  0.78280000  0.45280000  1.0 0.0780953282
H  H284  1  0.71780000  0.69640000  0.48980000  1.0 0.0780953282
H  H285  1  0.62820000  0.90800000  0.45420000  1.0 0.0707142343
H  H286  1  0.61810000  0.81130000  0.41130000  1.0 0.0707142343
H  H287  1  0.66740000  0.73300000  0.36700000  1.0 0.0263836805
H  H288  1  0.61910000  0.93410000  0.41130000  1.0 0.0601881653
H  H289  1  0.57360000  0.57360000  0.57360000  1.0 0.3710642175
H  H290  1  0.57360000  0.57360000  0.27920000  1.0 0.3710642175
H  H291  1  0.57360000  0.27920000  0.57360000  1.0 0.3710642175
H  H292  1  0.27920000  0.57360000  0.57360000  1.0 0.3710642175
H  H293  1  0.42640000  0.42640000  0.72080000  1.0 0.3710642175
H  H294  1  0.42640000  0.42640000  0.42640000  1.0 0.3710642175
H  H295  1  0.42640000  0.72080000  0.42640000  1.0 0.3710642175
H  H296  1  0.72080000  0.42640000  0.42640000  1.0 0.3710642175
C  C1  1  0.44800000  0.84220000  0.56940000  1.0 0.0196522238
C  C2  1  0.44750000  0.91610000  0.56990000  1.0 -0.0547621083
C  C3  1  0.49880000  0.81160000  0.50340000  1.0 -0.1637450622
C  C4  1  0.47190000  0.82410000  0.57850000  1.0 0.0030392797
C  C5  1  0.47300000  0.89920000  0.57560000  1.0 -0.0601825165
C  C6  1  0.84220000  0.44800000  0.14040000  1.0 0.0196522238
C  C7  1  0.91610000  0.44750000  0.06650000  1.0 -0.0547621083
C  C8  1  0.81160000  0.49880000  0.18620000  1.0 -0.1637450622
C  C9  1  0.82410000  0.47190000  0.12550000  1.0 0.0030392797
C  C10  1  0.89920000  0.47300000  0.05220000  1.0 -0.0601825165
C  C11  1  0.56940000  0.14040000  0.44800000  1.0 0.0196522238
C  C12  1  0.56990000  0.06650000  0.44750000  1.0 -0.0547621083
C  C13  1  0.50340000  0.18620000  0.49880000  1.0 -0.1637450622
C  C14  1  0.57850000  0.12550000  0.47190000  1.0 0.0030392797
C  C15  1  0.57560000  0.05220000  0.47300000  1.0 -0.0601825165
C  C16  1  0.14040000  0.56940000  0.84220000  1.0 0.0196522238
C  C17  1  0.06650000  0.56990000  0.91610000  1.0 -0.0601825165
C  C18  1  0.18620000  0.50340000  0.81160000  1.0 -0.1637450622
C  C19  1  0.12550000  0.57850000  0.82410000  1.0 0.0030392797
C  C20  1  0.05220000  0.57560000  0.89920000  1.0 -0.0601825165
C  C21  1  0.56940000  0.44800000  0.84220000  1.0 0.0196522238
C  C22  1  0.56990000  0.44750000  0.91610000  1.0 -0.0601825165
C  C23  1  0.50340000  0.49880000  0.81160000  1.0 -0.1637450622
C  C24  1  0.57850000  0.47190000  0.82410000  1.0 0.0030392797
C  C25  1  0.57560000  0.47300000  0.89920000  1.0 -0.0601825165
C  C26  1  0.14040000  0.84220000  0.44800000  1.0 0.0196522238
C  C27  1  0.06650000  0.91610000  0.44750000  1.0 -0.0547621083
C  C28  1  0.18620000  0.81160000  0.49880000  1.0 -0.1637450622
C  C29  1  0.12550000  0.82410000  0.47190000  1.0 0.0030392797
C  C30  1  0.05220000  0.89920000  0.47300000  1.0 -0.0601825165
C  C31  1  0.44800000  0.56940000  0.14040000  1.0 0.0196522238
C  C32  1  0.44750000  0.56990000  0.06650000  1.0 -0.0547621083
C  C33  1  0.49880000  0.50340000  0.18620000  1.0 -0.1637450622
C  C34  1  0.47190000  0.57850000  0.12550000  1.0 0.0030392797
C  C35  1  0.47300000  0.57560000  0.05220000  1.0 -0.0601825165
C  C36  1  0.84220000  0.14040000  0.56940000  1.0 0.0196522238
C  C37  1  0.91610000  0.06650000  0.56990000  1.0 -0.0547621083
C  C38  1  0.81160000  0.18620000  0.50340000  1.0 -0.1637450622
C  C39  1  0.82410000  0.12550000  0.57850000  1.0 0.0030392797
C  C40  1  0.89920000  0.05220000  0.57560000  1.0 -0.0601825165
C  C41  1  0.84220000  0.56940000  0.44800000  1.0 0.0196522238
C  C42  1  0.91610000  0.56990000  0.44750000  1.0 -0.0547621083
C  C43  1  0.81160000  0.50340000  0.49880000  1.0 -0.1637450622
C  C44  1  0.82410000  0.57850000  0.47190000  1.0 0.0030392797
C  C45  1  0.89920000  0.57560000  0.47300000  1.0 -0.0601825165
C  C46  1  0.44800000  0.14040000  0.84220000  1.0 0.0196522238
C  C47  1  0.44750000  0.06650000  0.91610000  1.0 -0.0601825165
C  C48  1  0.49880000  0.18620000  0.81160000  1.0 -0.1637450622
C  C49  1  0.47190000  0.12550000  0.82410000  1.0 0.0030392797
C  C50  1  0.47300000  0.05220000  0.89920000  1.0 -0.0601825165
C  C51  1  0.14040000  0.44800000  0.56940000  1.0 0.0196522238
C  C52  1  0.06650000  0.44750000  0.56990000  1.0 -0.0601825165
C  C53  1  0.18620000  0.49880000  0.50340000  1.0 -0.1637450622
C  C54  1  0.12550000  0.47190000  0.57850000  1.0 0.0030392797
C  C55  1  0.05220000  0.47300000  0.57560000  1.0 -0.0601825165
C  C56  1  0.56940000  0.84220000  0.14040000  1.0 0.0196522238
C  C57  1  0.56990000  0.91610000  0.06650000  1.0 -0.0547621083
C  C58  1  0.50340000  0.81160000  0.18620000  1.0 -0.1660278722
C  C59  1  0.57850000  0.82410000  0.12550000  1.0 0.0030392797
C  C60  1  0.57560000  0.89920000  0.05220000  1.0 -0.0601825165
C  C61  1  0.55200000  0.15780000  0.85960000  1.0 0.0196522238
C  C62  1  0.55250000  0.08390000  0.93350000  1.0 -0.0601825165
C  C63  1  0.50120000  0.18840000  0.81380000  1.0 -0.1637450622
C  C64  1  0.52810000  0.17590000  0.87450000  1.0 0.0030392797
C  C65  1  0.52700000  0.10080000  0.94780000  1.0 -0.0601825165
C  C66  1  0.15780000  0.55200000  0.43060000  1.0 0.0196522238
C  C67  1  0.08390000  0.55250000  0.43010000  1.0 -0.0601825165
C  C68  1  0.18840000  0.50120000  0.49660000  1.0 -0.1637450622
C  C69  1  0.17590000  0.52810000  0.42150000  1.0 0.0030392797
C  C70  1  0.10080000  0.52700000  0.42440000  1.0 -0.0601825165
C  C71  1  0.43060000  0.85960000  0.15780000  1.0 0.0196522238
C  C72  1  0.43010000  0.93350000  0.08390000  1.0 -0.0547621083
C  C73  1  0.49660000  0.81380000  0.18840000  1.0 -0.1637450622
C  C74  1  0.42150000  0.87450000  0.17590000  1.0 0.0030392797
C  C75  1  0.42440000  0.94780000  0.10080000  1.0 -0.0601825165
C  C76  1  0.85960000  0.43060000  0.55200000  1.0 0.0196522238
C  C77  1  0.93350000  0.43010000  0.55250000  1.0 -0.0547621083
C  C78  1  0.81380000  0.49660000  0.50120000  1.0 -0.1637450622
C  C79  1  0.87450000  0.42150000  0.52810000  1.0 0.0030392797
C  C80  1  0.94780000  0.42440000  0.52700000  1.0 -0.0601825165
C  C81  1  0.43060000  0.55200000  0.85960000  1.0 0.0196522238
C  C82  1  0.43010000  0.55250000  0.93350000  1.0 -0.0601825165
C  C83  1  0.49660000  0.50120000  0.81380000  1.0 -0.1637450622
C  C84  1  0.42150000  0.52810000  0.87450000  1.0 0.0030392797
C  C85  1  0.42440000  0.52700000  0.94780000  1.0 -0.0601825165
C  C86  1  0.85960000  0.15780000  0.43060000  1.0 0.0196522238
C  C87  1  0.93350000  0.08390000  0.43010000  1.0 -0.0547621083
C  C88  1  0.81380000  0.18840000  0.49660000  1.0 -0.1637450622
C  C89  1  0.87450000  0.17590000  0.42150000  1.0 0.0030392797
C  C90  1  0.94780000  0.10080000  0.42440000  1.0 -0.0601825165
C  C91  1  0.55200000  0.43060000  0.15780000  1.0 0.0196522238
C  C92  1  0.55250000  0.43010000  0.08390000  1.0 -0.0547621083
C  C93  1  0.50120000  0.49660000  0.18840000  1.0 -0.1637450622
C  C94  1  0.52810000  0.42150000  0.17590000  1.0 0.0030392797
C  C95  1  0.52700000  0.42440000  0.10080000  1.0 -0.0601825165
C  C96  1  0.15780000  0.85960000  0.55200000  1.0 0.0196522238
C  C97  1  0.08390000  0.93350000  0.55250000  1.0 -0.0547621083
C  C98  1  0.18840000  0.81380000  0.50120000  1.0 -0.1637450622
C  C99  1  0.17590000  0.87450000  0.52810000  1.0 0.0030392797
C  C100  1  0.10080000  0.94780000  0.52700000  1.0 -0.0601825165
C  C101  1  0.15780000  0.43060000  0.85960000  1.0 0.0196522238
C  C102  1  0.08390000  0.43010000  0.93350000  1.0 -0.0601825165
C  C103  1  0.18840000  0.49660000  0.81380000  1.0 -0.1637450622
C  C104  1  0.17590000  0.42150000  0.87450000  1.0 0.0030392797
C  C105  1  0.10080000  0.42440000  0.94780000  1.0 -0.0601825165
C  C106  1  0.55200000  0.85960000  0.43060000  1.0 0.0196522238
C  C107  1  0.55250000  0.93350000  0.43010000  1.0 -0.0547621083
C  C108  1  0.50120000  0.81380000  0.49660000  1.0 -0.1637450622
C  C109  1  0.52810000  0.87450000  0.42150000  1.0 0.0030392797
C  C110  1  0.52700000  0.94780000  0.42440000  1.0 -0.0601825165
C  C111  1  0.85960000  0.55200000  0.15780000  1.0 0.0196522238
C  C112  1  0.93350000  0.55250000  0.08390000  1.0 -0.0547621083
C  C113  1  0.81380000  0.50120000  0.18840000  1.0 -0.1637450622
C  C114  1  0.87450000  0.52810000  0.17590000  1.0 0.0030392797
C  C115  1  0.94780000  0.52700000  0.10080000  1.0 -0.0601825165
C  C116  1  0.43060000  0.15780000  0.55200000  1.0 0.0196522238
C  C117  1  0.43010000  0.08390000  0.55250000  1.0 -0.0601825165
C  C118  1  0.49660000  0.18840000  0.50120000  1.0 -0.1637450622
C  C119  1  0.42150000  0.17590000  0.52810000  1.0 0.0030392797
C  C120  1  0.42440000  0.10080000  0.52700000  1.0 -0.0601825165
C  C121  1  0.55200000  0.15780000  0.43060000  1.0 0.0196522238
C  C122  1  0.55250000  0.08390000  0.43010000  1.0 -0.0547621083
C  C123  1  0.50120000  0.18840000  0.49660000  1.0 -0.1637450622
C  C124  1  0.52810000  0.17590000  0.42150000  1.0 0.0030392797
C  C125  1  0.52700000  0.10080000  0.42440000  1.0 -0.0601825165
C  C126  1  0.15780000  0.55200000  0.85960000  1.0 0.0196522238
C  C127  1  0.08390000  0.55250000  0.93350000  1.0 -0.0601825165
C  C128  1  0.18840000  0.50120000  0.81380000  1.0 -0.1637450622
C  C129  1  0.17590000  0.52810000  0.87450000  1.0 0.0030392797
C  C130  1  0.10080000  0.52700000  0.94780000  1.0 -0.0601825165
C  C131  1  0.43060000  0.85960000  0.55200000  1.0 0.0196522238
C  C132  1  0.43010000  0.93350000  0.55250000  1.0 -0.0547621083
C  C133  1  0.49660000  0.81380000  0.50120000  1.0 -0.1637450622
C  C134  1  0.42150000  0.87450000  0.52810000  1.0 0.0030392797
C  C135  1  0.42440000  0.94780000  0.52700000  1.0 -0.0601825165
C  C136  1  0.85960000  0.43060000  0.15780000  1.0 0.0196522238
C  C137  1  0.93350000  0.43010000  0.08390000  1.0 -0.0547621083
C  C138  1  0.81380000  0.49660000  0.18840000  1.0 -0.1637450622
C  C139  1  0.87450000  0.42150000  0.17590000  1.0 0.0030392797
C  C140  1  0.94780000  0.42440000  0.10080000  1.0 -0.0601825165
C  C141  1  0.43060000  0.55200000  0.15780000  1.0 0.0196522238
C  C142  1  0.43010000  0.55250000  0.08390000  1.0 -0.0547621083
C  C143  1  0.49660000  0.50120000  0.18840000  1.0 -0.1637450622
C  C144  1  0.42150000  0.52810000  0.17590000  1.0 0.0030392797
C  C145  1  0.42440000  0.52700000  0.10080000  1.0 -0.0601825165
C  C146  1  0.85960000  0.15780000  0.55200000  1.0 0.0196522238
C  C147  1  0.93350000  0.08390000  0.55250000  1.0 -0.0547621083
C  C148  1  0.81380000  0.18840000  0.50120000  1.0 -0.1637450622
C  C149  1  0.87450000  0.17590000  0.52810000  1.0 0.0030392797
C  C150  1  0.94780000  0.10080000  0.52700000  1.0 -0.0601825165
C  C151  1  0.55200000  0.43060000  0.85960000  1.0 0.0196522238
C  C152  1  0.55250000  0.43010000  0.93350000  1.0 -0.0601825165
C  C153  1  0.50120000  0.49660000  0.81380000  1.0 -0.1637450622
C  C154  1  0.52810000  0.42150000  0.87450000  1.0 0.0030392797
C  C155  1  0.52700000  0.42440000  0.94780000  1.0 -0.0601825165
C  C156  1  0.15780000  0.85960000  0.43060000  1.0 0.0196522238
C  C157  1  0.08390000  0.93350000  0.43010000  1.0 -0.0547621083
C  C158  1  0.18840000  0.81380000  0.49660000  1.0 -0.1637450622
C  C159  1  0.17590000  0.87450000  0.42150000  1.0 0.0030392797
C  C160  1  0.10080000  0.94780000  0.42440000  1.0 -0.0601825165
C  C161  1  0.15780000  0.43060000  0.55200000  1.0 0.0196522238
C  C162  1  0.08390000  0.43010000  0.55250000  1.0 -0.0601825165
C  C163  1  0.18840000  0.49660000  0.50120000  1.0 -0.1637450622
C  C164  1  0.17590000  0.42150000  0.52810000  1.0 0.0030392797
C  C165  1  0.10080000  0.42440000  0.52700000  1.0 -0.0601825165
C  C166  1  0.55200000  0.85960000  0.15780000  1.0 0.0196522238
C  C167  1  0.55250000  0.93350000  0.08390000  1.0 -0.0547621083
C  C168  1  0.50120000  0.81380000  0.18840000  1.0 -0.1637450622
C  C169  1  0.52810000  0.87450000  0.17590000  1.0 0.0030392797
C  C170  1  0.52700000  0.94780000  0.10080000  1.0 -0.0601825165
C  C171  1  0.85960000  0.55200000  0.43060000  1.0 0.0196522238
C  C172  1  0.93350000  0.55250000  0.43010000  1.0 -0.0547621083
C  C173  1  0.81380000  0.50120000  0.49660000  1.0 -0.1637450622
C  C174  1  0.87450000  0.52810000  0.42150000  1.0 0.0030392797
C  C175  1  0.94780000  0.52700000  0.42440000  1.0 -0.0601825165
C  C176  1  0.43060000  0.15780000  0.85960000  1.0 0.0196522238
C  C177  1  0.43010000  0.08390000  0.93350000  1.0 -0.0601825165
C  C178  1  0.49660000  0.18840000  0.81380000  1.0 -0.1637450622
C  C179  1  0.42150000  0.17590000  0.87450000  1.0 0.0030392797
C  C180  1  0.42440000  0.10080000  0.94780000  1.0 -0.0601825165
C  C181  1  0.44800000  0.84220000  0.14040000  1.0 0.0196522238
C  C182  1  0.44750000  0.91610000  0.06650000  1.0 -0.0547621083
C  C183  1  0.49880000  0.81160000  0.18620000  1.0 -0.1660278722
C  C184  1  0.47190000  0.82410000  0.12550000  1.0 0.0030392797
C  C185  1  0.47300000  0.89920000  0.05220000  1.0 -0.0601825165
C  C186  1  0.84220000  0.44800000  0.56940000  1.0 0.0196522238
C  C187  1  0.91610000  0.44750000  0.56990000  1.0 -0.0547621083
C  C188  1  0.81160000  0.49880000  0.50340000  1.0 -0.1637450622
C  C189  1  0.82410000  0.47190000  0.57850000  1.0 0.0030392797
C  C190  1  0.89920000  0.47300000  0.57560000  1.0 -0.0601825165
C  C191  1  0.56940000  0.14040000  0.84220000  1.0 0.0196522238
C  C192  1  0.56990000  0.06650000  0.91610000  1.0 -0.0601825165
C  C193  1  0.50340000  0.18620000  0.81160000  1.0 -0.1637450622
C  C194  1  0.57850000  0.12550000  0.82410000  1.0 0.0030392797
C  C195  1  0.57560000  0.05220000  0.89920000  1.0 -0.0601825165
C  C196  1  0.14040000  0.56940000  0.44800000  1.0 0.0196522238
C  C197  1  0.06650000  0.56990000  0.44750000  1.0 -0.0601825165
C  C198  1  0.18620000  0.50340000  0.49880000  1.0 -0.1637450622
C  C199  1  0.12550000  0.57850000  0.47190000  1.0 0.0030392797
C  C200  1  0.05220000  0.57560000  0.47300000  1.0 -0.0601825165
C  C201  1  0.56940000  0.44800000  0.14040000  1.0 0.0196522238
C  C202  1  0.56990000  0.44750000  0.06650000  1.0 -0.0547621083
C  C203  1  0.50340000  0.49880000  0.18620000  1.0 -0.1637450622
C  C204  1  0.57850000  0.47190000  0.12550000  1.0 0.0030392797
C  C205  1  0.57560000  0.47300000  0.05220000  1.0 -0.0601825165
C  C206  1  0.14040000  0.84220000  0.56940000  1.0 0.0196522238
C  C207  1  0.06650000  0.91610000  0.56990000  1.0 -0.0547621083
C  C208  1  0.18620000  0.81160000  0.50340000  1.0 -0.1637450622
C  C209  1  0.12550000  0.82410000  0.57850000  1.0 0.0030392797
C  C210  1  0.05220000  0.89920000  0.57560000  1.0 -0.0601825165
C  C211  1  0.44800000  0.56940000  0.84220000  1.0 0.0196522238
C  C212  1  0.44750000  0.56990000  0.91610000  1.0 -0.0601825165
C  C213  1  0.49880000  0.50340000  0.81160000  1.0 -0.1637450622
C  C214  1  0.47190000  0.57850000  0.82410000  1.0 0.0030392797
C  C215  1  0.47300000  0.57560000  0.89920000  1.0 -0.0601825165
C  C216  1  0.84220000  0.14040000  0.44800000  1.0 0.0196522238
C  C217  1  0.91610000  0.06650000  0.44750000  1.0 -0.0547621083
C  C218  1  0.81160000  0.18620000  0.49880000  1.0 -0.1637450622
C  C219  1  0.82410000  0.12550000  0.47190000  1.0 0.0030392797
C  C220  1  0.89920000  0.05220000  0.47300000  1.0 -0.0601825165
C  C221  1  0.84220000  0.56940000  0.14040000  1.0 0.0196522238
C  C222  1  0.91610000  0.56990000  0.06650000  1.0 -0.0547621083
C  C223  1  0.81160000  0.50340000  0.18620000  1.0 -0.1637450622
C  C224  1  0.82410000  0.57850000  0.12550000  1.0 0.0030392797
C  C225  1  0.89920000  0.57560000  0.05220000  1.0 -0.0601825165
C  C226  1  0.44800000  0.14040000  0.56940000  1.0 0.0196522238
C  C227  1  0.44750000  0.06650000  0.56990000  1.0 -0.0601825165
C  C228  1  0.49880000  0.18620000  0.50340000  1.0 -0.1637450622
C  C229  1  0.47190000  0.12550000  0.57850000  1.0 0.0030392797
C  C230  1  0.47300000  0.05220000  0.57560000  1.0 -0.0601825165
C  C231  1  0.14040000  0.44800000  0.84220000  1.0 0.0196522238
C  C232  1  0.06650000  0.44750000  0.91610000  1.0 -0.0601825165
C  C233  1  0.18620000  0.49880000  0.81160000  1.0 -0.1637450622
C  C234  1  0.12550000  0.47190000  0.82410000  1.0 0.0030392797
C  C235  1  0.05220000  0.47300000  0.89920000  1.0 -0.0601825165
C  C236  1  0.56940000  0.84220000  0.44800000  1.0 0.0196522238
C  C237  1  0.56990000  0.91610000  0.44750000  1.0 -0.0547621083
C  C238  1  0.50340000  0.81160000  0.49880000  1.0 -0.1637450622
C  C239  1  0.57850000  0.82410000  0.47190000  1.0 0.0030392797
C  C240  1  0.57560000  0.89920000  0.47300000  1.0 -0.0601825165
C  C241  1  0.49810000  0.96210000  0.50190000  1.0 0.0263836805
C  C242  1  0.96210000  0.49810000  0.03790000  1.0 0.0263836805
C  C243  1  0.50190000  0.03790000  0.49810000  1.0 0.0263836805
C  C244  1  0.03790000  0.50190000  0.96210000  1.0 0.0263836805
C  C245  1  0.50190000  0.49810000  0.96210000  1.0 0.0263836805
C  C246  1  0.03790000  0.96210000  0.49810000  1.0 0.0263836805
C  C247  1  0.49810000  0.50190000  0.03790000  1.0 0.0263836805
C  C248  1  0.96210000  0.03790000  0.50190000  1.0 0.0263836805
C  C249  1  0.96210000  0.50190000  0.49810000  1.0 0.0263836805
C  C250  1  0.49810000  0.03790000  0.96210000  1.0 0.0263836805
C  C251  1  0.03790000  0.49810000  0.50190000  1.0 0.0263836805
C  C252  1  0.50190000  0.96210000  0.03790000  1.0 0.0263836805
C  C253  1  0.50190000  0.03790000  0.96210000  1.0 0.0263836805
C  C254  1  0.03790000  0.50190000  0.49810000  1.0 0.0263836805
C  C255  1  0.49810000  0.96210000  0.03790000  1.0 0.0263836805
C  C256  1  0.96210000  0.49810000  0.50190000  1.0 0.0263836805
C  C257  1  0.49810000  0.50190000  0.96210000  1.0 0.0263836805
C  C258  1  0.96210000  0.03790000  0.49810000  1.0 0.0263836805
C  C259  1  0.50190000  0.49810000  0.03790000  1.0 0.0263836805
C  C260  1  0.03790000  0.96210000  0.50190000  1.0 0.0263836805
C  C261  1  0.03790000  0.49810000  0.96210000  1.0 0.0263836805
C  C262  1  0.50190000  0.96210000  0.49810000  1.0 0.0263836805
C  C263  1  0.96210000  0.50190000  0.03790000  1.0 0.0263836805
C  C264  1  0.49810000  0.03790000  0.50190000  1.0 0.0263836805
C  C265  1  0.50000000  0.73440000  0.50000000  1.0 0.0601881653
C  C266  1  0.50000000  0.81450000  0.50000000  1.0 -0.1792350594
C  C267  1  0.50000000  0.95890000  0.50000000  1.0 0.0196522238
C  C268  1  0.73440000  0.50000000  0.26560000  1.0 0.0601881653
C  C269  1  0.81450000  0.50000000  0.18550000  1.0 -0.1792350594
C  C270  1  0.95890000  0.50000000  0.04110000  1.0 0.0196522238
C  C271  1  0.50000000  0.26560000  0.50000000  1.0 0.0601881653
C  C272  1  0.50000000  0.18550000  0.50000000  1.0 -0.1792350594
C  C273  1  0.50000000  0.04110000  0.50000000  1.0 0.0196522238
C  C274  1  0.26560000  0.50000000  0.73440000  1.0 0.0601881653
C  C275  1  0.18550000  0.50000000  0.81450000  1.0 -0.1792350594
C  C276  1  0.04110000  0.50000000  0.95890000  1.0 0.0196522238
C  C277  1  0.50000000  0.50000000  0.73440000  1.0 0.0601881653
C  C278  1  0.50000000  0.50000000  0.81450000  1.0 -0.1792350594
C  C279  1  0.50000000  0.50000000  0.95890000  1.0 0.0196522238
C  C280  1  0.26560000  0.73440000  0.50000000  1.0 0.0601881653
C  C281  1  0.18550000  0.81450000  0.50000000  1.0 -0.1792350594
C  C282  1  0.04110000  0.95890000  0.50000000  1.0 0.0196522238
C  C283  1  0.50000000  0.50000000  0.26560000  1.0 0.0601881653
C  C284  1  0.50000000  0.50000000  0.18550000  1.0 -0.1792350594
C  C285  1  0.50000000  0.50000000  0.04110000  1.0 0.0196522238
C  C286  1  0.73440000  0.26560000  0.50000000  1.0 0.0601881653
C  C287  1  0.81450000  0.18550000  0.50000000  1.0 -0.1792350594
C  C288  1  0.95890000  0.04110000  0.50000000  1.0 0.0196522238
C  C289  1  0.73440000  0.50000000  0.50000000  1.0 0.0601881653
C  C290  1  0.81450000  0.50000000  0.50000000  1.0 -0.1792350594
C  C291  1  0.95890000  0.50000000  0.50000000  1.0 0.0196522238
C  C292  1  0.50000000  0.26560000  0.73440000  1.0 0.0601881653
C  C293  1  0.50000000  0.18550000  0.81450000  1.0 -0.1792350594
C  C294  1  0.50000000  0.04110000  0.95890000  1.0 0.0196522238
C  C295  1  0.26560000  0.50000000  0.50000000  1.0 0.0601881653
C  C296  1  0.18550000  0.50000000  0.50000000  1.0 -0.1792350594
C  C297  1  0.04110000  0.50000000  0.50000000  1.0 0.0196522238
C  C298  1  0.50000000  0.73440000  0.26560000  1.0 0.0601881653
C  C299  1  0.50000000  0.81450000  0.18550000  1.0 -0.1792350594
C  C300  1  0.50000000  0.95890000  0.04110000  1.0 0.0196522238
S  S1  1  0.43010000  0.75490000  0.69590000  1.0 -0.0345116216
S  S2  1  0.36990000  0.79150000  0.67350000  1.0 -0.0077982442
S  S3  1  0.75490000  0.43010000  0.11910000  1.0 -0.0345116216
S  S4  1  0.79150000  0.36990000  0.16510000  1.0 -0.0077982442
S  S5  1  0.69590000  0.11910000  0.43010000  1.0 -0.0345116216
S  S6  1  0.67350000  0.16510000  0.36990000  1.0 -0.0077982442
S  S7  1  0.11910000  0.69590000  0.75490000  1.0 -0.0345116216
S  S8  1  0.16510000  0.67350000  0.79150000  1.0 -0.0077982442
S  S9  1  0.69590000  0.43010000  0.75490000  1.0 -0.0345116216
S  S10  1  0.67350000  0.36990000  0.79150000  1.0 -0.0077982442
S  S11  1  0.11910000  0.75490000  0.43010000  1.0 -0.0345116216
S  S12  1  0.16510000  0.79150000  0.36990000  1.0 -0.0077982442
S  S13  1  0.43010000  0.69590000  0.11910000  1.0 -0.0345116216
S  S14  1  0.36990000  0.67350000  0.16510000  1.0 -0.0077982442
S  S15  1  0.75490000  0.11910000  0.69590000  1.0 -0.0345116216
S  S16  1  0.79150000  0.16510000  0.67350000  1.0 -0.0077982442
S  S17  1  0.75490000  0.69590000  0.43010000  1.0 -0.0345116216
S  S18  1  0.79150000  0.67350000  0.36990000  1.0 -0.0077982442
S  S19  1  0.43010000  0.11910000  0.75490000  1.0 -0.0345116216
S  S20  1  0.36990000  0.16510000  0.79150000  1.0 -0.0077982442
S  S21  1  0.11910000  0.43010000  0.69590000  1.0 -0.0345116216
S  S22  1  0.16510000  0.36990000  0.67350000  1.0 -0.0077982442
S  S23  1  0.69590000  0.75490000  0.11910000  1.0 -0.0345116216
S  S24  1  0.67350000  0.79150000  0.16510000  1.0 -0.0077982442
S  S25  1  0.56990000  0.24510000  0.88090000  1.0 -0.0345116216
S  S26  1  0.63010000  0.20850000  0.83490000  1.0 -0.0077982442
S  S27  1  0.24510000  0.56990000  0.30410000  1.0 -0.0345116216
S  S28  1  0.20850000  0.63010000  0.32650000  1.0 -0.0077982442
S  S29  1  0.30410000  0.88090000  0.24510000  1.0 -0.0345116216
S  S30  1  0.32650000  0.83490000  0.20850000  1.0 -0.0077982442
S  S31  1  0.88090000  0.30410000  0.56990000  1.0 -0.0345116216
S  S32  1  0.83490000  0.32650000  0.63010000  1.0 -0.0077982442
S  S33  1  0.30410000  0.56990000  0.88090000  1.0 -0.0345116216
S  S34  1  0.32650000  0.63010000  0.83490000  1.0 -0.0077982442
S  S35  1  0.88090000  0.24510000  0.30410000  1.0 -0.0345116216
S  S36  1  0.83490000  0.20850000  0.32650000  1.0 -0.0077982442
S  S37  1  0.56990000  0.30410000  0.24510000  1.0 -0.0345116216
S  S38  1  0.63010000  0.32650000  0.20850000  1.0 -0.0077982442
S  S39  1  0.24510000  0.88090000  0.56990000  1.0 -0.0345116216
S  S40  1  0.20850000  0.83490000  0.63010000  1.0 -0.0077982442
S  S41  1  0.24510000  0.30410000  0.88090000  1.0 -0.0345116216
S  S42  1  0.20850000  0.32650000  0.83490000  1.0 -0.0077982442
S  S43  1  0.56990000  0.88090000  0.30410000  1.0 -0.0345116216
S  S44  1  0.63010000  0.83490000  0.32650000  1.0 -0.0077982442
S  S45  1  0.88090000  0.56990000  0.24510000  1.0 -0.0345116216
S  S46  1  0.83490000  0.63010000  0.20850000  1.0 -0.0077982442
S  S47  1  0.30410000  0.24510000  0.56990000  1.0 -0.0345116216
S  S48  1  0.32650000  0.20850000  0.63010000  1.0 -0.0077982442
S  S49  1  0.56990000  0.24510000  0.30410000  1.0 -0.0345116216
S  S50  1  0.63010000  0.20850000  0.32650000  1.0 -0.0077982442
S  S51  1  0.24510000  0.56990000  0.88090000  1.0 -0.0345116216
S  S52  1  0.20850000  0.63010000  0.83490000  1.0 -0.0077982442
S  S53  1  0.30410000  0.88090000  0.56990000  1.0 -0.0345116216
S  S54  1  0.32650000  0.83490000  0.63010000  1.0 -0.0077982442
S  S55  1  0.88090000  0.30410000  0.24510000  1.0 -0.0345116216
S  S56  1  0.83490000  0.32650000  0.20850000  1.0 -0.0077982442
S  S57  1  0.30410000  0.56990000  0.24510000  1.0 -0.0345116216
S  S58  1  0.32650000  0.63010000  0.20850000  1.0 -0.0077982442
S  S59  1  0.88090000  0.24510000  0.56990000  1.0 -0.0345116216
S  S60  1  0.83490000  0.20850000  0.63010000  1.0 -0.0077982442
S  S61  1  0.56990000  0.30410000  0.88090000  1.0 -0.0345116216
S  S62  1  0.63010000  0.32650000  0.83490000  1.0 -0.0077982442
S  S63  1  0.24510000  0.88090000  0.30410000  1.0 -0.0345116216
S  S64  1  0.20850000  0.83490000  0.32650000  1.0 -0.0077982442
S  S65  1  0.24510000  0.30410000  0.56990000  1.0 -0.0345116216
S  S66  1  0.20850000  0.32650000  0.63010000  1.0 -0.0077982442
S  S67  1  0.56990000  0.88090000  0.24510000  1.0 -0.0345116216
S  S68  1  0.63010000  0.83490000  0.20850000  1.0 -0.0077982442
S  S69  1  0.88090000  0.56990000  0.30410000  1.0 -0.0345116216
S  S70  1  0.83490000  0.63010000  0.32650000  1.0 -0.0077982442
S  S71  1  0.30410000  0.24510000  0.88090000  1.0 -0.0345116216
S  S72  1  0.32650000  0.20850000  0.83490000  1.0 -0.0077982442
S  S73  1  0.43010000  0.75490000  0.11910000  1.0 -0.0345116216
S  S74  1  0.36990000  0.79150000  0.16510000  1.0 -0.0077982442
S  S75  1  0.75490000  0.43010000  0.69590000  1.0 -0.0345116216
S  S76  1  0.79150000  0.36990000  0.67350000  1.0 -0.0077982442
S  S77  1  0.69590000  0.11910000  0.75490000  1.0 -0.0345116216
S  S78  1  0.67350000  0.16510000  0.79150000  1.0 -0.0077982442
S  S79  1  0.11910000  0.69590000  0.43010000  1.0 -0.0345116216
S  S80  1  0.16510000  0.67350000  0.36990000  1.0 -0.0077982442
S  S81  1  0.69590000  0.43010000  0.11910000  1.0 -0.0345116216
S  S82  1  0.67350000  0.36990000  0.16510000  1.0 -0.0077982442
S  S83  1  0.11910000  0.75490000  0.69590000  1.0 -0.0345116216
S  S84  1  0.16510000  0.79150000  0.67350000  1.0 -0.0077982442
S  S85  1  0.43010000  0.69590000  0.75490000  1.0 -0.0345116216
S  S86  1  0.36990000  0.67350000  0.79150000  1.0 -0.0077982442
S  S87  1  0.75490000  0.11910000  0.43010000  1.0 -0.0345116216
S  S88  1  0.79150000  0.16510000  0.36990000  1.0 -0.0077982442
S  S89  1  0.75490000  0.69590000  0.11910000  1.0 -0.0345116216
S  S90  1  0.79150000  0.67350000  0.16510000  1.0 -0.0077982442
S  S91  1  0.43010000  0.11910000  0.69590000  1.0 -0.0345116216
S  S92  1  0.36990000  0.16510000  0.67350000  1.0 -0.0077982442
S  S93  1  0.11910000  0.43010000  0.75490000  1.0 -0.0345116216
S  S94  1  0.16510000  0.36990000  0.79150000  1.0 -0.0077982442
S  S95  1  0.69590000  0.75490000  0.43010000  1.0 -0.0345116216
S  S96  1  0.67350000  0.79150000  0.36990000  1.0 -0.0077982442
O  O1  1  0.55210000  0.55210000  0.55210000  1.0 -0.3609722203
O  O2  1  0.53890000  0.53890000  0.53890000  1.0 -0.3609722203
O  O3  1  0.55210000  0.55210000  0.34370000  1.0 -0.3609722203
O  O4  1  0.53890000  0.53890000  0.38330000  1.0 -0.3609722203
O  O5  1  0.55210000  0.34370000  0.55210000  1.0 -0.3609722203
O  O6  1  0.53890000  0.38330000  0.53890000  1.0 -0.3609722203
O  O7  1  0.34370000  0.55210000  0.55210000  1.0 -0.3609722203
O  O8  1  0.38330000  0.53890000  0.53890000  1.0 -0.3609722203
O  O9  1  0.44790000  0.44790000  0.65630000  1.0 -0.3609722203
O  O10  1  0.46110000  0.46110000  0.61670000  1.0 -0.3609722203
O  O11  1  0.44790000  0.44790000  0.44790000  1.0 -0.3609722203
O  O12  1  0.46110000  0.46110000  0.46110000  1.0 -0.3609722203
O  O13  1  0.44790000  0.65630000  0.44790000  1.0 -0.3609722203
O  O14  1  0.46110000  0.61670000  0.46110000  1.0 -0.3609722203
O  O15  1  0.65630000  0.44790000  0.44790000  1.0 -0.3609722203
O  O16  1  0.61670000  0.46110000  0.46110000  1.0 -0.3609722203
O  O17  1  0.55964000  0.70424000  0.44036000  1.0 -0.4726337725
O  O18  1  0.70424000  0.55964000  0.29576000  1.0 -0.4726337725
O  O19  1  0.44036000  0.29576000  0.55964000  1.0 -0.4726337725
O  O20  1  0.29576000  0.44036000  0.70424000  1.0 -0.4726337725
O  O21  1  0.44036000  0.55964000  0.70424000  1.0 -0.4726337725
O  O22  1  0.29576000  0.70424000  0.55964000  1.0 -0.4726337725
O  O23  1  0.55964000  0.44036000  0.29576000  1.0 -0.4726337725
O  O24  1  0.70424000  0.29576000  0.44036000  1.0 -0.4726337725
O  O25  1  0.70424000  0.44036000  0.55964000  1.0 -0.4726337725
O  O26  1  0.55964000  0.29576000  0.70424000  1.0 -0.4726337725
O  O27  1  0.29576000  0.55964000  0.44036000  1.0 -0.4726337725
O  O28  1  0.44036000  0.70424000  0.29576000  1.0 -0.4726337725
O  O29  1  0.44036000  0.29576000  0.70424000  1.0 -0.4726337725
O  O30  1  0.29576000  0.44036000  0.55964000  1.0 -0.4726337725
O  O31  1  0.55964000  0.70424000  0.29576000  1.0 -0.4726337725
O  O32  1  0.70424000  0.55964000  0.44036000  1.0 -0.4726337725
O  O33  1  0.55964000  0.44036000  0.70424000  1.0 -0.4726337725
O  O34  1  0.70424000  0.29576000  0.55964000  1.0 -0.4726337725
O  O35  1  0.44036000  0.55964000  0.29576000  1.0 -0.4726337725
O  O36  1  0.29576000  0.70424000  0.44036000  1.0 -0.4726337725
O  O37  1  0.29576000  0.55964000  0.70424000  1.0 -0.4726337725
O  O38  1  0.44036000  0.70424000  0.55964000  1.0 -0.4726337725
O  O39  1  0.70424000  0.44036000  0.29576000  1.0 -0.4726337725
O  O40  1  0.55964000  0.29576000  0.44036000  1.0 -0.4726337725
