# DDEC6 charges by PACMAN v1.1 (https://github.com/mtap-research/PACMAN-charge/)
data_NIVNUC_ASR_pacman
_symmetry_space_group_name_H-M   'P 1'
_cell_length_a   15.27490000
_cell_length_b   15.27490000
_cell_length_c   11.51600000
_cell_angle_alpha   73.70790000
_cell_angle_beta   106.29200000
_cell_angle_gamma   122.14200000
_symmetry_Int_Tables_number   1
_chemical_formula_structural   Cu3H8W2(C6N5)4
_chemical_formula_sum   'Cu6 H16 W4 C48 N40'
_cell_volume   2155.08230347
_cell_formula_units_Z   2
loop_
 _symmetry_equiv_pos_site_id
 _symmetry_equiv_pos_as_xyz
  1  'x, y, z'
loop_
 _atom_site_type_symbol
 _atom_site_label
 _atom_site_symmetry_multiplicity
 _atom_site_fract_x
 _atom_site_fract_y
 _atom_site_fract_z
 _atom_site_occupancy
 _atom_site_charge
Cu  Cu1  1  0.00000000  0.50000000  0.50000000  1.0 0.7606494736
Cu  Cu2  1  0.50000000  0.00000000  0.50000000  1.0 0.7606494736
Cu  Cu3  1  0.00000000  0.50000000  0.00000000  1.0 0.7606494736
Cu  Cu4  1  0.50000000  0.00000000  0.00000000  1.0 0.7606494736
Cu  Cu5  1  0.73576000  0.73576000  0.00000000  1.0 0.8582817774
Cu  Cu6  1  0.26424000  0.26424000  0.00000000  1.0 0.8582817774
H  H1  1  0.06800000  0.34260000  0.50600000  1.0 0.1316587284
H  H2  1  0.34260000  0.06800000  0.49400000  1.0 0.1316587284
H  H3  1  0.93200000  0.65740000  0.49400000  1.0 0.1316587284
H  H4  1  0.65740000  0.93200000  0.50600000  1.0 0.1316587284
H  H5  1  0.09880000  0.28140000  0.36690000  1.0 0.1673699182
H  H6  1  0.28140000  0.09880000  0.63310000  1.0 0.1673699182
H  H7  1  0.90120000  0.71860000  0.63310000  1.0 0.1673699182
H  H8  1  0.71860000  0.90120000  0.36690000  1.0 0.1673699182
H  H9  1  0.07230000  0.34610000  0.16090000  1.0 0.1316587284
H  H10  1  0.34610000  0.07230000  0.83910000  1.0 0.1316587284
H  H11  1  0.92770000  0.65390000  0.83910000  1.0 0.1316587284
H  H12  1  0.65390000  0.92770000  0.16090000  1.0 0.1316587284
H  H13  1  0.98260000  0.51460000  0.23730000  1.0 0.1127920311
H  H14  1  0.51460000  0.98260000  0.76270000  1.0 0.1127920311
H  H15  1  0.01740000  0.48540000  0.76270000  1.0 0.1127920311
H  H16  1  0.48540000  0.01740000  0.23730000  1.0 0.1127920311
W  W1  1  0.65051000  0.34949000  0.19848000  1.0 0.6968971651
W  W2  1  0.34949000  0.65051000  0.80152000  1.0 0.6968971651
W  W3  1  0.13842000  0.86158000  0.14018000  1.0 0.7311192613
W  W4  1  0.86158000  0.13842000  0.85982000  1.0 0.7311192613
C  C1  1  0.78638000  0.42942000  0.33020000  1.0 0.0556510922
C  C2  1  0.42942000  0.78638000  0.66980000  1.0 0.0556510922
C  C3  1  0.21362000  0.57058000  0.66980000  1.0 0.0556510922
C  C4  1  0.57058000  0.21362000  0.33020000  1.0 0.0556510922
C  C5  1  0.59980000  0.40020000  0.31140000  1.0 -0.0280372224
C  C6  1  0.40020000  0.59980000  0.68860000  1.0 -0.0280372224
C  C7  1  0.67796000  0.50504000  0.11420000  1.0 0.0711423822
C  C8  1  0.50504000  0.67796000  0.88580000  1.0 0.0711423822
C  C9  1  0.32204000  0.49496000  0.88580000  1.0 0.0711423822
C  C10  1  0.49496000  0.32204000  0.11420000  1.0 0.0711423822
C  C11  1  0.76735000  0.42025000  0.08070000  1.0 0.0149777804
C  C12  1  0.42025000  0.76735000  0.91930000  1.0 0.0149777804
C  C13  1  0.23265000  0.57975000  0.91930000  1.0 0.0149777804
C  C14  1  0.57975000  0.23265000  0.08070000  1.0 0.0149777804
C  C15  1  0.73600000  0.26400000  0.25600000  1.0 -0.0280372224
C  C16  1  0.26400000  0.73600000  0.74400000  1.0 -0.0280372224
C  C17  1  0.97155000  0.80345000  0.08960000  1.0 0.0711423822
C  C18  1  0.80345000  0.97155000  0.91040000  1.0 0.0711423822
C  C19  1  0.02845000  0.19655000  0.91040000  1.0 0.0711423822
C  C20  1  0.19655000  0.02845000  0.08960000  1.0 0.0711423822
C  C21  1  0.09280000  0.90720000  0.26470000  1.0 -0.0145826422
C  C22  1  0.90720000  0.09280000  0.73530000  1.0 -0.0156672604
C  C23  1  0.09071000  0.73169000  0.28880000  1.0 0.0170248572
C  C24  1  0.73169000  0.09071000  0.71120000  1.0 0.0170248572
C  C25  1  0.90929000  0.26831000  0.71120000  1.0 0.0170248572
C  C26  1  0.26831000  0.90929000  0.28880000  1.0 0.0170248572
C  C27  1  0.09365000  0.71955000  0.07800000  1.0 0.0429696713
C  C28  1  0.71955000  0.09365000  0.92200000  1.0 0.0429696713
C  C29  1  0.90635000  0.28045000  0.92200000  1.0 0.0429696713
C  C30  1  0.28045000  0.90635000  0.07800000  1.0 0.0429696713
C  C31  1  0.10570000  0.89430000  0.94210000  1.0 -0.0448556159
C  C32  1  0.89430000  0.10570000  0.05790000  1.0 -0.0468622062
C  C33  1  0.05696000  0.36684000  0.42260000  1.0 0.1453291487
C  C34  1  0.36684000  0.05696000  0.57740000  1.0 0.1453291487
C  C35  1  0.94304000  0.63316000  0.57740000  1.0 0.1453291487
C  C36  1  0.63316000  0.94304000  0.42260000  1.0 0.1453291487
C  C37  1  0.07574000  0.33026000  0.34030000  1.0 -0.1497932512
C  C38  1  0.33026000  0.07574000  0.65970000  1.0 -0.1497932512
C  C39  1  0.92426000  0.66974000  0.65970000  1.0 -0.1497932512
C  C40  1  0.66974000  0.92426000  0.34030000  1.0 -0.1497932512
C  C41  1  0.05937000  0.36863000  0.21800000  1.0 0.142865305
C  C42  1  0.36863000  0.05937000  0.78200000  1.0 0.142865305
C  C43  1  0.94063000  0.63137000  0.78200000  1.0 0.142865305
C  C44  1  0.63137000  0.94063000  0.21800000  1.0 0.142865305
C  C45  1  0.00788000  0.46752000  0.26430000  1.0 0.2260510747
C  C46  1  0.46752000  0.00788000  0.73570000  1.0 0.2260510747
C  C47  1  0.99212000  0.53248000  0.73570000  1.0 0.2260510747
C  C48  1  0.53248000  0.99212000  0.26430000  1.0 0.2260510747
N  N1  1  0.85953000  0.46581000  0.39980000  1.0 -0.3303447454
N  N2  1  0.46581000  0.85953000  0.60020000  1.0 -0.3303447454
N  N3  1  0.14047000  0.53419000  0.60020000  1.0 -0.3303447454
N  N4  1  0.53419000  0.14047000  0.39980000  1.0 -0.3303447454
N  N5  1  0.57250000  0.42750000  0.36930000  1.0 -0.280580599
N  N6  1  0.42750000  0.57250000  0.63070000  1.0 -0.280580599
N  N7  1  0.69519000  0.58821000  0.07100000  1.0 -0.3401081588
N  N8  1  0.58821000  0.69519000  0.92900000  1.0 -0.3401081588
N  N9  1  0.30481000  0.41179000  0.92900000  1.0 -0.3401081588
N  N10  1  0.41179000  0.30481000  0.07100000  1.0 -0.3401081588
N  N11  1  0.83386000  0.46054000  0.02530000  1.0 -0.3401081588
N  N12  1  0.46054000  0.83386000  0.97470000  1.0 -0.3401081588
N  N13  1  0.16614000  0.53946000  0.97470000  1.0 -0.3401081588
N  N14  1  0.53946000  0.16614000  0.02530000  1.0 -0.3401081588
N  N15  1  0.78118000  0.21882000  0.28710000  1.0 -0.280580599
N  N16  1  0.21882000  0.78118000  0.71290000  1.0 -0.280580599
N  N17  1  0.88476000  0.77604000  0.06150000  1.0 -0.3303447454
N  N18  1  0.77604000  0.88476000  0.93850000  1.0 -0.3303447454
N  N19  1  0.11524000  0.22396000  0.93850000  1.0 -0.3303447454
N  N20  1  0.22396000  0.11524000  0.06150000  1.0 -0.3303447454
N  N21  1  0.06970000  0.93030000  0.33240000  1.0 -0.280580599
N  N22  1  0.93030000  0.06970000  0.66760000  1.0 -0.280580599
N  N23  1  0.06499000  0.66261000  0.36770000  1.0 -0.3303447454
N  N24  1  0.66261000  0.06499000  0.63230000  1.0 -0.3303447454
N  N25  1  0.93501000  0.33739000  0.63230000  1.0 -0.3303447454
N  N26  1  0.33739000  0.93501000  0.36770000  1.0 -0.3303447454
N  N27  1  0.06432000  0.64202000  0.04750000  1.0 -0.3239286382
N  N28  1  0.64202000  0.06432000  0.95250000  1.0 -0.3239286382
N  N29  1  0.93568000  0.35798000  0.95250000  1.0 -0.3239286382
N  N30  1  0.35798000  0.93568000  0.04750000  1.0 -0.3239286382
N  N31  1  0.08890000  0.91110000  0.83730000  1.0 -0.2889854152
N  N32  1  0.91110000  0.08890000  0.16270000  1.0 -0.2889854152
N  N33  1  0.02367000  0.43613000  0.38460000  1.0 -0.2327832363
N  N34  1  0.43613000  0.02367000  0.61540000  1.0 -0.2327832363
N  N35  1  0.97633000  0.56387000  0.61540000  1.0 -0.2327832363
N  N36  1  0.56387000  0.97633000  0.38460000  1.0 -0.2327832363
N  N37  1  0.02521000  0.43741000  0.18000000  1.0 -0.2327832363
N  N38  1  0.43741000  0.02521000  0.82000000  1.0 -0.2327832363
N  N39  1  0.97479000  0.56259000  0.82000000  1.0 -0.2327832363
N  N40  1  0.56259000  0.97479000  0.18000000  1.0 -0.2327832363
