# DDEC6 charges by PACMAN v1.1 (https://github.com/mtap-research/PACMAN-charge/)
data_NIVZOJ_ASR_pacman
_symmetry_space_group_name_H-M   'P 1'
_cell_length_a   14.50560000
_cell_length_b   14.89810000
_cell_length_c   22.99340000
_cell_angle_alpha   90.53400000
_cell_angle_beta   92.84400000
_cell_angle_gamma   104.15300000
_symmetry_Int_Tables_number   1
_chemical_formula_structural   Ag5P2H42W18C28N21O46
_chemical_formula_sum   'Ag10 P4 H84 W36 C56 N42 O92'
_cell_volume   4811.06574953
_cell_formula_units_Z   2
loop_
 _symmetry_equiv_pos_site_id
 _symmetry_equiv_pos_as_xyz
  1  'x, y, z'
loop_
 _atom_site_type_symbol
 _atom_site_label
 _atom_site_symmetry_multiplicity
 _atom_site_fract_x
 _atom_site_fract_y
 _atom_site_fract_z
 _atom_site_occupancy
 _atom_site_charge
Ag  Ag1  1  0.00000000  0.00000000  0.00000000  1.0 0.0606145328
Ag  Ag2  1  0.00000000  0.50000000  0.50000000  1.0 0.1361591477
Ag  Ag3  1  0.26030000  0.88730000  0.23502000  1.0 0.1361591477
Ag  Ag4  1  0.73970000  0.11270000  0.76498000  1.0 0.1335253451
Ag  Ag5  1  0.92956000  0.59066000  0.92829000  1.0 0.2323410098
Ag  Ag6  1  0.07044000  0.40934000  0.07171000  1.0 0.2323410098
Ag  Ag7  1  0.51726000  0.37814000  0.99770000  1.0 0.2990883474
Ag  Ag8  1  0.48274000  0.62186000  0.00230000  1.0 0.2990883474
Ag  Ag9  1  0.03760000  0.96680000  0.00860000  1.0 0.0805674635
Ag  Ag10  1  0.96240000  0.03320000  0.99140000  1.0 0.0805674635
P  P1  1  0.72380000  0.85460000  0.26440000  1.0 1.3598120693
P  P2  1  0.27620000  0.14540000  0.73560000  1.0 1.3598120693
P  P3  1  0.76400000  0.59990000  0.26440000  1.0 1.3598120693
P  P4  1  0.23600000  0.40010000  0.73560000  1.0 1.3598120693
H  H1  1  0.95030000  0.49660000  0.64320000  1.0 0.1176760762
H  H2  1  0.04970000  0.50340000  0.35680000  1.0 0.1176760762
H  H3  1  0.79850000  0.54350000  0.51050000  1.0 0.0805674635
H  H4  1  0.20150000  0.45650000  0.48950000  1.0 0.0805674635
H  H5  1  0.70040000  0.44100000  0.68610000  1.0 0.0805674635
H  H6  1  0.29960000  0.55900000  0.31390000  1.0 0.0805674635
H  H7  1  0.78010000  0.38640000  0.69030000  1.0 0.0896463879
H  H8  1  0.21990000  0.61360000  0.30970000  1.0 0.0896463879
H  H9  1  0.87840000  0.49690000  0.74200000  1.0 0.0606145328
H  H10  1  0.12160000  0.50310000  0.25800000  1.0 0.0606145328
H  H11  1  0.82160000  0.56970000  0.72540000  1.0 0.0698840636
H  H12  1  0.17840000  0.43030000  0.27460000  1.0 0.0698840636
H  H13  1  0.71100000  0.49240000  0.78430000  1.0 0.0698840636
H  H14  1  0.28900000  0.50760000  0.21570000  1.0 0.0698840636
H  H15  1  0.80480000  0.55880000  0.80980000  1.0 0.0698840636
H  H16  1  0.19520000  0.44120000  0.19020000  1.0 0.0698840636
H  H17  1  0.76870000  0.36460000  0.81290000  1.0 0.0896463879
H  H18  1  0.23130000  0.63540000  0.18710000  1.0 0.0896463879
H  H19  1  0.86190000  0.43250000  0.83970000  1.0 0.0805674635
H  H20  1  0.13810000  0.56750000  0.16030000  1.0 0.0805674635
H  H21  1  0.72120000  0.53230000  0.99640000  1.0 0.1176760762
H  H22  1  0.27880000  0.46770000  0.00360000  1.0 0.1176760762
H  H23  1  0.62460000  0.33620000  0.88090000  1.0 0.0896463879
H  H24  1  0.37540000  0.66380000  0.11910000  1.0 0.0896463879
H  H25  1  0.34430000  0.19750000  0.00900000  1.0 0.0999815842
H  H26  1  0.65570000  0.80250000  0.99100000  1.0 0.0999815842
H  H27  1  0.46650000  0.35710000  0.13410000  1.0 0.0896463879
H  H28  1  0.53350000  0.64290000  0.86590000  1.0 0.0896463879
H  H29  1  0.39710000  0.26250000  0.22270000  1.0 0.0896463879
H  H30  1  0.60290000  0.73750000  0.77730000  1.0 0.0896463879
H  H31  1  0.39970000  0.16020000  0.20800000  1.0 0.0896463879
H  H32  1  0.60030000  0.83980000  0.79200000  1.0 0.0896463879
H  H33  1  0.23010000  0.12800000  0.18440000  1.0 0.0805674635
H  H34  1  0.76990000  0.87200000  0.81560000  1.0 0.0805674635
H  H35  1  0.25840000  0.14760000  0.25090000  1.0 0.0805674635
H  H36  1  0.74160000  0.85240000  0.74910000  1.0 0.0805674635
H  H37  1  0.22730000  0.28510000  0.24960000  1.0 0.0805674635
H  H38  1  0.77270000  0.71490000  0.75040000  1.0 0.0805674635
H  H39  1  0.24170000  0.29630000  0.18280000  1.0 0.0805674635
H  H40  1  0.75830000  0.70370000  0.81720000  1.0 0.0805674635
H  H41  1  0.08270000  0.17340000  0.22550000  1.0 0.0999815842
H  H42  1  0.91730000  0.82660000  0.77450000  1.0 0.0999815842
H  H43  1  0.08200000  0.27510000  0.20890000  1.0 0.0896463879
H  H44  1  0.91800000  0.72490000  0.79110000  1.0 0.0896463879
H  H45  1  0.08520000  0.22330000  0.01200000  1.0 0.0896463879
H  H46  1  0.91480000  0.77670000  0.98800000  1.0 0.0896463879
H  H47  1  0.02610000  0.06200000  0.14040000  1.0 0.0896463879
H  H48  1  0.97390000  0.93800000  0.85960000  1.0 0.0896463879
H  H49  1  0.08900000  0.83890000  0.13380000  1.0 0.0999815842
H  H50  1  0.91100000  0.16110000  0.86620000  1.0 0.0999815842
H  H51  1  0.35900000  0.95470000  0.11210000  1.0 0.0999815842
H  H52  1  0.64100000  0.04530000  0.88790000  1.0 0.0999815842
H  H53  1  0.25030000  0.02380000  0.98870000  1.0 0.0999815842
H  H54  1  0.74970000  0.97620000  0.01130000  1.0 0.0999815842
H  H55  1  0.35100000  0.01850000  0.01350000  1.0 0.0896463879
H  H56  1  0.64900000  0.98150000  0.98650000  1.0 0.0896463879
H  H57  1  0.31150000  0.95770000  0.92490000  1.0 0.0999815842
H  H58  1  0.68850000  0.04230000  0.07510000  1.0 0.0999815842
H  H59  1  0.22920000  0.88280000  0.95040000  1.0 0.0805674635
H  H60  1  0.77080000  0.11720000  0.04960000  1.0 0.0805674635
H  H61  1  0.36720000  0.84860000  0.01170000  1.0 0.0698840636
H  H62  1  0.63280000  0.15140000  0.98830000  1.0 0.0698840636
H  H63  1  0.42300000  0.88900000  0.95700000  1.0 0.0805674635
H  H64  1  0.57700000  0.11100000  0.04300000  1.0 0.0805674635
H  H65  1  0.31640000  0.77720000  0.89520000  1.0 0.0999815842
H  H66  1  0.68360000  0.22280000  0.10480000  1.0 0.0999815842
H  H67  1  0.36330000  0.72600000  0.94310000  1.0 0.0805674635
H  H68  1  0.63670000  0.27400000  0.05690000  1.0 0.0805674635
H  H69  1  0.13930000  0.69560000  0.88140000  1.0 0.0896463879
H  H70  1  0.86070000  0.30440000  0.11860000  1.0 0.0896463879
H  H71  1  0.09130000  0.62450000  0.04070000  1.0 0.0805674635
H  H72  1  0.90870000  0.37550000  0.95930000  1.0 0.0805674635
H  H73  1  0.41550000  0.93600000  0.35060000  1.0 0.1114738766
H  H74  1  0.58450000  0.06400000  0.64940000  1.0 0.1114738766
H  H75  1  0.14320000  0.88030000  0.34410000  1.0 0.1114738766
H  H76  1  0.85680000  0.11970000  0.65590000  1.0 0.1114738766
H  H77  1  0.34910000  0.98930000  0.49590000  1.0 0.0896463879
H  H78  1  0.65090000  0.01070000  0.50410000  1.0 0.0896463879
H  H79  1  0.37170000  0.89230000  0.49120000  1.0 0.0896463879
H  H80  1  0.62830000  0.10770000  0.50880000  1.0 0.0896463879
H  H81  1  0.48410000  0.05430000  0.45300000  1.0 0.0698840636
H  H82  1  0.51590000  0.94570000  0.54700000  1.0 0.0698840636
H  H83  1  0.50650000  0.95700000  0.44650000  1.0 0.0606145328
H  H84  1  0.49350000  0.04300000  0.55350000  1.0 0.0606145328
W  W1  1  0.82295000  0.88056000  0.12795000  1.0 2.3567086045
W  W2  1  0.17705000  0.11944000  0.87205000  1.0 2.3519488954
W  W3  1  0.62497000  0.55579000  0.13425000  1.0 2.389366049
W  W4  1  0.37503000  0.44421000  0.86575000  1.0 2.389366049
W  W5  1  0.58759000  0.79708000  0.13246000  1.0 2.2988646809
W  W6  1  0.41241000  0.20292000  0.86754000  1.0 2.2988646809
W  W7  1  0.61581000  0.80794000  0.39720000  1.0 2.3403986279
W  W8  1  0.38419000  0.19206000  0.60280000  1.0 2.3403986279
W  W9  1  0.97265000  0.94206000  0.26281000  1.0 2.2890624587
W  W10  1  0.02735000  0.05794000  0.73719000  1.0 2.2746446911
W  W11  1  0.65442000  0.56722000  0.39854000  1.0 2.4507826153
W  W12  1  0.34558000  0.43278000  0.60146000  1.0 2.4423127953
W  W13  1  0.86037000  0.64047000  0.12571000  1.0 2.2805500809
W  W14  1  0.13963000  0.35953000  0.87429000  1.0 2.2890624587
W  W15  1  0.47847000  0.75259000  0.27369000  1.0 2.157022554
W  W16  1  0.52153000  0.24741000  0.72631000  1.0 2.1768742386
W  W17  1  0.00995000  0.70127000  0.26066000  1.0 2.2746446911
W  W18  1  0.99005000  0.29873000  0.73934000  1.0 2.2805500809
W  W19  1  0.51733000  0.51153000  0.27547000  1.0 2.2391620461
W  W20  1  0.48267000  0.48847000  0.72453000  1.0 2.2343293015
W  W21  1  0.91226000  0.66532000  0.39056000  1.0 2.3742883984
W  W22  1  0.08774000  0.33468000  0.60944000  1.0 2.375572044
W  W23  1  0.87278000  0.90488000  0.39164000  1.0 2.4507826153
W  W24  1  0.12722000  0.09512000  0.60836000  1.0 2.4604874436
W  W25  1  0.80642000  0.08329000  0.21736000  1.0 2.1768742386
W  W26  1  0.19358000  0.91671000  0.78264000  1.0 2.1734960858
W  W27  1  0.70777000  0.04796000  0.34761000  1.0 2.3519488954
W  W28  1  0.29223000  0.95204000  0.65239000  1.0 2.3519488954
W  W29  1  0.80752000  0.41894000  0.34967000  1.0 2.389366049
W  W30  1  0.19248000  0.58106000  0.65033000  1.0 2.389366049
W  W31  1  0.90670000  0.45446000  0.21932000  1.0 2.0279751602
W  W32  1  0.09330000  0.54554000  0.78068000  1.0 2.0374050919
W  W33  1  0.67030000  0.36483000  0.22523000  1.0 2.2567478005
W  W34  1  0.32970000  0.63517000  0.77477000  1.0 2.2391620461
W  W35  1  0.56781000  0.99396000  0.22473000  1.0 2.1734960858
W  W36  1  0.43219000  0.00604000  0.77527000  1.0 2.1925681416
C  C1  1  0.89900000  0.49600000  0.61700000  1.0 -0.0214877295
C  C2  1  0.10100000  0.50400000  0.38300000  1.0 -0.0214877295
C  C3  1  0.81800000  0.52900000  0.54770000  1.0 0.0896463879
C  C4  1  0.18200000  0.47100000  0.45230000  1.0 0.0896463879
C  C5  1  0.76900000  0.44800000  0.68640000  1.0 -0.2314435083
C  C6  1  0.23100000  0.55200000  0.31360000  1.0 -0.2314435083
C  C7  1  0.81500000  0.50600000  0.73690000  1.0 -0.2208058701
C  C8  1  0.18500000  0.49400000  0.26310000  1.0 -0.2208058701
C  C9  1  0.77910000  0.49960000  0.78990000  1.0 -0.2314435083
C  C10  1  0.22090000  0.50040000  0.21010000  1.0 -0.2314435083
C  C11  1  0.79420000  0.42510000  0.83120000  1.0 -0.1931614954
C  C12  1  0.20580000  0.57490000  0.16880000  1.0 -0.1931614954
C  C13  1  0.71810000  0.49340000  0.96410000  1.0 0.0698840636
C  C14  1  0.28190000  0.50660000  0.03590000  1.0 0.0698840636
C  C15  1  0.66440000  0.38670000  0.90080000  1.0 0.0698840636
C  C16  1  0.33560000  0.61330000  0.09920000  1.0 0.0698840636
C  C17  1  0.36300000  0.22000000  0.04660000  1.0 0.0896463879
C  C18  1  0.63700000  0.78000000  0.95340000  1.0 0.0896463879
C  C19  1  0.42820000  0.30680000  0.11310000  1.0 0.0370089185
C  C20  1  0.57180000  0.69320000  0.88690000  1.0 0.0370089185
C  C21  1  0.36720000  0.20830000  0.19870000  1.0 -0.1931614954
C  C22  1  0.63280000  0.79170000  0.80130000  1.0 -0.1931614954
C  C23  1  0.26250000  0.17520000  0.21280000  1.0 -0.2314435083
C  C24  1  0.73750000  0.82480000  0.78720000  1.0 -0.2314435083
C  C25  1  0.21440000  0.25290000  0.21220000  1.0 -0.2314435083
C  C26  1  0.78560000  0.74710000  0.78780000  1.0 -0.2314435083
C  C27  1  0.10950000  0.22370000  0.20010000  1.0 -0.1803727154
C  C28  1  0.89050000  0.77630000  0.79990000  1.0 -0.1803727154
C  C29  1  0.08060000  0.20100000  0.04970000  1.0 0.0805674635
C  C30  1  0.91940000  0.79900000  0.95030000  1.0 0.0805674635
C  C31  1  0.04900000  0.11400000  0.11820000  1.0 -0.0027338754
C  C32  1  0.95100000  0.88600000  0.88180000  1.0 -0.0027338754
C  C33  1  0.14480000  0.87000000  0.11720000  1.0 -0.0095352522
C  C34  1  0.85520000  0.13000000  0.88280000  1.0 -0.0095352522
C  C35  1  0.29300000  0.93400000  0.10670000  1.0 0.0606145328
C  C36  1  0.70700000  0.06600000  0.89330000  1.0 0.0606145328
C  C37  1  0.28700000  0.98200000  0.00330000  1.0 -0.2006761324
C  C38  1  0.71300000  0.01800000  0.99670000  1.0 -0.2006761324
C  C39  1  0.29200000  0.92200000  0.95920000  1.0 -0.2208058701
C  C40  1  0.70800000  0.07800000  0.04080000  1.0 -0.2208058701
C  C41  1  0.36070000  0.85900000  0.97030000  1.0 -0.2314435083
C  C42  1  0.63930000  0.14100000  0.02970000  1.0 -0.2314435083
C  C43  1  0.31980000  0.76540000  0.93650000  1.0 -0.1803727154
C  C44  1  0.68020000  0.23460000  0.06350000  1.0 -0.1803727154
C  C45  1  0.14550000  0.68900000  0.92150000  1.0 0.0370089185
C  C46  1  0.85450000  0.31100000  0.07850000  1.0 0.0370089185
C  C47  1  0.12110000  0.65300000  0.00840000  1.0 0.0896463879
C  C48  1  0.87890000  0.34700000  0.99160000  1.0 0.0896463879
C  C49  1  0.35330000  0.92920000  0.36150000  1.0 -0.0027338754
C  C50  1  0.64670000  0.07080000  0.63850000  1.0 -0.0095352522
C  C51  1  0.20600000  0.90100000  0.35820000  1.0 0.0999815842
C  C52  1  0.79400000  0.09900000  0.64180000  1.0 0.0999815842
C  C53  1  0.37800000  0.95100000  0.47180000  1.0 -0.2006761324
C  C54  1  0.62200000  0.04900000  0.52820000  1.0 -0.2006761324
C  C55  1  0.47630000  0.99400000  0.47050000  1.0 -0.2314435083
C  C56  1  0.52370000  0.00600000  0.52950000  1.0 -0.2314435083
N  N1  1  0.89470000  0.50410000  0.55640000  1.0 -0.2382465493
N  N2  1  0.10530000  0.49590000  0.44360000  1.0 -0.2382465493
N  N3  1  0.80600000  0.48800000  0.62750000  1.0 0.1727159802
N  N4  1  0.19400000  0.51200000  0.37250000  1.0 0.1727159802
N  N5  1  0.76600000  0.53200000  0.59150000  1.0 -0.2382465493
N  N6  1  0.23400000  0.46800000  0.40850000  1.0 -0.2382465493
N  N7  1  0.64520000  0.42280000  0.94880000  1.0 -0.2699891593
N  N8  1  0.35480000  0.57720000  0.05120000  1.0 -0.2699891593
N  N9  1  0.78940000  0.50070000  0.92450000  1.0 -0.2699891593
N  N10  1  0.21060000  0.49930000  0.07550000  1.0 -0.2699891593
N  N11  1  0.74770000  0.43130000  0.88450000  1.0 0.1176760762
N  N12  1  0.25230000  0.56870000  0.11550000  1.0 0.1114738766
N  N13  1  0.41720000  0.30070000  0.05730000  1.0 -0.2614896897
N  N14  1  0.58280000  0.69930000  0.94270000  1.0 -0.2614896897
N  N15  1  0.33470000  0.17060000  0.09560000  1.0 -0.2985929068
N  N16  1  0.66530000  0.82940000  0.90440000  1.0 -0.2985929068
N  N17  1  0.37740000  0.23170000  0.13630000  1.0 0.1502419694
N  N18  1  0.62260000  0.76830000  0.86370000  1.0 0.1502419694
N  N19  1  0.08460000  0.19430000  0.14110000  1.0 0.1176760762
N  N20  1  0.91540000  0.80570000  0.85890000  1.0 0.1176760762
N  N21  1  0.10400000  0.25510000  0.09510000  1.0 -0.2614896897
N  N22  1  0.89600000  0.74490000  0.90490000  1.0 -0.2614896897
N  N23  1  0.04820000  0.10900000  0.06090000  1.0 -0.2314435083
N  N24  1  0.95180000  0.89100000  0.93910000  1.0 -0.2314435083
N  N25  1  0.15340000  0.89900000  0.06070000  1.0 -0.2487320643
N  N26  1  0.84660000  0.10100000  0.93930000  1.0 -0.2487320643
N  N27  1  0.24400000  0.94030000  0.05820000  1.0 0.1502419694
N  N28  1  0.75600000  0.05970000  0.94180000  1.0 0.1502419694
N  N29  1  0.23720000  0.89680000  0.14570000  1.0 -0.2763677802
N  N30  1  0.76280000  0.10320000  0.85430000  1.0 -0.2763677802
N  N31  1  0.22480000  0.71600000  0.95390000  1.0 0.1502419694
N  N32  1  0.77520000  0.28400000  0.04610000  1.0 0.1502419694
N  N33  1  0.21100000  0.69700000  0.00940000  1.0 -0.2487320643
N  N34  1  0.78900000  0.30300000  0.99060000  1.0 -0.2487320643
N  N35  1  0.07610000  0.65250000  0.95550000  1.0 -0.2920090075
N  N36  1  0.92390000  0.34750000  0.04450000  1.0 -0.2920090075
N  N37  1  0.27500000  0.91380000  0.32660000  1.0 -0.2487320643
N  N38  1  0.72500000  0.08620000  0.67340000  1.0 -0.2487320643
N  N39  1  0.23260000  0.92100000  0.41710000  1.0 -0.2208058701
N  N40  1  0.76740000  0.07900000  0.58290000  1.0 -0.2208058701
N  N41  1  0.32340000  0.93300000  0.41780000  1.0 0.1613228056
N  N42  1  0.67660000  0.06700000  0.58220000  1.0 0.1613228056
O  O1  1  0.67610000  0.59790000  0.29960000  1.0 -0.9095562454
O  O2  1  0.32390000  0.40210000  0.70040000  1.0 -0.9095562454
O  O3  1  0.74790000  0.62340000  0.20040000  1.0 -0.9095562454
O  O4  1  0.25210000  0.37660000  0.79960000  1.0 -0.9095562454
O  O5  1  0.85400000  0.66550000  0.29330000  1.0 -0.9095562454
O  O6  1  0.14600000  0.33450000  0.70670000  1.0 -0.9095562454
O  O7  1  0.77980000  0.49820000  0.26480000  1.0 -1.0544574674
O  O8  1  0.22020000  0.50180000  0.73520000  1.0 -1.0570948538
O  O9  1  0.71800000  0.82150000  0.19920000  1.0 -0.9095562454
O  O10  1  0.28200000  0.17850000  0.80080000  1.0 -0.9095562454
O  O11  1  0.82190000  0.86230000  0.29280000  1.0 -0.9095562454
O  O12  1  0.17810000  0.13770000  0.70720000  1.0 -0.9095562454
O  O13  1  0.64430000  0.79410000  0.29800000  1.0 -0.9204174694
O  O14  1  0.35570000  0.20590000  0.70200000  1.0 -0.9204174694
O  O15  1  0.70970000  0.95740000  0.26440000  1.0 -1.0678410347
O  O16  1  0.29030000  0.04260000  0.73560000  1.0 -1.0678410347
O  O17  1  0.88440000  0.92390000  0.06900000  1.0 -0.6806540307
O  O18  1  0.11560000  0.07610000  0.93100000  1.0 -0.6806540307
O  O19  1  0.79180000  0.36220000  0.19890000  1.0 -0.9395758439
O  O20  1  0.20820000  0.63780000  0.80110000  1.0 -0.9395758439
O  O21  1  0.81430000  0.00180000  0.37480000  1.0 -1.0011897203
O  O22  1  0.18570000  0.99820000  0.62520000  1.0 -1.0011897203
O  O23  1  0.78290000  0.63890000  0.40840000  1.0 -0.9590759616
O  O24  1  0.21710000  0.36110000  0.59160000  1.0 -0.9590759616
O  O25  1  0.74720000  0.83370000  0.40820000  1.0 -0.9395758439
O  O26  1  0.25280000  0.16630000  0.59180000  1.0 -0.9519013797
O  O27  1  0.69700000  0.85300000  0.09090000  1.0 -0.9315833607
O  O28  1  0.30300000  0.14700000  0.90910000  1.0 -0.9315833607
O  O29  1  0.92060000  0.89680000  0.18720000  1.0 -0.9395758439
O  O30  1  0.07940000  0.10320000  0.81280000  1.0 -0.9395758439
O  O31  1  0.54590000  0.50760000  0.07910000  1.0 -0.7514179167
O  O32  1  0.45410000  0.49240000  0.92090000  1.0 -0.7514179167
O  O33  1  0.51500000  0.74460000  0.19480000  1.0 -0.9590759616
O  O34  1  0.48500000  0.25540000  0.80520000  1.0 -0.9590759616
O  O35  1  0.65420000  0.44430000  0.16280000  1.0 -0.9771320538
O  O36  1  0.34580000  0.55570000  0.83720000  1.0 -0.9771320538
O  O37  1  0.90910000  0.03590000  0.25150000  1.0 -0.971434421
O  O38  1  0.09090000  0.96410000  0.74850000  1.0 -0.9771320538
O  O39  1  0.02090000  0.68570000  0.34270000  1.0 -0.9519013797
O  O40  1  0.97910000  0.31430000  0.65730000  1.0 -0.9519013797
O  O41  1  0.82440000  0.75540000  0.11870000  1.0 -0.9315833607
O  O42  1  0.17560000  0.24460000  0.88130000  1.0 -0.9315833607
O  O43  1  0.61720000  0.68200000  0.12410000  1.0 -0.9395758439
O  O44  1  0.38280000  0.31800000  0.87590000  1.0 -0.9395758439
O  O45  1  0.91250000  0.79260000  0.38920000  1.0 -0.9928198076
O  O46  1  0.08750000  0.20740000  0.61080000  1.0 -1.0011897203
O  O47  1  0.49010000  0.63000000  0.28590000  1.0 -0.9519013797
O  O48  1  0.50990000  0.37000000  0.71410000  1.0 -0.9519013797
O  O49  1  0.54600000  0.54660000  0.19830000  1.0 -0.9315833607
O  O50  1  0.45400000  0.45340000  0.80170000  1.0 -0.9315833607
O  O51  1  0.97490000  0.96090000  0.34510000  1.0 -0.9590759616
O  O52  1  0.02510000  0.03910000  0.65490000  1.0 -0.9590759616
O  O53  1  0.58070000  0.41600000  0.26380000  1.0 -0.971434421
O  O54  1  0.41930000  0.58400000  0.73620000  1.0 -0.971434421
O  O55  1  0.50520000  0.88610000  0.26330000  1.0 -0.9928198076
O  O56  1  0.49480000  0.11390000  0.73670000  1.0 -0.9928198076
O  O57  1  0.87680000  0.52700000  0.15680000  1.0 -0.971434421
O  O58  1  0.12320000  0.47300000  0.84320000  1.0 -0.971434421
O  O59  1  0.63370000  0.93700000  0.37850000  1.0 -1.0011897203
O  O60  1  0.36630000  0.06300000  0.62150000  1.0 -1.0011897203
O  O61  1  0.95090000  0.69950000  0.18480000  1.0 -0.9519013797
O  O62  1  0.04910000  0.30050000  0.81520000  1.0 -0.9519013797
O  O63  1  0.59910000  0.05800000  0.29900000  1.0 -0.971434421
O  O64  1  0.40090000  0.94200000  0.70100000  1.0 -0.971434421
O  O65  1  0.49490000  0.77680000  0.35500000  1.0 -0.9395758439
O  O66  1  0.50510000  0.22320000  0.64500000  1.0 -0.9315833607
O  O67  1  0.70770000  0.46430000  0.37960000  1.0 -1.0215579685
O  O68  1  0.29230000  0.53570000  0.62040000  1.0 -1.0215579685
O  O69  1  0.90190000  0.40400000  0.29660000  1.0 -0.9590759616
O  O70  1  0.09810000  0.59600000  0.70340000  1.0 -0.9590759616
O  O71  1  0.98210000  0.56930000  0.25210000  1.0 -0.9771320538
O  O72  1  0.01790000  0.43070000  0.74790000  1.0 -0.9771320538
O  O73  1  0.00120000  0.82070000  0.27330000  1.0 -0.9395758439
O  O74  1  0.99880000  0.17930000  0.72670000  1.0 -0.9395758439
O  O75  1  0.71450000  0.33430000  0.29990000  1.0 -0.9519013797
O  O76  1  0.28550000  0.66570000  0.70010000  1.0 -0.9519013797
O  O77  1  0.78690000  0.12330000  0.29490000  1.0 -0.9395758439
O  O78  1  0.21310000  0.87670000  0.70510000  1.0 -0.9395758439
O  O79  1  0.89120000  0.53490000  0.37370000  1.0 -1.0011897203
O  O80  1  0.10880000  0.46510000  0.62630000  1.0 -1.0076227602
O  O81  1  0.80280000  0.99730000  0.15720000  1.0 -0.9395758439
O  O82  1  0.19720000  0.00270000  0.84280000  1.0 -0.9395758439
O  O83  1  0.67490000  0.08610000  0.19700000  1.0 -0.971434421
O  O84  1  0.32510000  0.91390000  0.80300000  1.0 -0.971434421
O  O85  1  0.73750000  0.57840000  0.09110000  1.0 -0.9395758439
O  O86  1  0.26250000  0.42160000  0.90890000  1.0 -0.9395758439
O  O87  1  0.58080000  0.91290000  0.16150000  1.0 -0.971434421
O  O88  1  0.41920000  0.08710000  0.83850000  1.0 -0.971434421
O  O89  1  0.61620000  0.67740000  0.39580000  1.0 -0.971434421
O  O90  1  0.38380000  0.32260000  0.60420000  1.0 -0.9771320538
O  O91  1  0.53820000  0.50380000  0.35750000  1.0 -0.9519013797
O  O92  1  0.46180000  0.49620000  0.64250000  1.0 -0.9519013797
