# DDEC6 charges by PACMAN v1.1 (https://github.com/mtap-research/PACMAN-charge/)
data_NIXFUX_FSR_pacman
_symmetry_space_group_name_H-M   'P 1'
_cell_length_a   15.86420000
_cell_length_b   15.86420000
_cell_length_c   42.97580000
_cell_angle_alpha   90.00000000
_cell_angle_beta   90.00000000
_cell_angle_gamma   90.00000000
_symmetry_Int_Tables_number   1
_chemical_formula_structural   CdH50C60(NO2)4
_chemical_formula_sum   'Cd8 H400 C480 N32 O64'
_cell_volume   10815.84170775
_cell_formula_units_Z   8
loop_
 _symmetry_equiv_pos_site_id
 _symmetry_equiv_pos_as_xyz
  1  'x, y, z'
loop_
 _atom_site_type_symbol
 _atom_site_label
 _atom_site_symmetry_multiplicity
 _atom_site_fract_x
 _atom_site_fract_y
 _atom_site_fract_z
 _atom_site_occupancy
 _atom_site_charge
Cd  Cd1  1  0.08234000  0.78153000  0.78138000  1.0 0.7882731781
Cd  Cd2  1  0.71847000  0.58234000  0.53138000  1.0 0.7882731781
Cd  Cd3  1  0.91766000  0.21847000  0.28138000  1.0 0.7882731781
Cd  Cd4  1  0.28153000  0.41766000  0.03138000  1.0 0.7882731781
Cd  Cd5  1  0.58234000  0.71847000  0.46862000  1.0 0.7882731781
Cd  Cd6  1  0.41766000  0.28153000  0.96862000  1.0 0.7882731781
Cd  Cd7  1  0.78153000  0.08234000  0.21862000  1.0 0.7882731781
Cd  Cd8  1  0.21847000  0.91766000  0.71862000  1.0 0.7882731781
H  H1  1  0.25770000  0.37550000  0.64150000  1.0 0.3278267161
H  H2  1  0.12450000  0.75770000  0.39150000  1.0 0.3278267161
H  H3  1  0.74230000  0.62450000  0.14150000  1.0 0.3278267161
H  H4  1  0.87550000  0.24230000  0.89150000  1.0 0.3278267161
H  H5  1  0.75770000  0.12450000  0.60850000  1.0 0.3278267161
H  H6  1  0.24230000  0.87550000  0.10850000  1.0 0.3278267161
H  H7  1  0.37550000  0.25770000  0.35850000  1.0 0.3278267161
H  H8  1  0.62450000  0.74230000  0.85850000  1.0 0.3278267161
H  H9  1  0.05340000  0.30200000  0.66800000  1.0 0.3111254089
H  H10  1  0.19800000  0.55340000  0.41800000  1.0 0.3111254089
H  H11  1  0.94660000  0.69800000  0.16800000  1.0 0.3111254089
H  H12  1  0.80200000  0.44660000  0.91800000  1.0 0.3111254089
H  H13  1  0.55340000  0.19800000  0.58200000  1.0 0.3111254089
H  H14  1  0.44660000  0.80200000  0.08200000  1.0 0.3111254089
H  H15  1  0.30200000  0.05340000  0.33200000  1.0 0.3111254089
H  H16  1  0.69800000  0.94660000  0.83200000  1.0 0.3111254089
H  H17  1  0.36810000  0.54770000  0.65190000  1.0 0.1187970574
H  H18  1  0.95230000  0.86810000  0.40190000  1.0 0.1187970574
H  H19  1  0.63190000  0.45230000  0.15190000  1.0 0.1187970574
H  H20  1  0.04770000  0.13190000  0.90190000  1.0 0.1187970574
H  H21  1  0.86810000  0.95230000  0.59810000  1.0 0.1187970574
H  H22  1  0.13190000  0.04770000  0.09810000  1.0 0.1187970574
H  H23  1  0.54770000  0.36810000  0.34810000  1.0 0.1187970574
H  H24  1  0.45230000  0.63190000  0.84810000  1.0 0.1187970574
H  H25  1  0.33790000  0.45180000  0.65590000  1.0 0.109540165
H  H26  1  0.04820000  0.83790000  0.40590000  1.0 0.109540165
H  H27  1  0.66210000  0.54820000  0.15590000  1.0 0.109540165
H  H28  1  0.95180000  0.16210000  0.90590000  1.0 0.109540165
H  H29  1  0.83790000  0.04820000  0.59410000  1.0 0.109540165
H  H30  1  0.16210000  0.95180000  0.09410000  1.0 0.109540165
H  H31  1  0.45180000  0.33790000  0.34410000  1.0 0.109540165
H  H32  1  0.54820000  0.66210000  0.84410000  1.0 0.109540165
H  H33  1  0.28220000  0.66070000  0.67490000  1.0 0.1301191642
H  H34  1  0.83930000  0.78220000  0.42490000  1.0 0.1301191642
H  H35  1  0.71780000  0.33930000  0.17490000  1.0 0.1301191642
H  H36  1  0.16070000  0.21780000  0.92490000  1.0 0.1301191642
H  H37  1  0.78220000  0.83930000  0.57510000  1.0 0.1301191642
H  H38  1  0.21780000  0.16070000  0.07510000  1.0 0.1301191642
H  H39  1  0.66070000  0.28220000  0.32510000  1.0 0.1301191642
H  H40  1  0.33930000  0.71780000  0.82510000  1.0 0.1301191642
H  H41  1  0.09930000  0.60300000  0.73690000  1.0 0.1301191642
H  H42  1  0.89700000  0.59930000  0.48690000  1.0 0.1301191642
H  H43  1  0.90070000  0.39700000  0.23690000  1.0 0.1301191642
H  H44  1  0.10300000  0.40070000  0.98690000  1.0 0.1301191642
H  H45  1  0.59930000  0.89700000  0.51310000  1.0 0.1301191642
H  H46  1  0.40070000  0.10300000  0.01310000  1.0 0.1301191642
H  H47  1  0.60300000  0.09930000  0.26310000  1.0 0.1301191642
H  H48  1  0.39700000  0.90070000  0.76310000  1.0 0.1301191642
H  H49  1  0.12820000  0.38210000  0.73460000  1.0 0.109540165
H  H50  1  0.11790000  0.62820000  0.48460000  1.0 0.109540165
H  H51  1  0.87180000  0.61790000  0.23460000  1.0 0.109540165
H  H52  1  0.88210000  0.37180000  0.98460000  1.0 0.109540165
H  H53  1  0.62820000  0.11790000  0.51540000  1.0 0.109540165
H  H54  1  0.37180000  0.88210000  0.01540000  1.0 0.109540165
H  H55  1  0.38210000  0.12820000  0.26540000  1.0 0.109540165
H  H56  1  0.61790000  0.87180000  0.76540000  1.0 0.109540165
H  H57  1  0.09220000  0.45530000  0.75650000  1.0 0.1187970574
H  H58  1  0.04470000  0.59220000  0.50650000  1.0 0.1187970574
H  H59  1  0.90780000  0.54470000  0.25650000  1.0 0.1187970574
H  H60  1  0.95530000  0.40780000  0.00650000  1.0 0.1187970574
H  H61  1  0.59220000  0.04470000  0.49350000  1.0 0.1187970574
H  H62  1  0.40780000  0.95530000  0.99350000  1.0 0.1187970574
H  H63  1  0.45530000  0.09220000  0.24350000  1.0 0.1187970574
H  H64  1  0.54470000  0.90780000  0.74350000  1.0 0.1187970574
H  H65  1  0.95120000  0.51080000  0.74770000  1.0 0.1187970574
H  H66  1  0.98920000  0.45120000  0.49770000  1.0 0.1187970574
H  H67  1  0.04880000  0.48920000  0.24770000  1.0 0.1187970574
H  H68  1  0.01080000  0.54880000  0.99770000  1.0 0.1187970574
H  H69  1  0.45120000  0.98920000  0.50230000  1.0 0.1187970574
H  H70  1  0.54880000  0.01080000  0.00230000  1.0 0.1187970574
H  H71  1  0.51080000  0.95120000  0.25230000  1.0 0.1187970574
H  H72  1  0.48920000  0.04880000  0.75230000  1.0 0.1187970574
H  H73  1  0.81990000  0.49510000  0.72430000  1.0 0.1187970574
H  H74  1  0.00490000  0.31990000  0.47430000  1.0 0.1187970574
H  H75  1  0.18010000  0.50490000  0.22430000  1.0 0.1187970574
H  H76  1  0.99510000  0.68010000  0.97430000  1.0 0.1187970574
H  H77  1  0.31990000  0.00490000  0.52570000  1.0 0.1187970574
H  H78  1  0.68010000  0.99510000  0.02570000  1.0 0.1187970574
H  H79  1  0.49510000  0.81990000  0.27570000  1.0 0.1187970574
H  H80  1  0.50490000  0.18010000  0.77570000  1.0 0.1187970574
H  H81  1  0.80160000  0.40400000  0.68370000  1.0 0.1301191642
H  H82  1  0.09600000  0.30160000  0.43370000  1.0 0.1301191642
H  H83  1  0.19840000  0.59600000  0.18370000  1.0 0.1301191642
H  H84  1  0.90400000  0.69840000  0.93370000  1.0 0.1301191642
H  H85  1  0.30160000  0.09600000  0.56630000  1.0 0.1301191642
H  H86  1  0.69840000  0.90400000  0.06630000  1.0 0.1301191642
H  H87  1  0.40400000  0.80160000  0.31630000  1.0 0.1301191642
H  H88  1  0.59600000  0.19840000  0.81630000  1.0 0.1301191642
H  H89  1  0.85050000  0.29260000  0.65190000  1.0 0.1301191642
H  H90  1  0.20740000  0.35050000  0.40190000  1.0 0.1301191642
H  H91  1  0.14950000  0.70740000  0.15190000  1.0 0.1301191642
H  H92  1  0.79260000  0.64950000  0.90190000  1.0 0.1301191642
H  H93  1  0.35050000  0.20740000  0.59810000  1.0 0.1301191642
H  H94  1  0.64950000  0.79260000  0.09810000  1.0 0.1301191642
H  H95  1  0.29260000  0.85050000  0.34810000  1.0 0.1301191642
H  H96  1  0.70740000  0.14950000  0.84810000  1.0 0.1301191642
H  H97  1  0.94490000  0.25790000  0.65560000  1.0 0.1187970574
H  H98  1  0.24210000  0.44490000  0.40560000  1.0 0.1187970574
H  H99  1  0.05510000  0.74210000  0.15560000  1.0 0.1187970574
H  H100  1  0.75790000  0.55510000  0.90560000  1.0 0.1187970574
H  H101  1  0.44490000  0.24210000  0.59440000  1.0 0.1187970574
H  H102  1  0.55510000  0.75790000  0.09440000  1.0 0.1187970574
H  H103  1  0.25790000  0.94490000  0.34440000  1.0 0.1187970574
H  H104  1  0.74210000  0.05510000  0.84440000  1.0 0.1187970574
H  H105  1  0.82770000  0.41810000  0.61750000  1.0 0.1301191642
H  H106  1  0.08190000  0.32770000  0.36750000  1.0 0.1301191642
H  H107  1  0.17230000  0.58190000  0.11750000  1.0 0.1301191642
H  H108  1  0.91810000  0.67230000  0.86750000  1.0 0.1301191642
H  H109  1  0.32770000  0.08190000  0.63250000  1.0 0.1301191642
H  H110  1  0.67230000  0.91810000  0.13250000  1.0 0.1301191642
H  H111  1  0.41810000  0.82770000  0.38250000  1.0 0.1301191642
H  H112  1  0.58190000  0.17230000  0.88250000  1.0 0.1301191642
H  H113  1  0.00090000  0.47840000  0.55330000  1.0 0.1187970574
H  H114  1  0.02160000  0.50090000  0.30330000  1.0 0.1187970574
H  H115  1  0.99910000  0.52160000  0.05330000  1.0 0.1187970574
H  H116  1  0.97840000  0.49910000  0.80330000  1.0 0.1187970574
H  H117  1  0.50090000  0.02160000  0.69670000  1.0 0.1187970574
H  H118  1  0.49910000  0.97840000  0.19670000  1.0 0.1187970574
H  H119  1  0.47840000  0.00090000  0.44670000  1.0 0.1187970574
H  H120  1  0.52160000  0.99910000  0.94670000  1.0 0.1187970574
H  H121  1  0.15810000  0.33260000  0.57680000  1.0 0.1187970574
H  H122  1  0.16740000  0.65810000  0.32680000  1.0 0.1187970574
H  H123  1  0.84190000  0.66740000  0.07680000  1.0 0.1187970574
H  H124  1  0.83260000  0.34190000  0.82680000  1.0 0.1187970574
H  H125  1  0.65810000  0.16740000  0.67320000  1.0 0.1187970574
H  H126  1  0.34190000  0.83260000  0.17320000  1.0 0.1187970574
H  H127  1  0.33260000  0.15810000  0.42320000  1.0 0.1187970574
H  H128  1  0.66740000  0.84190000  0.92320000  1.0 0.1187970574
H  H129  1  0.12950000  0.39020000  0.54810000  1.0 0.109540165
H  H130  1  0.10980000  0.62950000  0.29810000  1.0 0.109540165
H  H131  1  0.87050000  0.60980000  0.04810000  1.0 0.109540165
H  H132  1  0.89020000  0.37050000  0.79810000  1.0 0.109540165
H  H133  1  0.62950000  0.10980000  0.70190000  1.0 0.109540165
H  H134  1  0.37050000  0.89020000  0.20190000  1.0 0.109540165
H  H135  1  0.39020000  0.12950000  0.45190000  1.0 0.109540165
H  H136  1  0.60980000  0.87050000  0.95190000  1.0 0.109540165
H  H137  1  0.15290000  0.54290000  0.54990000  1.0 0.0999673451
H  H138  1  0.95710000  0.65290000  0.29990000  1.0 0.0999673451
H  H139  1  0.84710000  0.45710000  0.04990000  1.0 0.0999673451
H  H140  1  0.04290000  0.34710000  0.79990000  1.0 0.0999673451
H  H141  1  0.65290000  0.95710000  0.70010000  1.0 0.0999673451
H  H142  1  0.34710000  0.04290000  0.20010000  1.0 0.0999673451
H  H143  1  0.54290000  0.15290000  0.45010000  1.0 0.0999673451
H  H144  1  0.45710000  0.84710000  0.95010000  1.0 0.0999673451
H  H145  1  0.21690000  0.65910000  0.57230000  1.0 0.0999673451
H  H146  1  0.84090000  0.71690000  0.32230000  1.0 0.0999673451
H  H147  1  0.78310000  0.34090000  0.07230000  1.0 0.0999673451
H  H148  1  0.15910000  0.28310000  0.82230000  1.0 0.0999673451
H  H149  1  0.71690000  0.84090000  0.67770000  1.0 0.0999673451
H  H150  1  0.28310000  0.15910000  0.17770000  1.0 0.0999673451
H  H151  1  0.65910000  0.21690000  0.42770000  1.0 0.0999673451
H  H152  1  0.34090000  0.78310000  0.92770000  1.0 0.0999673451
H  H153  1  0.29760000  0.64060000  0.61700000  1.0 0.1187970574
H  H154  1  0.85940000  0.79760000  0.36700000  1.0 0.1187970574
H  H155  1  0.70240000  0.35940000  0.11700000  1.0 0.1187970574
H  H156  1  0.14060000  0.20240000  0.86700000  1.0 0.1187970574
H  H157  1  0.79760000  0.85940000  0.63300000  1.0 0.1187970574
H  H158  1  0.20240000  0.14060000  0.13300000  1.0 0.1187970574
H  H159  1  0.64060000  0.29760000  0.38300000  1.0 0.1187970574
H  H160  1  0.35940000  0.70240000  0.88300000  1.0 0.1187970574
H  H161  1  0.06930000  0.21170000  0.58260000  1.0 0.0894829997
H  H162  1  0.28830000  0.56930000  0.33260000  1.0 0.0894829997
H  H163  1  0.93070000  0.78830000  0.08260000  1.0 0.0894829997
H  H164  1  0.71170000  0.43070000  0.83260000  1.0 0.0894829997
H  H165  1  0.56930000  0.28830000  0.66740000  1.0 0.0894829997
H  H166  1  0.43070000  0.71170000  0.16740000  1.0 0.0894829997
H  H167  1  0.21170000  0.06930000  0.41740000  1.0 0.0894829997
H  H168  1  0.78830000  0.93070000  0.91740000  1.0 0.0894829997
H  H169  1  0.01320000  0.17270000  0.61040000  1.0 0.0894829997
H  H170  1  0.32730000  0.51320000  0.36040000  1.0 0.0894829997
H  H171  1  0.98680000  0.82730000  0.11040000  1.0 0.0894829997
H  H172  1  0.67270000  0.48680000  0.86040000  1.0 0.0894829997
H  H173  1  0.51320000  0.32730000  0.63960000  1.0 0.0894829997
H  H174  1  0.48680000  0.67270000  0.13960000  1.0 0.0894829997
H  H175  1  0.17270000  0.01320000  0.38960000  1.0 0.0894829997
H  H176  1  0.82730000  0.98680000  0.88960000  1.0 0.0894829997
H  H177  1  0.16190000  0.10410000  0.60560000  1.0 0.0894829997
H  H178  1  0.39590000  0.66190000  0.35560000  1.0 0.0894829997
H  H179  1  0.83810000  0.89590000  0.10560000  1.0 0.0894829997
H  H180  1  0.60410000  0.33810000  0.85560000  1.0 0.0894829997
H  H181  1  0.66190000  0.39590000  0.64440000  1.0 0.0894829997
H  H182  1  0.33810000  0.60410000  0.14440000  1.0 0.0894829997
H  H183  1  0.10410000  0.16190000  0.39440000  1.0 0.0894829997
H  H184  1  0.89590000  0.83810000  0.89440000  1.0 0.0894829997
H  H185  1  0.19760000  0.19120000  0.62020000  1.0 0.0999673451
H  H186  1  0.30880000  0.69760000  0.37020000  1.0 0.0999673451
H  H187  1  0.80240000  0.80880000  0.12020000  1.0 0.0999673451
H  H188  1  0.69120000  0.30240000  0.87020000  1.0 0.0999673451
H  H189  1  0.69760000  0.30880000  0.62980000  1.0 0.0999673451
H  H190  1  0.30240000  0.69120000  0.12980000  1.0 0.0999673451
H  H191  1  0.19120000  0.19760000  0.37980000  1.0 0.0999673451
H  H192  1  0.80880000  0.80240000  0.87980000  1.0 0.0999673451
H  H193  1  0.14910000  0.15740000  0.66480000  1.0 0.1187970574
H  H194  1  0.34260000  0.64910000  0.41480000  1.0 0.1187970574
H  H195  1  0.85090000  0.84260000  0.16480000  1.0 0.1187970574
H  H196  1  0.65740000  0.35090000  0.91480000  1.0 0.1187970574
H  H197  1  0.64910000  0.34260000  0.58520000  1.0 0.1187970574
H  H198  1  0.35090000  0.65740000  0.08520000  1.0 0.1187970574
H  H199  1  0.15740000  0.14910000  0.33520000  1.0 0.1187970574
H  H200  1  0.84260000  0.85090000  0.83520000  1.0 0.1187970574
H  H201  1  0.11860000  0.06900000  0.65090000  1.0 0.109540165
H  H202  1  0.43100000  0.61860000  0.40090000  1.0 0.109540165
H  H203  1  0.88140000  0.93100000  0.15090000  1.0 0.109540165
H  H204  1  0.56900000  0.38140000  0.90090000  1.0 0.109540165
H  H205  1  0.61860000  0.43100000  0.59910000  1.0 0.109540165
H  H206  1  0.38140000  0.56900000  0.09910000  1.0 0.109540165
H  H207  1  0.06900000  0.11860000  0.34910000  1.0 0.109540165
H  H208  1  0.93100000  0.88140000  0.84910000  1.0 0.109540165
H  H209  1  0.05670000  0.14870000  0.65030000  1.0 0.0894829997
H  H210  1  0.35130000  0.55670000  0.40030000  1.0 0.0894829997
H  H211  1  0.94330000  0.85130000  0.15030000  1.0 0.0999673451
H  H212  1  0.64870000  0.44330000  0.90030000  1.0 0.0999673451
H  H213  1  0.55670000  0.35130000  0.59970000  1.0 0.0894829997
H  H214  1  0.44330000  0.64870000  0.09970000  1.0 0.0999673451
H  H215  1  0.14870000  0.05670000  0.34970000  1.0 0.0894829997
H  H216  1  0.85130000  0.94330000  0.84970000  1.0 0.0999673451
H  H217  1  0.28600000  0.36090000  0.73230000  1.0 0.0785740702
H  H218  1  0.13910000  0.78600000  0.48230000  1.0 0.0785740702
H  H219  1  0.71400000  0.63910000  0.23230000  1.0 0.0785740702
H  H220  1  0.86090000  0.21400000  0.98230000  1.0 0.0785740702
H  H221  1  0.78600000  0.13910000  0.51770000  1.0 0.0785740702
H  H222  1  0.21400000  0.86090000  0.01770000  1.0 0.0785740702
H  H223  1  0.36090000  0.28600000  0.26770000  1.0 0.0785740702
H  H224  1  0.63910000  0.71400000  0.76770000  1.0 0.0785740702
H  H225  1  0.35040000  0.40020000  0.70750000  1.0 0.0894829997
H  H226  1  0.09980000  0.85040000  0.45750000  1.0 0.0894829997
H  H227  1  0.64960000  0.59980000  0.20750000  1.0 0.0894829997
H  H228  1  0.90020000  0.14960000  0.95750000  1.0 0.0999673451
H  H229  1  0.85040000  0.09980000  0.54250000  1.0 0.0894829997
H  H230  1  0.14960000  0.90020000  0.04250000  1.0 0.0894829997
H  H231  1  0.40020000  0.35040000  0.29250000  1.0 0.0894829997
H  H232  1  0.59980000  0.64960000  0.79250000  1.0 0.0999673451
H  H233  1  0.33850000  0.27740000  0.67680000  1.0 0.109540165
H  H234  1  0.22260000  0.83850000  0.42680000  1.0 0.109540165
H  H235  1  0.66150000  0.72260000  0.17680000  1.0 0.109540165
H  H236  1  0.77740000  0.16150000  0.92680000  1.0 0.109540165
H  H237  1  0.83850000  0.22260000  0.57320000  1.0 0.109540165
H  H238  1  0.16150000  0.77740000  0.07320000  1.0 0.109540165
H  H239  1  0.27740000  0.33850000  0.32320000  1.0 0.109540165
H  H240  1  0.72260000  0.66150000  0.82320000  1.0 0.109540165
H  H241  1  0.27400000  0.23810000  0.70160000  1.0 0.0999673451
H  H242  1  0.26190000  0.77400000  0.45160000  1.0 0.0999673451
H  H243  1  0.72600000  0.76190000  0.20160000  1.0 0.0999673451
H  H244  1  0.73810000  0.22600000  0.95160000  1.0 0.0999673451
H  H245  1  0.77400000  0.26190000  0.54840000  1.0 0.0999673451
H  H246  1  0.22600000  0.73810000  0.04840000  1.0 0.0999673451
H  H247  1  0.23810000  0.27400000  0.29840000  1.0 0.0999673451
H  H248  1  0.76190000  0.72600000  0.79840000  1.0 0.0999673451
H  H249  1  0.44890000  0.27090000  0.71160000  1.0 0.1301191642
H  H250  1  0.22910000  0.94890000  0.46160000  1.0 0.1301191642
H  H251  1  0.55110000  0.72910000  0.21160000  1.0 0.1301191642
H  H252  1  0.77090000  0.05110000  0.96160000  1.0 0.1301191642
H  H253  1  0.94890000  0.22910000  0.53840000  1.0 0.1301191642
H  H254  1  0.05110000  0.77090000  0.03840000  1.0 0.1301191642
H  H255  1  0.27090000  0.44890000  0.28840000  1.0 0.1301191642
H  H256  1  0.72910000  0.55110000  0.78840000  1.0 0.1301191642
H  H257  1  0.40290000  0.18150000  0.71440000  1.0 0.109540165
H  H258  1  0.31850000  0.90290000  0.46440000  1.0 0.109540165
H  H259  1  0.59710000  0.81850000  0.21440000  1.0 0.109540165
H  H260  1  0.68150000  0.09710000  0.96440000  1.0 0.109540165
H  H261  1  0.90290000  0.31850000  0.53560000  1.0 0.109540165
H  H262  1  0.09710000  0.68150000  0.03560000  1.0 0.109540165
H  H263  1  0.18150000  0.40290000  0.28560000  1.0 0.109540165
H  H264  1  0.81850000  0.59710000  0.78560000  1.0 0.109540165
H  H265  1  0.38690000  0.25250000  0.74020000  1.0 0.0999673451
H  H266  1  0.24750000  0.88690000  0.49020000  1.0 0.0999673451
H  H267  1  0.61310000  0.74750000  0.24020000  1.0 0.0999673451
H  H268  1  0.75250000  0.11310000  0.99020000  1.0 0.0999673451
H  H269  1  0.88690000  0.24750000  0.50980000  1.0 0.0999673451
H  H270  1  0.11310000  0.75250000  0.00980000  1.0 0.0999673451
H  H271  1  0.25250000  0.38690000  0.25980000  1.0 0.0999673451
H  H272  1  0.74750000  0.61310000  0.75980000  1.0 0.0999673451
H  H273  1  0.14330000  0.96480000  0.81420000  1.0 0.109540165
H  H274  1  0.53520000  0.64330000  0.56420000  1.0 0.109540165
H  H275  1  0.85670000  0.03520000  0.31420000  1.0 0.109540165
H  H276  1  0.46480000  0.35670000  0.06420000  1.0 0.109540165
H  H277  1  0.64330000  0.53520000  0.43580000  1.0 0.109540165
H  H278  1  0.35670000  0.46480000  0.93580000  1.0 0.109540165
H  H279  1  0.96480000  0.14330000  0.18580000  1.0 0.109540165
H  H280  1  0.03520000  0.85670000  0.68580000  1.0 0.109540165
H  H281  1  0.09460000  0.10010000  0.82470000  1.0 0.0999673451
H  H282  1  0.39990000  0.59460000  0.57470000  1.0 0.0999673451
H  H283  1  0.90540000  0.89990000  0.32470000  1.0 0.0999673451
H  H284  1  0.60010000  0.40540000  0.07470000  1.0 0.0999673451
H  H285  1  0.59460000  0.39990000  0.42530000  1.0 0.0999673451
H  H286  1  0.40540000  0.60010000  0.92530000  1.0 0.0999673451
H  H287  1  0.10010000  0.09460000  0.17530000  1.0 0.0999673451
H  H288  1  0.89990000  0.90540000  0.67530000  1.0 0.0999673451
H  H289  1  0.95430000  0.13080000  0.80790000  1.0 0.0785740702
H  H290  1  0.36920000  0.45430000  0.55790000  1.0 0.0785740702
H  H291  1  0.04570000  0.86920000  0.30790000  1.0 0.0785740702
H  H292  1  0.63080000  0.54570000  0.05790000  1.0 0.0785740702
H  H293  1  0.45430000  0.36920000  0.44210000  1.0 0.0785740702
H  H294  1  0.54570000  0.63080000  0.94210000  1.0 0.0785740702
H  H295  1  0.13080000  0.95430000  0.19210000  1.0 0.0785740702
H  H296  1  0.86920000  0.04570000  0.69210000  1.0 0.0785740702
H  H297  1  0.92770000  0.68630000  0.74310000  1.0 0.0714415312
H  H298  1  0.81370000  0.42770000  0.49310000  1.0 0.0714415312
H  H299  1  0.07230000  0.31370000  0.24310000  1.0 0.0714415312
H  H300  1  0.18630000  0.57230000  0.99310000  1.0 0.0714415312
H  H301  1  0.42770000  0.81370000  0.50690000  1.0 0.0714415312
H  H302  1  0.57230000  0.18630000  0.00690000  1.0 0.0714415312
H  H303  1  0.68630000  0.92770000  0.25690000  1.0 0.0714415312
H  H304  1  0.31370000  0.07230000  0.75690000  1.0 0.0714415312
H  H305  1  0.79920000  0.71890000  0.72120000  1.0 0.0894829997
H  H306  1  0.78110000  0.29920000  0.47120000  1.0 0.0894829997
H  H307  1  0.20080000  0.28110000  0.22120000  1.0 0.0894829997
H  H308  1  0.21890000  0.70080000  0.97120000  1.0 0.0999673451
H  H309  1  0.29920000  0.78110000  0.52880000  1.0 0.0894829997
H  H310  1  0.70080000  0.21890000  0.02880000  1.0 0.0894829997
H  H311  1  0.71890000  0.79920000  0.27880000  1.0 0.0999673451
H  H312  1  0.28110000  0.20080000  0.77880000  1.0 0.0999673451
H  H313  1  0.73460000  0.84760000  0.73470000  1.0 0.0894829997
H  H314  1  0.65240000  0.23460000  0.48470000  1.0 0.0894829997
H  H315  1  0.26540000  0.15240000  0.23470000  1.0 0.0894829997
H  H316  1  0.34760000  0.76540000  0.98470000  1.0 0.0894829997
H  H317  1  0.23460000  0.65240000  0.51530000  1.0 0.0894829997
H  H318  1  0.76540000  0.34760000  0.01530000  1.0 0.0894829997
H  H319  1  0.84760000  0.73460000  0.26530000  1.0 0.0894829997
H  H320  1  0.15240000  0.26540000  0.76530000  1.0 0.0894829997
H  H321  1  0.74550000  0.99360000  0.75600000  1.0 0.0894829997
H  H322  1  0.50640000  0.24550000  0.50600000  1.0 0.0894829997
H  H323  1  0.25450000  0.00640000  0.25600000  1.0 0.0785740702
H  H324  1  0.49360000  0.75450000  0.00600000  1.0 0.0894829997
H  H325  1  0.24550000  0.50640000  0.49400000  1.0 0.0894829997
H  H326  1  0.75450000  0.49360000  0.99400000  1.0 0.0894829997
H  H327  1  0.99360000  0.74550000  0.24400000  1.0 0.0894829997
H  H328  1  0.00640000  0.25450000  0.74400000  1.0 0.0894829997
H  H329  1  0.82400000  0.09460000  0.78210000  1.0 0.0894829997
H  H330  1  0.40540000  0.32400000  0.53210000  1.0 0.0894829997
H  H331  1  0.17600000  0.90540000  0.28210000  1.0 0.0894829997
H  H332  1  0.59460000  0.67600000  0.03210000  1.0 0.0894829997
H  H333  1  0.32400000  0.40540000  0.46790000  1.0 0.0894829997
H  H334  1  0.67600000  0.59460000  0.96790000  1.0 0.0894829997
H  H335  1  0.09460000  0.82400000  0.21790000  1.0 0.0894829997
H  H336  1  0.90540000  0.17600000  0.71790000  1.0 0.0894829997
H  H337  1  0.16560000  0.94550000  0.81270000  1.0 0.0606836456
H  H338  1  0.55450000  0.66560000  0.56270000  1.0 0.0606836456
H  H339  1  0.83440000  0.05450000  0.31270000  1.0 0.0606836456
H  H340  1  0.44550000  0.33440000  0.06270000  1.0 0.0606836456
H  H341  1  0.66560000  0.55450000  0.43730000  1.0 0.0606836456
H  H342  1  0.33440000  0.44550000  0.93730000  1.0 0.0606836456
H  H343  1  0.94550000  0.16560000  0.18730000  1.0 0.0606836456
H  H344  1  0.05450000  0.83440000  0.68730000  1.0 0.0606836456
H  H345  1  0.13790000  0.08250000  0.82720000  1.0 0.0785740702
H  H346  1  0.41750000  0.63790000  0.57720000  1.0 0.0785740702
H  H347  1  0.86210000  0.91750000  0.32720000  1.0 0.0785740702
H  H348  1  0.58250000  0.36210000  0.07720000  1.0 0.0785740702
H  H349  1  0.63790000  0.41750000  0.42280000  1.0 0.0785740702
H  H350  1  0.36210000  0.58250000  0.92280000  1.0 0.0785740702
H  H351  1  0.08250000  0.13790000  0.17280000  1.0 0.0785740702
H  H352  1  0.91750000  0.86210000  0.67280000  1.0 0.0785740702
H  H353  1  0.00040000  0.13740000  0.81880000  1.0 0.0714415312
H  H354  1  0.36260000  0.50040000  0.56880000  1.0 0.0714415312
H  H355  1  0.99960000  0.86260000  0.31880000  1.0 0.0714415312
H  H356  1  0.63740000  0.49960000  0.06880000  1.0 0.0714415312
H  H357  1  0.50040000  0.36260000  0.43120000  1.0 0.0714415312
H  H358  1  0.49960000  0.63740000  0.93120000  1.0 0.0714415312
H  H359  1  0.13740000  0.00040000  0.18120000  1.0 0.0714415312
H  H360  1  0.86260000  0.99960000  0.68120000  1.0 0.0714415312
H  H361  1  0.85620000  0.12070000  0.79290000  1.0 0.0785740702
H  H362  1  0.37930000  0.35620000  0.54290000  1.0 0.0785740702
H  H363  1  0.14380000  0.87930000  0.29290000  1.0 0.0785740702
H  H364  1  0.62070000  0.64380000  0.04290000  1.0 0.0785740702
H  H365  1  0.35620000  0.37930000  0.45710000  1.0 0.0785740702
H  H366  1  0.64380000  0.62070000  0.95710000  1.0 0.0785740702
H  H367  1  0.12070000  0.85620000  0.20710000  1.0 0.0785740702
H  H368  1  0.87930000  0.14380000  0.70710000  1.0 0.0785740702
H  H369  1  0.76460000  0.03480000  0.76690000  1.0 0.0894829997
H  H370  1  0.46520000  0.26460000  0.51690000  1.0 0.0894829997
H  H371  1  0.23540000  0.96520000  0.26690000  1.0 0.0894829997
H  H372  1  0.53480000  0.73540000  0.01690000  1.0 0.0894829997
H  H373  1  0.26460000  0.46520000  0.48310000  1.0 0.0894829997
H  H374  1  0.73540000  0.53480000  0.98310000  1.0 0.0894829997
H  H375  1  0.03480000  0.76460000  0.23310000  1.0 0.0894829997
H  H376  1  0.96520000  0.23540000  0.73310000  1.0 0.0894829997
H  H377  1  0.73890000  0.89640000  0.74080000  1.0 0.0894829997
H  H378  1  0.60360000  0.23890000  0.49080000  1.0 0.0894829997
H  H379  1  0.26110000  0.10360000  0.24080000  1.0 0.0894829997
H  H380  1  0.39640000  0.76110000  0.99080000  1.0 0.0894829997
H  H381  1  0.23890000  0.60360000  0.50920000  1.0 0.0894829997
H  H382  1  0.76110000  0.39640000  0.00920000  1.0 0.0894829997
H  H383  1  0.89640000  0.73890000  0.25920000  1.0 0.0894829997
H  H384  1  0.10360000  0.26110000  0.75920000  1.0 0.0894829997
H  H385  1  0.77880000  0.76030000  0.72660000  1.0 0.109540165
H  H386  1  0.73970000  0.27880000  0.47660000  1.0 0.109540165
H  H387  1  0.22120000  0.23970000  0.22660000  1.0 0.109540165
H  H388  1  0.26030000  0.72120000  0.97660000  1.0 0.109540165
H  H389  1  0.27880000  0.73970000  0.52340000  1.0 0.109540165
H  H390  1  0.72120000  0.26030000  0.02340000  1.0 0.109540165
H  H391  1  0.76030000  0.77880000  0.27340000  1.0 0.109540165
H  H392  1  0.23970000  0.22120000  0.77340000  1.0 0.109540165
H  H393  1  0.92220000  0.72160000  0.73760000  1.0 0.109540165
H  H394  1  0.77840000  0.42220000  0.48760000  1.0 0.109540165
H  H395  1  0.07780000  0.27840000  0.23760000  1.0 0.109540165
H  H396  1  0.22160000  0.57780000  0.98760000  1.0 0.109540165
H  H397  1  0.42220000  0.77840000  0.51240000  1.0 0.109540165
H  H398  1  0.57780000  0.22160000  0.01240000  1.0 0.109540165
H  H399  1  0.72160000  0.92220000  0.26240000  1.0 0.109540165
H  H400  1  0.27840000  0.07780000  0.76240000  1.0 0.109540165
C  C1  1  0.27180000  0.51600000  0.62355000  1.0 0.0080447315
C  C2  1  0.98400000  0.77180000  0.37355000  1.0 0.0080447315
C  C3  1  0.72820000  0.48400000  0.12355000  1.0 0.0080447315
C  C4  1  0.01600000  0.22820000  0.87355000  1.0 0.0080447315
C  C5  1  0.77180000  0.98400000  0.62645000  1.0 0.0080447315
C  C6  1  0.22820000  0.01600000  0.12645000  1.0 0.0080447315
C  C7  1  0.51600000  0.27180000  0.37645000  1.0 0.0080447315
C  C8  1  0.48400000  0.72820000  0.87645000  1.0 0.0080447315
C  C9  1  0.31820000  0.51030000  0.65260000  1.0 -0.2765373289
C  C10  1  0.98970000  0.81820000  0.40260000  1.0 -0.2765373289
C  C11  1  0.68180000  0.48970000  0.15260000  1.0 -0.2765373289
C  C12  1  0.01030000  0.18180000  0.90260000  1.0 -0.2765373289
C  C13  1  0.81820000  0.98970000  0.59740000  1.0 -0.2765373289
C  C14  1  0.18180000  0.01030000  0.09740000  1.0 -0.2765373289
C  C15  1  0.51030000  0.31820000  0.34740000  1.0 -0.2765373289
C  C16  1  0.48970000  0.68180000  0.84740000  1.0 -0.2765373289
C  C17  1  0.26020000  0.53690000  0.67933000  1.0 0.047255911
C  C18  1  0.96310000  0.76020000  0.42933000  1.0 0.047255911
C  C19  1  0.73980000  0.46310000  0.17933000  1.0 0.047255911
C  C20  1  0.03690000  0.23980000  0.92933000  1.0 0.047255911
C  C21  1  0.76020000  0.96310000  0.57067000  1.0 0.047255911
C  C22  1  0.23980000  0.03690000  0.07067000  1.0 0.047255911
C  C23  1  0.53690000  0.26020000  0.32067000  1.0 0.047255911
C  C24  1  0.46310000  0.73980000  0.82067000  1.0 0.047255911
C  C25  1  0.24920000  0.61990000  0.68559000  1.0 -0.1427793652
C  C26  1  0.88010000  0.74920000  0.43559000  1.0 -0.1427793652
C  C27  1  0.75080000  0.38010000  0.18559000  1.0 -0.1427793652
C  C28  1  0.11990000  0.25080000  0.93559000  1.0 -0.1427793652
C  C29  1  0.74920000  0.88010000  0.56441000  1.0 -0.1427793652
C  C30  1  0.25080000  0.11990000  0.06441000  1.0 -0.1427793652
C  C31  1  0.61990000  0.24920000  0.31441000  1.0 -0.1427793652
C  C32  1  0.38010000  0.75080000  0.81441000  1.0 -0.1427793652
C  C33  1  0.19010000  0.64600000  0.70748000  1.0 -0.0197016634
C  C34  1  0.85400000  0.69010000  0.45748000  1.0 -0.0197016634
C  C35  1  0.80990000  0.35400000  0.20748000  1.0 -0.0197016634
C  C36  1  0.14600000  0.30990000  0.95748000  1.0 -0.0197016634
C  C37  1  0.69010000  0.85400000  0.54252000  1.0 -0.0197016634
C  C38  1  0.30990000  0.14600000  0.04252000  1.0 -0.0197016634
C  C39  1  0.64600000  0.19010000  0.29252000  1.0 -0.0197016634
C  C40  1  0.35400000  0.80990000  0.79252000  1.0 -0.0197016634
C  C41  1  0.14200000  0.58570000  0.72279000  1.0 -0.1539906412
C  C42  1  0.91430000  0.64200000  0.47279000  1.0 -0.1539906412
C  C43  1  0.85800000  0.41430000  0.22279000  1.0 -0.1539906412
C  C44  1  0.08570000  0.35800000  0.97279000  1.0 -0.1539906412
C  C45  1  0.64200000  0.91430000  0.52721000  1.0 -0.1539906412
C  C46  1  0.35800000  0.08570000  0.02721000  1.0 -0.1539906412
C  C47  1  0.58570000  0.14200000  0.27721000  1.0 -0.1539906412
C  C48  1  0.41430000  0.85800000  0.77721000  1.0 -0.1539906412
C  C49  1  0.15540000  0.50200000  0.71772000  1.0 0.0606836456
C  C50  1  0.99800000  0.65540000  0.46772000  1.0 0.0606836456
C  C51  1  0.84460000  0.49800000  0.21772000  1.0 0.0606836456
C  C52  1  0.00200000  0.34460000  0.96772000  1.0 0.0606836456
C  C53  1  0.65540000  0.99800000  0.53228000  1.0 0.0606836456
C  C54  1  0.34460000  0.00200000  0.03228000  1.0 0.0606836456
C  C55  1  0.50200000  0.15540000  0.28228000  1.0 0.0606836456
C  C56  1  0.49800000  0.84460000  0.78228000  1.0 0.0606836456
C  C57  1  0.09950000  0.43750000  0.73458000  1.0 -0.2679542283
C  C58  1  0.06250000  0.59950000  0.48458000  1.0 -0.2620315427
C  C59  1  0.90050000  0.56250000  0.23458000  1.0 -0.2620315427
C  C60  1  0.93750000  0.40050000  0.98458000  1.0 -0.2679542283
C  C61  1  0.59950000  0.06250000  0.51542000  1.0 -0.2620315427
C  C62  1  0.40050000  0.93750000  0.01542000  1.0 -0.2620315427
C  C63  1  0.43750000  0.09950000  0.26542000  1.0 -0.2620315427
C  C64  1  0.56250000  0.90050000  0.76542000  1.0 -0.2679542283
C  C65  1  0.01250000  0.42760000  0.71960000  1.0 0.0385148246
C  C66  1  0.07240000  0.51250000  0.46960000  1.0 0.0385148246
C  C67  1  0.98750000  0.57240000  0.21960000  1.0 0.0385148246
C  C68  1  0.92760000  0.48750000  0.96960000  1.0 0.0385148246
C  C69  1  0.51250000  0.07240000  0.53040000  1.0 0.0385148246
C  C70  1  0.48750000  0.92760000  0.03040000  1.0 0.0385148246
C  C71  1  0.42760000  0.01250000  0.28040000  1.0 0.0385148246
C  C72  1  0.57240000  0.98750000  0.78040000  1.0 0.0385148246
C  C73  1  0.94440000  0.47330000  0.73062000  1.0 -0.1892828842
C  C74  1  0.02670000  0.44440000  0.48062000  1.0 -0.1849647909
C  C75  1  0.05560000  0.52670000  0.23062000  1.0 -0.1892828842
C  C76  1  0.97330000  0.55560000  0.98062000  1.0 -0.1892828842
C  C77  1  0.44440000  0.02670000  0.51938000  1.0 -0.1849647909
C  C78  1  0.55560000  0.97330000  0.01938000  1.0 -0.1892828842
C  C79  1  0.47330000  0.94440000  0.26938000  1.0 -0.1892828842
C  C80  1  0.52670000  0.05560000  0.76938000  1.0 -0.1849647909
C  C81  1  0.86670000  0.46390000  0.71670000  1.0 -0.1001780787
C  C82  1  0.03610000  0.36670000  0.46670000  1.0 -0.1001780787
C  C83  1  0.13330000  0.53610000  0.21670000  1.0 -0.1001780787
C  C84  1  0.96390000  0.63330000  0.96670000  1.0 -0.1001780787
C  C85  1  0.36670000  0.03610000  0.53330000  1.0 -0.1001780787
C  C86  1  0.63330000  0.96390000  0.03330000  1.0 -0.1001780787
C  C87  1  0.46390000  0.86670000  0.28330000  1.0 -0.1001780787
C  C88  1  0.53610000  0.13330000  0.78330000  1.0 -0.1001780787
C  C89  1  0.85620000  0.41120000  0.69245000  1.0 -0.1607199712
C  C90  1  0.08880000  0.35620000  0.44245000  1.0 -0.1607199712
C  C91  1  0.14380000  0.58880000  0.19245000  1.0 -0.1607199712
C  C92  1  0.91120000  0.64380000  0.94245000  1.0 -0.1607199712
C  C93  1  0.35620000  0.08880000  0.55755000  1.0 -0.1607199712
C  C94  1  0.64380000  0.91120000  0.05755000  1.0 -0.1607199712
C  C95  1  0.41120000  0.85620000  0.30755000  1.0 -0.1607199712
C  C96  1  0.58880000  0.14380000  0.80755000  1.0 -0.1607199712
C  C97  1  0.92390000  0.36700000  0.67992000  1.0 0.0206219217
C  C98  1  0.13300000  0.42390000  0.42992000  1.0 0.0206219217
C  C99  1  0.07610000  0.63300000  0.17992000  1.0 0.0206219217
C  C100  1  0.86700000  0.57610000  0.92992000  1.0 0.0206219217
C  C101  1  0.42390000  0.13300000  0.57008000  1.0 0.0206219217
C  C102  1  0.57610000  0.86700000  0.07008000  1.0 0.0206219217
C  C103  1  0.36700000  0.92390000  0.32008000  1.0 0.0206219217
C  C104  1  0.63300000  0.07610000  0.82008000  1.0 0.0206219217
C  C105  1  0.91050000  0.30940000  0.65299000  1.0 -0.3009008914
C  C106  1  0.19060000  0.41050000  0.40299000  1.0 -0.3009008914
C  C107  1  0.08950000  0.69060000  0.15299000  1.0 -0.3009008914
C  C108  1  0.80940000  0.58950000  0.90299000  1.0 -0.3009008914
C  C109  1  0.41050000  0.19060000  0.59701000  1.0 -0.3009008914
C  C110  1  0.58950000  0.80940000  0.09701000  1.0 -0.3009008914
C  C111  1  0.30940000  0.91050000  0.34701000  1.0 -0.3009008914
C  C112  1  0.69060000  0.08950000  0.84701000  1.0 -0.3009008914
C  C113  1  0.93600000  0.35490000  0.62252000  1.0 0.0606836456
C  C114  1  0.14510000  0.43600000  0.37252000  1.0 0.0606836456
C  C115  1  0.06400000  0.64510000  0.12252000  1.0 0.0606836456
C  C116  1  0.85490000  0.56400000  0.87252000  1.0 0.0606836456
C  C117  1  0.43600000  0.14510000  0.62748000  1.0 0.0606836456
C  C118  1  0.56400000  0.85490000  0.12748000  1.0 0.0606836456
C  C119  1  0.35490000  0.93600000  0.37748000  1.0 0.0606836456
C  C120  1  0.64510000  0.06400000  0.87748000  1.0 0.0606836456
C  C121  1  0.88180000  0.40960000  0.60862000  1.0 -0.1539906412
C  C122  1  0.09040000  0.38180000  0.35862000  1.0 -0.1539906412
C  C123  1  0.11820000  0.59040000  0.10862000  1.0 -0.1539906412
C  C124  1  0.90960000  0.61820000  0.85862000  1.0 -0.1539906412
C  C125  1  0.38180000  0.09040000  0.64138000  1.0 -0.1539906412
C  C126  1  0.61820000  0.90960000  0.14138000  1.0 -0.1539906412
C  C127  1  0.40960000  0.88180000  0.39138000  1.0 -0.1539906412
C  C128  1  0.59040000  0.11820000  0.89138000  1.0 -0.1539906412
C  C129  1  0.90310000  0.45370000  0.58166000  1.0 -0.0197016634
C  C130  1  0.04630000  0.40310000  0.33166000  1.0 -0.0197016634
C  C131  1  0.09690000  0.54630000  0.08166000  1.0 -0.0253972579
C  C132  1  0.95370000  0.59690000  0.83166000  1.0 -0.0253972579
C  C133  1  0.40310000  0.04630000  0.66834000  1.0 -0.0197016634
C  C134  1  0.59690000  0.95370000  0.16834000  1.0 -0.0197016634
C  C135  1  0.45370000  0.90310000  0.41834000  1.0 -0.0253972579
C  C136  1  0.54630000  0.09690000  0.91834000  1.0 -0.0197016634
C  C137  1  0.98300000  0.44480000  0.57034000  1.0 -0.1607199712
C  C138  1  0.05520000  0.48300000  0.32034000  1.0 -0.1607199712
C  C139  1  0.01700000  0.55520000  0.07034000  1.0 -0.1607199712
C  C140  1  0.94480000  0.51700000  0.82034000  1.0 -0.1607199712
C  C141  1  0.48300000  0.05520000  0.67966000  1.0 -0.1607199712
C  C142  1  0.51700000  0.94480000  0.17966000  1.0 -0.1607199712
C  C143  1  0.44480000  0.98300000  0.42966000  1.0 -0.1607199712
C  C144  1  0.55520000  0.01700000  0.92966000  1.0 -0.1607199712
C  C145  1  0.03920000  0.38660000  0.58356000  1.0 0.0385148246
C  C146  1  0.11340000  0.53920000  0.33356000  1.0 0.0385148246
C  C147  1  0.96080000  0.61340000  0.08356000  1.0 0.0385148246
C  C148  1  0.88660000  0.46080000  0.83356000  1.0 0.0385148246
C  C149  1  0.53920000  0.11340000  0.66644000  1.0 0.0385148246
C  C150  1  0.46080000  0.88660000  0.16644000  1.0 0.0385148246
C  C151  1  0.38660000  0.03920000  0.41644000  1.0 0.0385148246
C  C152  1  0.61340000  0.96080000  0.91644000  1.0 0.0385148246
C  C153  1  0.13080000  0.38660000  0.57113000  1.0 -0.2620315427
C  C154  1  0.11340000  0.63080000  0.32113000  1.0 -0.2620315427
C  C155  1  0.86920000  0.61340000  0.07113000  1.0 -0.2545672714
C  C156  1  0.88660000  0.36920000  0.82113000  1.0 -0.2545672714
C  C157  1  0.63080000  0.11340000  0.67887000  1.0 -0.2545672714
C  C158  1  0.36920000  0.88660000  0.17887000  1.0 -0.2545672714
C  C159  1  0.38660000  0.13080000  0.42887000  1.0 -0.2620315427
C  C160  1  0.61340000  0.86920000  0.92887000  1.0 -0.2545672714
C  C161  1  0.18090000  0.45530000  0.58314000  1.0 0.0206219217
C  C162  1  0.04470000  0.68090000  0.33314000  1.0 0.0206219217
C  C163  1  0.81910000  0.54470000  0.08314000  1.0 0.0206219217
C  C164  1  0.95530000  0.31910000  0.83314000  1.0 0.0206219217
C  C165  1  0.68090000  0.04470000  0.66686000  1.0 0.0206219217
C  C166  1  0.31910000  0.95530000  0.16686000  1.0 0.0206219217
C  C167  1  0.45530000  0.18090000  0.41686000  1.0 0.0206219217
C  C168  1  0.54470000  0.81910000  0.91686000  1.0 0.0206219217
C  C169  1  0.18150000  0.53600000  0.56910000  1.0 -0.2679542283
C  C170  1  0.96400000  0.68150000  0.31910000  1.0 -0.2679542283
C  C171  1  0.81850000  0.46400000  0.06910000  1.0 -0.2679542283
C  C172  1  0.03600000  0.31850000  0.81910000  1.0 -0.2679542283
C  C173  1  0.68150000  0.96400000  0.68090000  1.0 -0.2679542283
C  C174  1  0.31850000  0.03600000  0.18090000  1.0 -0.2679542283
C  C175  1  0.53600000  0.18150000  0.43090000  1.0 -0.2679542283
C  C176  1  0.46400000  0.81850000  0.93090000  1.0 -0.2679542283
C  C177  1  0.22140000  0.60520000  0.58180000  1.0 -0.2026557289
C  C178  1  0.89480000  0.72140000  0.33180000  1.0 -0.2026557289
C  C179  1  0.77860000  0.39480000  0.08180000  1.0 -0.2026557289
C  C180  1  0.10520000  0.27860000  0.83180000  1.0 -0.2026557289
C  C181  1  0.72140000  0.89480000  0.66820000  1.0 -0.2026557289
C  C182  1  0.27860000  0.10520000  0.16820000  1.0 -0.2026557289
C  C183  1  0.60520000  0.22140000  0.41820000  1.0 -0.2026557289
C  C184  1  0.39480000  0.77860000  0.91820000  1.0 -0.2026557289
C  C185  1  0.26760000  0.59410000  0.60850000  1.0 -0.1892828842
C  C186  1  0.90590000  0.76760000  0.35850000  1.0 -0.1892828842
C  C187  1  0.73240000  0.40590000  0.10850000  1.0 -0.1892828842
C  C188  1  0.09410000  0.23240000  0.85850000  1.0 -0.1892828842
C  C189  1  0.76760000  0.90590000  0.64150000  1.0 -0.1892828842
C  C190  1  0.23240000  0.09410000  0.14150000  1.0 -0.1892828842
C  C191  1  0.59410000  0.26760000  0.39150000  1.0 -0.1892828842
C  C192  1  0.40590000  0.73240000  0.89150000  1.0 -0.1892828842
C  C193  1  0.22640000  0.44840000  0.61096000  1.0 0.1860098076
C  C194  1  0.05160000  0.72640000  0.36096000  1.0 0.1860098076
C  C195  1  0.77360000  0.55160000  0.11096000  1.0 0.1860098076
C  C196  1  0.94840000  0.27360000  0.86096000  1.0 0.1860098076
C  C197  1  0.72640000  0.05160000  0.63904000  1.0 0.1860098076
C  C198  1  0.27360000  0.94840000  0.13904000  1.0 0.1860098076
C  C199  1  0.44840000  0.22640000  0.38904000  1.0 0.1860098076
C  C200  1  0.55160000  0.77360000  0.88904000  1.0 0.1860098076
C  C201  1  0.01540000  0.34370000  0.60845000  1.0 0.1187970574
C  C202  1  0.15630000  0.51540000  0.35845000  1.0 0.1187970574
C  C203  1  0.98460000  0.65630000  0.10845000  1.0 0.1187970574
C  C204  1  0.84370000  0.48460000  0.85845000  1.0 0.1187970574
C  C205  1  0.51540000  0.15630000  0.64155000  1.0 0.1187970574
C  C206  1  0.48460000  0.84370000  0.14155000  1.0 0.1187970574
C  C207  1  0.34370000  0.01540000  0.39155000  1.0 0.1187970574
C  C208  1  0.65630000  0.98460000  0.89155000  1.0 0.1187970574
C  C209  1  0.00290000  0.37590000  0.69441000  1.0 0.1553469002
C  C210  1  0.12410000  0.50290000  0.44441000  1.0 0.1547229141
C  C211  1  0.99710000  0.62410000  0.19441000  1.0 0.1553469002
C  C212  1  0.87590000  0.49710000  0.94441000  1.0 0.1553469002
C  C213  1  0.50290000  0.12410000  0.55559000  1.0 0.1553469002
C  C214  1  0.49710000  0.87590000  0.05559000  1.0 0.1553469002
C  C215  1  0.37590000  0.00290000  0.30559000  1.0 0.1553469002
C  C216  1  0.62410000  0.99710000  0.80559000  1.0 0.1553469002
C  C217  1  0.21630000  0.47820000  0.69679000  1.0 0.1398516894
C  C218  1  0.02180000  0.71630000  0.44679000  1.0 0.1398516894
C  C219  1  0.78370000  0.52180000  0.19679000  1.0 0.1398516894
C  C220  1  0.97820000  0.28370000  0.94679000  1.0 0.1398516894
C  C221  1  0.71630000  0.02180000  0.55321000  1.0 0.1398516894
C  C222  1  0.28370000  0.97820000  0.05321000  1.0 0.1398516894
C  C223  1  0.47820000  0.21630000  0.30321000  1.0 0.1398516894
C  C224  1  0.52180000  0.78370000  0.80321000  1.0 0.1398516894
C  C225  1  0.17670000  0.73710000  0.71425000  1.0 0.5407384038
C  C226  1  0.76290000  0.67670000  0.46425000  1.0 0.5407384038
C  C227  1  0.82330000  0.26290000  0.21425000  1.0 0.5407384038
C  C228  1  0.23710000  0.32330000  0.96425000  1.0 0.5407384038
C  C229  1  0.67670000  0.76290000  0.53575000  1.0 0.5407384038
C  C230  1  0.32330000  0.23710000  0.03575000  1.0 0.5407384038
C  C231  1  0.73710000  0.17670000  0.28575000  1.0 0.5407384038
C  C232  1  0.26290000  0.82330000  0.78575000  1.0 0.5407384038
C  C233  1  0.84020000  0.50670000  0.56547000  1.0 0.5407384038
C  C234  1  0.99330000  0.34020000  0.31547000  1.0 0.5407384038
C  C235  1  0.15980000  0.49330000  0.06547000  1.0 0.5407384038
C  C236  1  0.00670000  0.65980000  0.81547000  1.0 0.5407384038
C  C237  1  0.34020000  0.99330000  0.68453000  1.0 0.5407384038
C  C238  1  0.65980000  0.00670000  0.18453000  1.0 0.5407384038
C  C239  1  0.50670000  0.84020000  0.43453000  1.0 0.5407384038
C  C240  1  0.49330000  0.15980000  0.93453000  1.0 0.5407384038
C  C241  1  0.06570000  0.20370000  0.60540000  1.0 -0.0197016634
C  C242  1  0.29630000  0.56570000  0.35540000  1.0 -0.0197016634
C  C243  1  0.93430000  0.79630000  0.10540000  1.0 -0.0147440182
C  C244  1  0.70370000  0.43430000  0.85540000  1.0 -0.0147440182
C  C245  1  0.56570000  0.29630000  0.64460000  1.0 -0.0147440182
C  C246  1  0.43430000  0.70370000  0.14460000  1.0 -0.0147440182
C  C247  1  0.20370000  0.06570000  0.39460000  1.0 -0.0147440182
C  C248  1  0.79630000  0.93430000  0.89460000  1.0 -0.0147440182
C  C249  1  0.14780000  0.15390000  0.61850000  1.0 -0.1128850672
C  C250  1  0.34610000  0.64780000  0.36850000  1.0 -0.1128850672
C  C251  1  0.85220000  0.84610000  0.11850000  1.0 -0.1128850672
C  C252  1  0.65390000  0.35220000  0.86850000  1.0 -0.1128850672
C  C253  1  0.64780000  0.34610000  0.63150000  1.0 -0.1128850672
C  C254  1  0.35220000  0.65390000  0.13150000  1.0 -0.1128850672
C  C255  1  0.15390000  0.14780000  0.38150000  1.0 -0.1128850672
C  C256  1  0.84610000  0.85220000  0.88150000  1.0 -0.1128850672
C  C257  1  0.11550000  0.13040000  0.64850000  1.0 -0.4765145097
C  C258  1  0.36960000  0.61550000  0.39850000  1.0 -0.4765145097
C  C259  1  0.88450000  0.86960000  0.14850000  1.0 -0.4765145097
C  C260  1  0.63040000  0.38450000  0.89850000  1.0 -0.4742166698
C  C261  1  0.61550000  0.36960000  0.60150000  1.0 -0.4765145097
C  C262  1  0.38450000  0.63040000  0.10150000  1.0 -0.4765145097
C  C263  1  0.13040000  0.11550000  0.35150000  1.0 -0.4765145097
C  C264  1  0.86960000  0.88450000  0.85150000  1.0 -0.4765145097
C  C265  1  0.30140000  0.36220000  0.71002000  1.0 -0.0197016634
C  C266  1  0.13780000  0.80140000  0.46002000  1.0 -0.0197016634
C  C267  1  0.69860000  0.63780000  0.21002000  1.0 -0.0197016634
C  C268  1  0.86220000  0.19860000  0.96002000  1.0 -0.0197016634
C  C269  1  0.80140000  0.13780000  0.53998000  1.0 -0.0197016634
C  C270  1  0.19860000  0.86220000  0.03998000  1.0 -0.0197016634
C  C271  1  0.36220000  0.30140000  0.28998000  1.0 -0.0197016634
C  C272  1  0.63780000  0.69860000  0.78998000  1.0 -0.0197016634
C  C273  1  0.32330000  0.27580000  0.69913000  1.0 -0.1715886286
C  C274  1  0.22420000  0.82330000  0.44913000  1.0 -0.1715886286
C  C275  1  0.67670000  0.72420000  0.19913000  1.0 -0.1715886286
C  C276  1  0.77580000  0.17670000  0.94913000  1.0 -0.1715886286
C  C277  1  0.82330000  0.22420000  0.55087000  1.0 -0.1715886286
C  C278  1  0.17670000  0.77580000  0.05087000  1.0 -0.1715886286
C  C279  1  0.27580000  0.32330000  0.30087000  1.0 -0.1715886286
C  C280  1  0.72420000  0.67670000  0.80087000  1.0 -0.1715886286
C  C281  1  0.39700000  0.24220000  0.71800000  1.0 -0.3900614902
C  C282  1  0.25780000  0.89700000  0.46800000  1.0 -0.3900614902
C  C283  1  0.60300000  0.75780000  0.21800000  1.0 -0.3900614902
C  C284  1  0.74220000  0.10300000  0.96800000  1.0 -0.3900614902
C  C285  1  0.89700000  0.25780000  0.53200000  1.0 -0.3900614902
C  C286  1  0.10300000  0.74220000  0.03200000  1.0 -0.3900614902
C  C287  1  0.24220000  0.39700000  0.28200000  1.0 -0.3900614902
C  C288  1  0.75780000  0.60300000  0.78200000  1.0 -0.3900614902
C  C289  1  0.08860000  0.97710000  0.80650000  1.0 0.0894829997
C  C290  1  0.52290000  0.58860000  0.55650000  1.0 0.0894829997
C  C291  1  0.91140000  0.02290000  0.30650000  1.0 0.0894829997
C  C292  1  0.47710000  0.41140000  0.05650000  1.0 0.0894829997
C  C293  1  0.58860000  0.52290000  0.44350000  1.0 0.0894829997
C  C294  1  0.41140000  0.47710000  0.94350000  1.0 0.0894829997
C  C295  1  0.97710000  0.08860000  0.19350000  1.0 0.0894829997
C  C296  1  0.02290000  0.91140000  0.69350000  1.0 0.0894829997
C  C297  1  0.06080000  0.06020000  0.81400000  1.0 -0.0197016634
C  C298  1  0.43980000  0.56080000  0.56400000  1.0 -0.0197016634
C  C299  1  0.93920000  0.93980000  0.31400000  1.0 -0.0197016634
C  C300  1  0.56020000  0.43920000  0.06400000  1.0 -0.0197016634
C  C301  1  0.56080000  0.43980000  0.43600000  1.0 -0.0197016634
C  C302  1  0.43920000  0.56020000  0.93600000  1.0 -0.0197016634
C  C303  1  0.06020000  0.06080000  0.18600000  1.0 -0.0197016634
C  C304  1  0.93980000  0.93920000  0.68600000  1.0 -0.0197016634
C  C305  1  0.97810000  0.07700000  0.80380000  1.0 -0.0362857729
C  C306  1  0.42300000  0.47810000  0.55380000  1.0 -0.0362857729
C  C307  1  0.02190000  0.92300000  0.30380000  1.0 -0.0362857729
C  C308  1  0.57700000  0.52190000  0.05380000  1.0 -0.0362857729
C  C309  1  0.47810000  0.42300000  0.44620000  1.0 -0.0362857729
C  C310  1  0.52190000  0.57700000  0.94620000  1.0 -0.0362857729
C  C311  1  0.07700000  0.97810000  0.19620000  1.0 -0.0362857729
C  C312  1  0.92300000  0.02190000  0.69620000  1.0 -0.0362857729
C  C313  1  0.93330000  0.02110000  0.78890000  1.0 0.0080447315
C  C314  1  0.47890000  0.43330000  0.53890000  1.0 0.0080447315
C  C315  1  0.06670000  0.97890000  0.28890000  1.0 0.0080447315
C  C316  1  0.52110000  0.56670000  0.03890000  1.0 0.0080447315
C  C317  1  0.43330000  0.47890000  0.46110000  1.0 0.0080447315
C  C318  1  0.56670000  0.52110000  0.96110000  1.0 0.0080447315
C  C319  1  0.02110000  0.93330000  0.21110000  1.0 0.0080447315
C  C320  1  0.97890000  0.06670000  0.71110000  1.0 0.0080447315
C  C321  1  0.96350000  0.93930000  0.78280000  1.0 0.0999673451
C  C322  1  0.56070000  0.46350000  0.53280000  1.0 0.0999673451
C  C323  1  0.03650000  0.06070000  0.28280000  1.0 0.0999673451
C  C324  1  0.43930000  0.53650000  0.03280000  1.0 0.0999673451
C  C325  1  0.46350000  0.56070000  0.46720000  1.0 0.0999673451
C  C326  1  0.53650000  0.43930000  0.96720000  1.0 0.0999673451
C  C327  1  0.93930000  0.96350000  0.21720000  1.0 0.0999673451
C  C328  1  0.06070000  0.03650000  0.71720000  1.0 0.0999673451
C  C329  1  0.91550000  0.87890000  0.76580000  1.0 0.0999673451
C  C330  1  0.62110000  0.41550000  0.51580000  1.0 0.0999673451
C  C331  1  0.08450000  0.12110000  0.26580000  1.0 0.0999673451
C  C332  1  0.37890000  0.58450000  0.01580000  1.0 0.0999673451
C  C333  1  0.41550000  0.62110000  0.48420000  1.0 0.0999673451
C  C334  1  0.58450000  0.37890000  0.98420000  1.0 0.0999673451
C  C335  1  0.87890000  0.91550000  0.23420000  1.0 0.0999673451
C  C336  1  0.12110000  0.08450000  0.73420000  1.0 0.0999673451
C  C337  1  0.90520000  0.74130000  0.74570000  1.0 0.0080447315
C  C338  1  0.75870000  0.40520000  0.49570000  1.0 0.0080447315
C  C339  1  0.09480000  0.25870000  0.24570000  1.0 0.0045362972
C  C340  1  0.24130000  0.59480000  0.99570000  1.0 0.0045362972
C  C341  1  0.40520000  0.75870000  0.50430000  1.0 0.0045362972
C  C342  1  0.59480000  0.24130000  0.00430000  1.0 0.0080447315
C  C343  1  0.74130000  0.90520000  0.25430000  1.0 0.0045362972
C  C344  1  0.25870000  0.09480000  0.75430000  1.0 0.0080447315
C  C345  1  0.82790000  0.75870000  0.73380000  1.0 -0.1001780787
C  C346  1  0.74130000  0.32790000  0.48380000  1.0 -0.1001780787
C  C347  1  0.17210000  0.24130000  0.23380000  1.0 -0.1001780787
C  C348  1  0.25870000  0.67210000  0.98380000  1.0 -0.1001780787
C  C349  1  0.32790000  0.74130000  0.51620000  1.0 -0.1001780787
C  C350  1  0.67210000  0.25870000  0.01620000  1.0 -0.1001780787
C  C351  1  0.75870000  0.82790000  0.26620000  1.0 -0.1001780787
C  C352  1  0.24130000  0.17210000  0.76620000  1.0 -0.1001780787
C  C353  1  0.79140000  0.83730000  0.74070000  1.0 -0.0527763907
C  C354  1  0.66270000  0.29140000  0.49070000  1.0 -0.0527763907
C  C355  1  0.20860000  0.16270000  0.24070000  1.0 -0.0527763907
C  C356  1  0.33730000  0.70860000  0.99070000  1.0 -0.0527763907
C  C357  1  0.29140000  0.66270000  0.50930000  1.0 -0.0527763907
C  C358  1  0.70860000  0.33730000  0.00930000  1.0 -0.0527763907
C  C359  1  0.83730000  0.79140000  0.25930000  1.0 -0.0527763907
C  C360  1  0.16270000  0.20860000  0.75930000  1.0 -0.0527763907
C  C361  1  0.83440000  0.89840000  0.75560000  1.0 0.0206219217
C  C362  1  0.60160000  0.33440000  0.50560000  1.0 0.0206219217
C  C363  1  0.16560000  0.10160000  0.25560000  1.0 0.0206219217
C  C364  1  0.39840000  0.66560000  0.00560000  1.0 0.0206219217
C  C365  1  0.33440000  0.60160000  0.49440000  1.0 0.0206219217
C  C366  1  0.66560000  0.39840000  0.99440000  1.0 0.0206219217
C  C367  1  0.89840000  0.83440000  0.24440000  1.0 0.0206219217
C  C368  1  0.10160000  0.16560000  0.74440000  1.0 0.0206219217
C  C369  1  0.80120000  0.98030000  0.76250000  1.0 -0.0810973877
C  C370  1  0.51970000  0.30120000  0.51250000  1.0 -0.0810973877
C  C371  1  0.19880000  0.01970000  0.26250000  1.0 -0.0810973877
C  C372  1  0.48030000  0.69880000  0.01250000  1.0 -0.0810973877
C  C373  1  0.30120000  0.51970000  0.48750000  1.0 -0.0810973877
C  C374  1  0.69880000  0.48030000  0.98750000  1.0 -0.0810973877
C  C375  1  0.98030000  0.80120000  0.23750000  1.0 -0.0810973877
C  C376  1  0.01970000  0.19880000  0.73750000  1.0 -0.0810973877
C  C377  1  0.84760000  0.04060000  0.77820000  1.0 -0.0362857729
C  C378  1  0.45940000  0.34760000  0.52820000  1.0 -0.0362857729
C  C379  1  0.15240000  0.95940000  0.27820000  1.0 -0.0362857729
C  C380  1  0.54060000  0.65240000  0.02820000  1.0 -0.0362857729
C  C381  1  0.34760000  0.45940000  0.47180000  1.0 -0.0362857729
C  C382  1  0.65240000  0.54060000  0.97180000  1.0 -0.0362857729
C  C383  1  0.04060000  0.84760000  0.22180000  1.0 -0.0362857729
C  C384  1  0.95940000  0.15240000  0.72180000  1.0 -0.0362857729
C  C385  1  0.11270000  0.97100000  0.80840000  1.0 0.047255911
C  C386  1  0.52900000  0.61270000  0.55840000  1.0 0.047255911
C  C387  1  0.88730000  0.02900000  0.30840000  1.0 0.047255911
C  C388  1  0.47100000  0.38730000  0.05840000  1.0 0.047255911
C  C389  1  0.61270000  0.52900000  0.44160000  1.0 0.047255911
C  C390  1  0.38730000  0.47100000  0.94160000  1.0 0.047255911
C  C391  1  0.97100000  0.11270000  0.19160000  1.0 0.047255911
C  C392  1  0.02900000  0.88730000  0.69160000  1.0 0.047255911
C  C393  1  0.09620000  0.04940000  0.81710000  1.0 -0.0946987867
C  C394  1  0.45060000  0.59620000  0.56710000  1.0 -0.0946987867
C  C395  1  0.90380000  0.95060000  0.31710000  1.0 -0.0946987867
C  C396  1  0.54940000  0.40380000  0.06710000  1.0 -0.0946987867
C  C397  1  0.59620000  0.45060000  0.43290000  1.0 -0.0946987867
C  C398  1  0.40380000  0.54940000  0.93290000  1.0 -0.0946987867
C  C399  1  0.04940000  0.09620000  0.18290000  1.0 -0.0946987867
C  C400  1  0.95060000  0.90380000  0.68290000  1.0 -0.0946987867
C  C401  1  0.01440000  0.08310000  0.81100000  1.0 -0.0527763907
C  C402  1  0.41690000  0.51440000  0.56100000  1.0 -0.0527763907
C  C403  1  0.98560000  0.91690000  0.31100000  1.0 -0.0527763907
C  C404  1  0.58310000  0.48560000  0.06100000  1.0 -0.0527763907
C  C405  1  0.51440000  0.41690000  0.43900000  1.0 -0.0527763907
C  C406  1  0.48560000  0.58310000  0.93900000  1.0 -0.0527763907
C  C407  1  0.08310000  0.01440000  0.18900000  1.0 -0.0527763907
C  C408  1  0.91690000  0.98560000  0.68900000  1.0 -0.0527763907
C  C409  1  0.95680000  0.04010000  0.79460000  1.0 0.0385148246
C  C410  1  0.45990000  0.45680000  0.54460000  1.0 0.0385148246
C  C411  1  0.04320000  0.95990000  0.29460000  1.0 0.0385148246
C  C412  1  0.54010000  0.54320000  0.04460000  1.0 0.0385148246
C  C413  1  0.45680000  0.45990000  0.45540000  1.0 0.0385148246
C  C414  1  0.54320000  0.54010000  0.95540000  1.0 0.0385148246
C  C415  1  0.04010000  0.95680000  0.20540000  1.0 0.0385148246
C  C416  1  0.95990000  0.04320000  0.70540000  1.0 0.0385148246
C  C417  1  0.87430000  0.06580000  0.78700000  1.0 -0.0810973877
C  C418  1  0.43420000  0.37430000  0.53700000  1.0 -0.0810973877
C  C419  1  0.12570000  0.93420000  0.28700000  1.0 -0.0810973877
C  C420  1  0.56580000  0.62570000  0.03700000  1.0 -0.0810973877
C  C421  1  0.37430000  0.43420000  0.46300000  1.0 -0.0810973877
C  C422  1  0.62570000  0.56580000  0.96300000  1.0 -0.0810973877
C  C423  1  0.06580000  0.87430000  0.21300000  1.0 -0.0810973877
C  C424  1  0.93420000  0.12570000  0.71300000  1.0 -0.0810973877
C  C425  1  0.81960000  0.01460000  0.77150000  1.0 -0.0527763907
C  C426  1  0.48540000  0.31960000  0.52150000  1.0 -0.0527763907
C  C427  1  0.18040000  0.98540000  0.27150000  1.0 -0.0527763907
C  C428  1  0.51460000  0.68040000  0.02150000  1.0 -0.0527763907
C  C429  1  0.31960000  0.48540000  0.47850000  1.0 -0.0527763907
C  C430  1  0.68040000  0.51460000  0.97850000  1.0 -0.0527763907
C  C431  1  0.01460000  0.81960000  0.22850000  1.0 -0.0527763907
C  C432  1  0.98540000  0.18040000  0.72850000  1.0 -0.0527763907
C  C433  1  0.84230000  0.93180000  0.76220000  1.0 0.0206219217
C  C434  1  0.56820000  0.34230000  0.51220000  1.0 0.0206219217
C  C435  1  0.15770000  0.06820000  0.26220000  1.0 0.0206219217
C  C436  1  0.43180000  0.65770000  0.01220000  1.0 0.0206219217
C  C437  1  0.34230000  0.56820000  0.48780000  1.0 0.0206219217
C  C438  1  0.65770000  0.43180000  0.98780000  1.0 0.0206219217
C  C439  1  0.93180000  0.84230000  0.23780000  1.0 0.0206219217
C  C440  1  0.06820000  0.15770000  0.73780000  1.0 0.0206219217
C  C441  1  0.79390000  0.87780000  0.74630000  1.0 -0.0527763907
C  C442  1  0.62220000  0.29390000  0.49630000  1.0 -0.0527763907
C  C443  1  0.20610000  0.12220000  0.24630000  1.0 -0.0527763907
C  C444  1  0.37780000  0.70610000  0.99630000  1.0 -0.0527763907
C  C445  1  0.29390000  0.62220000  0.50370000  1.0 -0.0527763907
C  C446  1  0.70610000  0.37780000  0.00370000  1.0 -0.0527763907
C  C447  1  0.87780000  0.79390000  0.25370000  1.0 -0.0527763907
C  C448  1  0.12220000  0.20610000  0.75370000  1.0 -0.0527763907
C  C449  1  0.81660000  0.79710000  0.73710000  1.0 -0.0197016634
C  C450  1  0.70290000  0.31660000  0.48710000  1.0 -0.0197016634
C  C451  1  0.18340000  0.20290000  0.23710000  1.0 -0.0197016634
C  C452  1  0.29710000  0.68340000  0.98710000  1.0 -0.0197016634
C  C453  1  0.31660000  0.70290000  0.51290000  1.0 -0.0197016634
C  C454  1  0.68340000  0.29710000  0.01290000  1.0 -0.0197016634
C  C455  1  0.79710000  0.81660000  0.26290000  1.0 -0.0197016634
C  C456  1  0.20290000  0.18340000  0.76290000  1.0 -0.0197016634
C  C457  1  0.90010000  0.77390000  0.74460000  1.0 0.0606836456
C  C458  1  0.72610000  0.40010000  0.49460000  1.0 0.0606836456
C  C459  1  0.09990000  0.22610000  0.24460000  1.0 0.0606836456
C  C460  1  0.27390000  0.59990000  0.99460000  1.0 0.0606836456
C  C461  1  0.40010000  0.72610000  0.50540000  1.0 0.0606836456
C  C462  1  0.59990000  0.27390000  0.00540000  1.0 0.0606836456
C  C463  1  0.77390000  0.90010000  0.25540000  1.0 0.0606836456
C  C464  1  0.22610000  0.09990000  0.75540000  1.0 0.0606836456
C  C465  1  0.92690000  0.90420000  0.77100000  1.0 0.0606836456
C  C466  1  0.59580000  0.42690000  0.52100000  1.0 0.0606836456
C  C467  1  0.07310000  0.09580000  0.27100000  1.0 0.0606836456
C  C468  1  0.40420000  0.57310000  0.02100000  1.0 0.0606836456
C  C469  1  0.42690000  0.59580000  0.47900000  1.0 0.0606836456
C  C470  1  0.57310000  0.40420000  0.97900000  1.0 0.0606836456
C  C471  1  0.90420000  0.92690000  0.22900000  1.0 0.0606836456
C  C472  1  0.09580000  0.07310000  0.72900000  1.0 0.0606836456
C  C473  1  0.98120000  0.95530000  0.78590000  1.0 0.0999673451
C  C474  1  0.54470000  0.48120000  0.53590000  1.0 0.0999673451
C  C475  1  0.01880000  0.04470000  0.28590000  1.0 0.0999673451
C  C476  1  0.45530000  0.51880000  0.03590000  1.0 0.0999673451
C  C477  1  0.48120000  0.54470000  0.46410000  1.0 0.0999673451
C  C478  1  0.51880000  0.45530000  0.96410000  1.0 0.0999673451
C  C479  1  0.95530000  0.98120000  0.21410000  1.0 0.0999673451
C  C480  1  0.04470000  0.01880000  0.71410000  1.0 0.0999673451
N  N1  1  0.05860000  0.92150000  0.79290000  1.0 -0.2407312617
N  N2  1  0.57850000  0.55860000  0.54290000  1.0 -0.2407312617
N  N3  1  0.94140000  0.07850000  0.29290000  1.0 -0.2407312617
N  N4  1  0.42150000  0.44140000  0.04290000  1.0 -0.2407312617
N  N5  1  0.55860000  0.57850000  0.45710000  1.0 -0.2407312617
N  N6  1  0.44140000  0.42150000  0.95710000  1.0 -0.2407312617
N  N7  1  0.92150000  0.05860000  0.20710000  1.0 -0.2407312617
N  N8  1  0.07850000  0.94140000  0.70710000  1.0 -0.2407312617
N  N9  1  0.95210000  0.80060000  0.76140000  1.0 -0.1892828842
N  N10  1  0.69940000  0.45210000  0.51140000  1.0 -0.1892828842
N  N11  1  0.04790000  0.19940000  0.26140000  1.0 -0.1892828842
N  N12  1  0.30060000  0.54790000  0.01140000  1.0 -0.1892828842
N  N13  1  0.45210000  0.69940000  0.48860000  1.0 -0.1892828842
N  N14  1  0.54790000  0.30060000  0.98860000  1.0 -0.1892828842
N  N15  1  0.80060000  0.95210000  0.23860000  1.0 -0.1892828842
N  N16  1  0.19940000  0.04790000  0.73860000  1.0 -0.1892828842
N  N17  1  0.94730000  0.82460000  0.76120000  1.0 -0.1715886286
N  N18  1  0.67540000  0.44730000  0.51120000  1.0 -0.1715886286
N  N19  1  0.05270000  0.17540000  0.26120000  1.0 -0.1715886286
N  N20  1  0.32460000  0.55270000  0.01120000  1.0 -0.1715886286
N  N21  1  0.44730000  0.67540000  0.48880000  1.0 -0.1715886286
N  N22  1  0.55270000  0.32460000  0.98880000  1.0 -0.1715886286
N  N23  1  0.82460000  0.94730000  0.23880000  1.0 -0.1715886286
N  N24  1  0.17540000  0.05270000  0.73880000  1.0 -0.1715886286
N  N25  1  0.04210000  0.92230000  0.79080000  1.0 -0.2093275617
N  N26  1  0.57770000  0.54210000  0.54080000  1.0 -0.2093275617
N  N27  1  0.95790000  0.07770000  0.29080000  1.0 -0.2093275617
N  N28  1  0.42230000  0.45790000  0.04080000  1.0 -0.2093275617
N  N29  1  0.54210000  0.57770000  0.45920000  1.0 -0.2093275617
N  N30  1  0.45790000  0.42230000  0.95920000  1.0 -0.2093275617
N  N31  1  0.92230000  0.04210000  0.20920000  1.0 -0.2093275617
N  N32  1  0.07770000  0.95790000  0.70920000  1.0 -0.2093275617
O  O1  1  0.23170000  0.39210000  0.69186000  1.0 -0.2679542283
O  O2  1  0.10790000  0.73170000  0.44186000  1.0 -0.2620315427
O  O3  1  0.76830000  0.60790000  0.19186000  1.0 -0.2679542283
O  O4  1  0.89210000  0.26830000  0.94186000  1.0 -0.2620315427
O  O5  1  0.73170000  0.10790000  0.55814000  1.0 -0.2679542283
O  O6  1  0.26830000  0.89210000  0.05814000  1.0 -0.2620315427
O  O7  1  0.39210000  0.23170000  0.30814000  1.0 -0.2679542283
O  O8  1  0.60790000  0.76830000  0.80814000  1.0 -0.2620315427
O  O9  1  0.22890000  0.37200000  0.62515000  1.0 -0.4038837254
O  O10  1  0.12800000  0.72890000  0.37515000  1.0 -0.4038837254
O  O11  1  0.77110000  0.62800000  0.12515000  1.0 -0.4038837254
O  O12  1  0.87200000  0.27110000  0.87515000  1.0 -0.4038837254
O  O13  1  0.72890000  0.12800000  0.62485000  1.0 -0.4038837254
O  O14  1  0.27110000  0.87200000  0.12485000  1.0 -0.4038837254
O  O15  1  0.37200000  0.22890000  0.37485000  1.0 -0.4038837254
O  O16  1  0.62800000  0.77110000  0.87485000  1.0 -0.4038837254
O  O17  1  0.06840000  0.28290000  0.62139000  1.0 -0.2262404114
O  O18  1  0.21710000  0.56840000  0.37139000  1.0 -0.2262404114
O  O19  1  0.93160000  0.71710000  0.12139000  1.0 -0.2262404114
O  O20  1  0.78290000  0.43160000  0.87139000  1.0 -0.2262404114
O  O21  1  0.56840000  0.21710000  0.62861000  1.0 -0.2262404114
O  O22  1  0.43160000  0.78290000  0.12861000  1.0 -0.2262404114
O  O23  1  0.28290000  0.06840000  0.37861000  1.0 -0.2262404114
O  O24  1  0.71710000  0.93160000  0.87861000  1.0 -0.2262404114
O  O25  1  0.06930000  0.33140000  0.68311000  1.0 -0.4642027765
O  O26  1  0.16860000  0.56930000  0.43311000  1.0 -0.4642027765
O  O27  1  0.93070000  0.66860000  0.18311000  1.0 -0.4642027765
O  O28  1  0.83140000  0.43070000  0.93311000  1.0 -0.4642027765
O  O29  1  0.56930000  0.16860000  0.56689000  1.0 -0.4642027765
O  O30  1  0.43070000  0.83140000  0.06689000  1.0 -0.4642027765
O  O31  1  0.33140000  0.06930000  0.31689000  1.0 -0.4642027765
O  O32  1  0.66860000  0.93070000  0.81689000  1.0 -0.4642027765
O  O33  1  0.11830000  0.75850000  0.73113000  1.0 -0.5459705963
O  O34  1  0.74150000  0.61830000  0.48113000  1.0 -0.5459705963
O  O35  1  0.88170000  0.24150000  0.23113000  1.0 -0.5459705963
O  O36  1  0.25850000  0.38170000  0.98113000  1.0 -0.5459705963
O  O37  1  0.61830000  0.74150000  0.51887000  1.0 -0.5459705963
O  O38  1  0.38170000  0.25850000  0.01887000  1.0 -0.5459705963
O  O39  1  0.75850000  0.11830000  0.26887000  1.0 -0.5459705963
O  O40  1  0.24150000  0.88170000  0.76887000  1.0 -0.5459705963
O  O41  1  0.22910000  0.78680000  0.70201000  1.0 -0.5047838688
O  O42  1  0.71320000  0.72910000  0.45201000  1.0 -0.5047838688
O  O43  1  0.77090000  0.21320000  0.20201000  1.0 -0.5047838688
O  O44  1  0.28680000  0.27090000  0.95201000  1.0 -0.5047838688
O  O45  1  0.72910000  0.71320000  0.54799000  1.0 -0.5047838688
O  O46  1  0.27090000  0.28680000  0.04799000  1.0 -0.5047838688
O  O47  1  0.78680000  0.22910000  0.29799000  1.0 -0.5047838688
O  O48  1  0.21320000  0.77090000  0.79799000  1.0 -0.5047838688
O  O49  1  0.76890000  0.52090000  0.57791000  1.0 -0.5173831508
O  O50  1  0.97910000  0.26890000  0.32791000  1.0 -0.5173831508
O  O51  1  0.23110000  0.47910000  0.07791000  1.0 -0.5173831508
O  O52  1  0.02090000  0.73110000  0.82791000  1.0 -0.5173831508
O  O53  1  0.26890000  0.97910000  0.67209000  1.0 -0.5173831508
O  O54  1  0.73110000  0.02090000  0.17209000  1.0 -0.5173831508
O  O55  1  0.52090000  0.76890000  0.42209000  1.0 -0.5173831508
O  O56  1  0.47910000  0.23110000  0.92209000  1.0 -0.5173831508
O  O57  1  0.85740000  0.53210000  0.53840000  1.0 -0.5383156463
O  O58  1  0.96790000  0.35740000  0.28840000  1.0 -0.5383156463
O  O59  1  0.14260000  0.46790000  0.03840000  1.0 -0.5383156463
O  O60  1  0.03210000  0.64260000  0.78840000  1.0 -0.5383156463
O  O61  1  0.35740000  0.96790000  0.71160000  1.0 -0.5383156463
O  O62  1  0.64260000  0.03210000  0.21160000  1.0 -0.5383156463
O  O63  1  0.53210000  0.85740000  0.46160000  1.0 -0.5383156463
O  O64  1  0.46790000  0.14260000  0.96160000  1.0 -0.5383156463
