# DDEC6 charges by PACMAN v1.1 (https://github.com/mtap-research/PACMAN-charge/)
data_NIXGIM_FSR_pacman
_symmetry_space_group_name_H-M   'P 1'
_cell_length_a   19.59950000
_cell_length_b   28.74240000
_cell_length_c   20.44140000
_cell_angle_alpha   90.00000000
_cell_angle_beta   91.62700000
_cell_angle_gamma   90.00000000
_symmetry_Int_Tables_number   1
_chemical_formula_structural   Cd4H225C219(NO4)8
_chemical_formula_sum   'Cd8 H450 C438 N16 O64'
_cell_volume   11510.74770932
_cell_formula_units_Z   2
loop_
 _symmetry_equiv_pos_site_id
 _symmetry_equiv_pos_as_xyz
  1  'x, y, z'
loop_
 _atom_site_type_symbol
 _atom_site_label
 _atom_site_symmetry_multiplicity
 _atom_site_fract_x
 _atom_site_fract_y
 _atom_site_fract_z
 _atom_site_occupancy
 _atom_site_charge
Cd  Cd1  1  0.13978000  0.82065000  0.23406000  1.0 0.8803310393
Cd  Cd2  1  0.86022000  0.32065000  0.76594000  1.0 0.8803310393
Cd  Cd3  1  0.65252000  0.10181000  0.24957000  1.0 0.8859512954
Cd  Cd4  1  0.34748000  0.60181000  0.75043000  1.0 0.8859512954
Cd  Cd5  1  0.72715000  0.35408000  0.65303000  1.0 0.8803310393
Cd  Cd6  1  0.27285000  0.85408000  0.34697000  1.0 0.8803310393
Cd  Cd7  1  0.78422000  0.06917000  0.13921000  1.0 0.8704410939
Cd  Cd8  1  0.21578000  0.56917000  0.86079000  1.0 0.8704410939
H  H1  1  0.73940000  0.76040000  0.07750000  1.0 0.3361895431
H  H2  1  0.26060000  0.26040000  0.92250000  1.0 0.3361895431
H  H3  1  0.63370000  0.81060000  0.13280000  1.0 0.3221901555
H  H4  1  0.36630000  0.31060000  0.86720000  1.0 0.3221901555
H  H5  1  0.25110000  0.16220000  0.39300000  1.0 0.3305463343
H  H6  1  0.74890000  0.66220000  0.60700000  1.0 0.3305463343
H  H7  1  0.15400000  0.11330000  0.32740000  1.0 0.3305463343
H  H8  1  0.84600000  0.61330000  0.67260000  1.0 0.3361895431
H  H9  1  0.69040000  0.42400000  0.24290000  1.0 0.3305463343
H  H10  1  0.30960000  0.92400000  0.75710000  1.0 0.3305463343
H  H11  1  0.63210000  0.35150000  0.16180000  1.0 0.3221901555
H  H12  1  0.36790000  0.85150000  0.83820000  1.0 0.3221901555
H  H13  1  0.82490000  0.99930000  0.73260000  1.0 0.3221901555
H  H14  1  0.17510000  0.49930000  0.26740000  1.0 0.3221901555
H  H15  1  0.88640000  0.07150000  0.65070000  1.0 0.3305463343
H  H16  1  0.11360000  0.57150000  0.34930000  1.0 0.3305463343
H  H17  1  0.81800000  0.70940000  0.27940000  1.0 0.1109708602
H  H18  1  0.18200000  0.20940000  0.72060000  1.0 0.1109708602
H  H19  1  0.75700000  0.70300000  0.22590000  1.0 0.1204216593
H  H20  1  0.24300000  0.20300000  0.77410000  1.0 0.1204216593
H  H21  1  0.91920000  0.75090000  0.25580000  1.0 0.1204216593
H  H22  1  0.08080000  0.25090000  0.74420000  1.0 0.1204216593
H  H23  1  0.96200000  0.78340000  0.06790000  1.0 0.1300444442
H  H24  1  0.03800000  0.28340000  0.93210000  1.0 0.1300444442
H  H25  1  0.87900000  0.77020000  0.98130000  1.0 0.1204216593
H  H26  1  0.12100000  0.27020000  0.01870000  1.0 0.1204216593
H  H27  1  0.80220000  0.75580000  0.99730000  1.0 0.1109708602
H  H28  1  0.19780000  0.25580000  0.00270000  1.0 0.1109708602
H  H29  1  0.91550000  0.85190000  0.00560000  1.0 0.1204216593
H  H30  1  0.08450000  0.35190000  0.99440000  1.0 0.1204216593
H  H31  1  0.89010000  0.93280000  0.00730000  1.0 0.1204216593
H  H32  1  0.10990000  0.43280000  0.99270000  1.0 0.1204216593
H  H33  1  0.77480000  0.95120000  0.00990000  1.0 0.1109708602
H  H34  1  0.22520000  0.45120000  0.99010000  1.0 0.1109708602
H  H35  1  0.62920000  0.87870000  0.99890000  1.0 0.1109708602
H  H36  1  0.37080000  0.37870000  0.00110000  1.0 0.1109708602
H  H37  1  0.65110000  0.93190000  0.99120000  1.0 0.1204216593
H  H38  1  0.34890000  0.43190000  0.00880000  1.0 0.1204216593
H  H39  1  0.66130000  0.98140000  0.08190000  1.0 0.1300444442
H  H40  1  0.33870000  0.48140000  0.91810000  1.0 0.1300444442
H  H41  1  0.59850000  0.93290000  0.25730000  1.0 0.1204216593
H  H42  1  0.40150000  0.43290000  0.74270000  1.0 0.1204216593
H  H43  1  0.56700000  0.85460000  0.27110000  1.0 0.1204216593
H  H44  1  0.43300000  0.35460000  0.72890000  1.0 0.1204216593
H  H45  1  0.56960000  0.81780000  0.21230000  1.0 0.1109708602
H  H46  1  0.43040000  0.31780000  0.78770000  1.0 0.1109708602
H  H47  1  0.67490000  0.87160000  0.33780000  1.0 0.1204216593
H  H48  1  0.32510000  0.37160000  0.66220000  1.0 0.1204216593
H  H49  1  0.77810000  0.84550000  0.38500000  1.0 0.1204216593
H  H50  1  0.22190000  0.34550000  0.61500000  1.0 0.1204216593
H  H51  1  0.82280000  0.77670000  0.34110000  1.0 0.1204216593
H  H52  1  0.17720000  0.27670000  0.65890000  1.0 0.1204216593
H  H53  1  0.65280000  0.69960000  0.25530000  1.0 0.1002246477
H  H54  1  0.34720000  0.19960000  0.74470000  1.0 0.1002246477
H  H55  1  0.58260000  0.72830000  0.24810000  1.0 0.1002246477
H  H56  1  0.41740000  0.22830000  0.75190000  1.0 0.1002246477
H  H57  1  0.64160000  0.67950000  0.13900000  1.0 0.1204216593
H  H58  1  0.35840000  0.17950000  0.86100000  1.0 0.1204216593
H  H59  1  0.56880000  0.70480000  0.13620000  1.0 0.1002246477
H  H60  1  0.43120000  0.20480000  0.86380000  1.0 0.1002246477
H  H61  1  0.60120000  0.61980000  0.20530000  1.0 0.0899688145
H  H62  1  0.39880000  0.11980000  0.79470000  1.0 0.0899688145
H  H63  1  0.53220000  0.64800000  0.21960000  1.0 0.0800210981
H  H64  1  0.46780000  0.14800000  0.78040000  1.0 0.0800210981
H  H65  1  0.50960000  0.59170000  0.13360000  1.0 0.1300444442
H  H66  1  0.49040000  0.09170000  0.86640000  1.0 0.1300444442
H  H67  1  0.49930000  0.64310000  0.10490000  1.0 0.1204216593
H  H68  1  0.50070000  0.14310000  0.89510000  1.0 0.1204216593
H  H69  1  0.56770000  0.61490000  0.09080000  1.0 0.1300444442
H  H70  1  0.43230000  0.11490000  0.90920000  1.0 0.1300444442
H  H71  1  0.67050000  0.82990000  0.90950000  1.0 0.0899688145
H  H72  1  0.32950000  0.32990000  0.09050000  1.0 0.0899688145
H  H73  1  0.72020000  0.78530000  0.90960000  1.0 0.1002246477
H  H74  1  0.27980000  0.28530000  0.09040000  1.0 0.1002246477
H  H75  1  0.58170000  0.78330000  0.95420000  1.0 0.1204216593
H  H76  1  0.41830000  0.28330000  0.04580000  1.0 0.1204216593
H  H77  1  0.60440000  0.76160000  0.88580000  1.0 0.1109708602
H  H78  1  0.39560000  0.26160000  0.11420000  1.0 0.1109708602
H  H79  1  0.67730000  0.70760000  0.94380000  1.0 0.0899688145
H  H80  1  0.32270000  0.20760000  0.05620000  1.0 0.0899688145
H  H81  1  0.65380000  0.72920000  0.01200000  1.0 0.0899688145
H  H82  1  0.34620000  0.22920000  0.98800000  1.0 0.0899688145
H  H83  1  0.58730000  0.66020000  0.98620000  1.0 0.1300444442
H  H84  1  0.41270000  0.16020000  0.01380000  1.0 0.1300444442
H  H85  1  0.53800000  0.70450000  0.98810000  1.0 0.1300444442
H  H86  1  0.46200000  0.20450000  0.01190000  1.0 0.1300444442
H  H87  1  0.56050000  0.68380000  0.91930000  1.0 0.1300444442
H  H88  1  0.43950000  0.18380000  0.08070000  1.0 0.1300444442
H  H89  1  0.32310000  0.20530000  0.19180000  1.0 0.1109708602
H  H90  1  0.67690000  0.70530000  0.80820000  1.0 0.1109708602
H  H91  1  0.26280000  0.21120000  0.24210000  1.0 0.1204216593
H  H92  1  0.73720000  0.71120000  0.75790000  1.0 0.1204216593
H  H93  1  0.42400000  0.16880000  0.21960000  1.0 0.1204216593
H  H94  1  0.57600000  0.66880000  0.78040000  1.0 0.1204216593
H  H95  1  0.47600000  0.13600000  0.40640000  1.0 0.1300444442
H  H96  1  0.52400000  0.63600000  0.59360000  1.0 0.1300444442
H  H97  1  0.31730000  0.16750000  0.47230000  1.0 0.1109708602
H  H98  1  0.68270000  0.66750000  0.52770000  1.0 0.1109708602
H  H99  1  0.39330000  0.15110000  0.49290000  1.0 0.1204216593
H  H100  1  0.60670000  0.65110000  0.50710000  1.0 0.1204216593
H  H101  1  0.42170000  0.06460000  0.47090000  1.0 0.1204216593
H  H102  1  0.57830000  0.56460000  0.52910000  1.0 0.1204216593
H  H103  1  0.38120000  0.98560000  0.47980000  1.0 0.1204216593
H  H104  1  0.61880000  0.48560000  0.52020000  1.0 0.1204216593
H  H105  1  0.26360000  0.97270000  0.46880000  1.0 0.1109708602
H  H106  1  0.73640000  0.47270000  0.53120000  1.0 0.1109708602
H  H107  1  0.15460000  0.99910000  0.49170000  1.0 0.1300444442
H  H108  1  0.84540000  0.49910000  0.50830000  1.0 0.1300444442
H  H109  1  0.13560000  0.05340000  0.48310000  1.0 0.1300444442
H  H110  1  0.86440000  0.55340000  0.51690000  1.0 0.1300444442
H  H111  1  0.15560000  0.94590000  0.39330000  1.0 0.1300444442
H  H112  1  0.84440000  0.44590000  0.60670000  1.0 0.1300444442
H  H113  1  0.09020000  0.98910000  0.21310000  1.0 0.1300444442
H  H114  1  0.90980000  0.48910000  0.78690000  1.0 0.1300444442
H  H115  1  0.06990000  0.10600000  0.25330000  1.0 0.1204216593
H  H116  1  0.93010000  0.60600000  0.74670000  1.0 0.1204216593
H  H117  1  0.06470000  0.07060000  0.19250000  1.0 0.1204216593
H  H118  1  0.93530000  0.57060000  0.80750000  1.0 0.1204216593
H  H119  1  0.16790000  0.04810000  0.14330000  1.0 0.1300444442
H  H120  1  0.83210000  0.54810000  0.85670000  1.0 0.1300444442
H  H121  1  0.26690000  0.06530000  0.09550000  1.0 0.1300444442
H  H122  1  0.73310000  0.56530000  0.90450000  1.0 0.1300444442
H  H123  1  0.33460000  0.12900000  0.13080000  1.0 0.1300444442
H  H124  1  0.66540000  0.62900000  0.86920000  1.0 0.1300444442
H  H125  1  0.12340000  0.23160000  0.36030000  1.0 0.1002246477
H  H126  1  0.87660000  0.73160000  0.63970000  1.0 0.1002246477
H  H127  1  0.16720000  0.25550000  0.30440000  1.0 0.1002246477
H  H128  1  0.83280000  0.75550000  0.69560000  1.0 0.1002246477
H  H129  1  0.12010000  0.31670000  0.36230000  1.0 0.1204216593
H  H130  1  0.87990000  0.81670000  0.63770000  1.0 0.1204216593
H  H131  1  0.07710000  0.31470000  0.29460000  1.0 0.1204216593
H  H132  1  0.92290000  0.81470000  0.70540000  1.0 0.1204216593
H  H133  1  0.04600000  0.29330000  0.35960000  1.0 0.1204216593
H  H134  1  0.95400000  0.79330000  0.64040000  1.0 0.1204216593
H  H135  1  0.17880000  0.10610000  0.56230000  1.0 0.1002246477
H  H136  1  0.82120000  0.60610000  0.43770000  1.0 0.1002246477
H  H137  1  0.22630000  0.15130000  0.55870000  1.0 0.1002246477
H  H138  1  0.77370000  0.65130000  0.44130000  1.0 0.1002246477
H  H139  1  0.08750000  0.14890000  0.54660000  1.0 0.1109708602
H  H140  1  0.91250000  0.64890000  0.45340000  1.0 0.1109708602
H  H141  1  0.11510000  0.16660000  0.47810000  1.0 0.1300444442
H  H142  1  0.88490000  0.66666667  0.52190000  1.0 0.1300444442
H  H143  1  0.67700000  0.96030000  0.65700000  1.0 0.0899688145
H  H144  1  0.32300000  0.46030000  0.34300000  1.0 0.0899688145
H  H145  1  0.69190000  0.99210000  0.59430000  1.0 0.1002246477
H  H146  1  0.30810000  0.49210000  0.40570000  1.0 0.1002246477
H  H147  1  0.83170000  0.44830000  0.35130000  1.0 0.1204216593
H  H148  1  0.16830000  0.94830000  0.64870000  1.0 0.1204216593
H  H149  1  0.78520000  0.45730000  0.28730000  1.0 0.1002246477
H  H150  1  0.21480000  0.95730000  0.71270000  1.0 0.1002246477
H  H151  1  0.78550000  0.41520000  0.44810000  1.0 0.1300444442
H  H152  1  0.21450000  0.91520000  0.55190000  1.0 0.1300444442
H  H153  1  0.58540000  0.38040000  0.45350000  1.0 0.1300444442
H  H154  1  0.41460000  0.88040000  0.54650000  1.0 0.1300444442
H  H155  1  0.53680000  0.41930000  0.29560000  1.0 0.1109708602
H  H156  1  0.46320000  0.91930000  0.70440000  1.0 0.1109708602
H  H157  1  0.50920000  0.40280000  0.36490000  1.0 0.1109708602
H  H158  1  0.49080000  0.90280000  0.63510000  1.0 0.1109708602
H  H159  1  0.51480000  0.31770000  0.39400000  1.0 0.1204216593
H  H160  1  0.48520000  0.81770000  0.60600000  1.0 0.1204216593
H  H161  1  0.51710000  0.24040000  0.35480000  1.0 0.1204216593
H  H162  1  0.48290000  0.74040000  0.64520000  1.0 0.1204216593
H  H163  1  0.52970000  0.22680000  0.24430000  1.0 0.1300444442
H  H164  1  0.47030000  0.72680000  0.75570000  1.0 0.1300444442
H  H165  1  0.52780000  0.25650000  0.12970000  1.0 0.1300444442
H  H166  1  0.47220000  0.75650000  0.87030000  1.0 0.1300444442
H  H167  1  0.54940000  0.30990000  0.12010000  1.0 0.1109708602
H  H168  1  0.45060000  0.80990000  0.87990000  1.0 0.1109708602
H  H169  1  0.62020000  0.19560000  0.13990000  1.0 0.139276409
H  H170  1  0.37980000  0.69560000  0.86010000  1.0 0.139276409
H  H171  1  0.81740000  0.23610000  0.11720000  1.0 0.1300444442
H  H172  1  0.18260000  0.73610000  0.88280000  1.0 0.1300444442
H  H173  1  0.77860000  0.35950000  0.10930000  1.0 0.139276409
H  H174  1  0.22140000  0.85950000  0.89070000  1.0 0.139276409
H  H175  1  0.83970000  0.32390000  0.09630000  1.0 0.1300444442
H  H176  1  0.16030000  0.82390000  0.90370000  1.0 0.1300444442
H  H177  1  0.89460000  0.28730000  0.20610000  1.0 0.1300444442
H  H178  1  0.10540000  0.78730000  0.79390000  1.0 0.1300444442
H  H179  1  0.92900000  0.29870000  0.31360000  1.0 0.1204216593
H  H180  1  0.07100000  0.79870000  0.68640000  1.0 0.1204216593
H  H181  1  0.88620000  0.36390000  0.36130000  1.0 0.1204216593
H  H182  1  0.11380000  0.86390000  0.63870000  1.0 0.1300444442
H  H183  1  0.73380000  0.96220000  0.77520000  1.0 0.1204216593
H  H184  1  0.26620000  0.46220000  0.22480000  1.0 0.1204216593
H  H185  1  0.68820000  0.97360000  0.83690000  1.0 0.1204216593
H  H186  1  0.31180000  0.47360000  0.16310000  1.0 0.1204216593
H  H187  1  0.72880000  0.01830000  0.92690000  1.0 0.1204216593
H  H188  1  0.27120000  0.51830000  0.07310000  1.0 0.1204216593
H  H189  1  0.93210000  0.03670000  0.94990000  1.0 0.1300444442
H  H190  1  0.06790000  0.53670000  0.05010000  1.0 0.1300444442
H  H191  1  0.98340000  0.00360000  0.79260000  1.0 0.1300444442
H  H192  1  0.01660000  0.50360000  0.20740000  1.0 0.1300444442
H  H193  1  0.01180000  0.01950000  0.86330000  1.0 0.1204216593
H  H194  1  0.98820000  0.51950000  0.13670000  1.0 0.1204216593
H  H195  1  0.00610000  0.09990000  0.89770000  1.0 0.1204216593
H  H196  1  0.99390000  0.59990000  0.10230000  1.0 0.1204216593
H  H197  1  0.00770000  0.17790000  0.86220000  1.0 0.1204216593
H  H198  1  0.99230000  0.67790000  0.13780000  1.0 0.1204216593
H  H199  1  0.98540000  0.19730000  0.75250000  1.0 0.1204216593
H  H200  1  0.01460000  0.69730000  0.24750000  1.0 0.1204216593
H  H201  1  0.98820000  0.17470000  0.64190000  1.0 0.1204216593
H  H202  1  0.01180000  0.67470000  0.35810000  1.0 0.1204216593
H  H203  1  0.97430000  0.12160000  0.62170000  1.0 0.1109708602
H  H204  1  0.02570000  0.62160000  0.37830000  1.0 0.1109708602
H  H205  1  0.89530000  0.22710000  0.65260000  1.0 0.139276409
H  H206  1  0.10470000  0.72710000  0.34740000  1.0 0.139276409
H  H207  1  0.70010000  0.18740000  0.61350000  1.0 0.1300444442
H  H208  1  0.29990000  0.68740000  0.38650000  1.0 0.1300444442
H  H209  1  0.67640000  0.11030000  0.58200000  1.0 0.1204216593
H  H210  1  0.32360000  0.61030000  0.41800000  1.0 0.1204216593
H  H211  1  0.73410000  0.07080000  0.58440000  1.0 0.1204216593
H  H212  1  0.26590000  0.57080000  0.41560000  1.0 0.1204216593
H  H213  1  0.62600000  0.13540000  0.68740000  1.0 0.1204216593
H  H214  1  0.37400000  0.63540000  0.31260000  1.0 0.1204216593
H  H215  1  0.59480000  0.11970000  0.79340000  1.0 0.1204216593
H  H216  1  0.40520000  0.61970000  0.20660000  1.0 0.1204216593
H  H217  1  0.62770000  0.04680000  0.84410000  1.0 0.1204216593
H  H218  1  0.37230000  0.54680000  0.15590000  1.0 0.1204216593
H  H219  1  0.21000000  0.91730000  0.17320000  1.0 0.1204216593
H  H220  1  0.79000000  0.41730000  0.82680000  1.0 0.1204216593
H  H221  1  0.34110000  0.80000000  0.98820000  1.0 0.1204216593
H  H222  1  0.65890000  0.30000000  0.01180000  1.0 0.1204216593
H  H223  1  0.32250000  0.72560000  0.01610000  1.0 0.1204216593
H  H224  1  0.67750000  0.22560000  0.98390000  1.0 0.1204216593
H  H225  1  0.15330000  0.70590000  0.22650000  1.0 0.1109708602
H  H226  1  0.84670000  0.20590000  0.77350000  1.0 0.1109708602
H  H227  1  0.29980000  0.97150000  0.05750000  1.0 0.1503747879
H  H228  1  0.70020000  0.47150000  0.94250000  1.0 0.1503747879
H  H229  1  0.22450000  0.97500000  0.08530000  1.0 0.1503747879
H  H230  1  0.77550000  0.47500000  0.91470000  1.0 0.1503747879
H  H231  1  0.28930000  0.97530000  0.13470000  1.0 0.139276409
H  H232  1  0.71070000  0.47530000  0.86530000  1.0 0.139276409
H  H233  1  0.35500000  0.92180000  0.99890000  1.0 0.1503747879
H  H234  1  0.64500000  0.42180000  0.00110000  1.0 0.1503747879
H  H235  1  0.39610000  0.87610000  0.02090000  1.0 0.1300444442
H  H236  1  0.60390000  0.37610000  0.97910000  1.0 0.1300444442
H  H237  1  0.34130000  0.87370000  0.96140000  1.0 0.1503747879
H  H238  1  0.65870000  0.37370000  0.03860000  1.0 0.1503747879
H  H239  1  0.30050000  0.66450000  0.02780000  1.0 0.1300444442
H  H240  1  0.69950000  0.16450000  0.97220000  1.0 0.1300444442
H  H241  1  0.30330000  0.63050000  0.08990000  1.0 0.139276409
H  H242  1  0.69670000  0.13050000  0.91010000  1.0 0.139276409
H  H243  1  0.23570000  0.63310000  0.04420000  1.0 0.159477199
H  H244  1  0.76430000  0.13310000  0.95580000  1.0 0.159477199
H  H245  1  0.16020000  0.62800000  0.21960000  1.0 0.1300444442
H  H246  1  0.83980000  0.12800000  0.78040000  1.0 0.1300444442
H  H247  1  0.16300000  0.60940000  0.14590000  1.0 0.139276409
H  H248  1  0.83700000  0.10940000  0.85410000  1.0 0.139276409
H  H249  1  0.23020000  0.60830000  0.19220000  1.0 0.139276409
H  H250  1  0.76980000  0.10830000  0.80780000  1.0 0.139276409
H  H251  1  0.66960000  0.21770000  0.26530000  1.0 0.1109708602
H  H252  1  0.33040000  0.71770000  0.73470000  1.0 0.1109708602
H  H253  1  0.83060000  0.17500000  0.49510000  1.0 0.1300444442
H  H254  1  0.16940000  0.67500000  0.50490000  1.0 0.1300444442
H  H255  1  0.84780000  0.10150000  0.50470000  1.0 0.1204216593
H  H256  1  0.15220000  0.60150000  0.49530000  1.0 0.1204216593
H  H257  1  0.72190000  0.00260000  0.30390000  1.0 0.1204216593
H  H258  1  0.27810000  0.50260000  0.69610000  1.0 0.1204216593
H  H259  1  0.71030000  0.29510000  0.28120000  1.0 0.1300444442
H  H260  1  0.28970000  0.79510000  0.71880000  1.0 0.1300444442
H  H261  1  0.66720000  0.30180000  0.34590000  1.0 0.139276409
H  H262  1  0.33280000  0.80180000  0.65410000  1.0 0.139276409
H  H263  1  0.74800000  0.30980000  0.34860000  1.0 0.1300444442
H  H264  1  0.25200000  0.80980000  0.65140000  1.0 0.1300444442
H  H265  1  0.79950000  0.29210000  0.42450000  1.0 0.1300444442
H  H266  1  0.20050000  0.79210000  0.57550000  1.0 0.1300444442
H  H267  1  0.74820000  0.27300000  0.47780000  1.0 0.159477199
H  H268  1  0.25180000  0.77300000  0.52220000  1.0 0.159477199
H  H269  1  0.82430000  0.25310000  0.47570000  1.0 0.1300444442
H  H270  1  0.17570000  0.75310000  0.52430000  1.0 0.1300444442
H  H271  1  0.89590000  0.01430000  0.47880000  1.0 0.139276409
H  H272  1  0.10410000  0.51430000  0.52120000  1.0 0.139276409
H  H273  1  0.83940000  0.03360000  0.52680000  1.0 0.139276409
H  H274  1  0.16060000  0.53360000  0.47320000  1.0 0.139276409
H  H275  1  0.83420000  0.98150000  0.49960000  1.0 0.1300444442
H  H276  1  0.16580000  0.48150000  0.50040000  1.0 0.1300444442
H  H277  1  0.77610000  0.93850000  0.34260000  1.0 0.1300444442
H  H278  1  0.22390000  0.43850000  0.65740000  1.0 0.1300444442
H  H279  1  0.83080000  0.94350000  0.40180000  1.0 0.1300444442
H  H280  1  0.16920000  0.44350000  0.59820000  1.0 0.1300444442
H  H281  1  0.75140000  0.93840000  0.41650000  1.0 0.139276409
H  H282  1  0.24860000  0.43840000  0.58350000  1.0 0.139276409
H  H283  1  0.66070000  0.25630000  0.72770000  1.0 0.1204216593
H  H284  1  0.33930000  0.75630000  0.27230000  1.0 0.1204216593
H  H285  1  0.51690000  0.38130000  0.88920000  1.0 0.1204216593
H  H286  1  0.48310000  0.88130000  0.11080000  1.0 0.1204216593
H  H287  1  0.53580000  0.45630000  0.85970000  1.0 0.1204216593
H  H288  1  0.46420000  0.95630000  0.14030000  1.0 0.1204216593
H  H289  1  0.72620000  0.46860000  0.65990000  1.0 0.1109708602
H  H290  1  0.27380000  0.96860000  0.34010000  1.0 0.1109708602
H  H291  1  0.56430000  0.20600000  0.78000000  1.0 0.139276409
H  H292  1  0.43570000  0.70600000  0.22000000  1.0 0.139276409
H  H293  1  0.64420000  0.20640000  0.79850000  1.0 0.1300444442
H  H294  1  0.35580000  0.70640000  0.20150000  1.0 0.1300444442
H  H295  1  0.58950000  0.21190000  0.85470000  1.0 0.1300444442
H  H296  1  0.41050000  0.71190000  0.14530000  1.0 0.1300444442
H  H297  1  0.55180000  0.26070000  0.92170000  1.0 0.139276409
H  H298  1  0.44820000  0.76070000  0.07830000  1.0 0.139276409
H  H299  1  0.53010000  0.31420000  0.92770000  1.0 0.1300444442
H  H300  1  0.46990000  0.81420000  0.07230000  1.0 0.1300444442
H  H301  1  0.48390000  0.27910000  0.88480000  1.0 0.139276409
H  H302  1  0.51610000  0.77910000  0.11520000  1.0 0.139276409
H  H303  1  0.53740000  0.53760000  0.77340000  1.0 0.159477199
H  H304  1  0.46260000  0.03760000  0.22660000  1.0 0.159477199
H  H305  1  0.56310000  0.52170000  0.84500000  1.0 0.1300444442
H  H306  1  0.43690000  0.02170000  0.15500000  1.0 0.1300444442
H  H307  1  0.60850000  0.55640000  0.80330000  1.0 0.1300444442
H  H308  1  0.39150000  0.05640000  0.19670000  1.0 0.1300444442
H  H309  1  0.69210000  0.56530000  0.73700000  1.0 0.1300444442
H  H310  1  0.30790000  0.06530000  0.26300000  1.0 0.1300444442
H  H311  1  0.71630000  0.54500000  0.66850000  1.0 0.1300444442
H  H312  1  0.28370000  0.04500000  0.33150000  1.0 0.1300444442
H  H313  1  0.63820000  0.55950000  0.67720000  1.0 0.139276409
H  H314  1  0.36180000  0.05950000  0.32280000  1.0 0.139276409
H  H315  1  0.84110000  0.16090000  0.22680000  1.0 0.1204216593
H  H316  1  0.15890000  0.66090000  0.77320000  1.0 0.1204216593
H  H317  1  0.99070000  0.03310000  0.38460000  1.0 0.1204216593
H  H318  1  0.00930000  0.53310000  0.61540000  1.0 0.1204216593
H  H319  1  0.97260000  0.95720000  0.35250000  1.0 0.1109708602
H  H320  1  0.02740000  0.45720000  0.64750000  1.0 0.1109708602
H  H321  1  0.78740000  0.95930000  0.13770000  1.0 0.1204216593
H  H322  1  0.21260000  0.45930000  0.86230000  1.0 0.1204216593
H  H323  1  0.86800000  0.21220000  0.33120000  1.0 0.139276409
H  H324  1  0.13200000  0.71220000  0.66880000  1.0 0.139276409
H  H325  1  0.94610000  0.20360000  0.35280000  1.0 0.1300444442
H  H326  1  0.05390000  0.70360000  0.64720000  1.0 0.1300444442
H  H327  1  0.92660000  0.21780000  0.27890000  1.0 0.1300444442
H  H328  1  0.07340000  0.71780000  0.72110000  1.0 0.1300444442
H  H329  1  0.01150000  0.15410000  0.38800000  1.0 0.139276409
H  H330  1  0.98850000  0.65410000  0.61200000  1.0 0.139276409
H  H331  1  0.95740000  0.12930000  0.43380000  1.0 0.139276409
H  H332  1  0.04260000  0.62930000  0.56620000  1.0 0.139276409
H  H333  1  0.01660000  0.09930000  0.40180000  1.0 0.1300444442
H  H334  1  0.98340000  0.59930000  0.59820000  1.0 0.1300444442
H  H335  1  0.88930000  0.86910000  0.30970000  1.0 0.1300444442
H  H336  1  0.11070000  0.36910000  0.69030000  1.0 0.1300444442
H  H337  1  0.94150000  0.86600000  0.25110000  1.0 0.159477199
H  H338  1  0.05850000  0.36600000  0.74890000  1.0 0.159477199
H  H339  1  0.95990000  0.89710000  0.31400000  1.0 0.139276409
H  H340  1  0.04010000  0.39710000  0.68600000  1.0 0.139276409
H  H341  1  0.78570000  0.87680000  0.14400000  1.0 0.1300444442
H  H342  1  0.21430000  0.37680000  0.85600000  1.0 0.1300444442
H  H343  1  0.86220000  0.85850000  0.15560000  1.0 0.139276409
H  H344  1  0.13780000  0.35850000  0.84440000  1.0 0.139276409
H  H345  1  0.80860000  0.85470000  0.21300000  1.0 0.1300444442
H  H346  1  0.19140000  0.35470000  0.78700000  1.0 0.1300444442
H  H347  1  0.09200000  0.17970000  0.18990000  1.0 0.1002246477
H  H348  1  0.90800000  0.67970000  0.81010000  1.0 0.1002246477
H  H349  1  0.14970000  0.21910000  0.19560000  1.0 0.1002246477
H  H350  1  0.85030000  0.71910000  0.80440000  1.0 0.1002246477
H  H351  1  0.04990000  0.24770000  0.24160000  1.0 0.1109708602
H  H352  1  0.95010000  0.74770000  0.75840000  1.0 0.1109708602
H  H353  1  0.04560000  0.20330000  0.28870000  1.0 0.1109708602
H  H354  1  0.95440000  0.70330000  0.71130000  1.0 0.1109708602
H  H355  1  0.45210000  0.36280000  0.15770000  1.0 0.0800210981
H  H356  1  0.54790000  0.86280000  0.84230000  1.0 0.0800210981
H  H357  1  0.46050000  0.40980000  0.20020000  1.0 0.1002246477
H  H358  1  0.53950000  0.90980000  0.79980000  1.0 0.1002246477
H  H359  1  0.52410000  0.39300000  0.07740000  1.0 0.1109708602
H  H360  1  0.47590000  0.89300000  0.92260000  1.0 0.1109708602
H  H361  1  0.46160000  0.42790000  0.08630000  1.0 0.1109708602
H  H362  1  0.53840000  0.92790000  0.91370000  1.0 0.1109708602
H  H363  1  0.59680000  0.44170000  0.13860000  1.0 0.1109708602
H  H364  1  0.40320000  0.94170000  0.86140000  1.0 0.1109708602
H  H365  1  0.56210000  0.47090000  0.07990000  1.0 0.0899688145
H  H366  1  0.43790000  0.97090000  0.92010000  1.0 0.0899688145
H  H367  1  0.56040000  0.51490000  0.17830000  1.0 0.1300444442
H  H368  1  0.43960000  0.01490000  0.82170000  1.0 0.1300444442
H  H369  1  0.48370000  0.50420000  0.15390000  1.0 0.1204216593
H  H370  1  0.51630000  0.00420000  0.84610000  1.0 0.1204216593
H  H371  1  0.51780000  0.47470000  0.21270000  1.0 0.1300444442
H  H372  1  0.48220000  0.97470000  0.78730000  1.0 0.1300444442
H  H373  1  0.98770000  0.01780000  0.57700000  1.0 0.1002246477
H  H374  1  0.01230000  0.51780000  0.42300000  1.0 0.1002246477
H  H375  1  0.06180000  0.99490000  0.58810000  1.0 0.1002246477
H  H376  1  0.93820000  0.49490000  0.41190000  1.0 0.1002246477
H  H377  1  0.05840000  0.06560000  0.64830000  1.0 0.0800210981
H  H378  1  0.94160000  0.56560000  0.35170000  1.0 0.0800210981
H  H379  1  0.06490000  0.02320000  0.69920000  1.0 0.1109708602
H  H380  1  0.93510000  0.52320000  0.30080000  1.0 0.1109708602
H  H381  1  0.78500000  0.92270000  0.64830000  1.0 0.1109708602
H  H382  1  0.21500000  0.42270000  0.35170000  1.0 0.1109708602
H  H383  1  0.80540000  0.95710000  0.59010000  1.0 0.1109708602
H  H384  1  0.19460000  0.45710000  0.40990000  1.0 0.1109708602
H  H385  1  0.71760000  0.92620000  0.52160000  1.0 0.0899688145
H  H386  1  0.28240000  0.42620000  0.47840000  1.0 0.0899688145
H  H387  1  0.69090000  0.89470000  0.58000000  1.0 0.0899688145
H  H388  1  0.30910000  0.39470000  0.42000000  1.0 0.0899688145
H  H389  1  0.75240000  0.84950000  0.50770000  1.0 0.1204216593
H  H390  1  0.24760000  0.34950000  0.49230000  1.0 0.1204216593
H  H391  1  0.81800000  0.88190000  0.51930000  1.0 0.1204216593
H  H392  1  0.18200000  0.38190000  0.48070000  1.0 0.1204216593
H  H393  1  0.79110000  0.85030000  0.57770000  1.0 0.1300444442
H  H394  1  0.20890000  0.35030000  0.42230000  1.0 0.1300444442
H  H395  1  0.84230000  0.46470000  0.18410000  1.0 0.0300612204
H  H396  1  0.15770000  0.96470000  0.81590000  1.0 0.0300612204
H  H397  1  0.83080000  0.43710000  0.11700000  1.0 0.0599524729
H  H398  1  0.16920000  0.93710000  0.88300000  1.0 0.0599524729
H  H399  1  0.96580000  0.94540000  0.59810000  1.0 0.0899688145
H  H400  1  0.03420000  0.44540000  0.40190000  1.0 0.0899688145
H  H401  1  0.94630000  0.97360000  0.66020000  1.0 0.1002246477
H  H402  1  0.05370000  0.47360000  0.33980000  1.0 0.1002246477
H  H403  1  0.77750000  0.53780000  0.20380000  1.0 0.0599524729
H  H404  1  0.22250000  0.03780000  0.79620000  1.0 0.0599524729
H  H405  1  0.71440000  0.50390000  0.21560000  1.0 0.0899688145
H  H406  1  0.28560000  0.00390000  0.78440000  1.0 0.0899688145
H  H407  1  0.72110000  0.47740000  0.10420000  1.0 0.0800210981
H  H408  1  0.27890000  0.97740000  0.89580000  1.0 0.0800210981
H  H409  1  0.78720000  0.50940000  0.09590000  1.0 0.0300612204
H  H410  1  0.21280000  0.00940000  0.90410000  1.0 0.0300612204
H  H411  1  0.95070000  0.89770000  0.67890000  1.0 0.1204216593
H  H412  1  0.04930000  0.39770000  0.32110000  1.0 0.1204216593
H  H413  1  0.03020000  0.89580000  0.66300000  1.0 0.1109708602
H  H414  1  0.96980000  0.39580000  0.33700000  1.0 0.1109708602
H  H415  1  0.00520000  0.92380000  0.72570000  1.0 0.139276409
H  H416  1  0.99480000  0.42380000  0.27430000  1.0 0.139276409
H  H417  1  0.67850000  0.58200000  0.19370000  1.0 0.1002246477
H  H418  1  0.32150000  0.08200000  0.80630000  1.0 0.1002246477
H  H419  1  0.70890000  0.57780000  0.12210000  1.0 0.1109708602
H  H420  1  0.29110000  0.07780000  0.87790000  1.0 0.1109708602
H  H421  1  0.64560000  0.54620000  0.14180000  1.0 0.1204216593
H  H422  1  0.35440000  0.04620000  0.85820000  1.0 0.1204216593
H  H423  1  0.15700000  0.21070000  0.59840000  1.0 0.0800210981
H  H424  1  0.84300000  0.71070000  0.40160000  1.0 0.0800210981
H  H425  1  0.16750000  0.23080000  0.52630000  1.0 0.0899688145
H  H426  1  0.83250000  0.73080000  0.47370000  1.0 0.0899688145
H  H427  1  0.07220000  0.26650000  0.58380000  1.0 0.1300444442
H  H428  1  0.92780000  0.76650000  0.41620000  1.0 0.1300444442
H  H429  1  0.05160000  0.24730000  0.51240000  1.0 0.1300444442
H  H430  1  0.94840000  0.74730000  0.48760000  1.0 0.1300444442
H  H431  1  0.03300000  0.21790000  0.57600000  1.0 0.1204216593
H  H432  1  0.96700000  0.71790000  0.42400000  1.0 0.1204216593
H  H433  1  0.77900000  0.54650000  0.14110000  1.0 0.0397010923
H  H434  1  0.22100000  0.04650000  0.85890000  1.0 0.0397010923
H  H435  1  0.73090000  0.52330000  0.19410000  1.0 0.0300612204
H  H436  1  0.26910000  0.02330000  0.80590000  1.0 0.0300612204
H  H437  1  0.76110000  0.59900000  0.23080000  1.0 0.1204216593
H  H438  1  0.23890000  0.09900000  0.76920000  1.0 0.1204216593
H  H439  1  0.79620000  0.56230000  0.28000000  1.0 0.1204216593
H  H440  1  0.20380000  0.06230000  0.72000000  1.0 0.1204216593
H  H441  1  0.84050000  0.58720000  0.22550000  1.0 0.1300444442
H  H442  1  0.15950000  0.08720000  0.77450000  1.0 0.1300444442
H  H443  1  0.83160000  0.48510000  0.24110000  1.0 0.0599524729
H  H444  1  0.16840000  0.98510000  0.75890000  1.0 0.0599524729
H  H445  1  0.87360000  0.50420000  0.18080000  1.0 0.0726052869
H  H446  1  0.12640000  0.00420000  0.81920000  1.0 0.0726052869
H  H447  1  0.84850000  0.43790000  0.13490000  1.0 0.0599524729
H  H448  1  0.15150000  0.93790000  0.86510000  1.0 0.0599524729
H  H449  1  0.77650000  0.46140000  0.11760000  1.0 0.0494018371
H  H450  1  0.22350000  0.96140000  0.88240000  1.0 0.0397010923
C  C1  1  0.75450000  0.76710000  0.27260000  1.0 0.0397010923
C  C2  1  0.24550000  0.26710000  0.72740000  1.0 0.0397010923
C  C3  1  0.79050000  0.72540000  0.24480000  1.0 -0.2622113055
C  C4  1  0.20950000  0.22540000  0.75520000  1.0 -0.2622113055
C  C5  1  0.83800000  0.74470000  0.19010000  1.0 0.0300612204
C  C6  1  0.16200000  0.24470000  0.80990000  1.0 0.0300612204
C  C7  1  0.90460000  0.75610000  0.21170000  1.0 -0.1808577653
C  C8  1  0.09540000  0.25610000  0.78830000  1.0 -0.1808577653
C  C9  1  0.94850000  0.77520000  0.16700000  1.0 -0.0024745588
C  C10  1  0.05150000  0.27520000  0.83300000  1.0 -0.0024745588
C  C11  1  0.92900000  0.77630000  0.09960000  1.0 -0.1904626173
C  C12  1  0.07100000  0.27630000  0.90040000  1.0 -0.1904626173
C  C13  1  0.86200000  0.76700000  0.07950000  1.0 0.0131191449
C  C14  1  0.13800000  0.26700000  0.92050000  1.0 0.0131191449
C  C15  1  0.84060000  0.77640000  0.01040000  1.0 -0.2796570255
C  C16  1  0.15940000  0.27640000  0.98960000  1.0 -0.2796570255
C  C17  1  0.81850000  0.82720000  0.00410000  1.0 0.0397010923
C  C18  1  0.18150000  0.32720000  0.99590000  1.0 0.0397010923
C  C19  1  0.86910000  0.86160000  0.00560000  1.0 -0.169323098
C  C20  1  0.13090000  0.36160000  0.99440000  1.0 -0.169323098
C  C21  1  0.85570000  0.90950000  0.00700000  1.0 -0.0912730907
C  C22  1  0.14430000  0.40950000  0.99300000  1.0 -0.0912730907
C  C23  1  0.78620000  0.91910000  0.00790000  1.0 -0.169323098
C  C24  1  0.21380000  0.41910000  0.99210000  1.0 -0.169323098
C  C25  1  0.73040000  0.88870000  0.00620000  1.0 0.0494018371
C  C26  1  0.26960000  0.38870000  0.99380000  1.0 0.0494018371
C  C27  1  0.66030000  0.90310000  0.01650000  1.0 -0.2622113055
C  C28  1  0.33970000  0.40310000  0.98350000  1.0 -0.2622113055
C  C29  1  0.64530000  0.91120000  0.08160000  1.0 0.0300612204
C  C30  1  0.35470000  0.41120000  0.91840000  1.0 0.0300612204
C  C31  1  0.64800000  0.95600000  0.10850000  1.0 -0.1904626173
C  C32  1  0.35200000  0.45600000  0.89150000  1.0 -0.1904626173
C  C33  1  0.63120000  0.96430000  0.17460000  1.0 -0.0195535009
C  C34  1  0.36880000  0.46430000  0.82540000  1.0 -0.0195535009
C  C35  1  0.61230000  0.92720000  0.21390000  1.0 -0.1996383221
C  C36  1  0.38770000  0.42720000  0.78610000  1.0 -0.1996383221
C  C37  1  0.61340000  0.88050000  0.19000000  1.0 0.0033478967
C  C38  1  0.38660000  0.38050000  0.81000000  1.0 0.0033478967
C  C39  1  0.59590000  0.84210000  0.23620000  1.0 -0.2906346982
C  C40  1  0.40410000  0.34210000  0.76380000  1.0 -0.2906346982
C  C41  1  0.66130000  0.82040000  0.26750000  1.0 0.0599524729
C  C42  1  0.33870000  0.32040000  0.73250000  1.0 0.0599524729
C  C43  1  0.69550000  0.84420000  0.32120000  1.0 -0.169323098
C  C44  1  0.30450000  0.34420000  0.67880000  1.0 -0.169323098
C  C45  1  0.75600000  0.82960000  0.34970000  1.0 -0.0986279399
C  C46  1  0.24400000  0.32960000  0.65030000  1.0 -0.0986279399
C  C47  1  0.78190000  0.78910000  0.32220000  1.0 -0.1501183522
C  C48  1  0.21810000  0.28910000  0.67780000  1.0 -0.1501183522
C  C49  1  0.81620000  0.75110000  0.12590000  1.0 0.1678018375
C  C50  1  0.18380000  0.25110000  0.87410000  1.0 0.1678018375
C  C51  1  0.69400000  0.78070000  0.24880000  1.0 0.0800210981
C  C52  1  0.30600000  0.28070000  0.75120000  1.0 0.0800210981
C  C53  1  0.63040000  0.87410000  0.12600000  1.0 0.159477199
C  C54  1  0.36960000  0.37410000  0.87400000  1.0 0.159477199
C  C55  1  0.75210000  0.84240000  0.00210000  1.0 0.0899688145
C  C56  1  0.24790000  0.34240000  0.99790000  1.0 0.0899688145
C  C57  1  0.02370000  0.79070000  0.18260000  1.0 0.5137235521
C  C58  1  0.97630000  0.29070000  0.81740000  1.0 0.5137235521
C  C59  1  0.62730000  0.01190000  0.20330000  1.0 0.5137235521
C  C60  1  0.37270000  0.51190000  0.79670000  1.0 0.5137235521
C  C61  1  0.62310000  0.71760000  0.22460000  1.0 -0.0024745588
C  C62  1  0.37690000  0.21760000  0.77540000  1.0 -0.0024745588
C  C63  1  0.60110000  0.68710000  0.16470000  1.0 -0.2191400761
C  C64  1  0.39890000  0.18710000  0.83530000  1.0 -0.2191400761
C  C65  1  0.56690000  0.64160000  0.18650000  1.0 -0.0986279399
C  C66  1  0.43310000  0.14160000  0.81350000  1.0 -0.0986279399
C  C67  1  0.53270000  0.62090000  0.12300000  1.0 -0.4010727208
C  C68  1  0.46730000  0.12090000  0.87700000  1.0 -0.4010727208
C  C69  1  0.68170000  0.80020000  0.93190000  1.0 -0.0124938891
C  C70  1  0.31830000  0.30020000  0.06810000  1.0 -0.0124938891
C  C71  1  0.61970000  0.76810000  0.93150000  1.0 -0.2191400761
C  C72  1  0.38030000  0.26810000  0.06850000  1.0 -0.2191400761
C  C73  1  0.63900000  0.72270000  0.96620000  1.0 -0.0986279399
C  C74  1  0.36100000  0.22270000  0.03380000  1.0 -0.0986279399
C  C75  1  0.57520000  0.68970000  0.96480000  1.0 -0.3921577584
C  C76  1  0.42480000  0.18970000  0.03520000  1.0 -0.3921577584
C  C77  1  0.26140000  0.15180000  0.19500000  1.0 -0.0024745588
C  C78  1  0.73860000  0.65180000  0.80500000  1.0 -0.0024745588
C  C79  1  0.29660000  0.18890000  0.22520000  1.0 -0.2485174091
C  C80  1  0.70340000  0.68890000  0.77480000  1.0 -0.2485174091
C  C81  1  0.34770000  0.17410000  0.28450000  1.0 0.0195125189
C  C82  1  0.65230000  0.67410000  0.71550000  1.0 0.0195125189
C  C83  1  0.41230000  0.16390000  0.26380000  1.0 -0.1595060103
C  C84  1  0.58770000  0.66390000  0.73620000  1.0 -0.1595060103
C  C85  1  0.46100000  0.14590000  0.30970000  1.0 -0.0569399857
C  C86  1  0.53900000  0.64590000  0.69030000  1.0 -0.0569399857
C  C87  1  0.44240000  0.14310000  0.37350000  1.0 -0.1410810608
C  C88  1  0.55760000  0.64310000  0.62650000  1.0 -0.1501183522
C  C89  1  0.37560000  0.15050000  0.39110000  1.0 -0.0024745588
C  C90  1  0.62440000  0.65050000  0.60890000  1.0 -0.0024745588
C  C91  1  0.35400000  0.14510000  0.46260000  1.0 -0.2700949064
C  C92  1  0.64600000  0.64510000  0.53740000  1.0 -0.2700949064
C  C93  1  0.32910000  0.09640000  0.47090000  1.0 0.0033478967
C  C94  1  0.67090000  0.59640000  0.52910000  1.0 0.0033478967
C  C95  1  0.37400000  0.05880000  0.47200000  1.0 -0.1595060103
C  C96  1  0.62600000  0.55880000  0.52800000  1.0 -0.1595060103
C  C97  1  0.35030000  0.01090000  0.47480000  1.0 -0.0912730907
C  C98  1  0.64970000  0.51090000  0.52520000  1.0 -0.0912730907
C  C99  1  0.27920000  0.00390000  0.46960000  1.0 -0.1501183522
C  C100  1  0.72080000  0.50390000  0.53040000  1.0 -0.1501183522
C  C101  1  0.23020000  0.03830000  0.46570000  1.0 0.0300612204
C  C102  1  0.76980000  0.53830000  0.53430000  1.0 0.0300612204
C  C103  1  0.16300000  0.02750000  0.46580000  1.0 -0.3025001676
C  C104  1  0.83700000  0.52750000  0.53420000  1.0 -0.2906346982
C  C105  1  0.14460000  0.01810000  0.38000000  1.0 -0.0912730907
C  C106  1  0.85540000  0.51810000  0.62000000  1.0 -0.0912730907
C  C107  1  0.14400000  0.96990000  0.36300000  1.0 -0.1410810608
C  C108  1  0.85600000  0.46990000  0.63700000  1.0 -0.1410810608
C  C109  1  0.12500000  0.96140000  0.29840000  1.0 -0.0705960506
C  C110  1  0.87500000  0.46140000  0.70160000  1.0 -0.0705960506
C  C111  1  0.10750000  0.99700000  0.25560000  1.0 -0.1410810608
C  C112  1  0.89250000  0.49700000  0.74440000  1.0 -0.1410810608
C  C113  1  0.11390000  0.04380000  0.27190000  1.0 -0.0300724476
C  C114  1  0.88610000  0.54380000  0.72810000  1.0 -0.0300724476
C  C115  1  0.09460000  0.08180000  0.22900000  1.0 -0.2796570255
C  C116  1  0.90540000  0.58180000  0.77100000  1.0 -0.2796570255
C  C117  1  0.15610000  0.09990000  0.20480000  1.0 -0.0195535009
C  C118  1  0.84390000  0.59990000  0.79520000  1.0 -0.0195535009
C  C119  1  0.19000000  0.07580000  0.15820000  1.0 -0.1595060103
C  C120  1  0.81000000  0.57580000  0.84180000  1.0 -0.1595060103
C  C121  1  0.25150000  0.08520000  0.12910000  1.0 -0.0986279399
C  C122  1  0.74850000  0.58520000  0.87090000  1.0 -0.0986279399
C  C123  1  0.29100000  0.12300000  0.14810000  1.0 -0.1501183522
C  C124  1  0.70900000  0.62300000  0.85190000  1.0 -0.1501183522
C  C125  1  0.32750000  0.16800000  0.34670000  1.0 0.1678018375
C  C126  1  0.67250000  0.66800000  0.65330000  1.0 0.1678018375
C  C127  1  0.19880000  0.13850000  0.21960000  1.0 0.1678018375
C  C128  1  0.80120000  0.63850000  0.78040000  1.0 0.1678018375
C  C129  1  0.13290000  0.05380000  0.33640000  1.0 0.2141308634
C  C130  1  0.86710000  0.55380000  0.66360000  1.0 0.2141308634
C  C131  1  0.26110000  0.08300000  0.47050000  1.0 0.1678018375
C  C132  1  0.73890000  0.58300000  0.52950000  1.0 0.1678018375
C  C133  1  0.52810000  0.13060000  0.29110000  1.0 0.5454913526
C  C134  1  0.47190000  0.63060000  0.70890000  1.0 0.5454913526
C  C135  1  0.12660000  0.91370000  0.27630000  1.0 0.5391468196
C  C136  1  0.87340000  0.41370000  0.72370000  1.0 0.5391468196
C  C137  1  0.12000000  0.25070000  0.32000000  1.0 -0.0986279399
C  C138  1  0.88000000  0.75070000  0.68000000  1.0 -0.0986279399
C  C139  1  0.08800000  0.29820000  0.33600000  1.0 -0.4010727208
C  C140  1  0.91200000  0.79820000  0.66400000  1.0 -0.4010727208
C  C141  1  0.19030000  0.13340000  0.53500000  1.0 -0.0416162116
C  C142  1  0.80970000  0.63340000  0.46500000  1.0 -0.0416162116
C  C143  1  0.12650000  0.16400000  0.52540000  1.0 -0.2191400761
C  C144  1  0.87350000  0.66400000  0.47460000  1.0 -0.2191400761
C  C145  1  0.71320000  0.97600000  0.63250000  1.0 -0.0124938891
C  C146  1  0.28680000  0.47600000  0.36750000  1.0 -0.0124938891
C  C147  1  0.83290000  0.39180000  0.28590000  1.0 0.0494018371
C  C148  1  0.16710000  0.89180000  0.71410000  1.0 0.0494018371
C  C149  1  0.79760000  0.43380000  0.32100000  1.0 -0.2796570255
C  C150  1  0.20240000  0.93380000  0.67900000  1.0 -0.2796570255
C  C151  1  0.73150000  0.42260000  0.36100000  1.0 0.0131191449
C  C152  1  0.26850000  0.92260000  0.63900000  1.0 0.0131191449
C  C153  1  0.74210000  0.41190000  0.42670000  1.0 -0.169323098
C  C154  1  0.25790000  0.91190000  0.57330000  1.0 -0.169323098
C  C155  1  0.68760000  0.39650000  0.45780000  1.0 -0.0124938891
C  C156  1  0.31240000  0.89650000  0.54220000  1.0 -0.0124938891
C  C157  1  0.62280000  0.39110000  0.42910000  1.0 -0.1595060103
C  C158  1  0.37720000  0.89110000  0.57090000  1.0 -0.1595060103
C  C159  1  0.61530000  0.40250000  0.36220000  1.0 0.0131191449
C  C160  1  0.38470000  0.90250000  0.63780000  1.0 0.0131191449
C  C161  1  0.54360000  0.39650000  0.33150000  1.0 -0.2622113055
C  C162  1  0.45640000  0.89650000  0.66850000  1.0 -0.2622113055
C  C163  1  0.53350000  0.34840000  0.30530000  1.0 0.0397010923
C  C164  1  0.46650000  0.84840000  0.69470000  1.0 0.0397010923
C  C165  1  0.52240000  0.31160000  0.34910000  1.0 -0.1501183522
C  C166  1  0.47760000  0.81160000  0.65090000  1.0 -0.1501183522
C  C167  1  0.52280000  0.26570000  0.32570000  1.0 -0.0912730907
C  C168  1  0.47720000  0.76570000  0.67430000  1.0 -0.0912730907
C  C169  1  0.53160000  0.25790000  0.25990000  1.0 -0.1410810608
C  C170  1  0.46840000  0.75790000  0.74010000  1.0 -0.1410810608
C  C171  1  0.54250000  0.29140000  0.21800000  1.0 0.0300612204
C  C172  1  0.45750000  0.79140000  0.78200000  1.0 0.0300612204
C  C173  1  0.55800000  0.28160000  0.14670000  1.0 -0.2906346982
C  C174  1  0.44200000  0.78160000  0.85330000  1.0 -0.2906346982
C  C175  1  0.63300000  0.26680000  0.14150000  1.0 0.0195125189
C  C176  1  0.36700000  0.76680000  0.85850000  1.0 0.0300612204
C  C177  1  0.65270000  0.22000000  0.13760000  1.0 -0.2129583211
C  C178  1  0.34730000  0.72000000  0.86240000  1.0 -0.2129583211
C  C179  1  0.72160000  0.21080000  0.13030000  1.0 -0.0024745588
C  C180  1  0.27840000  0.71080000  0.86970000  1.0 -0.0024745588
C  C181  1  0.77140000  0.24440000  0.12480000  1.0 -0.1904626173
C  C182  1  0.22860000  0.74440000  0.87520000  1.0 -0.1904626173
C  C183  1  0.75250000  0.29050000  0.13050000  1.0 0.0494018371
C  C184  1  0.24750000  0.79050000  0.86950000  1.0 0.0494018371
C  C185  1  0.80280000  0.33170000  0.12660000  1.0 -0.2622113055
C  C186  1  0.19720000  0.83170000  0.87340000  1.0 -0.2622113055
C  C187  1  0.83140000  0.34140000  0.18970000  1.0 0.0494018371
C  C188  1  0.16860000  0.84140000  0.81030000  1.0 0.0494018371
C  C189  1  0.87700000  0.31380000  0.22770000  1.0 -0.1808577653
C  C190  1  0.12300000  0.81380000  0.77230000  1.0 -0.1808577653
C  C191  1  0.89930000  0.31960000  0.29080000  1.0 -0.077519877
C  C192  1  0.10070000  0.81960000  0.70920000  1.0 -0.077519877
C  C193  1  0.87430000  0.35840000  0.31660000  1.0 -0.1808577653
C  C194  1  0.12570000  0.85840000  0.68340000  1.0 -0.1808577653
C  C195  1  0.66970000  0.41630000  0.32700000  1.0 0.1773193105
C  C196  1  0.33030000  0.91630000  0.67300000  1.0 0.1773193105
C  C197  1  0.81210000  0.38260000  0.22200000  1.0 0.139276409
C  C198  1  0.18790000  0.88260000  0.77800000  1.0 0.139276409
C  C199  1  0.68410000  0.30060000  0.13870000  1.0 0.1300444442
C  C200  1  0.31590000  0.80060000  0.86130000  1.0 0.1300444442
C  C201  1  0.53870000  0.33640000  0.24120000  1.0 0.1109708602
C  C202  1  0.46130000  0.83640000  0.75880000  1.0 0.1109708602
C  C203  1  0.70020000  0.38170000  0.52950000  1.0 0.5391468196
C  C204  1  0.29980000  0.88170000  0.47050000  1.0 0.5391468196
C  C205  1  0.73880000  0.15860000  0.13110000  1.0 0.5391468196
C  C206  1  0.26120000  0.65860000  0.86890000  1.0 0.5391468196
C  C207  1  0.68800000  0.02820000  0.76860000  1.0 0.0397010923
C  C208  1  0.31200000  0.52820000  0.23140000  1.0 0.0397010923
C  C209  1  0.72160000  0.98680000  0.80670000  1.0 -0.2700949064
C  C210  1  0.27840000  0.48680000  0.19330000  1.0 -0.2700949064
C  C211  1  0.78400000  0.00110000  0.84480000  1.0 0.0195125189
C  C212  1  0.21600000  0.50110000  0.15520000  1.0 0.0195125189
C  C213  1  0.77340000  0.01620000  0.91000000  1.0 -0.1595060103
C  C214  1  0.22660000  0.51620000  0.09000000  1.0 -0.1595060103
C  C215  1  0.83080000  0.02790000  0.94820000  1.0 -0.0195535009
C  C216  1  0.16920000  0.52790000  0.05180000  1.0 -0.0195535009
C  C217  1  0.89390000  0.02820000  0.92290000  1.0 -0.169323098
C  C218  1  0.10610000  0.52820000  0.07710000  1.0 -0.169323098
C  C219  1  0.90350000  0.01640000  0.85830000  1.0 0.0494018371
C  C220  1  0.09650000  0.51640000  0.14170000  1.0 0.0494018371
C  C221  1  0.97610000  0.02550000  0.82910000  1.0 -0.2622113055
C  C222  1  0.02390000  0.52550000  0.17090000  1.0 -0.2622113055
C  C223  1  0.98300000  0.07270000  0.80550000  1.0 0.0300612204
C  C224  1  0.01700000  0.57270000  0.19450000  1.0 0.0300612204
C  C225  1  0.99740000  0.10760000  0.85310000  1.0 -0.1501183522
C  C226  1  0.00260000  0.60760000  0.14690000  1.0 -0.1501183522
C  C227  1  0.99850000  0.15380000  0.83140000  1.0 -0.077519877
C  C228  1  0.00150000  0.65380000  0.16860000  1.0 -0.077519877
C  C229  1  0.98620000  0.16550000  0.76520000  1.0 -0.1501183522
C  C230  1  0.01380000  0.66550000  0.23480000  1.0 -0.1501183522
C  C231  1  0.97580000  0.13220000  0.71980000  1.0 0.0195125189
C  C232  1  0.02420000  0.63220000  0.28020000  1.0 0.0195125189
C  C233  1  0.96100000  0.14670000  0.65190000  1.0 -0.2796570255
C  C234  1  0.03900000  0.64670000  0.34810000  1.0 -0.2796570255
C  C235  1  0.88350000  0.15770000  0.64120000  1.0 0.0131191449
C  C236  1  0.11650000  0.65770000  0.35880000  1.0 0.0131191449
C  C237  1  0.86290000  0.20300000  0.64450000  1.0 -0.1808577653
C  C238  1  0.13710000  0.70300000  0.35550000  1.0 -0.1808577653
C  C239  1  0.79480000  0.21360000  0.63620000  1.0 -0.0124938891
C  C240  1  0.20520000  0.71360000  0.36380000  1.0 -0.0124938891
C  C241  1  0.74630000  0.17910000  0.62230000  1.0 -0.1904626173
C  C242  1  0.25370000  0.67910000  0.37770000  1.0 -0.1904626173
C  C243  1  0.76560000  0.13200000  0.62140000  1.0 0.0300612204
C  C244  1  0.23440000  0.63200000  0.37860000  1.0 0.0300612204
C  C245  1  0.71410000  0.09690000  0.60910000  1.0 -0.2796570255
C  C246  1  0.28590000  0.59690000  0.39090000  1.0 -0.2796570255
C  C247  1  0.68620000  0.07860000  0.67300000  1.0 0.0599524729
C  C248  1  0.31380000  0.57860000  0.32700000  1.0 0.0599524729
C  C249  1  0.64250000  0.10780000  0.70800000  1.0 -0.1595060103
C  C250  1  0.35750000  0.60780000  0.29200000  1.0 -0.1595060103
C  C251  1  0.62250000  0.09820000  0.77090000  1.0 -0.0912730907
C  C252  1  0.37750000  0.59820000  0.22910000  1.0 -0.0986279399
C  C253  1  0.64360000  0.05550000  0.80240000  1.0 -0.169323098
C  C254  1  0.35640000  0.55550000  0.19760000  1.0 -0.169323098
C  C255  1  0.84700000  0.00390000  0.82190000  1.0 0.139276409
C  C256  1  0.15300000  0.50390000  0.17810000  1.0 0.139276409
C  C257  1  0.70520000  0.03850000  0.70650000  1.0 0.1002246477
C  C258  1  0.29480000  0.53850000  0.29350000  1.0 0.1002246477
C  C259  1  0.83560000  0.12340000  0.63150000  1.0 0.139276409
C  C260  1  0.16440000  0.62340000  0.36850000  1.0 0.139276409
C  C261  1  0.97560000  0.08720000  0.74160000  1.0 0.1204216593
C  C262  1  0.02440000  0.58720000  0.25840000  1.0 0.1204216593
C  C263  1  0.81580000  0.04400000  0.01810000  1.0 0.5391468196
C  C264  1  0.18420000  0.54400000  0.98190000  1.0 0.5391468196
C  C265  1  0.76680000  0.26320000  0.63810000  1.0 0.5391468196
C  C266  1  0.23320000  0.76320000  0.36190000  1.0 0.5391468196
C  C267  1  0.22950000  0.89490000  0.14510000  1.0 -0.0195535009
C  C268  1  0.77050000  0.39490000  0.85490000  1.0 -0.0195535009
C  C269  1  0.26720000  0.91000000  0.09800000  1.0 0.0726052869
C  C270  1  0.73280000  0.41000000  0.90200000  1.0 0.0726052869
C  C271  1  0.29620000  0.87610000  0.05220000  1.0 0.139276409
C  C272  1  0.70380000  0.37610000  0.94780000  1.0 0.139276409
C  C273  1  0.28400000  0.82910000  0.06580000  1.0 -0.0195535009
C  C274  1  0.71600000  0.32910000  0.93420000  1.0 -0.0195535009
C  C275  1  0.31390000  0.79260000  0.02450000  1.0 -0.1225470436
C  C276  1  0.68610000  0.29260000  0.97550000  1.0 -0.1225470436
C  C277  1  0.30080000  0.74940000  0.04040000  1.0 -0.0986279399
C  C278  1  0.69920000  0.24940000  0.95960000  1.0 -0.0986279399
C  C279  1  0.25910000  0.73570000  0.08850000  1.0 -0.0024745588
C  C280  1  0.74090000  0.23570000  0.91150000  1.0 -0.0024745588
C  C281  1  0.24730000  0.68910000  0.10470000  1.0 0.1109708602
C  C282  1  0.75270000  0.18910000  0.89530000  1.0 0.1109708602
C  C283  1  0.20840000  0.67740000  0.15640000  1.0 0.0726052869
C  C284  1  0.79160000  0.17740000  0.84360000  1.0 0.0726052869
C  C285  1  0.18250000  0.71340000  0.19170000  1.0 -0.0195535009
C  C286  1  0.81750000  0.21340000  0.80830000  1.0 -0.0195535009
C  C287  1  0.23140000  0.76620000  0.12890000  1.0 0.1204216593
C  C288  1  0.76860000  0.26620000  0.87110000  1.0 0.1204216593
C  C289  1  0.24800000  0.81750000  0.11780000  1.0 0.1300444442
C  C290  1  0.75200000  0.31750000  0.88220000  1.0 0.1300444442
C  C291  1  0.27050000  0.96260000  0.09350000  1.0 -0.4598606528
C  C292  1  0.72950000  0.46260000  0.90650000  1.0 -0.4598606528
C  C293  1  0.35220000  0.88800000  0.00400000  1.0 -0.4798686506
C  C294  1  0.64780000  0.38800000  0.99600000  1.0 -0.4798686506
C  C295  1  0.27400000  0.65100000  0.06310000  1.0 -0.4403104609
C  C296  1  0.72600000  0.15100000  0.93690000  1.0 -0.4403104609
C  C297  1  0.18850000  0.62570000  0.18100000  1.0 -0.4493427942
C  C298  1  0.81150000  0.12570000  0.81900000  1.0 -0.4493427942
C  C299  1  0.69610000  0.20770000  0.30240000  1.0 -0.0300724476
C  C300  1  0.30390000  0.70770000  0.69760000  1.0 -0.0300724476
C  C301  1  0.72140000  0.24120000  0.34550000  1.0 0.0899688145
C  C302  1  0.27860000  0.74120000  0.65450000  1.0 0.0899688145
C  C303  1  0.76120000  0.22650000  0.40130000  1.0 0.1002246477
C  C304  1  0.23880000  0.72650000  0.59870000  1.0 0.1002246477
C  C305  1  0.77340000  0.17930000  0.41060000  1.0 -0.0195535009
C  C306  1  0.22660000  0.67930000  0.58940000  1.0 -0.0195535009
C  C307  1  0.81090000  0.15580000  0.46180000  1.0 -0.1225470436
C  C308  1  0.18910000  0.65580000  0.53820000  1.0 -0.1225470436
C  C309  1  0.82100000  0.11220000  0.46830000  1.0 -0.107860976
C  C310  1  0.17900000  0.61220000  0.53170000  1.0 -0.107860976
C  C311  1  0.79500000  0.08040000  0.42490000  1.0 -0.0195535009
C  C312  1  0.20500000  0.58040000  0.57510000  1.0 -0.0195535009
C  C313  1  0.80570000  0.03030000  0.43140000  1.0 0.1002246477
C  C314  1  0.19430000  0.53030000  0.56860000  1.0 0.1002246477
C  C315  1  0.77650000  0.00540000  0.38400000  1.0 0.0599524729
C  C316  1  0.22350000  0.50540000  0.61600000  1.0 0.0599524729
C  C317  1  0.74100000  0.02350000  0.33540000  1.0 -0.0705960506
C  C318  1  0.25900000  0.52350000  0.66460000  1.0 -0.0705960506
C  C319  1  0.75620000  0.09690000  0.37020000  1.0 0.159477199
C  C320  1  0.24380000  0.59690000  0.62980000  1.0 0.159477199
C  C321  1  0.74580000  0.14700000  0.36410000  1.0 0.1204216593
C  C322  1  0.25420000  0.64700000  0.63590000  1.0 0.1204216593
C  C323  1  0.71080000  0.29130000  0.32890000  1.0 -0.4598606528
C  C324  1  0.28920000  0.79130000  0.67110000  1.0 -0.4598606528
C  C325  1  0.78550000  0.26460000  0.44910000  1.0 -0.4403104609
C  C326  1  0.21450000  0.76460000  0.55090000  1.0 -0.4403104609
C  C327  1  0.84740000  0.01350000  0.48910000  1.0 -0.4706065209
C  C328  1  0.15260000  0.51350000  0.51090000  1.0 -0.4706065209
C  C329  1  0.78440000  0.95140000  0.38640000  1.0 -0.4403104609
C  C330  1  0.21560000  0.45140000  0.61360000  1.0 -0.4318702116
C  C331  1  0.64150000  0.28100000  0.75210000  1.0 -0.0705960506
C  C332  1  0.35850000  0.78100000  0.24790000  1.0 -0.0705960506
C  C333  1  0.60080000  0.27130000  0.80070000  1.0 0.0599524729
C  C334  1  0.39920000  0.77130000  0.19930000  1.0 0.0599524729
C  C335  1  0.57220000  0.29880000  0.83800000  1.0 0.0899688145
C  C336  1  0.42780000  0.79880000  0.16200000  1.0 0.0899688145
C  C337  1  0.58590000  0.34910000  0.82390000  1.0 -0.0195535009
C  C338  1  0.41410000  0.84910000  0.17610000  1.0 -0.0195535009
C  C339  1  0.54820000  0.38800000  0.85590000  1.0 -0.1281639991
C  C340  1  0.45180000  0.88800000  0.14410000  1.0 -0.1281639991
C  C341  1  0.55870000  0.43210000  0.83770000  1.0 -0.107860976
C  C342  1  0.44130000  0.93210000  0.16230000  1.0 -0.107860976
C  C343  1  0.60170000  0.44350000  0.78800000  1.0 -0.0124938891
C  C344  1  0.39830000  0.94350000  0.21200000  1.0 -0.0124938891
C  C345  1  0.61380000  0.48880000  0.77170000  1.0 0.1204216593
C  C346  1  0.38620000  0.98880000  0.22830000  1.0 0.1204216593
C  C347  1  0.66320000  0.49870000  0.72120000  1.0 0.0726052869
C  C348  1  0.33680000  0.99870000  0.27880000  1.0 0.0800210981
C  C349  1  0.69390000  0.46180000  0.69230000  1.0 0.0195125189
C  C350  1  0.30610000  0.96180000  0.30770000  1.0 0.0195125189
C  C351  1  0.63430000  0.41110000  0.75560000  1.0 0.0800210981
C  C352  1  0.36570000  0.91110000  0.24440000  1.0 0.0800210981
C  C353  1  0.62550000  0.35950000  0.76960000  1.0 0.1678018375
C  C354  1  0.37450000  0.85950000  0.23040000  1.0 0.1678018375
C  C355  1  0.59960000  0.21940000  0.80920000  1.0 -0.4403104609
C  C356  1  0.40040000  0.71940000  0.19080000  1.0 -0.4403104609
C  C357  1  0.53070000  0.28710000  0.89850000  1.0 -0.4598606528
C  C358  1  0.46930000  0.78710000  0.10150000  1.0 -0.4598606528
C  C359  1  0.57750000  0.52970000  0.80090000  1.0 -0.4493427942
C  C360  1  0.42250000  0.02970000  0.19910000  1.0 -0.4493427942
C  C361  1  0.67870000  0.54610000  0.69920000  1.0 -0.4493427942
C  C362  1  0.32130000  0.04610000  0.30080000  1.0 -0.4493427942
C  C363  1  0.86390000  0.13660000  0.25010000  1.0 -0.0416162116
C  C364  1  0.13610000  0.63660000  0.74990000  1.0 -0.0416162116
C  C365  1  0.90440000  0.14820000  0.29870000  1.0 0.0494018371
C  C366  1  0.09560000  0.64820000  0.70130000  1.0 0.0494018371
C  C367  1  0.93700000  0.11580000  0.33300000  1.0 0.1002246477
C  C368  1  0.06300000  0.61580000  0.66700000  1.0 0.1002246477
C  C369  1  0.92740000  0.06440000  0.31460000  1.0 -0.0124938891
C  C370  1  0.07260000  0.56440000  0.68540000  1.0 -0.0124938891
C  C371  1  0.96070000  0.02680000  0.34850000  1.0 -0.1281639991
C  C372  1  0.03930000  0.52680000  0.65150000  1.0 -0.1281639991
C  C373  1  0.94950000  0.98130000  0.32910000  1.0 -0.107860976
C  C374  1  0.05050000  0.48130000  0.67090000  1.0 -0.107860976
C  C375  1  0.90310000  0.96840000  0.27350000  1.0 -0.0195535009
C  C376  1  0.09690000  0.46840000  0.72650000  1.0 -0.0195535009
C  C377  1  0.88980000  0.92640000  0.25310000  1.0 0.0726052869
C  C378  1  0.11020000  0.42640000  0.74690000  1.0 0.0726052869
C  C379  1  0.84540000  0.92280000  0.20150000  1.0 0.0800210981
C  C380  1  0.15460000  0.42280000  0.79850000  1.0 0.0800210981
C  C381  1  0.81800000  0.96300000  0.17430000  1.0 -0.0124938891
C  C382  1  0.18200000  0.46300000  0.82570000  1.0 -0.0124938891
C  C383  1  0.87020000  0.00910000  0.24090000  1.0 0.1503747879
C  C384  1  0.12980000  0.50910000  0.75910000  1.0 0.1503747879
C  C385  1  0.88580000  0.05880000  0.26550000  1.0 0.1204216593
C  C386  1  0.11420000  0.55880000  0.73450000  1.0 0.1204216593
C  C387  1  0.91200000  0.20020000  0.31710000  1.0 -0.4403104609
C  C388  1  0.08800000  0.70020000  0.68290000  1.0 -0.4493427942
C  C389  1  0.98520000  0.12560000  0.39510000  1.0 -0.4598606528
C  C390  1  0.01480000  0.62560000  0.60490000  1.0 -0.4598606528
C  C391  1  0.92280000  0.88640000  0.28450000  1.0 -0.4318702116
C  C392  1  0.07720000  0.38640000  0.71550000  1.0 -0.4318702116
C  C393  1  0.82350000  0.87360000  0.17620000  1.0 -0.4403104609
C  C394  1  0.17650000  0.37360000  0.82380000  1.0 -0.4403104609
C  C395  1  0.12200000  0.19740000  0.22110000  1.0 -0.0416162116
C  C396  1  0.87800000  0.69740000  0.77890000  1.0 -0.0416162116
C  C397  1  0.07740000  0.22480000  0.26720000  1.0 -0.2191400761
C  C398  1  0.92260000  0.72480000  0.73280000  1.0 -0.2191400761
C  C399  1  0.48310000  0.38900000  0.16890000  1.0 -0.0195535009
C  C400  1  0.51690000  0.88900000  0.83110000  1.0 -0.0195535009
C  C401  1  0.50330000  0.41510000  0.10810000  1.0 -0.1996383221
C  C402  1  0.49670000  0.91510000  0.89190000  1.0 -0.1996383221
C  C403  1  0.55310000  0.45470000  0.12150000  1.0 -0.0912730907
C  C404  1  0.44690000  0.95470000  0.87850000  1.0 -0.0912730907
C  C405  1  0.52600000  0.49040000  0.17110000  1.0 -0.3921577584
C  C406  1  0.47400000  0.99040000  0.82890000  1.0 -0.3921577584
C  C407  1  0.01910000  0.00340000  0.60990000  1.0 -0.1996383221
C  C408  1  0.98090000  0.50340000  0.39010000  1.0 -0.1996383221
C  C409  1  0.03470000  0.03790000  0.66560000  1.0 -0.0300724476
C  C410  1  0.96530000  0.53790000  0.33440000  1.0 -0.0300724476
C  C411  1  0.76700000  0.94070000  0.61030000  1.0 -0.2191400761
C  C412  1  0.23300000  0.44070000  0.38970000  1.0 -0.2129583211
C  C413  1  0.73220000  0.90800000  0.56060000  1.0 -0.0986279399
C  C414  1  0.26780000  0.40800000  0.43940000  1.0 -0.0986279399
C  C415  1  0.77730000  0.86900000  0.53950000  1.0 -0.3921577584
C  C416  1  0.22270000  0.36900000  0.46050000  1.0 -0.3921577584
C  C417  1  0.80700000  0.45110000  0.15420000  1.0 -0.0705960506
C  C418  1  0.19300000  0.95110000  0.84580000  1.0 -0.0705960506
C  C419  1  0.98570000  0.95920000  0.63870000  1.0 -0.0912730907
C  C420  1  0.01430000  0.45920000  0.36130000  1.0 -0.0912730907
C  C421  1  0.73700000  0.52290000  0.18200000  1.0 -0.0416162116
C  C422  1  0.26300000  0.02290000  0.81800000  1.0 -0.0451312327
C  C423  1  0.76100000  0.49090000  0.12770000  1.0 -0.1281639991
C  C424  1  0.23900000  0.99090000  0.87230000  1.0 -0.1281639991
C  C425  1  0.99400000  0.91520000  0.68030000  1.0 -0.3921577584
C  C426  1  0.00600000  0.41520000  0.31970000  1.0 -0.3921577584
C  C427  1  0.68800000  0.56060000  0.15800000  1.0 -0.4107518346
C  C428  1  0.31200000  0.06060000  0.84200000  1.0 -0.4107518346
C  C429  1  0.13610000  0.21290000  0.55400000  1.0 -0.107860976
C  C430  1  0.86390000  0.71290000  0.44600000  1.0 -0.107860976
C  C431  1  0.06690000  0.23850000  0.55700000  1.0 -0.3921577584
C  C432  1  0.93310000  0.73850000  0.44300000  1.0 -0.3921577584
C  C433  1  0.77800000  0.53450000  0.18600000  1.0 0.0397010923
C  C434  1  0.22200000  0.03450000  0.81400000  1.0 0.0397010923
C  C435  1  0.79600000  0.57450000  0.23500000  1.0 -0.4107518346
C  C436  1  0.20400000  0.07450000  0.76500000  1.0 -0.4107518346
C  C437  1  0.82790000  0.49390000  0.19400000  1.0 -0.1808577653
C  C438  1  0.17210000  0.99390000  0.80600000  1.0 -0.1808577653
N  N1  1  0.21590000  0.84860000  0.15690000  1.0 -0.2906346982
N  N2  1  0.78410000  0.34860000  0.84310000  1.0 -0.2906346982
N  N3  1  0.19510000  0.75820000  0.18090000  1.0 -0.2622113055
N  N4  1  0.80490000  0.25820000  0.81910000  1.0 -0.2622113055
N  N5  1  0.70760000  0.15970000  0.31090000  1.0 -0.3025001676
N  N6  1  0.29240000  0.65970000  0.68910000  1.0 -0.3025001676
N  N7  1  0.72790000  0.07240000  0.32500000  1.0 -0.2700949064
N  N8  1  0.27210000  0.57240000  0.67500000  1.0 -0.2700949064
N  N9  1  0.65740000  0.32970000  0.73520000  1.0 -0.2796570255
N  N10  1  0.34260000  0.82970000  0.26480000  1.0 -0.2796570255
N  N11  1  0.68260000  0.41680000  0.70550000  1.0 -0.3025001676
N  N12  1  0.31740000  0.91680000  0.29450000  1.0 -0.3025001676
N  N13  1  0.85110000  0.09030000  0.22930000  1.0 -0.3181932123
N  N14  1  0.14890000  0.59030000  0.77070000  1.0 -0.3181932123
N  N15  1  0.82980000  0.00510000  0.19370000  1.0 -0.1808577653
N  N16  1  0.17020000  0.50510000  0.80630000  1.0 -0.1808577653
O  O1  1  0.75250000  0.74100000  0.10580000  1.0 -0.3921577584
O  O2  1  0.24750000  0.24100000  0.89420000  1.0 -0.3921577584
O  O3  1  0.65840000  0.75510000  0.19980000  1.0 -0.2374885878
O  O4  1  0.34160000  0.25510000  0.80020000  1.0 -0.2374885878
O  O5  1  0.62590000  0.82960000  0.10220000  1.0 -0.4318702116
O  O6  1  0.37410000  0.32960000  0.89780000  1.0 -0.4318702116
O  O7  1  0.69820000  0.80790000  0.99750000  1.0 -0.2485174091
O  O8  1  0.30180000  0.30790000  0.00250000  1.0 -0.2485174091
O  O9  1  0.03720000  0.78440000  0.24670000  1.0 -0.5892537684
O  O10  1  0.96280000  0.28440000  0.75330000  1.0 -0.5892537684
O  O11  1  0.05970000  0.80610000  0.14010000  1.0 -0.4957037569
O  O12  1  0.94030000  0.30610000  0.85990000  1.0 -0.4957037569
O  O13  1  0.67420000  0.04080000  0.17540000  1.0 -0.6387717576
O  O14  1  0.32580000  0.54080000  0.82460000  1.0 -0.6387717576
O  O15  1  0.59620000  0.02380000  0.24740000  1.0 -0.4318702116
O  O16  1  0.40380000  0.52380000  0.75260000  1.0 -0.4318702116
O  O17  1  0.26440000  0.18000000  0.36330000  1.0 -0.4212204666
O  O18  1  0.73560000  0.68000000  0.63670000  1.0 -0.4212204666
O  O19  1  0.16790000  0.16390000  0.25910000  1.0 -0.1281639991
O  O20  1  0.83210000  0.66390000  0.74090000  1.0 -0.1281639991
O  O21  1  0.13760000  0.09660000  0.35680000  1.0 -0.4010727208
O  O22  1  0.86240000  0.59660000  0.64320000  1.0 -0.4010727208
O  O23  1  0.21720000  0.11670000  0.47100000  1.0 -0.1595060103
O  O24  1  0.78280000  0.61670000  0.52900000  1.0 -0.1595060103
O  O25  1  0.57090000  0.11360000  0.33520000  1.0 -0.5581075997
O  O26  1  0.42910000  0.61360000  0.66480000  1.0 -0.5581075997
O  O27  1  0.54760000  0.13820000  0.23310000  1.0 -0.5538450034
O  O28  1  0.45240000  0.63820000  0.76690000  1.0 -0.5538450034
O  O29  1  0.16290000  0.88230000  0.30290000  1.0 -0.527709678
O  O30  1  0.83710000  0.38230000  0.69710000  1.0 -0.527709678
O  O31  1  0.08850000  0.89980000  0.22830000  1.0 -0.5095972867
O  O32  1  0.91150000  0.39980000  0.77170000  1.0 -0.5095972867
O  O33  1  0.65560000  0.42800000  0.26530000  1.0 -0.4493427942
O  O34  1  0.34440000  0.92800000  0.73470000  1.0 -0.4493427942
O  O35  1  0.77240000  0.41380000  0.18920000  1.0 -0.2796570255
O  O36  1  0.22760000  0.91380000  0.81080000  1.0 -0.2796570255
O  O37  1  0.66980000  0.34800000  0.14380000  1.0 -0.4858114423
O  O38  1  0.33020000  0.84800000  0.85620000  1.0 -0.4858114423
O  O39  1  0.54930000  0.37180000  0.19640000  1.0 -0.2329624992
O  O40  1  0.45070000  0.87180000  0.80360000  1.0 -0.2329624992
O  O41  1  0.64490000  0.37220000  0.56440000  1.0 -0.5711473526
O  O42  1  0.35510000  0.87220000  0.43560000  1.0 -0.5711473526
O  O43  1  0.75560000  0.38340000  0.55370000  1.0 -0.4598606528
O  O44  1  0.24440000  0.88340000  0.44630000  1.0 -0.4598606528
O  O45  1  0.70660000  0.13120000  0.15690000  1.0 -0.4493427942
O  O46  1  0.29340000  0.63120000  0.84310000  1.0 -0.4493427942
O  O47  1  0.79720000  0.15080000  0.10200000  1.0 -0.527709678
O  O48  1  0.20280000  0.65080000  0.89800000  1.0 -0.527709678
O  O49  1  0.85990000  0.99360000  0.75580000  1.0 -0.4798686506
O  O50  1  0.14010000  0.49360000  0.24420000  1.0 -0.4798686506
O  O51  1  0.75000000  0.00860000  0.67390000  1.0 -0.2485174091
O  O52  1  0.25000000  0.50860000  0.32610000  1.0 -0.2485174091
O  O53  1  0.84980000  0.07680000  0.62970000  1.0 -0.4403104609
O  O54  1  0.15020000  0.57680000  0.37030000  1.0 -0.4403104609
O  O55  1  0.96880000  0.05230000  0.69520000  1.0 -0.2374885878
O  O56  1  0.03120000  0.55230000  0.30480000  1.0 -0.2329624992
O  O57  1  0.75910000  0.04220000  0.04080000  1.0 -0.4957037569
O  O58  1  0.24090000  0.54220000  0.95920000  1.0 -0.4957037569
O  O59  1  0.86850000  0.05790000  0.05560000  1.0 -0.5711473526
O  O60  1  0.13150000  0.55790000  0.94440000  1.0 -0.5711473526
O  O61  1  0.80480000  0.29290000  0.66900000  1.0 -0.5538450034
O  O62  1  0.19520000  0.79290000  0.33100000  1.0 -0.5538450034
O  O63  1  0.71340000  0.27340000  0.61250000  1.0 -0.4598606528
O  O64  1  0.28660000  0.77340000  0.38750000  1.0 -0.4598606528
