# DDEC6 charges by PACMAN v1.1 (https://github.com/mtap-research/PACMAN-charge/)
data_NIXPOA_ion_pacman
_symmetry_space_group_name_H-M   'P 1'
_cell_length_a   12.31600000
_cell_length_b   21.46800000
_cell_length_c   26.87000000
_cell_angle_alpha   90.00000000
_cell_angle_beta   90.00000000
_cell_angle_gamma   90.00000000
_symmetry_Int_Tables_number   1
_chemical_formula_structural   Ag4H32C39S19N8(OF)9
_chemical_formula_sum   'Ag16 H128 C156 S76 N32 O36 F36'
_cell_volume   7104.42499056
_cell_formula_units_Z   4
loop_
 _symmetry_equiv_pos_site_id
 _symmetry_equiv_pos_as_xyz
  1  'x, y, z'
loop_
 _atom_site_type_symbol
 _atom_site_label
 _atom_site_symmetry_multiplicity
 _atom_site_fract_x
 _atom_site_fract_y
 _atom_site_fract_z
 _atom_site_occupancy
 _atom_site_charge
Ag  Ag1  1  0.00000000  0.88206000  0.50000000  1.0 0.3809615845
Ag  Ag2  1  0.50000000  0.61794000  0.00000000  1.0 0.3809615845
Ag  Ag3  1  0.00000000  0.11794000  0.50000000  1.0 0.3809615845
Ag  Ag4  1  0.50000000  0.38206000  0.00000000  1.0 0.3809615845
Ag  Ag5  1  0.00000000  0.63206000  0.50000000  1.0 0.3809615845
Ag  Ag6  1  0.50000000  0.86794000  0.00000000  1.0 0.3809615845
Ag  Ag7  1  0.00000000  0.36794000  0.50000000  1.0 0.3809615845
Ag  Ag8  1  0.50000000  0.13206000  0.00000000  1.0 0.3809615845
Ag  Ag9  1  0.90506000  0.75422000  0.77426000  1.0 0.4982692176
Ag  Ag10  1  0.09494000  0.75422000  0.22574000  1.0 0.4982692176
Ag  Ag11  1  0.59494000  0.74578000  0.27426000  1.0 0.4982692176
Ag  Ag12  1  0.40506000  0.74578000  0.72574000  1.0 0.4982692176
Ag  Ag13  1  0.09494000  0.24578000  0.22574000  1.0 0.4982692176
Ag  Ag14  1  0.90506000  0.24578000  0.77426000  1.0 0.4982692176
Ag  Ag15  1  0.40506000  0.25422000  0.72574000  1.0 0.4982692176
Ag  Ag16  1  0.59494000  0.25422000  0.27426000  1.0 0.4982692176
H  H1  1  0.05870000  0.92930000  0.62720000  1.0 0.145443956
H  H2  1  0.94130000  0.92930000  0.37280000  1.0 0.145443956
H  H3  1  0.44130000  0.57070000  0.12720000  1.0 0.145443956
H  H4  1  0.55870000  0.57070000  0.87280000  1.0 0.145443956
H  H5  1  0.94130000  0.07070000  0.37280000  1.0 0.145443956
H  H6  1  0.05870000  0.07070000  0.62720000  1.0 0.145443956
H  H7  1  0.55870000  0.42930000  0.87280000  1.0 0.145443956
H  H8  1  0.44130000  0.42930000  0.12720000  1.0 0.145443956
H  H9  1  0.17100000  0.91740000  0.60280000  1.0 0.1295786604
H  H10  1  0.82900000  0.91740000  0.39720000  1.0 0.1295786604
H  H11  1  0.32900000  0.58260000  0.10280000  1.0 0.1295786604
H  H12  1  0.67100000  0.58260000  0.89720000  1.0 0.1295786604
H  H13  1  0.82900000  0.08260000  0.39720000  1.0 0.1295786604
H  H14  1  0.17100000  0.08260000  0.60280000  1.0 0.1295786604
H  H15  1  0.67100000  0.41740000  0.89720000  1.0 0.1295786604
H  H16  1  0.32900000  0.41740000  0.10280000  1.0 0.1295786604
H  H17  1  0.17590000  0.90890000  0.69050000  1.0 0.1412387099
H  H18  1  0.82410000  0.90890000  0.30950000  1.0 0.1412387099
H  H19  1  0.32410000  0.59110000  0.19050000  1.0 0.1412387099
H  H20  1  0.67590000  0.59110000  0.80950000  1.0 0.1412387099
H  H21  1  0.82410000  0.09110000  0.30950000  1.0 0.1412387099
H  H22  1  0.17590000  0.09110000  0.69050000  1.0 0.1412387099
H  H23  1  0.67590000  0.40890000  0.80950000  1.0 0.1412387099
H  H24  1  0.32410000  0.40890000  0.19050000  1.0 0.1412387099
H  H25  1  0.21840000  0.84950000  0.66400000  1.0 0.1195106376
H  H26  1  0.78160000  0.84950000  0.33600000  1.0 0.1195106376
H  H27  1  0.28160000  0.65050000  0.16400000  1.0 0.1195106376
H  H28  1  0.71840000  0.65050000  0.83600000  1.0 0.1195106376
H  H29  1  0.78160000  0.15050000  0.33600000  1.0 0.1195106376
H  H30  1  0.21840000  0.15050000  0.66400000  1.0 0.1195106376
H  H31  1  0.71840000  0.34950000  0.83600000  1.0 0.1195106376
H  H32  1  0.28160000  0.34950000  0.16400000  1.0 0.1195106376
H  H33  1  0.12470000  0.60320000  0.61010000  1.0 0.1295786604
H  H34  1  0.87530000  0.60320000  0.38990000  1.0 0.1295786604
H  H35  1  0.37530000  0.89680000  0.11010000  1.0 0.1295786604
H  H36  1  0.62470000  0.89680000  0.88990000  1.0 0.1295786604
H  H37  1  0.87530000  0.39680000  0.38990000  1.0 0.1295786604
H  H38  1  0.12470000  0.39680000  0.61010000  1.0 0.1295786604
H  H39  1  0.62470000  0.10320000  0.88990000  1.0 0.1295786604
H  H40  1  0.37530000  0.10320000  0.11010000  1.0 0.1295786604
H  H41  1  0.00240000  0.59420000  0.62180000  1.0 0.1412387099
H  H42  1  0.99760000  0.59420000  0.37820000  1.0 0.1412387099
H  H43  1  0.49760000  0.90580000  0.12180000  1.0 0.1412387099
H  H44  1  0.50240000  0.90580000  0.87820000  1.0 0.1412387099
H  H45  1  0.99760000  0.40580000  0.37820000  1.0 0.1412387099
H  H46  1  0.00240000  0.40580000  0.62180000  1.0 0.1412387099
H  H47  1  0.50240000  0.09420000  0.87820000  1.0 0.1412387099
H  H48  1  0.49760000  0.09420000  0.12180000  1.0 0.1412387099
H  H49  1  0.08030000  0.60510000  0.69600000  1.0 0.1412387099
H  H50  1  0.91970000  0.60510000  0.30400000  1.0 0.1412387099
H  H51  1  0.41970000  0.89490000  0.19600000  1.0 0.1412387099
H  H52  1  0.58030000  0.89490000  0.80400000  1.0 0.1412387099
H  H53  1  0.91970000  0.39490000  0.30400000  1.0 0.1412387099
H  H54  1  0.08030000  0.39490000  0.69600000  1.0 0.1412387099
H  H55  1  0.58030000  0.10510000  0.80400000  1.0 0.1412387099
H  H56  1  0.41970000  0.10510000  0.19600000  1.0 0.1412387099
H  H57  1  0.02480000  0.66880000  0.68620000  1.0 0.1295786604
H  H58  1  0.97520000  0.66880000  0.31380000  1.0 0.1295786604
H  H59  1  0.47520000  0.83120000  0.18620000  1.0 0.1295786604
H  H60  1  0.52480000  0.83120000  0.81380000  1.0 0.1295786604
H  H61  1  0.97520000  0.33120000  0.31380000  1.0 0.1295786604
H  H62  1  0.02480000  0.33120000  0.68620000  1.0 0.1295786604
H  H63  1  0.52480000  0.16880000  0.81380000  1.0 0.1295786604
H  H64  1  0.47520000  0.16880000  0.18620000  1.0 0.1295786604
H  H65  1  0.68770000  0.88390000  0.61140000  1.0 0.1073819982
H  H66  1  0.31230000  0.88390000  0.38860000  1.0 0.1073819982
H  H67  1  0.81230000  0.61610000  0.11140000  1.0 0.1073819982
H  H68  1  0.18770000  0.61610000  0.88860000  1.0 0.1073819982
H  H69  1  0.31230000  0.11610000  0.38860000  1.0 0.1073819982
H  H70  1  0.68770000  0.11610000  0.61140000  1.0 0.1073819982
H  H71  1  0.18770000  0.38390000  0.88860000  1.0 0.1073819982
H  H72  1  0.81230000  0.38390000  0.11140000  1.0 0.1073819982
H  H73  1  0.80890000  0.89560000  0.62410000  1.0 0.1412387099
H  H74  1  0.19110000  0.89560000  0.37590000  1.0 0.1412387099
H  H75  1  0.69110000  0.60440000  0.12410000  1.0 0.1412387099
H  H76  1  0.30890000  0.60440000  0.87590000  1.0 0.1412387099
H  H77  1  0.19110000  0.10440000  0.37590000  1.0 0.1412387099
H  H78  1  0.80890000  0.10440000  0.62410000  1.0 0.1412387099
H  H79  1  0.30890000  0.39560000  0.87590000  1.0 0.1412387099
H  H80  1  0.69110000  0.39560000  0.12410000  1.0 0.1412387099
H  H81  1  0.71940000  0.89740000  0.69630000  1.0 0.1412387099
H  H82  1  0.28060000  0.89740000  0.30370000  1.0 0.1412387099
H  H83  1  0.78060000  0.60260000  0.19630000  1.0 0.1412387099
H  H84  1  0.21940000  0.60260000  0.80370000  1.0 0.1412387099
H  H85  1  0.28060000  0.10260000  0.30370000  1.0 0.1412387099
H  H86  1  0.71940000  0.10260000  0.69630000  1.0 0.1412387099
H  H87  1  0.21940000  0.39740000  0.80370000  1.0 0.1412387099
H  H88  1  0.78060000  0.39740000  0.19630000  1.0 0.1412387099
H  H89  1  0.78480000  0.83570000  0.69580000  1.0 0.1295786604
H  H90  1  0.21520000  0.83570000  0.30420000  1.0 0.1295786604
H  H91  1  0.71520000  0.66430000  0.19580000  1.0 0.1295786604
H  H92  1  0.28480000  0.66430000  0.80420000  1.0 0.1295786604
H  H93  1  0.21520000  0.16430000  0.30420000  1.0 0.1295786604
H  H94  1  0.78480000  0.16430000  0.69580000  1.0 0.1295786604
H  H95  1  0.28480000  0.33570000  0.80420000  1.0 0.1295786604
H  H96  1  0.71520000  0.33570000  0.19580000  1.0 0.1295786604
H  H97  1  0.75560000  0.56040000  0.64450000  1.0 0.1295786604
H  H98  1  0.24440000  0.56040000  0.35550000  1.0 0.1295786604
H  H99  1  0.74440000  0.93960000  0.14450000  1.0 0.1295786604
H  H100  1  0.25560000  0.93960000  0.85550000  1.0 0.1295786604
H  H101  1  0.24440000  0.43960000  0.35550000  1.0 0.1295786604
H  H102  1  0.75560000  0.43960000  0.64450000  1.0 0.1295786604
H  H103  1  0.25560000  0.06040000  0.85550000  1.0 0.1295786604
H  H104  1  0.74440000  0.06040000  0.14450000  1.0 0.1295786604
H  H105  1  0.64350000  0.56890000  0.61910000  1.0 0.1195106376
H  H106  1  0.35650000  0.56890000  0.38090000  1.0 0.1195106376
H  H107  1  0.85650000  0.93110000  0.11910000  1.0 0.1195106376
H  H108  1  0.14350000  0.93110000  0.88090000  1.0 0.1195106376
H  H109  1  0.35650000  0.43110000  0.38090000  1.0 0.1195106376
H  H110  1  0.64350000  0.43110000  0.61910000  1.0 0.1195106376
H  H111  1  0.14350000  0.06890000  0.88090000  1.0 0.1195106376
H  H112  1  0.85650000  0.06890000  0.11910000  1.0 0.1195106376
H  H113  1  0.63770000  0.58620000  0.70560000  1.0 0.1412387099
H  H114  1  0.36230000  0.58620000  0.29440000  1.0 0.1412387099
H  H115  1  0.86230000  0.91380000  0.20560000  1.0 0.1412387099
H  H116  1  0.13770000  0.91380000  0.79440000  1.0 0.1412387099
H  H117  1  0.36230000  0.41380000  0.29440000  1.0 0.1412387099
H  H118  1  0.63770000  0.41380000  0.70560000  1.0 0.1412387099
H  H119  1  0.13770000  0.08620000  0.79440000  1.0 0.1412387099
H  H120  1  0.86230000  0.08620000  0.20560000  1.0 0.1412387099
H  H121  1  0.59370000  0.64220000  0.67510000  1.0 0.1295786604
H  H122  1  0.40630000  0.64220000  0.32490000  1.0 0.1295786604
H  H123  1  0.90630000  0.85780000  0.17510000  1.0 0.1295786604
H  H124  1  0.09370000  0.85780000  0.82490000  1.0 0.1295786604
H  H125  1  0.40630000  0.35780000  0.32490000  1.0 0.1295786604
H  H126  1  0.59370000  0.35780000  0.67510000  1.0 0.1295786604
H  H127  1  0.09370000  0.14220000  0.82490000  1.0 0.1295786604
H  H128  1  0.90630000  0.14220000  0.17510000  1.0 0.1295786604
C  C1  1  0.35410000  0.74540000  0.55720000  1.0 -0.0997079773
C  C2  1  0.64590000  0.74540000  0.44280000  1.0 -0.0997079773
C  C3  1  0.14590000  0.75460000  0.05720000  1.0 -0.0997079773
C  C4  1  0.85410000  0.75460000  0.94280000  1.0 -0.0997079773
C  C5  1  0.64590000  0.25460000  0.44280000  1.0 -0.0997079773
C  C6  1  0.35410000  0.25460000  0.55720000  1.0 -0.0997079773
C  C7  1  0.85410000  0.24540000  0.94280000  1.0 -0.0997079773
C  C8  1  0.14590000  0.24540000  0.05720000  1.0 -0.0997079773
C  C9  1  0.16320000  0.78720000  0.57190000  1.0 -0.0918730748
C  C10  1  0.83680000  0.78720000  0.42810000  1.0 -0.0918730748
C  C11  1  0.33680000  0.71280000  0.07190000  1.0 -0.0918730748
C  C12  1  0.66320000  0.71280000  0.92810000  1.0 -0.0918730748
C  C13  1  0.83680000  0.21280000  0.42810000  1.0 -0.0918730748
C  C14  1  0.16320000  0.21280000  0.57190000  1.0 -0.0918730748
C  C15  1  0.66320000  0.28720000  0.92810000  1.0 -0.0918730748
C  C16  1  0.33680000  0.28720000  0.07190000  1.0 -0.0918730748
C  C17  1  0.15340000  0.72470000  0.57200000  1.0 -0.0918730748
C  C18  1  0.84660000  0.72470000  0.42800000  1.0 -0.0918730748
C  C19  1  0.34660000  0.77530000  0.07200000  1.0 -0.0918730748
C  C20  1  0.65340000  0.77530000  0.92800000  1.0 -0.0918730748
C  C21  1  0.84660000  0.27530000  0.42800000  1.0 -0.0918730748
C  C22  1  0.15340000  0.27530000  0.57200000  1.0 -0.0918730748
C  C23  1  0.65340000  0.22470000  0.92800000  1.0 -0.0918730748
C  C24  1  0.34660000  0.22470000  0.07200000  1.0 -0.0918730748
C  C25  1  0.46310000  0.73950000  0.56230000  1.0 -0.0997079773
C  C26  1  0.53690000  0.73950000  0.43770000  1.0 -0.0997079773
C  C27  1  0.03690000  0.76050000  0.06230000  1.0 -0.0997079773
C  C28  1  0.96310000  0.76050000  0.93770000  1.0 -0.0997079773
C  C29  1  0.53690000  0.26050000  0.43770000  1.0 -0.0997079773
C  C30  1  0.46310000  0.26050000  0.56230000  1.0 -0.0997079773
C  C31  1  0.96310000  0.23950000  0.93770000  1.0 -0.0997079773
C  C32  1  0.03690000  0.23950000  0.06230000  1.0 -0.0997079773
C  C33  1  0.66390000  0.75940000  0.58310000  1.0 -0.0787330134
C  C34  1  0.33610000  0.75940000  0.41690000  1.0 -0.0787330134
C  C35  1  0.83610000  0.74060000  0.08310000  1.0 -0.0787330134
C  C36  1  0.16390000  0.74060000  0.91690000  1.0 -0.0787330134
C  C37  1  0.33610000  0.24060000  0.41690000  1.0 -0.0787330134
C  C38  1  0.66390000  0.24060000  0.58310000  1.0 -0.0787330134
C  C39  1  0.16390000  0.25940000  0.91690000  1.0 -0.0787330134
C  C40  1  0.83610000  0.25940000  0.08310000  1.0 -0.0787330134
C  C41  1  0.65300000  0.69750000  0.58350000  1.0 -0.0787330134
C  C42  1  0.34700000  0.69750000  0.41650000  1.0 -0.0787330134
C  C43  1  0.84700000  0.80250000  0.08350000  1.0 -0.0787330134
C  C44  1  0.15300000  0.80250000  0.91650000  1.0 -0.0787330134
C  C45  1  0.34700000  0.30250000  0.41650000  1.0 -0.0787330134
C  C46  1  0.65300000  0.30250000  0.58350000  1.0 -0.0787330134
C  C47  1  0.15300000  0.19750000  0.91650000  1.0 -0.0787330134
C  C48  1  0.84700000  0.19750000  0.08350000  1.0 -0.0787330134
C  C49  1  0.11290000  0.89880000  0.62070000  1.0 -0.1633544428
C  C50  1  0.88710000  0.89880000  0.37930000  1.0 -0.1633544428
C  C51  1  0.38710000  0.60120000  0.12070000  1.0 -0.1633544428
C  C52  1  0.61290000  0.60120000  0.87930000  1.0 -0.1633544428
C  C53  1  0.88710000  0.10120000  0.37930000  1.0 -0.1633544428
C  C54  1  0.11290000  0.10120000  0.62070000  1.0 -0.1633544428
C  C55  1  0.61290000  0.39880000  0.87930000  1.0 -0.1633544428
C  C56  1  0.38710000  0.39880000  0.12070000  1.0 -0.1633544428
C  C57  1  0.15610000  0.87440000  0.67030000  1.0 -0.2388222696
C  C58  1  0.84390000  0.87440000  0.32970000  1.0 -0.2388222696
C  C59  1  0.34390000  0.62560000  0.17030000  1.0 -0.2388222696
C  C60  1  0.65610000  0.62560000  0.82970000  1.0 -0.2388222696
C  C61  1  0.84390000  0.12560000  0.32970000  1.0 -0.2388222696
C  C62  1  0.15610000  0.12560000  0.67030000  1.0 -0.2388222696
C  C63  1  0.65610000  0.37440000  0.82970000  1.0 -0.2388222696
C  C64  1  0.34390000  0.37440000  0.17030000  1.0 -0.2388222696
C  C65  1  0.07590000  0.83690000  0.69690000  1.0 0.3256120799
C  C66  1  0.92410000  0.83690000  0.30310000  1.0 0.3256120799
C  C67  1  0.42410000  0.66310000  0.19690000  1.0 0.3256120799
C  C68  1  0.57590000  0.66310000  0.80310000  1.0 0.3256120799
C  C69  1  0.92410000  0.16310000  0.30310000  1.0 0.3256120799
C  C70  1  0.07590000  0.16310000  0.69690000  1.0 0.3256120799
C  C71  1  0.57590000  0.33690000  0.80310000  1.0 0.3256120799
C  C72  1  0.42410000  0.33690000  0.19690000  1.0 0.3256120799
C  C73  1  0.06110000  0.62290000  0.62240000  1.0 -0.1782233854
C  C74  1  0.93890000  0.62290000  0.37760000  1.0 -0.1782233854
C  C75  1  0.43890000  0.87710000  0.12240000  1.0 -0.1782233854
C  C76  1  0.56110000  0.87710000  0.87760000  1.0 -0.1782233854
C  C77  1  0.93890000  0.37710000  0.37760000  1.0 -0.1782233854
C  C78  1  0.06110000  0.37710000  0.62240000  1.0 -0.1782233854
C  C79  1  0.56110000  0.12290000  0.87760000  1.0 -0.1782233854
C  C80  1  0.43890000  0.12290000  0.12240000  1.0 -0.1782233854
C  C81  1  0.08140000  0.64160000  0.67600000  1.0 -0.2388222696
C  C82  1  0.91860000  0.64160000  0.32400000  1.0 -0.2388222696
C  C83  1  0.41860000  0.85840000  0.17600000  1.0 -0.2388222696
C  C84  1  0.58140000  0.85840000  0.82400000  1.0 -0.2388222696
C  C85  1  0.91860000  0.35840000  0.32400000  1.0 -0.2388222696
C  C86  1  0.08140000  0.35840000  0.67600000  1.0 -0.2388222696
C  C87  1  0.58140000  0.14160000  0.82400000  1.0 -0.2388222696
C  C88  1  0.41860000  0.14160000  0.17600000  1.0 -0.2388222696
C  C89  1  0.18590000  0.67340000  0.68350000  1.0 0.3256120799
C  C90  1  0.81410000  0.67340000  0.31650000  1.0 0.3256120799
C  C91  1  0.31410000  0.82660000  0.18350000  1.0 0.3256120799
C  C92  1  0.68590000  0.82660000  0.81650000  1.0 0.3256120799
C  C93  1  0.81410000  0.32660000  0.31650000  1.0 0.3256120799
C  C94  1  0.18590000  0.32660000  0.68350000  1.0 0.3256120799
C  C95  1  0.68590000  0.17340000  0.81650000  1.0 0.3256120799
C  C96  1  0.31410000  0.17340000  0.18350000  1.0 0.3256120799
C  C97  1  0.75060000  0.86680000  0.62670000  1.0 -0.1680585804
C  C98  1  0.24940000  0.86680000  0.37330000  1.0 -0.1680585804
C  C99  1  0.74940000  0.63320000  0.12670000  1.0 -0.1680585804
C  C100  1  0.25060000  0.63320000  0.87330000  1.0 -0.1680585804
C  C101  1  0.24940000  0.13320000  0.37330000  1.0 -0.1680585804
C  C102  1  0.75060000  0.13320000  0.62670000  1.0 -0.1680585804
C  C103  1  0.25060000  0.36680000  0.87330000  1.0 -0.1680585804
C  C104  1  0.74940000  0.36680000  0.12670000  1.0 -0.1680585804
C  C105  1  0.72610000  0.85770000  0.68100000  1.0 -0.2542115574
C  C106  1  0.27390000  0.85770000  0.31900000  1.0 -0.2542115574
C  C107  1  0.77390000  0.64230000  0.18100000  1.0 -0.2542115574
C  C108  1  0.22610000  0.64230000  0.81900000  1.0 -0.2542115574
C  C109  1  0.27390000  0.14230000  0.31900000  1.0 -0.2542115574
C  C110  1  0.72610000  0.14230000  0.68100000  1.0 -0.2542115574
C  C111  1  0.22610000  0.35770000  0.81900000  1.0 -0.2542115574
C  C112  1  0.77390000  0.35770000  0.18100000  1.0 -0.2542115574
C  C113  1  0.62510000  0.82240000  0.68980000  1.0 0.3374793703
C  C114  1  0.37490000  0.82240000  0.31020000  1.0 0.3374793703
C  C115  1  0.87490000  0.67760000  0.18980000  1.0 0.3374793703
C  C116  1  0.12510000  0.67760000  0.81020000  1.0 0.3374793703
C  C117  1  0.37490000  0.17760000  0.31020000  1.0 0.3374793703
C  C118  1  0.62510000  0.17760000  0.68980000  1.0 0.3374793703
C  C119  1  0.12510000  0.32240000  0.81020000  1.0 0.3374793703
C  C120  1  0.87490000  0.32240000  0.18980000  1.0 0.3374793703
C  C121  1  0.70120000  0.58970000  0.63560000  1.0 -0.1875650449
C  C122  1  0.29880000  0.58970000  0.36440000  1.0 -0.1875650449
C  C123  1  0.79880000  0.91030000  0.13560000  1.0 -0.1875650449
C  C124  1  0.20120000  0.91030000  0.86440000  1.0 -0.1875650449
C  C125  1  0.29880000  0.41030000  0.36440000  1.0 -0.1875650449
C  C126  1  0.70120000  0.41030000  0.63560000  1.0 -0.1875650449
C  C127  1  0.20120000  0.08970000  0.86440000  1.0 -0.1875650449
C  C128  1  0.79880000  0.08970000  0.13560000  1.0 -0.1875650449
C  C129  1  0.65670000  0.61870000  0.68310000  1.0 -0.2614761939
C  C130  1  0.34330000  0.61870000  0.31690000  1.0 -0.2614761939
C  C131  1  0.84330000  0.88130000  0.18310000  1.0 -0.2614761939
C  C132  1  0.15670000  0.88130000  0.81690000  1.0 -0.2614761939
C  C133  1  0.34330000  0.38130000  0.31690000  1.0 -0.2614761939
C  C134  1  0.65670000  0.38130000  0.68310000  1.0 -0.2614761939
C  C135  1  0.15670000  0.11870000  0.81690000  1.0 -0.2614761939
C  C136  1  0.84330000  0.11870000  0.18310000  1.0 -0.2614761939
C  C137  1  0.73510000  0.65950000  0.70730000  1.0 0.3227703447
C  C138  1  0.26490000  0.65950000  0.29270000  1.0 0.3227703447
C  C139  1  0.76490000  0.84050000  0.20730000  1.0 0.3227703447
C  C140  1  0.23510000  0.84050000  0.79270000  1.0 0.3227703447
C  C141  1  0.26490000  0.34050000  0.29270000  1.0 0.3227703447
C  C142  1  0.73510000  0.34050000  0.70730000  1.0 0.3227703447
C  C143  1  0.23510000  0.15950000  0.79270000  1.0 0.3227703447
C  C144  1  0.76490000  0.15950000  0.20730000  1.0 0.3227703447
C  C145  1  0.31600000  0.00000000  0.48060000  1.0 0.466985094
C  C146  1  0.68400000  0.00000000  0.51940000  1.0 0.466985094
C  C147  1  0.18400000  0.50000000  0.98060000  1.0 0.466985094
C  C148  1  0.81600000  0.50000000  0.01940000  1.0 0.466985094
C  C149  1  0.31400000  0.50000000  0.51150000  1.0 0.4935583646
C  C150  1  0.68600000  0.50000000  0.48850000  1.0 0.4935583646
C  C151  1  0.18600000  0.00000000  0.01150000  1.0 0.4935583646
C  C152  1  0.81400000  0.00000000  0.98850000  1.0 0.4935583646
C  C153  1  0.88500000  0.00000000  0.78240000  1.0 0.4359734232
C  C154  1  0.11500000  0.00000000  0.21760000  1.0 0.4359734232
C  C155  1  0.61500000  0.50000000  0.28240000  1.0 0.4359734232
C  C156  1  0.38500000  0.50000000  0.71760000  1.0 0.4359734232
S  S1  1  0.26610000  0.68142000  0.55127000  1.0 0.1295786604
S  S2  1  0.73390000  0.68142000  0.44873000  1.0 0.1295786604
S  S3  1  0.23390000  0.81858000  0.05127000  1.0 0.1295786604
S  S4  1  0.76610000  0.81858000  0.94873000  1.0 0.1295786604
S  S5  1  0.73390000  0.31858000  0.44873000  1.0 0.1295786604
S  S6  1  0.26610000  0.31858000  0.55127000  1.0 0.1295786604
S  S7  1  0.76610000  0.18142000  0.94873000  1.0 0.1295786604
S  S8  1  0.23390000  0.18142000  0.05127000  1.0 0.1295786604
S  S9  1  0.28850000  0.81781000  0.55258000  1.0 0.1295786604
S  S10  1  0.71150000  0.81781000  0.44742000  1.0 0.1295786604
S  S11  1  0.21150000  0.68219000  0.05258000  1.0 0.1295786604
S  S12  1  0.78850000  0.68219000  0.94742000  1.0 0.1295786604
S  S13  1  0.71150000  0.18219000  0.44742000  1.0 0.1295786604
S  S14  1  0.28850000  0.18219000  0.55258000  1.0 0.1295786604
S  S15  1  0.78850000  0.31781000  0.94742000  1.0 0.1295786604
S  S16  1  0.21150000  0.31781000  0.05258000  1.0 0.1295786604
S  S17  1  0.55140000  0.80328000  0.56247000  1.0 0.1073819982
S  S18  1  0.44860000  0.80328000  0.43753000  1.0 0.1073819982
S  S19  1  0.94860000  0.69672000  0.06247000  1.0 0.1073819982
S  S20  1  0.05140000  0.69672000  0.93753000  1.0 0.1073819982
S  S21  1  0.44860000  0.19672000  0.43753000  1.0 0.1073819982
S  S22  1  0.55140000  0.19672000  0.56247000  1.0 0.1073819982
S  S23  1  0.05140000  0.30328000  0.93753000  1.0 0.1073819982
S  S24  1  0.94860000  0.30328000  0.06247000  1.0 0.1073819982
S  S25  1  0.52810000  0.66685000  0.56417000  1.0 0.1195106376
S  S26  1  0.47190000  0.66685000  0.43583000  1.0 0.1195106376
S  S27  1  0.97190000  0.83315000  0.06417000  1.0 0.1195106376
S  S28  1  0.02810000  0.83315000  0.93583000  1.0 0.1195106376
S  S29  1  0.47190000  0.33315000  0.43583000  1.0 0.1195106376
S  S30  1  0.52810000  0.33315000  0.56417000  1.0 0.1195106376
S  S31  1  0.02810000  0.16685000  0.93583000  1.0 0.1195106376
S  S32  1  0.97190000  0.16685000  0.06417000  1.0 0.1195106376
S  S33  1  0.05390000  0.83755000  0.58253000  1.0 0.0704619658
S  S34  1  0.94610000  0.83755000  0.41747000  1.0 0.0704619658
S  S35  1  0.44610000  0.66245000  0.08253000  1.0 0.0704619658
S  S36  1  0.55390000  0.66245000  0.91747000  1.0 0.0704619658
S  S37  1  0.94610000  0.16245000  0.41747000  1.0 0.0704619658
S  S38  1  0.05390000  0.16245000  0.58253000  1.0 0.0704619658
S  S39  1  0.55390000  0.33755000  0.91747000  1.0 0.0704619658
S  S40  1  0.44610000  0.33755000  0.08253000  1.0 0.0704619658
S  S41  1  0.02790000  0.68752000  0.58168000  1.0 0.0408831562
S  S42  1  0.97210000  0.68752000  0.41832000  1.0 0.0408831562
S  S43  1  0.47210000  0.81248000  0.08168000  1.0 0.0408831562
S  S44  1  0.52790000  0.81248000  0.91832000  1.0 0.0408831562
S  S45  1  0.97210000  0.31248000  0.41832000  1.0 0.0408831562
S  S46  1  0.02790000  0.31248000  0.58168000  1.0 0.0408831562
S  S47  1  0.52790000  0.18752000  0.91832000  1.0 0.0408831562
S  S48  1  0.47210000  0.18752000  0.08168000  1.0 0.0408831562
S  S49  1  0.78800000  0.79733000  0.59267000  1.0 0.0286979122
S  S50  1  0.21200000  0.79733000  0.40733000  1.0 0.0286979122
S  S51  1  0.71200000  0.70267000  0.09267000  1.0 0.0286979122
S  S52  1  0.28800000  0.70267000  0.90733000  1.0 0.0286979122
S  S53  1  0.21200000  0.20267000  0.40733000  1.0 0.0286979122
S  S54  1  0.78800000  0.20267000  0.59267000  1.0 0.0286979122
S  S55  1  0.28800000  0.29733000  0.90733000  1.0 0.0286979122
S  S56  1  0.71200000  0.29733000  0.09267000  1.0 0.0286979122
S  S57  1  0.76000000  0.64524000  0.59283000  1.0 0.0506432416
S  S58  1  0.24000000  0.64524000  0.40717000  1.0 0.0506432416
S  S59  1  0.74000000  0.85476000  0.09283000  1.0 0.0506432416
S  S60  1  0.26000000  0.85476000  0.90717000  1.0 0.0506432416
S  S61  1  0.24000000  0.35476000  0.40717000  1.0 0.0506432416
S  S62  1  0.76000000  0.35476000  0.59283000  1.0 0.0506432416
S  S63  1  0.26000000  0.14524000  0.90717000  1.0 0.0506432416
S  S64  1  0.74000000  0.14524000  0.09283000  1.0 0.0506432416
S  S65  1  0.17120000  0.00000000  0.48255000  1.0 0.9684711272
S  S66  1  0.82880000  0.00000000  0.51745000  1.0 0.9684711272
S  S67  1  0.32880000  0.50000000  0.98255000  1.0 0.9684711272
S  S68  1  0.67120000  0.50000000  0.01745000  1.0 0.9684711272
S  S69  1  0.16870000  0.50000000  0.49667000  1.0 0.9875860387
S  S70  1  0.83130000  0.50000000  0.50333000  1.0 0.9875860387
S  S71  1  0.33130000  0.00000000  0.99667000  1.0 0.9875860387
S  S72  1  0.66870000  0.00000000  0.00333000  1.0 0.9875860387
S  S73  1  0.94700000  0.00000000  0.72410000  1.0 0.9844327743
S  S74  1  0.05300000  0.00000000  0.27590000  1.0 0.9844327743
S  S75  1  0.55300000  0.50000000  0.22410000  1.0 0.9844327743
S  S76  1  0.44700000  0.50000000  0.77590000  1.0 0.9844327743
N  N1  1  0.01280000  0.80790000  0.71700000  1.0 -0.3925947895
N  N2  1  0.98720000  0.80790000  0.28300000  1.0 -0.3925947895
N  N3  1  0.48720000  0.69210000  0.21700000  1.0 -0.3925947895
N  N4  1  0.51280000  0.69210000  0.78300000  1.0 -0.3925947895
N  N5  1  0.98720000  0.19210000  0.28300000  1.0 -0.3925947895
N  N6  1  0.01280000  0.19210000  0.71700000  1.0 -0.3925947895
N  N7  1  0.51280000  0.30790000  0.78300000  1.0 -0.3925947895
N  N8  1  0.48720000  0.30790000  0.21700000  1.0 -0.3925947895
N  N9  1  0.26670000  0.69640000  0.69030000  1.0 -0.4034406369
N  N10  1  0.73330000  0.69640000  0.30970000  1.0 -0.4034406369
N  N11  1  0.23330000  0.80360000  0.19030000  1.0 -0.4034406369
N  N12  1  0.76670000  0.80360000  0.80970000  1.0 -0.4034406369
N  N13  1  0.73330000  0.30360000  0.30970000  1.0 -0.4034406369
N  N14  1  0.26670000  0.30360000  0.69030000  1.0 -0.4034406369
N  N15  1  0.76670000  0.19640000  0.80970000  1.0 -0.4034406369
N  N16  1  0.23330000  0.19640000  0.19030000  1.0 -0.4034406369
N  N17  1  0.54840000  0.79590000  0.69640000  1.0 -0.4157502776
N  N18  1  0.45160000  0.79590000  0.30360000  1.0 -0.4157502776
N  N19  1  0.95160000  0.70410000  0.19640000  1.0 -0.4157502776
N  N20  1  0.04840000  0.70410000  0.80360000  1.0 -0.4157502776
N  N21  1  0.45160000  0.20410000  0.30360000  1.0 -0.4157502776
N  N22  1  0.54840000  0.20410000  0.69640000  1.0 -0.4157502776
N  N23  1  0.04840000  0.29590000  0.80360000  1.0 -0.4157502776
N  N24  1  0.95160000  0.29590000  0.19640000  1.0 -0.4157502776
N  N25  1  0.79410000  0.69240000  0.72550000  1.0 -0.4128043478
N  N26  1  0.20590000  0.69240000  0.27450000  1.0 -0.4128043478
N  N27  1  0.70590000  0.80760000  0.22550000  1.0 -0.4128043478
N  N28  1  0.29410000  0.80760000  0.77450000  1.0 -0.4128043478
N  N29  1  0.20590000  0.30760000  0.27450000  1.0 -0.4128043478
N  N30  1  0.79410000  0.30760000  0.72550000  1.0 -0.4128043478
N  N31  1  0.29410000  0.19240000  0.77450000  1.0 -0.4128043478
N  N32  1  0.70590000  0.19240000  0.22550000  1.0 -0.4128043478
O  O1  1  0.13940000  0.94360000  0.45990000  1.0 -0.5275493687
O  O2  1  0.86060000  0.94360000  0.54010000  1.0 -0.5275493687
O  O3  1  0.36060000  0.55640000  0.95990000  1.0 -0.5275493687
O  O4  1  0.63940000  0.55640000  0.04010000  1.0 -0.5275493687
O  O5  1  0.86060000  0.05640000  0.54010000  1.0 -0.5275493687
O  O6  1  0.13940000  0.05640000  0.45990000  1.0 -0.5275493687
O  O7  1  0.63940000  0.44360000  0.04010000  1.0 -0.5275493687
O  O8  1  0.36060000  0.44360000  0.95990000  1.0 -0.5275493687
O  O9  1  0.14800000  0.00000000  0.53470000  1.0 -0.5531180663
O  O10  1  0.85200000  0.00000000  0.46530000  1.0 -0.5531180663
O  O11  1  0.35200000  0.50000000  0.03470000  1.0 -0.5531180663
O  O12  1  0.64800000  0.50000000  0.96530000  1.0 -0.5531180663
O  O13  1  0.13170000  0.55640000  0.52040000  1.0 -0.5531180663
O  O14  1  0.86830000  0.55640000  0.47960000  1.0 -0.5531180663
O  O15  1  0.36830000  0.94360000  0.02040000  1.0 -0.5531180663
O  O16  1  0.63170000  0.94360000  0.97960000  1.0 -0.5531180663
O  O17  1  0.86830000  0.44360000  0.47960000  1.0 -0.5531180663
O  O18  1  0.13170000  0.44360000  0.52040000  1.0 -0.5531180663
O  O19  1  0.63170000  0.05640000  0.97960000  1.0 -0.5531180663
O  O20  1  0.36830000  0.05640000  0.02040000  1.0 -0.5531180663
O  O21  1  0.16240000  0.50000000  0.44330000  1.0 -0.5531180663
O  O22  1  0.83760000  0.50000000  0.55670000  1.0 -0.5531180663
O  O23  1  0.33760000  0.00000000  0.94330000  1.0 -0.5531180663
O  O24  1  0.66240000  0.00000000  0.05670000  1.0 -0.5531180663
O  O25  1  0.91760000  0.94360000  0.70200000  1.0 -0.5243262475
O  O26  1  0.91760000  0.05640000  0.70200000  1.0 -0.5243262475
O  O27  1  0.06020000  0.00000000  0.73730000  1.0 -0.5682040876
O  O28  1  0.08240000  0.94360000  0.29800000  1.0 -0.5243262475
O  O29  1  0.08240000  0.05640000  0.29800000  1.0 -0.5243262475
O  O30  1  0.93980000  0.00000000  0.26270000  1.0 -0.5682040876
O  O31  1  0.58240000  0.55640000  0.20200000  1.0 -0.5243262475
O  O32  1  0.58240000  0.44360000  0.20200000  1.0 -0.5243262475
O  O33  1  0.43980000  0.50000000  0.23730000  1.0 -0.5682040876
O  O34  1  0.41760000  0.55640000  0.79800000  1.0 -0.5243262475
O  O35  1  0.41760000  0.44360000  0.79800000  1.0 -0.5243262475
O  O36  1  0.56020000  0.50000000  0.76270000  1.0 -0.5682040876
F  F1  1  0.36020000  0.94960000  0.49560000  1.0 -0.2024328386
F  F2  1  0.63980000  0.94960000  0.50440000  1.0 -0.2024328386
F  F3  1  0.13980000  0.55040000  0.99560000  1.0 -0.2024328386
F  F4  1  0.86020000  0.55040000  0.00440000  1.0 -0.2024328386
F  F5  1  0.63980000  0.05040000  0.50440000  1.0 -0.2024328386
F  F6  1  0.36020000  0.05040000  0.49560000  1.0 -0.2024328386
F  F7  1  0.86020000  0.44960000  0.00440000  1.0 -0.2024328386
F  F8  1  0.13980000  0.44960000  0.99560000  1.0 -0.2024328386
F  F9  1  0.34680000  0.00000000  0.43060000  1.0 -0.1680585804
F  F10  1  0.65320000  0.00000000  0.56940000  1.0 -0.1680585804
F  F11  1  0.15320000  0.50000000  0.93060000  1.0 -0.1680585804
F  F12  1  0.84680000  0.50000000  0.06940000  1.0 -0.1680585804
F  F13  1  0.36240000  0.55000000  0.49450000  1.0 -0.2071503227
F  F14  1  0.63760000  0.55000000  0.50550000  1.0 -0.2071503227
F  F15  1  0.13760000  0.95000000  0.99450000  1.0 -0.2071503227
F  F16  1  0.86240000  0.95000000  0.00550000  1.0 -0.2071503227
F  F17  1  0.63760000  0.45000000  0.50550000  1.0 -0.2071503227
F  F18  1  0.36240000  0.45000000  0.49450000  1.0 -0.2071503227
F  F19  1  0.86240000  0.05000000  0.00550000  1.0 -0.2071503227
F  F20  1  0.13760000  0.05000000  0.99450000  1.0 -0.2071503227
F  F21  1  0.32790000  0.50000000  0.56050000  1.0 -0.1875650449
F  F22  1  0.67210000  0.50000000  0.43950000  1.0 -0.1875650449
F  F23  1  0.17210000  0.00000000  0.06050000  1.0 -0.1875650449
F  F24  1  0.82790000  0.00000000  0.93950000  1.0 -0.1875650449
F  F25  1  0.90350000  0.95030000  0.80810000  1.0 -0.1782233854
F  F26  1  0.90350000  0.04970000  0.80810000  1.0 -0.1782233854
F  F27  1  0.77980000  0.00000000  0.78040000  1.0 -0.1782233854
F  F28  1  0.09650000  0.95030000  0.19190000  1.0 -0.1782233854
F  F29  1  0.09650000  0.04970000  0.19190000  1.0 -0.1782233854
F  F30  1  0.22020000  0.00000000  0.21960000  1.0 -0.1782233854
F  F31  1  0.59650000  0.54970000  0.30810000  1.0 -0.1782233854
F  F32  1  0.59650000  0.45030000  0.30810000  1.0 -0.1782233854
F  F33  1  0.72020000  0.50000000  0.28040000  1.0 -0.1782233854
F  F34  1  0.40350000  0.54970000  0.69190000  1.0 -0.1782233854
F  F35  1  0.40350000  0.45030000  0.69190000  1.0 -0.1782233854
F  F36  1  0.27980000  0.50000000  0.71960000  1.0 -0.1782233854
