# DDEC6 charges by PACMAN v1.1 (https://github.com/mtap-research/PACMAN-charge/)
data_NIZNUI_ASR_pacman
_symmetry_space_group_name_H-M   'P 1'
_cell_length_a   20.08990000
_cell_length_b   34.83410000
_cell_length_c   35.02720000
_cell_angle_alpha   90.00000000
_cell_angle_beta   90.00000000
_cell_angle_gamma   90.00000000
_symmetry_Int_Tables_number   1
_chemical_formula_structural   Y6Cu3H116C204(N5O18)2
_chemical_formula_sum   'Y12 Cu6 H232 C408 N20 O72'
_cell_volume   24512.51042518
_cell_formula_units_Z   2
loop_
 _symmetry_equiv_pos_site_id
 _symmetry_equiv_pos_as_xyz
  1  'x, y, z'
loop_
 _atom_site_type_symbol
 _atom_site_label
 _atom_site_symmetry_multiplicity
 _atom_site_fract_x
 _atom_site_fract_y
 _atom_site_fract_z
 _atom_site_occupancy
 _atom_site_charge
Y  Y1  1  0.67373000  0.74528000  0.23960000  1.0 1.7280437778
Y  Y2  1  0.67373000  0.25472000  0.76040000  1.0 1.7280437778
Y  Y3  1  0.32627000  0.75472000  0.73960000  1.0 1.7280437778
Y  Y4  1  0.32627000  0.24528000  0.26040000  1.0 1.7280437778
Y  Y5  1  0.32627000  0.25472000  0.76040000  1.0 1.7280437778
Y  Y6  1  0.32627000  0.74528000  0.23960000  1.0 1.7280437778
Y  Y7  1  0.67373000  0.24528000  0.26040000  1.0 1.7280437778
Y  Y8  1  0.67373000  0.75472000  0.73960000  1.0 1.7280437778
Y  Y9  1  0.50000000  0.76653000  0.17098000  1.0 1.7938984762
Y  Y10  1  0.50000000  0.23347000  0.82902000  1.0 1.7938984762
Y  Y11  1  0.50000000  0.73347000  0.67098000  1.0 1.7938984762
Y  Y12  1  0.50000000  0.26653000  0.32902000  1.0 1.7938984762
Cu  Cu1  1  0.00000000  0.00000000  0.50000000  1.0 0.5911732148
Cu  Cu2  1  0.00000000  0.50000000  0.00000000  1.0 0.5911732148
Cu  Cu3  1  0.00000000  0.50270000  0.50270000  1.0 0.6287338168
Cu  Cu4  1  0.00000000  0.49730000  0.49730000  1.0 0.6287338168
Cu  Cu5  1  0.00000000  0.99730000  0.00270000  1.0 0.6287338168
Cu  Cu6  1  0.00000000  0.00270000  0.99730000  1.0 0.6287338168
H  H1  1  0.75410000  0.96620000  0.49690000  1.0 0.1282456584
H  H2  1  0.94110000  0.85870000  0.48300000  1.0 0.1197977622
H  H3  1  0.82820000  0.89550000  0.43160000  1.0 0.1282456584
H  H4  1  0.70260000  0.82270000  0.48080000  1.0 0.1197977622
H  H5  1  0.81220000  0.89370000  0.54430000  1.0 0.1282456584
H  H6  1  0.63310000  0.82350000  0.53070000  1.0 0.1197977622
H  H7  1  0.58980000  0.79510000  0.58180000  1.0 0.1282456584
H  H8  1  0.74150000  0.82390000  0.64260000  1.0 0.1282456584
H  H9  1  0.78870000  0.85260000  0.59020000  1.0 0.1197977622
H  H10  1  0.83250000  0.84800000  0.38650000  1.0 0.1197977622
H  H11  1  0.80980000  0.82000000  0.33040000  1.0 0.112988437
H  H12  1  0.62290000  0.80100000  0.36390000  1.0 0.1391816194
H  H13  1  0.64980000  0.83080000  0.42180000  1.0 0.1197977622
H  H14  1  0.93940000  0.50280000  0.35920000  1.0 0.1282456584
H  H15  1  0.75420000  0.49950000  0.46550000  1.0 0.1197977622
H  H16  1  0.80900000  0.44360000  0.39990000  1.0 0.1282456584
H  H17  1  0.69760000  0.50040000  0.32670000  1.0 0.1197977622
H  H18  1  0.83020000  0.55660000  0.38910000  1.0 0.1197977622
H  H19  1  0.79530000  0.39920000  0.34840000  1.0 0.1197977622
H  H20  1  0.75350000  0.34660000  0.31590000  1.0 0.1282456584
H  H21  1  0.57370000  0.39040000  0.32670000  1.0 0.1197977622
H  H22  1  0.62240000  0.44680000  0.35300000  1.0 0.112988437
H  H23  1  0.64570000  0.56220000  0.32470000  1.0 0.112988437
H  H24  1  0.62150000  0.61820000  0.29850000  1.0 0.1391816194
H  H25  1  0.81420000  0.64670000  0.29750000  1.0 0.112988437
H  H26  1  0.82760000  0.59780000  0.34090000  1.0 0.1197977622
H  H27  1  0.54500000  0.72800000  0.30030000  1.0 0.0439457967
H  H28  1  0.47530000  0.70850000  0.29480000  1.0 0.0604402446
H  H29  1  0.47970000  0.75170000  0.30700000  1.0 0.0677650291
H  H30  1  0.75410000  0.03380000  0.50310000  1.0 0.1282456584
H  H31  1  0.94110000  0.14130000  0.51700000  1.0 0.1197977622
H  H32  1  0.82820000  0.10450000  0.56840000  1.0 0.1282456584
H  H33  1  0.70260000  0.17730000  0.51920000  1.0 0.1197977622
H  H34  1  0.81220000  0.10630000  0.45570000  1.0 0.1282456584
H  H35  1  0.63310000  0.17650000  0.46930000  1.0 0.1197977622
H  H36  1  0.58980000  0.20490000  0.41820000  1.0 0.1282456584
H  H37  1  0.74150000  0.17610000  0.35740000  1.0 0.1282456584
H  H38  1  0.78870000  0.14740000  0.40980000  1.0 0.1197977622
H  H39  1  0.83250000  0.15200000  0.61350000  1.0 0.1197977622
H  H40  1  0.80980000  0.18000000  0.66960000  1.0 0.1197977622
H  H41  1  0.62290000  0.19900000  0.63610000  1.0 0.1391816194
H  H42  1  0.64980000  0.16920000  0.57820000  1.0 0.1197977622
H  H43  1  0.93940000  0.49720000  0.64080000  1.0 0.1282456584
H  H44  1  0.75420000  0.50050000  0.53450000  1.0 0.1197977622
H  H45  1  0.80900000  0.55640000  0.60010000  1.0 0.1282456584
H  H46  1  0.69760000  0.49960000  0.67330000  1.0 0.1197977622
H  H47  1  0.83020000  0.44340000  0.61090000  1.0 0.1197977622
H  H48  1  0.79530000  0.60080000  0.65160000  1.0 0.1197977622
H  H49  1  0.75350000  0.65340000  0.68410000  1.0 0.1282456584
H  H50  1  0.57370000  0.60960000  0.67330000  1.0 0.1197977622
H  H51  1  0.62240000  0.55320000  0.64700000  1.0 0.112988437
H  H52  1  0.64570000  0.43780000  0.67530000  1.0 0.112988437
H  H53  1  0.62150000  0.38180000  0.70150000  1.0 0.1391816194
H  H54  1  0.81420000  0.35330000  0.70250000  1.0 0.112988437
H  H55  1  0.82760000  0.40220000  0.65910000  1.0 0.1197977622
H  H56  1  0.54500000  0.27200000  0.69970000  1.0 0.0439457967
H  H57  1  0.47530000  0.29150000  0.70520000  1.0 0.0604402446
H  H58  1  0.47970000  0.24830000  0.69300000  1.0 0.0677650291
H  H59  1  0.24590000  0.53380000  0.99690000  1.0 0.1282456584
H  H60  1  0.05890000  0.64130000  0.98300000  1.0 0.1197977622
H  H61  1  0.17180000  0.60450000  0.93160000  1.0 0.1282456584
H  H62  1  0.29740000  0.67730000  0.98080000  1.0 0.1197977622
H  H63  1  0.18780000  0.60630000  0.04430000  1.0 0.1282456584
H  H64  1  0.36690000  0.67650000  0.03070000  1.0 0.1197977622
H  H65  1  0.41020000  0.70490000  0.08180000  1.0 0.1282456584
H  H66  1  0.25850000  0.67610000  0.14260000  1.0 0.1282456584
H  H67  1  0.21130000  0.64740000  0.09020000  1.0 0.1197977622
H  H68  1  0.16750000  0.65200000  0.88650000  1.0 0.1197977622
H  H69  1  0.19020000  0.68000000  0.83040000  1.0 0.1197977622
H  H70  1  0.37710000  0.69900000  0.86390000  1.0 0.1391816194
H  H71  1  0.35020000  0.66920000  0.92180000  1.0 0.1197977622
H  H72  1  0.06060000  0.99720000  0.85920000  1.0 0.1282456584
H  H73  1  0.24580000  0.00050000  0.96550000  1.0 0.1197977622
H  H74  1  0.19100000  0.05640000  0.89990000  1.0 0.1282456584
H  H75  1  0.30240000  0.99960000  0.82670000  1.0 0.1197977622
H  H76  1  0.16980000  0.94340000  0.88910000  1.0 0.1197977622
H  H77  1  0.20470000  0.10080000  0.84840000  1.0 0.1197977622
H  H78  1  0.24650000  0.15340000  0.81590000  1.0 0.1282456584
H  H79  1  0.42630000  0.10960000  0.82670000  1.0 0.1197977622
H  H80  1  0.37760000  0.05320000  0.85300000  1.0 0.112988437
H  H81  1  0.35430000  0.93780000  0.82470000  1.0 0.112988437
H  H82  1  0.37850000  0.88180000  0.79850000  1.0 0.1391816194
H  H83  1  0.18580000  0.85330000  0.79750000  1.0 0.112988437
H  H84  1  0.17240000  0.90220000  0.84090000  1.0 0.1197977622
H  H85  1  0.45500000  0.77200000  0.80030000  1.0 0.0439457967
H  H86  1  0.52470000  0.79150000  0.79480000  1.0 0.0604402446
H  H87  1  0.52030000  0.74830000  0.80700000  1.0 0.0677650291
H  H88  1  0.24590000  0.46620000  0.00310000  1.0 0.1282456584
H  H89  1  0.05890000  0.35870000  0.01700000  1.0 0.1197977622
H  H90  1  0.17180000  0.39550000  0.06840000  1.0 0.1282456584
H  H91  1  0.29740000  0.32270000  0.01920000  1.0 0.1197977622
H  H92  1  0.18780000  0.39370000  0.95570000  1.0 0.1282456584
H  H93  1  0.36690000  0.32350000  0.96930000  1.0 0.1197977622
H  H94  1  0.41020000  0.29510000  0.91820000  1.0 0.1282456584
H  H95  1  0.25850000  0.32390000  0.85740000  1.0 0.1282456584
H  H96  1  0.21130000  0.35260000  0.90980000  1.0 0.1197977622
H  H97  1  0.16750000  0.34800000  0.11350000  1.0 0.1197977622
H  H98  1  0.19020000  0.32000000  0.16960000  1.0 0.1197977622
H  H99  1  0.37710000  0.30100000  0.13610000  1.0 0.1391816194
H  H100  1  0.35020000  0.33080000  0.07820000  1.0 0.1197977622
H  H101  1  0.06060000  0.00280000  0.14080000  1.0 0.1282456584
H  H102  1  0.24580000  0.99950000  0.03450000  1.0 0.1197977622
H  H103  1  0.19100000  0.94360000  0.10010000  1.0 0.1282456584
H  H104  1  0.30240000  0.00040000  0.17330000  1.0 0.1197977622
H  H105  1  0.16980000  0.05660000  0.11090000  1.0 0.1197977622
H  H106  1  0.20470000  0.89920000  0.15160000  1.0 0.1197977622
H  H107  1  0.24650000  0.84660000  0.18410000  1.0 0.1282456584
H  H108  1  0.42630000  0.89040000  0.17330000  1.0 0.1197977622
H  H109  1  0.37760000  0.94680000  0.14700000  1.0 0.112988437
H  H110  1  0.35430000  0.06220000  0.17530000  1.0 0.112988437
H  H111  1  0.37850000  0.11820000  0.20150000  1.0 0.1391816194
H  H112  1  0.18580000  0.14670000  0.20250000  1.0 0.112988437
H  H113  1  0.17240000  0.09780000  0.15910000  1.0 0.1197977622
H  H114  1  0.45500000  0.22800000  0.19970000  1.0 0.0439457967
H  H115  1  0.52470000  0.20850000  0.20520000  1.0 0.0604402446
H  H116  1  0.52030000  0.25170000  0.19300000  1.0 0.0677650291
H  H117  1  0.24590000  0.03380000  0.50310000  1.0 0.1282456584
H  H118  1  0.05890000  0.14130000  0.51700000  1.0 0.1197977622
H  H119  1  0.17180000  0.10450000  0.56840000  1.0 0.1282456584
H  H120  1  0.29740000  0.17730000  0.51920000  1.0 0.1197977622
H  H121  1  0.18780000  0.10630000  0.45570000  1.0 0.1282456584
H  H122  1  0.36690000  0.17650000  0.46930000  1.0 0.1197977622
H  H123  1  0.41020000  0.20490000  0.41820000  1.0 0.1282456584
H  H124  1  0.25850000  0.17610000  0.35740000  1.0 0.1282456584
H  H125  1  0.21130000  0.14740000  0.40980000  1.0 0.1197977622
H  H126  1  0.16750000  0.15200000  0.61350000  1.0 0.1197977622
H  H127  1  0.19020000  0.18000000  0.66960000  1.0 0.1197977622
H  H128  1  0.37710000  0.19900000  0.63610000  1.0 0.1391816194
H  H129  1  0.35020000  0.16920000  0.57820000  1.0 0.1197977622
H  H130  1  0.06060000  0.49720000  0.64080000  1.0 0.1282456584
H  H131  1  0.24580000  0.50050000  0.53450000  1.0 0.1197977622
H  H132  1  0.19100000  0.55640000  0.60010000  1.0 0.1282456584
H  H133  1  0.30240000  0.49960000  0.67330000  1.0 0.1197977622
H  H134  1  0.16980000  0.44340000  0.61090000  1.0 0.1197977622
H  H135  1  0.20470000  0.60080000  0.65160000  1.0 0.1197977622
H  H136  1  0.24650000  0.65340000  0.68410000  1.0 0.1282456584
H  H137  1  0.42630000  0.60960000  0.67330000  1.0 0.1197977622
H  H138  1  0.37760000  0.55320000  0.64700000  1.0 0.112988437
H  H139  1  0.35430000  0.43780000  0.67530000  1.0 0.112988437
H  H140  1  0.37850000  0.38180000  0.70150000  1.0 0.1391816194
H  H141  1  0.18580000  0.35330000  0.70250000  1.0 0.112988437
H  H142  1  0.17240000  0.40220000  0.65910000  1.0 0.1197977622
H  H143  1  0.45500000  0.27200000  0.69970000  1.0 0.0439457967
H  H144  1  0.52470000  0.29150000  0.70520000  1.0 0.0604402446
H  H145  1  0.52030000  0.24830000  0.69300000  1.0 0.0677650291
H  H146  1  0.24590000  0.96620000  0.49690000  1.0 0.1282456584
H  H147  1  0.05890000  0.85870000  0.48300000  1.0 0.1197977622
H  H148  1  0.17180000  0.89550000  0.43160000  1.0 0.1282456584
H  H149  1  0.29740000  0.82270000  0.48080000  1.0 0.1197977622
H  H150  1  0.18780000  0.89370000  0.54430000  1.0 0.1282456584
H  H151  1  0.36690000  0.82350000  0.53070000  1.0 0.1197977622
H  H152  1  0.41020000  0.79510000  0.58180000  1.0 0.1282456584
H  H153  1  0.25850000  0.82390000  0.64260000  1.0 0.1282456584
H  H154  1  0.21130000  0.85260000  0.59020000  1.0 0.1197977622
H  H155  1  0.16750000  0.84800000  0.38650000  1.0 0.1197977622
H  H156  1  0.19020000  0.82000000  0.33040000  1.0 0.1197977622
H  H157  1  0.37710000  0.80100000  0.36390000  1.0 0.1391816194
H  H158  1  0.35020000  0.83080000  0.42180000  1.0 0.1197977622
H  H159  1  0.06060000  0.50280000  0.35920000  1.0 0.1282456584
H  H160  1  0.24580000  0.49950000  0.46550000  1.0 0.1197977622
H  H161  1  0.19100000  0.44360000  0.39990000  1.0 0.1282456584
H  H162  1  0.30240000  0.50040000  0.32670000  1.0 0.1197977622
H  H163  1  0.16980000  0.55660000  0.38910000  1.0 0.1197977622
H  H164  1  0.20470000  0.39920000  0.34840000  1.0 0.1197977622
H  H165  1  0.24650000  0.34660000  0.31590000  1.0 0.1282456584
H  H166  1  0.42630000  0.39040000  0.32670000  1.0 0.1197977622
H  H167  1  0.37760000  0.44680000  0.35300000  1.0 0.112988437
H  H168  1  0.35430000  0.56220000  0.32470000  1.0 0.112988437
H  H169  1  0.37850000  0.61820000  0.29850000  1.0 0.1391816194
H  H170  1  0.18580000  0.64670000  0.29750000  1.0 0.112988437
H  H171  1  0.17240000  0.59780000  0.34090000  1.0 0.1197977622
H  H172  1  0.45500000  0.72800000  0.30030000  1.0 0.0439457967
H  H173  1  0.52470000  0.70850000  0.29480000  1.0 0.0604402446
H  H174  1  0.52030000  0.75170000  0.30700000  1.0 0.0677650291
H  H175  1  0.75410000  0.46620000  0.00310000  1.0 0.1282456584
H  H176  1  0.94110000  0.35870000  0.01700000  1.0 0.1197977622
H  H177  1  0.82820000  0.39550000  0.06840000  1.0 0.1282456584
H  H178  1  0.70260000  0.32270000  0.01920000  1.0 0.1197977622
H  H179  1  0.81220000  0.39370000  0.95570000  1.0 0.1282456584
H  H180  1  0.63310000  0.32350000  0.96930000  1.0 0.1197977622
H  H181  1  0.58980000  0.29510000  0.91820000  1.0 0.1282456584
H  H182  1  0.74150000  0.32390000  0.85740000  1.0 0.1282456584
H  H183  1  0.78870000  0.35260000  0.90980000  1.0 0.1197977622
H  H184  1  0.83250000  0.34800000  0.11350000  1.0 0.1197977622
H  H185  1  0.80980000  0.32000000  0.16960000  1.0 0.1197977622
H  H186  1  0.62290000  0.30100000  0.13610000  1.0 0.1391816194
H  H187  1  0.64980000  0.33080000  0.07820000  1.0 0.1197977622
H  H188  1  0.93940000  0.00280000  0.14080000  1.0 0.1282456584
H  H189  1  0.75420000  0.99950000  0.03450000  1.0 0.1197977622
H  H190  1  0.80900000  0.94360000  0.10010000  1.0 0.1282456584
H  H191  1  0.69760000  0.00040000  0.17330000  1.0 0.1197977622
H  H192  1  0.83020000  0.05660000  0.11090000  1.0 0.1197977622
H  H193  1  0.79530000  0.89920000  0.15160000  1.0 0.1197977622
H  H194  1  0.75350000  0.84660000  0.18410000  1.0 0.1282456584
H  H195  1  0.57370000  0.89040000  0.17330000  1.0 0.1197977622
H  H196  1  0.62240000  0.94680000  0.14700000  1.0 0.112988437
H  H197  1  0.64570000  0.06220000  0.17530000  1.0 0.112988437
H  H198  1  0.62150000  0.11820000  0.20150000  1.0 0.1391816194
H  H199  1  0.81420000  0.14670000  0.20250000  1.0 0.112988437
H  H200  1  0.82760000  0.09780000  0.15910000  1.0 0.1197977622
H  H201  1  0.54500000  0.22800000  0.19970000  1.0 0.0439457967
H  H202  1  0.47530000  0.20850000  0.20520000  1.0 0.0604402446
H  H203  1  0.47970000  0.25170000  0.19300000  1.0 0.0677650291
H  H204  1  0.75410000  0.53380000  0.99690000  1.0 0.1282456584
H  H205  1  0.94110000  0.64130000  0.98300000  1.0 0.1197977622
H  H206  1  0.82820000  0.60450000  0.93160000  1.0 0.1282456584
H  H207  1  0.70260000  0.67730000  0.98080000  1.0 0.1197977622
H  H208  1  0.81220000  0.60630000  0.04430000  1.0 0.1282456584
H  H209  1  0.63310000  0.67650000  0.03070000  1.0 0.1197977622
H  H210  1  0.58980000  0.70490000  0.08180000  1.0 0.1282456584
H  H211  1  0.74150000  0.67610000  0.14260000  1.0 0.1282456584
H  H212  1  0.78870000  0.64740000  0.09020000  1.0 0.1197977622
H  H213  1  0.83250000  0.65200000  0.88650000  1.0 0.1197977622
H  H214  1  0.80980000  0.68000000  0.83040000  1.0 0.1197977622
H  H215  1  0.62290000  0.69900000  0.86390000  1.0 0.1391816194
H  H216  1  0.64980000  0.66920000  0.92180000  1.0 0.1197977622
H  H217  1  0.93940000  0.99720000  0.85920000  1.0 0.1282456584
H  H218  1  0.75420000  0.00050000  0.96550000  1.0 0.1197977622
H  H219  1  0.80900000  0.05640000  0.89990000  1.0 0.1282456584
H  H220  1  0.69760000  0.99960000  0.82670000  1.0 0.1197977622
H  H221  1  0.83020000  0.94340000  0.88910000  1.0 0.1197977622
H  H222  1  0.79530000  0.10080000  0.84840000  1.0 0.1197977622
H  H223  1  0.75350000  0.15340000  0.81590000  1.0 0.1282456584
H  H224  1  0.57370000  0.10960000  0.82670000  1.0 0.1197977622
H  H225  1  0.62240000  0.05320000  0.85300000  1.0 0.112988437
H  H226  1  0.64570000  0.93780000  0.82470000  1.0 0.112988437
H  H227  1  0.62150000  0.88180000  0.79850000  1.0 0.1391816194
H  H228  1  0.81420000  0.85330000  0.79750000  1.0 0.112988437
H  H229  1  0.82760000  0.90220000  0.84090000  1.0 0.1197977622
H  H230  1  0.54500000  0.77200000  0.80030000  1.0 0.0439457967
H  H231  1  0.47530000  0.79150000  0.79480000  1.0 0.0604402446
H  H232  1  0.47970000  0.74830000  0.80700000  1.0 0.0677650291
C  C1  1  0.79190000  0.98160000  0.49820000  1.0 -0.1992270605
C  C2  1  0.85840000  0.96812000  0.49683000  1.0 0.2522556316
C  C3  1  0.87990000  0.93065000  0.49268000  1.0 -0.1013470083
C  C4  1  0.94490000  0.91904000  0.49002000  1.0 0.181678919
C  C5  1  0.96800000  0.88025000  0.48550000  1.0 -0.1683257259
C  C6  1  0.82640000  0.90073000  0.48832000  1.0 0.0998203745
C  C7  1  0.80820000  0.88578000  0.45352000  1.0 -0.1898745902
C  C8  1  0.76130000  0.85671000  0.44962000  1.0 0.0920053459
C  C9  1  0.73320000  0.84262000  0.48275000  1.0 -0.1898745902
C  C10  1  0.74810000  0.85648000  0.51847000  1.0 0.0998203745
C  C11  1  0.79820000  0.88519000  0.52049000  1.0 -0.1992270605
C  C12  1  0.71940000  0.83860000  0.55457000  1.0 0.0604402446
C  C13  1  0.65760000  0.82250000  0.55320000  1.0 -0.1588313058
C  C14  1  0.63230000  0.80540000  0.58370000  1.0 -0.1013470083
C  C15  1  0.66480000  0.80216000  0.61751000  1.0 -0.069903065
C  C16  1  0.72000000  0.82180000  0.61920000  1.0 -0.0890346724
C  C17  1  0.74840000  0.83970000  0.58755000  1.0 -0.1442148705
C  C18  1  0.63890000  0.78335000  0.65142000  1.0 0.6133027505
C  C19  1  0.74540000  0.83952000  0.41148000  1.0 0.0604402446
C  C20  1  0.79030000  0.83760000  0.38265000  1.0 -0.1588313058
C  C21  1  0.77650000  0.82150000  0.34870000  1.0 -0.069903065
C  C22  1  0.71380000  0.80692000  0.34021000  1.0 -0.0310325279
C  C23  1  0.66570000  0.81010000  0.36820000  1.0 -0.0540951501
C  C24  1  0.68280000  0.82750000  0.40350000  1.0 -0.1588313058
C  C25  1  0.69520000  0.78800000  0.30404000  1.0 0.5254992376
C  C26  1  0.96690000  0.50225000  0.38062000  1.0 -0.178274135
C  C27  1  0.94550000  0.50125000  0.41964000  1.0 0.158610681
C  C28  1  0.87910000  0.50059000  0.43069000  1.0 -0.1066194345
C  C29  1  0.85820000  0.49954000  0.46871000  1.0 0.145968778
C  C30  1  0.79160000  0.49970000  0.48111000  1.0 -0.178274135
C  C31  1  0.82490000  0.50080000  0.40058000  1.0 0.0920053459
C  C32  1  0.79530000  0.46668000  0.38901000  1.0 -0.1992270605
C  C33  1  0.74630000  0.46654000  0.36181000  1.0 0.0820523928
C  C34  1  0.73000000  0.50059000  0.34566000  1.0 -0.1898745902
C  C35  1  0.75770000  0.53586000  0.35522000  1.0 0.0820523928
C  C36  1  0.80770000  0.53414000  0.38272000  1.0 -0.1898745902
C  C37  1  0.71510000  0.42918000  0.34896000  1.0 0.0677650291
C  C38  1  0.75040000  0.39860000  0.34210000  1.0 -0.1588313058
C  C39  1  0.72510000  0.36520000  0.32580000  1.0 -0.0827505161
C  C40  1  0.65900000  0.36041000  0.32457000  1.0 -0.0575175118
C  C41  1  0.61930000  0.39150000  0.33140000  1.0 -0.0890346724
C  C42  1  0.64930000  0.42630000  0.34580000  1.0 -0.1683257259
C  C43  1  0.62890000  0.32354000  0.31150000  1.0 0.6287338168
C  C44  1  0.74190000  0.57192000  0.33594000  1.0 0.0604402446
C  C45  1  0.67940000  0.58035000  0.32200000  1.0 -0.1683257259
C  C46  1  0.66570000  0.61353000  0.30490000  1.0 -0.0540951501
C  C47  1  0.71040000  0.64093000  0.29613000  1.0 -0.0575175118
C  C48  1  0.77840000  0.63200000  0.30600000  1.0 -0.069903065
C  C49  1  0.78650000  0.60020000  0.32890000  1.0 -0.1683257259
C  C50  1  0.69410000  0.67620000  0.27740000  1.0 0.5061108898
C  C51  1  0.79190000  0.01840000  0.50180000  1.0 -0.1992270605
C  C52  1  0.85840000  0.03188000  0.50317000  1.0 0.2522556316
C  C53  1  0.87990000  0.06935000  0.50732000  1.0 -0.1013470083
C  C54  1  0.94490000  0.08096000  0.50998000  1.0 0.181678919
C  C55  1  0.96800000  0.11975000  0.51450000  1.0 -0.1683257259
C  C56  1  0.82640000  0.09927000  0.51168000  1.0 0.0998203745
C  C57  1  0.80820000  0.11422000  0.54648000  1.0 -0.1992270605
C  C58  1  0.76130000  0.14329000  0.55038000  1.0 0.0920053459
C  C59  1  0.73320000  0.15738000  0.51725000  1.0 -0.1898745902
C  C60  1  0.74810000  0.14352000  0.48153000  1.0 0.0998203745
C  C61  1  0.79820000  0.11481000  0.47951000  1.0 -0.1992270605
C  C62  1  0.71940000  0.16140000  0.44543000  1.0 0.0604402446
C  C63  1  0.65760000  0.17750000  0.44680000  1.0 -0.1588313058
C  C64  1  0.63230000  0.19460000  0.41630000  1.0 -0.1013470083
C  C65  1  0.66480000  0.19784000  0.38249000  1.0 -0.069903065
C  C66  1  0.72000000  0.17820000  0.38080000  1.0 -0.0890346724
C  C67  1  0.74840000  0.16030000  0.41245000  1.0 -0.1442148705
C  C68  1  0.63890000  0.21665000  0.34858000  1.0 0.6133027505
C  C69  1  0.74540000  0.16048000  0.58852000  1.0 0.0604402446
C  C70  1  0.79030000  0.16240000  0.61735000  1.0 -0.1588313058
C  C71  1  0.77650000  0.17850000  0.65130000  1.0 -0.069903065
C  C72  1  0.71380000  0.19308000  0.65979000  1.0 -0.0310325279
C  C73  1  0.66570000  0.18990000  0.63180000  1.0 -0.0540951501
C  C74  1  0.68280000  0.17250000  0.59650000  1.0 -0.1588313058
C  C75  1  0.69520000  0.21200000  0.69596000  1.0 0.5254992376
C  C76  1  0.96690000  0.49775000  0.61938000  1.0 -0.178274135
C  C77  1  0.94550000  0.49875000  0.58036000  1.0 0.158610681
C  C78  1  0.87910000  0.49941000  0.56931000  1.0 -0.1066194345
C  C79  1  0.85820000  0.50046000  0.53129000  1.0 0.145968778
C  C80  1  0.79160000  0.50030000  0.51889000  1.0 -0.178274135
C  C81  1  0.82490000  0.49920000  0.59942000  1.0 0.0920053459
C  C82  1  0.79530000  0.53332000  0.61099000  1.0 -0.1992270605
C  C83  1  0.74630000  0.53346000  0.63819000  1.0 0.0820523928
C  C84  1  0.73000000  0.49941000  0.65434000  1.0 -0.1898745902
C  C85  1  0.75770000  0.46414000  0.64478000  1.0 0.0820523928
C  C86  1  0.80770000  0.46586000  0.61728000  1.0 -0.1898745902
C  C87  1  0.71510000  0.57082000  0.65104000  1.0 0.0677650291
C  C88  1  0.75040000  0.60140000  0.65790000  1.0 -0.1588313058
C  C89  1  0.72510000  0.63480000  0.67420000  1.0 -0.0827505161
C  C90  1  0.65900000  0.63959000  0.67543000  1.0 -0.0540951501
C  C91  1  0.61930000  0.60850000  0.66860000  1.0 -0.0890346724
C  C92  1  0.64930000  0.57370000  0.65420000  1.0 -0.1588313058
C  C93  1  0.62890000  0.67646000  0.68850000  1.0 0.6287338168
C  C94  1  0.74190000  0.42808000  0.66406000  1.0 0.0604402446
C  C95  1  0.67940000  0.41965000  0.67800000  1.0 -0.1683257259
C  C96  1  0.66570000  0.38647000  0.69510000  1.0 -0.0540951501
C  C97  1  0.71040000  0.35907000  0.70387000  1.0 -0.0575175118
C  C98  1  0.77840000  0.36800000  0.69400000  1.0 -0.069903065
C  C99  1  0.78650000  0.39980000  0.67110000  1.0 -0.1683257259
C  C100  1  0.69410000  0.32380000  0.72260000  1.0 0.5061108898
C  C101  1  0.20810000  0.51840000  0.99820000  1.0 -0.1992270605
C  C102  1  0.14160000  0.53188000  0.99683000  1.0 0.2522556316
C  C103  1  0.12010000  0.56935000  0.99268000  1.0 -0.1013470083
C  C104  1  0.05510000  0.58096000  0.99002000  1.0 0.181678919
C  C105  1  0.03200000  0.61975000  0.98550000  1.0 -0.1683257259
C  C106  1  0.17360000  0.59927000  0.98832000  1.0 0.0998203745
C  C107  1  0.19180000  0.61422000  0.95352000  1.0 -0.1992270605
C  C108  1  0.23870000  0.64329000  0.94962000  1.0 0.0920053459
C  C109  1  0.26680000  0.65738000  0.98275000  1.0 -0.1898745902
C  C110  1  0.25190000  0.64352000  0.01847000  1.0 0.0998203745
C  C111  1  0.20180000  0.61481000  0.02049000  1.0 -0.1992270605
C  C112  1  0.28060000  0.66140000  0.05457000  1.0 0.0604402446
C  C113  1  0.34240000  0.67750000  0.05320000  1.0 -0.1588313058
C  C114  1  0.36770000  0.69460000  0.08370000  1.0 -0.1013470083
C  C115  1  0.33520000  0.69784000  0.11751000  1.0 -0.069903065
C  C116  1  0.28000000  0.67820000  0.11920000  1.0 -0.0890346724
C  C117  1  0.25160000  0.66030000  0.08755000  1.0 -0.1442148705
C  C118  1  0.36110000  0.71665000  0.15142000  1.0 0.6133027505
C  C119  1  0.25460000  0.66048000  0.91148000  1.0 0.0604402446
C  C120  1  0.20970000  0.66240000  0.88265000  1.0 -0.1588313058
C  C121  1  0.22350000  0.67850000  0.84870000  1.0 -0.069903065
C  C122  1  0.28620000  0.69308000  0.84021000  1.0 -0.0310325279
C  C123  1  0.33430000  0.68990000  0.86820000  1.0 -0.0540951501
C  C124  1  0.31720000  0.67250000  0.90350000  1.0 -0.1588313058
C  C125  1  0.30480000  0.71200000  0.80404000  1.0 0.5254992376
C  C126  1  0.03310000  0.99775000  0.88062000  1.0 -0.178274135
C  C127  1  0.05450000  0.99875000  0.91964000  1.0 0.158610681
C  C128  1  0.12090000  0.99941000  0.93069000  1.0 -0.1066194345
C  C129  1  0.14180000  0.00046000  0.96871000  1.0 0.145968778
C  C130  1  0.20840000  0.00030000  0.98111000  1.0 -0.178274135
C  C131  1  0.17510000  0.99920000  0.90058000  1.0 0.0920053459
C  C132  1  0.20470000  0.03332000  0.88901000  1.0 -0.1992270605
C  C133  1  0.25370000  0.03346000  0.86181000  1.0 0.0820523928
C  C134  1  0.27000000  0.99941000  0.84566000  1.0 -0.1898745902
C  C135  1  0.24230000  0.96414000  0.85522000  1.0 0.0820523928
C  C136  1  0.19230000  0.96586000  0.88272000  1.0 -0.1898745902
C  C137  1  0.28490000  0.07082000  0.84896000  1.0 0.0677650291
C  C138  1  0.24960000  0.10140000  0.84210000  1.0 -0.1588313058
C  C139  1  0.27490000  0.13480000  0.82580000  1.0 -0.0827505161
C  C140  1  0.34100000  0.13959000  0.82457000  1.0 -0.0575175118
C  C141  1  0.38070000  0.10850000  0.83140000  1.0 -0.0890346724
C  C142  1  0.35070000  0.07370000  0.84580000  1.0 -0.1588313058
C  C143  1  0.37110000  0.17646000  0.81150000  1.0 0.6287338168
C  C144  1  0.25810000  0.92808000  0.83594000  1.0 0.0604402446
C  C145  1  0.32060000  0.91965000  0.82200000  1.0 -0.1683257259
C  C146  1  0.33430000  0.88647000  0.80490000  1.0 -0.0540951501
C  C147  1  0.28960000  0.85907000  0.79613000  1.0 -0.0575175118
C  C148  1  0.22160000  0.86800000  0.80600000  1.0 -0.069903065
C  C149  1  0.21350000  0.89980000  0.82890000  1.0 -0.178274135
C  C150  1  0.30590000  0.82380000  0.77740000  1.0 0.5061108898
C  C151  1  0.20810000  0.48160000  0.00180000  1.0 -0.1992270605
C  C152  1  0.14160000  0.46812000  0.00317000  1.0 0.2522556316
C  C153  1  0.12010000  0.43065000  0.00732000  1.0 -0.1013470083
C  C154  1  0.05510000  0.41904000  0.00998000  1.0 0.181678919
C  C155  1  0.03200000  0.38025000  0.01450000  1.0 -0.1683257259
C  C156  1  0.17360000  0.40073000  0.01168000  1.0 0.0998203745
C  C157  1  0.19180000  0.38578000  0.04648000  1.0 -0.1992270605
C  C158  1  0.23870000  0.35671000  0.05038000  1.0 0.0920053459
C  C159  1  0.26680000  0.34262000  0.01725000  1.0 -0.1898745902
C  C160  1  0.25190000  0.35648000  0.98153000  1.0 0.0998203745
C  C161  1  0.20180000  0.38519000  0.97951000  1.0 -0.1992270605
C  C162  1  0.28060000  0.33860000  0.94543000  1.0 0.0604402446
C  C163  1  0.34240000  0.32250000  0.94680000  1.0 -0.1588313058
C  C164  1  0.36770000  0.30540000  0.91630000  1.0 -0.1013470083
C  C165  1  0.33520000  0.30216000  0.88249000  1.0 -0.069903065
C  C166  1  0.28000000  0.32180000  0.88080000  1.0 -0.0890346724
C  C167  1  0.25160000  0.33970000  0.91245000  1.0 -0.1442148705
C  C168  1  0.36110000  0.28335000  0.84858000  1.0 0.6133027505
C  C169  1  0.25460000  0.33952000  0.08852000  1.0 0.0604402446
C  C170  1  0.20970000  0.33760000  0.11735000  1.0 -0.1588313058
C  C171  1  0.22350000  0.32150000  0.15130000  1.0 -0.069903065
C  C172  1  0.28620000  0.30692000  0.15979000  1.0 -0.0310325279
C  C173  1  0.33430000  0.31010000  0.13180000  1.0 -0.0540951501
C  C174  1  0.31720000  0.32750000  0.09650000  1.0 -0.1588313058
C  C175  1  0.30480000  0.28800000  0.19596000  1.0 0.5254992376
C  C176  1  0.03310000  0.00225000  0.11938000  1.0 -0.178274135
C  C177  1  0.05450000  0.00125000  0.08036000  1.0 0.158610681
C  C178  1  0.12090000  0.00059000  0.06931000  1.0 -0.1066194345
C  C179  1  0.14180000  0.99954000  0.03129000  1.0 0.145968778
C  C180  1  0.20840000  0.99970000  0.01889000  1.0 -0.178274135
C  C181  1  0.17510000  0.00080000  0.09942000  1.0 0.0920053459
C  C182  1  0.20470000  0.96668000  0.11099000  1.0 -0.1992270605
C  C183  1  0.25370000  0.96654000  0.13819000  1.0 0.0820523928
C  C184  1  0.27000000  0.00059000  0.15434000  1.0 -0.1898745902
C  C185  1  0.24230000  0.03586000  0.14478000  1.0 0.0820523928
C  C186  1  0.19230000  0.03414000  0.11728000  1.0 -0.1898745902
C  C187  1  0.28490000  0.92918000  0.15104000  1.0 0.0677650291
C  C188  1  0.24960000  0.89860000  0.15790000  1.0 -0.1588313058
C  C189  1  0.27490000  0.86520000  0.17420000  1.0 -0.0827505161
C  C190  1  0.34100000  0.86041000  0.17543000  1.0 -0.0575175118
C  C191  1  0.38070000  0.89150000  0.16860000  1.0 -0.0890346724
C  C192  1  0.35070000  0.92630000  0.15420000  1.0 -0.1683257259
C  C193  1  0.37110000  0.82354000  0.18850000  1.0 0.6287338168
C  C194  1  0.25810000  0.07192000  0.16406000  1.0 0.0604402446
C  C195  1  0.32060000  0.08035000  0.17800000  1.0 -0.1683257259
C  C196  1  0.33430000  0.11353000  0.19510000  1.0 -0.0540951501
C  C197  1  0.28960000  0.14093000  0.20387000  1.0 -0.0575175118
C  C198  1  0.22160000  0.13200000  0.19400000  1.0 -0.069903065
C  C199  1  0.21350000  0.10020000  0.17110000  1.0 -0.178274135
C  C200  1  0.30590000  0.17620000  0.22260000  1.0 0.5061108898
C  C201  1  0.20810000  0.01840000  0.50180000  1.0 -0.1992270605
C  C202  1  0.14160000  0.03188000  0.50317000  1.0 0.2522556316
C  C203  1  0.12010000  0.06935000  0.50732000  1.0 -0.1013470083
C  C204  1  0.05510000  0.08096000  0.50998000  1.0 0.181678919
C  C205  1  0.03200000  0.11975000  0.51450000  1.0 -0.1683257259
C  C206  1  0.17360000  0.09927000  0.51168000  1.0 0.0998203745
C  C207  1  0.19180000  0.11422000  0.54648000  1.0 -0.1992270605
C  C208  1  0.23870000  0.14329000  0.55038000  1.0 0.0920053459
C  C209  1  0.26680000  0.15738000  0.51725000  1.0 -0.1898745902
C  C210  1  0.25190000  0.14352000  0.48153000  1.0 0.0998203745
C  C211  1  0.20180000  0.11481000  0.47951000  1.0 -0.1992270605
C  C212  1  0.28060000  0.16140000  0.44543000  1.0 0.0604402446
C  C213  1  0.34240000  0.17750000  0.44680000  1.0 -0.1588313058
C  C214  1  0.36770000  0.19460000  0.41630000  1.0 -0.1013470083
C  C215  1  0.33520000  0.19784000  0.38249000  1.0 -0.069903065
C  C216  1  0.28000000  0.17820000  0.38080000  1.0 -0.0890346724
C  C217  1  0.25160000  0.16030000  0.41245000  1.0 -0.1442148705
C  C218  1  0.36110000  0.21665000  0.34858000  1.0 0.6133027505
C  C219  1  0.25460000  0.16048000  0.58852000  1.0 0.0604402446
C  C220  1  0.20970000  0.16240000  0.61735000  1.0 -0.1588313058
C  C221  1  0.22350000  0.17850000  0.65130000  1.0 -0.069903065
C  C222  1  0.28620000  0.19308000  0.65979000  1.0 -0.0310325279
C  C223  1  0.33430000  0.18990000  0.63180000  1.0 -0.0540951501
C  C224  1  0.31720000  0.17250000  0.59650000  1.0 -0.1588313058
C  C225  1  0.30480000  0.21200000  0.69596000  1.0 0.5254992376
C  C226  1  0.03310000  0.49775000  0.61938000  1.0 -0.178274135
C  C227  1  0.05450000  0.49875000  0.58036000  1.0 0.158610681
C  C228  1  0.12090000  0.49941000  0.56931000  1.0 -0.1066194345
C  C229  1  0.14180000  0.50046000  0.53129000  1.0 0.145968778
C  C230  1  0.20840000  0.50030000  0.51889000  1.0 -0.178274135
C  C231  1  0.17510000  0.49920000  0.59942000  1.0 0.0920053459
C  C232  1  0.20470000  0.53332000  0.61099000  1.0 -0.1992270605
C  C233  1  0.25370000  0.53346000  0.63819000  1.0 0.0820523928
C  C234  1  0.27000000  0.49941000  0.65434000  1.0 -0.1898745902
C  C235  1  0.24230000  0.46414000  0.64478000  1.0 0.0820523928
C  C236  1  0.19230000  0.46586000  0.61728000  1.0 -0.1898745902
C  C237  1  0.28490000  0.57082000  0.65104000  1.0 0.0677650291
C  C238  1  0.24960000  0.60140000  0.65790000  1.0 -0.1588313058
C  C239  1  0.27490000  0.63480000  0.67420000  1.0 -0.0827505161
C  C240  1  0.34100000  0.63959000  0.67543000  1.0 -0.0575175118
C  C241  1  0.38070000  0.60850000  0.66860000  1.0 -0.0890346724
C  C242  1  0.35070000  0.57370000  0.65420000  1.0 -0.1683257259
C  C243  1  0.37110000  0.67646000  0.68850000  1.0 0.6287338168
C  C244  1  0.25810000  0.42808000  0.66406000  1.0 0.0604402446
C  C245  1  0.32060000  0.41965000  0.67800000  1.0 -0.1683257259
C  C246  1  0.33430000  0.38647000  0.69510000  1.0 -0.0540951501
C  C247  1  0.28960000  0.35907000  0.70387000  1.0 -0.0575175118
C  C248  1  0.22160000  0.36800000  0.69400000  1.0 -0.069903065
C  C249  1  0.21350000  0.39980000  0.67110000  1.0 -0.178274135
C  C250  1  0.30590000  0.32380000  0.72260000  1.0 0.5061108898
C  C251  1  0.20810000  0.98160000  0.49820000  1.0 -0.1992270605
C  C252  1  0.14160000  0.96812000  0.49683000  1.0 0.2522556316
C  C253  1  0.12010000  0.93065000  0.49268000  1.0 -0.1013470083
C  C254  1  0.05510000  0.91904000  0.49002000  1.0 0.181678919
C  C255  1  0.03200000  0.88025000  0.48550000  1.0 -0.1683257259
C  C256  1  0.17360000  0.90073000  0.48832000  1.0 0.0998203745
C  C257  1  0.19180000  0.88578000  0.45352000  1.0 -0.1992270605
C  C258  1  0.23870000  0.85671000  0.44962000  1.0 0.0920053459
C  C259  1  0.26680000  0.84262000  0.48275000  1.0 -0.1898745902
C  C260  1  0.25190000  0.85648000  0.51847000  1.0 0.0998203745
C  C261  1  0.20180000  0.88519000  0.52049000  1.0 -0.1992270605
C  C262  1  0.28060000  0.83860000  0.55457000  1.0 0.0604402446
C  C263  1  0.34240000  0.82250000  0.55320000  1.0 -0.1588313058
C  C264  1  0.36770000  0.80540000  0.58370000  1.0 -0.1013470083
C  C265  1  0.33520000  0.80216000  0.61751000  1.0 -0.069903065
C  C266  1  0.28000000  0.82180000  0.61920000  1.0 -0.0890346724
C  C267  1  0.25160000  0.83970000  0.58755000  1.0 -0.1442148705
C  C268  1  0.36110000  0.78335000  0.65142000  1.0 0.6133027505
C  C269  1  0.25460000  0.83952000  0.41148000  1.0 0.0604402446
C  C270  1  0.20970000  0.83760000  0.38265000  1.0 -0.1588313058
C  C271  1  0.22350000  0.82150000  0.34870000  1.0 -0.069903065
C  C272  1  0.28620000  0.80692000  0.34021000  1.0 -0.0310325279
C  C273  1  0.33430000  0.81010000  0.36820000  1.0 -0.0540951501
C  C274  1  0.31720000  0.82750000  0.40350000  1.0 -0.1588313058
C  C275  1  0.30480000  0.78800000  0.30404000  1.0 0.5254992376
C  C276  1  0.03310000  0.50225000  0.38062000  1.0 -0.178274135
C  C277  1  0.05450000  0.50125000  0.41964000  1.0 0.158610681
C  C278  1  0.12090000  0.50059000  0.43069000  1.0 -0.1066194345
C  C279  1  0.14180000  0.49954000  0.46871000  1.0 0.145968778
C  C280  1  0.20840000  0.49970000  0.48111000  1.0 -0.178274135
C  C281  1  0.17510000  0.50080000  0.40058000  1.0 0.0920053459
C  C282  1  0.20470000  0.46668000  0.38901000  1.0 -0.1992270605
C  C283  1  0.25370000  0.46654000  0.36181000  1.0 0.0820523928
C  C284  1  0.27000000  0.50059000  0.34566000  1.0 -0.1898745902
C  C285  1  0.24230000  0.53586000  0.35522000  1.0 0.0820523928
C  C286  1  0.19230000  0.53414000  0.38272000  1.0 -0.1898745902
C  C287  1  0.28490000  0.42918000  0.34896000  1.0 0.0677650291
C  C288  1  0.24960000  0.39860000  0.34210000  1.0 -0.1588313058
C  C289  1  0.27490000  0.36520000  0.32580000  1.0 -0.0827505161
C  C290  1  0.34100000  0.36041000  0.32457000  1.0 -0.0575175118
C  C291  1  0.38070000  0.39150000  0.33140000  1.0 -0.0890346724
C  C292  1  0.35070000  0.42630000  0.34580000  1.0 -0.1683257259
C  C293  1  0.37110000  0.32354000  0.31150000  1.0 0.6287338168
C  C294  1  0.25810000  0.57192000  0.33594000  1.0 0.0604402446
C  C295  1  0.32060000  0.58035000  0.32200000  1.0 -0.1683257259
C  C296  1  0.33430000  0.61353000  0.30490000  1.0 -0.0540951501
C  C297  1  0.28960000  0.64093000  0.29613000  1.0 -0.0575175118
C  C298  1  0.22160000  0.63200000  0.30600000  1.0 -0.069903065
C  C299  1  0.21350000  0.60020000  0.32890000  1.0 -0.178274135
C  C300  1  0.30590000  0.67620000  0.27740000  1.0 0.5061108898
C  C301  1  0.79190000  0.48160000  0.00180000  1.0 -0.1992270605
C  C302  1  0.85840000  0.46812000  0.00317000  1.0 0.2522556316
C  C303  1  0.87990000  0.43065000  0.00732000  1.0 -0.1013470083
C  C304  1  0.94490000  0.41904000  0.00998000  1.0 0.181678919
C  C305  1  0.96800000  0.38025000  0.01450000  1.0 -0.1683257259
C  C306  1  0.82640000  0.40073000  0.01168000  1.0 0.0998203745
C  C307  1  0.80820000  0.38578000  0.04648000  1.0 -0.1992270605
C  C308  1  0.76130000  0.35671000  0.05038000  1.0 0.0920053459
C  C309  1  0.73320000  0.34262000  0.01725000  1.0 -0.1898745902
C  C310  1  0.74810000  0.35648000  0.98153000  1.0 0.0998203745
C  C311  1  0.79820000  0.38519000  0.97951000  1.0 -0.1992270605
C  C312  1  0.71940000  0.33860000  0.94543000  1.0 0.0604402446
C  C313  1  0.65760000  0.32250000  0.94680000  1.0 -0.1588313058
C  C314  1  0.63230000  0.30540000  0.91630000  1.0 -0.1013470083
C  C315  1  0.66480000  0.30216000  0.88249000  1.0 -0.069903065
C  C316  1  0.72000000  0.32180000  0.88080000  1.0 -0.0890346724
C  C317  1  0.74840000  0.33970000  0.91245000  1.0 -0.1442148705
C  C318  1  0.63890000  0.28335000  0.84858000  1.0 0.6133027505
C  C319  1  0.74540000  0.33952000  0.08852000  1.0 0.0604402446
C  C320  1  0.79030000  0.33760000  0.11735000  1.0 -0.1588313058
C  C321  1  0.77650000  0.32150000  0.15130000  1.0 -0.069903065
C  C322  1  0.71380000  0.30692000  0.15979000  1.0 -0.0310325279
C  C323  1  0.66570000  0.31010000  0.13180000  1.0 -0.0540951501
C  C324  1  0.68280000  0.32750000  0.09650000  1.0 -0.1588313058
C  C325  1  0.69520000  0.28800000  0.19596000  1.0 0.5254992376
C  C326  1  0.96690000  0.00225000  0.11938000  1.0 -0.178274135
C  C327  1  0.94550000  0.00125000  0.08036000  1.0 0.158610681
C  C328  1  0.87910000  0.00059000  0.06931000  1.0 -0.1066194345
C  C329  1  0.85820000  0.99954000  0.03129000  1.0 0.145968778
C  C330  1  0.79160000  0.99970000  0.01889000  1.0 -0.178274135
C  C331  1  0.82490000  0.00080000  0.09942000  1.0 0.0920053459
C  C332  1  0.79530000  0.96668000  0.11099000  1.0 -0.1992270605
C  C333  1  0.74630000  0.96654000  0.13819000  1.0 0.0820523928
C  C334  1  0.73000000  0.00059000  0.15434000  1.0 -0.1898745902
C  C335  1  0.75770000  0.03586000  0.14478000  1.0 0.0820523928
C  C336  1  0.80770000  0.03414000  0.11728000  1.0 -0.1898745902
C  C337  1  0.71510000  0.92918000  0.15104000  1.0 0.0677650291
C  C338  1  0.75040000  0.89860000  0.15790000  1.0 -0.1588313058
C  C339  1  0.72510000  0.86520000  0.17420000  1.0 -0.0827505161
C  C340  1  0.65900000  0.86041000  0.17543000  1.0 -0.0575175118
C  C341  1  0.61930000  0.89150000  0.16860000  1.0 -0.0890346724
C  C342  1  0.64930000  0.92630000  0.15420000  1.0 -0.1683257259
C  C343  1  0.62890000  0.82354000  0.18850000  1.0 0.6287338168
C  C344  1  0.74190000  0.07192000  0.16406000  1.0 0.0604402446
C  C345  1  0.67940000  0.08035000  0.17800000  1.0 -0.1683257259
C  C346  1  0.66570000  0.11353000  0.19510000  1.0 -0.0540951501
C  C347  1  0.71040000  0.14093000  0.20387000  1.0 -0.0575175118
C  C348  1  0.77840000  0.13200000  0.19400000  1.0 -0.069903065
C  C349  1  0.78650000  0.10020000  0.17110000  1.0 -0.1683257259
C  C350  1  0.69410000  0.17620000  0.22260000  1.0 0.5061108898
C  C351  1  0.79190000  0.51840000  0.99820000  1.0 -0.1992270605
C  C352  1  0.85840000  0.53188000  0.99683000  1.0 0.2522556316
C  C353  1  0.87990000  0.56935000  0.99268000  1.0 -0.1013470083
C  C354  1  0.94490000  0.58096000  0.99002000  1.0 0.181678919
C  C355  1  0.96800000  0.61975000  0.98550000  1.0 -0.1683257259
C  C356  1  0.82640000  0.59927000  0.98832000  1.0 0.0998203745
C  C357  1  0.80820000  0.61422000  0.95352000  1.0 -0.1992270605
C  C358  1  0.76130000  0.64329000  0.94962000  1.0 0.0920053459
C  C359  1  0.73320000  0.65738000  0.98275000  1.0 -0.1898745902
C  C360  1  0.74810000  0.64352000  0.01847000  1.0 0.0998203745
C  C361  1  0.79820000  0.61481000  0.02049000  1.0 -0.1992270605
C  C362  1  0.71940000  0.66140000  0.05457000  1.0 0.0604402446
C  C363  1  0.65760000  0.67750000  0.05320000  1.0 -0.1588313058
C  C364  1  0.63230000  0.69460000  0.08370000  1.0 -0.1013470083
C  C365  1  0.66480000  0.69784000  0.11751000  1.0 -0.069903065
C  C366  1  0.72000000  0.67820000  0.11920000  1.0 -0.0890346724
C  C367  1  0.74840000  0.66030000  0.08755000  1.0 -0.1442148705
C  C368  1  0.63890000  0.71665000  0.15142000  1.0 0.6133027505
C  C369  1  0.74540000  0.66048000  0.91148000  1.0 0.0604402446
C  C370  1  0.79030000  0.66240000  0.88265000  1.0 -0.1588313058
C  C371  1  0.77650000  0.67850000  0.84870000  1.0 -0.069903065
C  C372  1  0.71380000  0.69308000  0.84021000  1.0 -0.0310325279
C  C373  1  0.66570000  0.68990000  0.86820000  1.0 -0.0540951501
C  C374  1  0.68280000  0.67250000  0.90350000  1.0 -0.1588313058
C  C375  1  0.69520000  0.71200000  0.80404000  1.0 0.5254992376
C  C376  1  0.96690000  0.99775000  0.88062000  1.0 -0.178274135
C  C377  1  0.94550000  0.99875000  0.91964000  1.0 0.158610681
C  C378  1  0.87910000  0.99941000  0.93069000  1.0 -0.1066194345
C  C379  1  0.85820000  0.00046000  0.96871000  1.0 0.145968778
C  C380  1  0.79160000  0.00030000  0.98111000  1.0 -0.178274135
C  C381  1  0.82490000  0.99920000  0.90058000  1.0 0.0920053459
C  C382  1  0.79530000  0.03332000  0.88901000  1.0 -0.1992270605
C  C383  1  0.74630000  0.03346000  0.86181000  1.0 0.0820523928
C  C384  1  0.73000000  0.99941000  0.84566000  1.0 -0.1898745902
C  C385  1  0.75770000  0.96414000  0.85522000  1.0 0.0820523928
C  C386  1  0.80770000  0.96586000  0.88272000  1.0 -0.1898745902
C  C387  1  0.71510000  0.07082000  0.84896000  1.0 0.0677650291
C  C388  1  0.75040000  0.10140000  0.84210000  1.0 -0.1588313058
C  C389  1  0.72510000  0.13480000  0.82580000  1.0 -0.0827505161
C  C390  1  0.65900000  0.13959000  0.82457000  1.0 -0.0575175118
C  C391  1  0.61930000  0.10850000  0.83140000  1.0 -0.0890346724
C  C392  1  0.64930000  0.07370000  0.84580000  1.0 -0.1588313058
C  C393  1  0.62890000  0.17646000  0.81150000  1.0 0.6287338168
C  C394  1  0.74190000  0.92808000  0.83594000  1.0 0.0604402446
C  C395  1  0.67940000  0.91965000  0.82200000  1.0 -0.1683257259
C  C396  1  0.66570000  0.88647000  0.80490000  1.0 -0.0540951501
C  C397  1  0.71040000  0.85907000  0.79613000  1.0 -0.0575175118
C  C398  1  0.77840000  0.86800000  0.80600000  1.0 -0.069903065
C  C399  1  0.78650000  0.89980000  0.82890000  1.0 -0.1683257259
C  C400  1  0.69410000  0.82380000  0.77740000  1.0 0.5061108898
C  C401  1  0.50000000  0.74380000  0.25040000  1.0 0.6519831251
C  C402  1  0.50000000  0.73190000  0.29190000  1.0 -0.3734998424
C  C403  1  0.50000000  0.25620000  0.74960000  1.0 0.6519831251
C  C404  1  0.50000000  0.26810000  0.70810000  1.0 -0.3734998424
C  C405  1  0.50000000  0.75620000  0.75040000  1.0 0.6519831251
C  C406  1  0.50000000  0.76810000  0.79190000  1.0 -0.3734998424
C  C407  1  0.50000000  0.24380000  0.24960000  1.0 0.6519831251
C  C408  1  0.50000000  0.23190000  0.20810000  1.0 -0.3734998424
N  N1  1  0.90050000  0.99560000  0.50270000  1.0 -0.3183050882
N  N2  1  0.90050000  0.00440000  0.49730000  1.0 -0.3183050882
N  N3  1  0.09950000  0.50440000  0.00270000  1.0 -0.3183050882
N  N4  1  0.09950000  0.49560000  0.99730000  1.0 -0.3183050882
N  N5  1  0.09950000  0.00440000  0.49730000  1.0 -0.3183050882
N  N6  1  0.09950000  0.99560000  0.50270000  1.0 -0.3183050882
N  N7  1  0.90050000  0.49560000  0.99730000  1.0 -0.3183050882
N  N8  1  0.90050000  0.50440000  0.00270000  1.0 -0.3183050882
N  N9  1  0.00000000  0.94318000  0.49223000  1.0 -0.3865639438
N  N10  1  0.00000000  0.50053000  0.44176000  1.0 -0.4241329004
N  N11  1  0.00000000  0.05682000  0.50777000  1.0 -0.3865639438
N  N12  1  0.00000000  0.49947000  0.55824000  1.0 -0.4241329004
N  N13  1  0.00000000  0.55682000  0.99223000  1.0 -0.3865639438
N  N14  1  0.00000000  0.99947000  0.94176000  1.0 -0.4241329004
N  N15  1  0.00000000  0.44318000  0.00777000  1.0 -0.3865639438
N  N16  1  0.00000000  0.00053000  0.05824000  1.0 -0.4241329004
N  N17  1  0.90130000  0.50000000  0.50000000  1.0 -0.463876823
N  N18  1  0.09870000  0.00000000  0.00000000  1.0 -0.463876823
N  N19  1  0.09870000  0.50000000  0.50000000  1.0 -0.463876823
N  N20  1  0.90130000  0.00000000  0.00000000  1.0 -0.463876823
O  O1  1  0.66340000  0.78720000  0.68301000  1.0 -0.5575107579
O  O2  1  0.59170000  0.75720000  0.64522000  1.0 -0.6993254443
O  O3  1  0.64350000  0.77284000  0.29915000  1.0 -0.5056380873
O  O4  1  0.74310000  0.78493000  0.27884000  1.0 -0.5967235398
O  O5  1  0.66180000  0.30217000  0.29196000  1.0 -0.5575107579
O  O6  1  0.56660000  0.31772000  0.31930000  1.0 -0.63231037
O  O7  1  0.74340000  0.70082000  0.26820000  1.0 -0.5967235398
O  O8  1  0.64090000  0.68482000  0.26593000  1.0 -0.463876823
O  O9  1  0.55326000  0.74868000  0.23231000  1.0 -0.63231037
O  O10  1  0.66340000  0.21280000  0.31699000  1.0 -0.5575107579
O  O11  1  0.59170000  0.24280000  0.35478000  1.0 -0.6993254443
O  O12  1  0.64350000  0.22716000  0.70085000  1.0 -0.5056380873
O  O13  1  0.74310000  0.21507000  0.72116000  1.0 -0.5967235398
O  O14  1  0.66180000  0.69783000  0.70804000  1.0 -0.5575107579
O  O15  1  0.56660000  0.68228000  0.68070000  1.0 -0.63231037
O  O16  1  0.74340000  0.29918000  0.73180000  1.0 -0.5967235398
O  O17  1  0.64090000  0.31518000  0.73407000  1.0 -0.463876823
O  O18  1  0.55326000  0.25132000  0.76769000  1.0 -0.63231037
O  O19  1  0.33660000  0.71280000  0.18301000  1.0 -0.5575107579
O  O20  1  0.40830000  0.74280000  0.14522000  1.0 -0.6993254443
O  O21  1  0.35650000  0.72716000  0.79915000  1.0 -0.5056380873
O  O22  1  0.25690000  0.71507000  0.77884000  1.0 -0.5967235398
O  O23  1  0.33820000  0.19783000  0.79196000  1.0 -0.5575107579
O  O24  1  0.43340000  0.18228000  0.81930000  1.0 -0.63231037
O  O25  1  0.25660000  0.79918000  0.76820000  1.0 -0.5967235398
O  O26  1  0.35910000  0.81518000  0.76593000  1.0 -0.463876823
O  O27  1  0.44674000  0.75132000  0.73231000  1.0 -0.63231037
O  O28  1  0.33660000  0.28720000  0.81699000  1.0 -0.5575107579
O  O29  1  0.40830000  0.25720000  0.85478000  1.0 -0.6993254443
O  O30  1  0.35650000  0.27284000  0.20085000  1.0 -0.5056380873
O  O31  1  0.25690000  0.28493000  0.22116000  1.0 -0.5967235398
O  O32  1  0.33820000  0.80217000  0.20804000  1.0 -0.5575107579
O  O33  1  0.43340000  0.81772000  0.18070000  1.0 -0.63231037
O  O34  1  0.25660000  0.20082000  0.23180000  1.0 -0.5967235398
O  O35  1  0.35910000  0.18482000  0.23407000  1.0 -0.463876823
O  O36  1  0.44674000  0.24868000  0.26769000  1.0 -0.63231037
O  O37  1  0.33660000  0.21280000  0.31699000  1.0 -0.5575107579
O  O38  1  0.40830000  0.24280000  0.35478000  1.0 -0.6993254443
O  O39  1  0.35650000  0.22716000  0.70085000  1.0 -0.5056380873
O  O40  1  0.25690000  0.21507000  0.72116000  1.0 -0.5967235398
O  O41  1  0.33820000  0.69783000  0.70804000  1.0 -0.5575107579
O  O42  1  0.43340000  0.68228000  0.68070000  1.0 -0.63231037
O  O43  1  0.25660000  0.29918000  0.73180000  1.0 -0.5967235398
O  O44  1  0.35910000  0.31518000  0.73407000  1.0 -0.463876823
O  O45  1  0.44674000  0.25132000  0.76769000  1.0 -0.63231037
O  O46  1  0.33660000  0.78720000  0.68301000  1.0 -0.5575107579
O  O47  1  0.40830000  0.75720000  0.64522000  1.0 -0.6993254443
O  O48  1  0.35650000  0.77284000  0.29915000  1.0 -0.5056380873
O  O49  1  0.25690000  0.78493000  0.27884000  1.0 -0.5967235398
O  O50  1  0.33820000  0.30217000  0.29196000  1.0 -0.5575107579
O  O51  1  0.43340000  0.31772000  0.31930000  1.0 -0.63231037
O  O52  1  0.25660000  0.70082000  0.26820000  1.0 -0.5967235398
O  O53  1  0.35910000  0.68482000  0.26593000  1.0 -0.463876823
O  O54  1  0.44674000  0.74868000  0.23231000  1.0 -0.63231037
O  O55  1  0.66340000  0.28720000  0.81699000  1.0 -0.5575107579
O  O56  1  0.59170000  0.25720000  0.85478000  1.0 -0.6993254443
O  O57  1  0.64350000  0.27284000  0.20085000  1.0 -0.5056380873
O  O58  1  0.74310000  0.28493000  0.22116000  1.0 -0.5967235398
O  O59  1  0.66180000  0.80217000  0.20804000  1.0 -0.5575107579
O  O60  1  0.56660000  0.81772000  0.18070000  1.0 -0.63231037
O  O61  1  0.74340000  0.20082000  0.23180000  1.0 -0.5967235398
O  O62  1  0.64090000  0.18482000  0.23407000  1.0 -0.463876823
O  O63  1  0.55326000  0.24868000  0.26769000  1.0 -0.63231037
O  O64  1  0.66340000  0.71280000  0.18301000  1.0 -0.5575107579
O  O65  1  0.59170000  0.74280000  0.14522000  1.0 -0.6993254443
O  O66  1  0.64350000  0.72716000  0.79915000  1.0 -0.5056380873
O  O67  1  0.74310000  0.71507000  0.77884000  1.0 -0.5967235398
O  O68  1  0.66180000  0.19783000  0.79196000  1.0 -0.5575107579
O  O69  1  0.56660000  0.18228000  0.81930000  1.0 -0.63231037
O  O70  1  0.74340000  0.79918000  0.76820000  1.0 -0.5967235398
O  O71  1  0.64090000  0.81518000  0.76593000  1.0 -0.463876823
O  O72  1  0.55326000  0.75132000  0.73231000  1.0 -0.63231037
