# DDEC6 charges by PACMAN v1.1 (https://github.com/mtap-research/PACMAN-charge/)
data_NIZPAQ_ASR_pacman
_symmetry_space_group_name_H-M   'P 1'
_cell_length_a   19.93790000
_cell_length_b   34.93010000
_cell_length_c   34.95040000
_cell_angle_alpha   90.00000000
_cell_angle_beta   90.00000000
_cell_angle_gamma   90.00000000
_symmetry_Int_Tables_number   1
_chemical_formula_structural   Y3MnH58C102N4(ClO9)2
_chemical_formula_sum   'Y12 Mn4 H232 C408 N16 Cl8 O72'
_cell_volume   24340.60635875
_cell_formula_units_Z   4
loop_
 _symmetry_equiv_pos_site_id
 _symmetry_equiv_pos_as_xyz
  1  'x, y, z'
loop_
 _atom_site_type_symbol
 _atom_site_label
 _atom_site_symmetry_multiplicity
 _atom_site_fract_x
 _atom_site_fract_y
 _atom_site_fract_z
 _atom_site_occupancy
 _atom_site_charge
Y  Y1  1  0.67379000  0.24501000  0.25786000  1.0 1.6057841748
Y  Y2  1  0.67379000  0.75499000  0.74214000  1.0 1.6057841748
Y  Y3  1  0.32621000  0.25499000  0.75786000  1.0 1.6057841748
Y  Y4  1  0.32621000  0.74501000  0.24214000  1.0 1.6057841748
Y  Y5  1  0.32621000  0.75499000  0.74214000  1.0 1.6057841748
Y  Y6  1  0.32621000  0.24501000  0.25786000  1.0 1.6057841748
Y  Y7  1  0.67379000  0.74501000  0.24214000  1.0 1.6057841748
Y  Y8  1  0.67379000  0.25499000  0.75786000  1.0 1.6057841748
Y  Y9  1  0.50000000  0.26729000  0.32674000  1.0 1.7560746341
Y  Y10  1  0.50000000  0.73271000  0.67326000  1.0 1.7560746341
Y  Y11  1  0.50000000  0.23271000  0.82674000  1.0 1.7560746341
Y  Y12  1  0.50000000  0.76729000  0.17326000  1.0 1.7560746341
Mn  Mn1  1  0.00000000  0.50000000  0.00000000  1.0 0.6489601999
Mn  Mn2  1  0.00000000  0.00000000  0.50000000  1.0 0.6417586475
Mn  Mn3  1  0.00000000  0.00000000  0.00000000  1.0 0.6417586475
Mn  Mn4  1  0.00000000  0.50000000  0.50000000  1.0 0.6489601999
H  H1  1  0.75090000  0.46600000  0.00220000  1.0 0.1198171133
H  H2  1  0.93910000  0.35910000  0.01470000  1.0 0.1132328012
H  H3  1  0.82830000  0.39540000  0.06540000  1.0 0.1198171133
H  H4  1  0.70250000  0.32320000  0.01630000  1.0 0.1198171133
H  H5  1  0.81070000  0.39420000  0.95190000  1.0 0.1198171133
H  H6  1  0.62340000  0.32680000  0.96170000  1.0 0.1302666174
H  H7  1  0.58090000  0.30870000  0.90540000  1.0 0.1302666174
H  H8  1  0.74390000  0.31840000  0.85470000  1.0 0.1302666174
H  H9  1  0.79530000  0.34900000  0.90580000  1.0 0.1302666174
H  H10  1  0.82970000  0.34790000  0.10920000  1.0 0.1198171133
H  H11  1  0.79870000  0.31840000  0.16940000  1.0 0.1198171133
H  H12  1  0.61540000  0.30100000  0.13790000  1.0 0.1520902689
H  H13  1  0.64140000  0.33020000  0.07910000  1.0 0.1132328012
H  H14  1  0.93860000  0.00210000  0.14200000  1.0 0.1198171133
H  H15  1  0.75010000  0.99960000  0.03460000  1.0 0.1132328012
H  H16  1  0.81230000  0.94130000  0.10140000  1.0 0.1302666174
H  H17  1  0.69250000  0.00030000  0.17220000  1.0 0.1198171133
H  H18  1  0.82140000  0.05620000  0.10780000  1.0 0.1302666174
H  H19  1  0.79670000  0.89850000  0.15450000  1.0 0.1198171133
H  H20  1  0.75420000  0.84000000  0.18090000  1.0 0.1302666174
H  H21  1  0.57080000  0.88820000  0.17240000  1.0 0.1302666174
H  H22  1  0.62460000  0.94440000  0.14930000  1.0 0.1198171133
H  H23  1  0.63790000  0.06130000  0.17570000  1.0 0.1198171133
H  H24  1  0.62040000  0.11680000  0.20450000  1.0 0.1444603416
H  H25  1  0.81020000  0.14370000  0.19580000  1.0 0.1302666174
H  H26  1  0.81560000  0.09470000  0.15160000  1.0 0.1198171133
H  H27  1  0.54540000  0.23090000  0.19740000  1.0 0.0509136832
H  H28  1  0.47640000  0.25170000  0.19190000  1.0 0.0612609886
H  H29  1  0.47820000  0.20840000  0.20340000  1.0 0.0709172644
H  H30  1  0.75090000  0.53400000  0.99780000  1.0 0.1198171133
H  H31  1  0.93910000  0.64090000  0.98530000  1.0 0.1132328012
H  H32  1  0.82830000  0.60460000  0.93460000  1.0 0.1198171133
H  H33  1  0.70250000  0.67680000  0.98370000  1.0 0.1198171133
H  H34  1  0.81070000  0.60580000  0.04810000  1.0 0.1198171133
H  H35  1  0.62340000  0.67320000  0.03830000  1.0 0.1302666174
H  H36  1  0.58090000  0.69130000  0.09460000  1.0 0.1302666174
H  H37  1  0.74390000  0.68160000  0.14530000  1.0 0.1302666174
H  H38  1  0.79530000  0.65100000  0.09420000  1.0 0.1302666174
H  H39  1  0.82970000  0.65210000  0.89080000  1.0 0.1198171133
H  H40  1  0.79870000  0.68160000  0.83060000  1.0 0.1198171133
H  H41  1  0.61540000  0.69900000  0.86210000  1.0 0.1520902689
H  H42  1  0.64140000  0.66980000  0.92090000  1.0 0.1132328012
H  H43  1  0.93860000  0.99790000  0.85800000  1.0 0.1198171133
H  H44  1  0.75010000  0.00040000  0.96540000  1.0 0.1132328012
H  H45  1  0.81230000  0.05870000  0.89860000  1.0 0.1302666174
H  H46  1  0.69250000  0.99970000  0.82780000  1.0 0.1198171133
H  H47  1  0.82140000  0.94380000  0.89220000  1.0 0.1302666174
H  H48  1  0.79670000  0.10150000  0.84550000  1.0 0.1198171133
H  H49  1  0.75420000  0.16000000  0.81910000  1.0 0.1302666174
H  H50  1  0.57080000  0.11180000  0.82760000  1.0 0.1302666174
H  H51  1  0.62460000  0.05560000  0.85070000  1.0 0.1198171133
H  H52  1  0.63790000  0.93870000  0.82430000  1.0 0.1198171133
H  H53  1  0.62040000  0.88320000  0.79550000  1.0 0.1444603416
H  H54  1  0.81020000  0.85630000  0.80420000  1.0 0.1302666174
H  H55  1  0.81560000  0.90530000  0.84840000  1.0 0.1198171133
H  H56  1  0.54540000  0.76910000  0.80260000  1.0 0.0509136832
H  H57  1  0.47640000  0.74830000  0.80810000  1.0 0.0612609886
H  H58  1  0.47820000  0.79160000  0.79660000  1.0 0.0709172644
H  H59  1  0.24910000  0.03400000  0.50220000  1.0 0.1198171133
H  H60  1  0.06090000  0.14090000  0.51470000  1.0 0.1132328012
H  H61  1  0.17170000  0.10460000  0.56540000  1.0 0.1198171133
H  H62  1  0.29750000  0.17680000  0.51630000  1.0 0.1198171133
H  H63  1  0.18930000  0.10580000  0.45190000  1.0 0.1198171133
H  H64  1  0.37660000  0.17320000  0.46170000  1.0 0.1302666174
H  H65  1  0.41910000  0.19130000  0.40540000  1.0 0.1302666174
H  H66  1  0.25610000  0.18160000  0.35470000  1.0 0.1302666174
H  H67  1  0.20470000  0.15100000  0.40580000  1.0 0.1302666174
H  H68  1  0.17030000  0.15210000  0.60920000  1.0 0.1198171133
H  H69  1  0.20130000  0.18160000  0.66940000  1.0 0.1198171133
H  H70  1  0.38460000  0.19900000  0.63790000  1.0 0.1520902689
H  H71  1  0.35860000  0.16980000  0.57910000  1.0 0.1132328012
H  H72  1  0.06140000  0.49790000  0.64200000  1.0 0.1198171133
H  H73  1  0.24990000  0.50040000  0.53460000  1.0 0.1132328012
H  H74  1  0.18770000  0.55870000  0.60140000  1.0 0.1302666174
H  H75  1  0.30750000  0.49970000  0.67220000  1.0 0.1198171133
H  H76  1  0.17860000  0.44380000  0.60780000  1.0 0.1302666174
H  H77  1  0.20330000  0.60150000  0.65450000  1.0 0.1198171133
H  H78  1  0.24580000  0.66000000  0.68090000  1.0 0.1302666174
H  H79  1  0.42920000  0.61180000  0.67240000  1.0 0.1198171133
H  H80  1  0.37540000  0.55560000  0.64930000  1.0 0.1198171133
H  H81  1  0.36210000  0.43870000  0.67570000  1.0 0.1198171133
H  H82  1  0.37960000  0.38320000  0.70450000  1.0 0.1444603416
H  H83  1  0.18980000  0.35630000  0.69580000  1.0 0.1302666174
H  H84  1  0.18440000  0.40530000  0.65160000  1.0 0.1198171133
H  H85  1  0.45460000  0.26910000  0.69740000  1.0 0.0612609886
H  H86  1  0.52360000  0.24830000  0.69190000  1.0 0.0612609886
H  H87  1  0.52180000  0.29160000  0.70340000  1.0 0.0709172644
H  H88  1  0.24910000  0.96600000  0.49780000  1.0 0.1198171133
H  H89  1  0.06090000  0.85910000  0.48530000  1.0 0.1132328012
H  H90  1  0.17170000  0.89540000  0.43460000  1.0 0.1198171133
H  H91  1  0.29750000  0.82320000  0.48370000  1.0 0.1198171133
H  H92  1  0.18930000  0.89420000  0.54810000  1.0 0.1198171133
H  H93  1  0.37660000  0.82680000  0.53830000  1.0 0.1302666174
H  H94  1  0.41910000  0.80870000  0.59460000  1.0 0.1302666174
H  H95  1  0.25610000  0.81840000  0.64530000  1.0 0.1302666174
H  H96  1  0.20470000  0.84900000  0.59420000  1.0 0.1302666174
H  H97  1  0.17030000  0.84790000  0.39080000  1.0 0.1198171133
H  H98  1  0.20130000  0.81840000  0.33060000  1.0 0.1198171133
H  H99  1  0.38460000  0.80100000  0.36210000  1.0 0.1520902689
H  H100  1  0.35860000  0.83020000  0.42090000  1.0 0.1132328012
H  H101  1  0.06140000  0.50210000  0.35800000  1.0 0.1198171133
H  H102  1  0.24990000  0.49960000  0.46540000  1.0 0.1132328012
H  H103  1  0.18770000  0.44130000  0.39860000  1.0 0.1302666174
H  H104  1  0.30750000  0.50030000  0.32780000  1.0 0.1198171133
H  H105  1  0.17860000  0.55620000  0.39220000  1.0 0.1302666174
H  H106  1  0.20330000  0.39850000  0.34550000  1.0 0.1198171133
H  H107  1  0.24580000  0.34000000  0.31910000  1.0 0.1302666174
H  H108  1  0.42920000  0.38820000  0.32760000  1.0 0.1302666174
H  H109  1  0.37540000  0.44440000  0.35070000  1.0 0.1198171133
H  H110  1  0.36210000  0.56130000  0.32430000  1.0 0.1198171133
H  H111  1  0.37960000  0.61680000  0.29550000  1.0 0.1444603416
H  H112  1  0.18980000  0.64370000  0.30420000  1.0 0.1302666174
H  H113  1  0.18440000  0.59470000  0.34840000  1.0 0.1198171133
H  H114  1  0.45460000  0.73090000  0.30260000  1.0 0.0509136832
H  H115  1  0.52360000  0.75170000  0.30810000  1.0 0.0612609886
H  H116  1  0.52180000  0.70840000  0.29660000  1.0 0.0709172644
H  H117  1  0.24910000  0.53400000  0.99780000  1.0 0.1198171133
H  H118  1  0.06090000  0.64090000  0.98530000  1.0 0.1132328012
H  H119  1  0.17170000  0.60460000  0.93460000  1.0 0.1198171133
H  H120  1  0.29750000  0.67680000  0.98370000  1.0 0.1198171133
H  H121  1  0.18930000  0.60580000  0.04810000  1.0 0.1198171133
H  H122  1  0.37660000  0.67320000  0.03830000  1.0 0.1302666174
H  H123  1  0.41910000  0.69130000  0.09460000  1.0 0.1302666174
H  H124  1  0.25610000  0.68160000  0.14530000  1.0 0.1302666174
H  H125  1  0.20470000  0.65100000  0.09420000  1.0 0.1302666174
H  H126  1  0.17030000  0.65210000  0.89080000  1.0 0.1198171133
H  H127  1  0.20130000  0.68160000  0.83060000  1.0 0.1198171133
H  H128  1  0.38460000  0.69900000  0.86210000  1.0 0.1520902689
H  H129  1  0.35860000  0.66980000  0.92090000  1.0 0.1132328012
H  H130  1  0.06140000  0.99790000  0.85800000  1.0 0.1198171133
H  H131  1  0.24990000  0.00040000  0.96540000  1.0 0.1132328012
H  H132  1  0.18770000  0.05870000  0.89860000  1.0 0.1302666174
H  H133  1  0.30750000  0.99970000  0.82780000  1.0 0.1198171133
H  H134  1  0.17860000  0.94380000  0.89220000  1.0 0.1302666174
H  H135  1  0.20330000  0.10150000  0.84550000  1.0 0.1198171133
H  H136  1  0.24580000  0.16000000  0.81910000  1.0 0.1302666174
H  H137  1  0.42920000  0.11180000  0.82760000  1.0 0.1302666174
H  H138  1  0.37540000  0.05560000  0.85070000  1.0 0.1198171133
H  H139  1  0.36210000  0.93870000  0.82430000  1.0 0.1198171133
H  H140  1  0.37960000  0.88320000  0.79550000  1.0 0.1444603416
H  H141  1  0.18980000  0.85630000  0.80420000  1.0 0.1302666174
H  H142  1  0.18440000  0.90530000  0.84840000  1.0 0.1198171133
H  H143  1  0.45460000  0.76910000  0.80260000  1.0 0.0509136832
H  H144  1  0.52360000  0.74830000  0.80810000  1.0 0.0612609886
H  H145  1  0.52180000  0.79160000  0.79660000  1.0 0.0709172644
H  H146  1  0.24910000  0.46600000  0.00220000  1.0 0.1198171133
H  H147  1  0.06090000  0.35910000  0.01470000  1.0 0.1132328012
H  H148  1  0.17170000  0.39540000  0.06540000  1.0 0.1198171133
H  H149  1  0.29750000  0.32320000  0.01630000  1.0 0.1198171133
H  H150  1  0.18930000  0.39420000  0.95190000  1.0 0.1198171133
H  H151  1  0.37660000  0.32680000  0.96170000  1.0 0.1302666174
H  H152  1  0.41910000  0.30870000  0.90540000  1.0 0.1302666174
H  H153  1  0.25610000  0.31840000  0.85470000  1.0 0.1302666174
H  H154  1  0.20470000  0.34900000  0.90580000  1.0 0.1302666174
H  H155  1  0.17030000  0.34790000  0.10920000  1.0 0.1198171133
H  H156  1  0.20130000  0.31840000  0.16940000  1.0 0.1198171133
H  H157  1  0.38460000  0.30100000  0.13790000  1.0 0.1520902689
H  H158  1  0.35860000  0.33020000  0.07910000  1.0 0.1132328012
H  H159  1  0.06140000  0.00210000  0.14200000  1.0 0.1198171133
H  H160  1  0.24990000  0.99960000  0.03460000  1.0 0.1132328012
H  H161  1  0.18770000  0.94130000  0.10140000  1.0 0.1302666174
H  H162  1  0.30750000  0.00030000  0.17220000  1.0 0.1198171133
H  H163  1  0.17860000  0.05620000  0.10780000  1.0 0.1302666174
H  H164  1  0.20330000  0.89850000  0.15450000  1.0 0.1198171133
H  H165  1  0.24580000  0.84000000  0.18090000  1.0 0.1302666174
H  H166  1  0.42920000  0.88820000  0.17240000  1.0 0.1302666174
H  H167  1  0.37540000  0.94440000  0.14930000  1.0 0.1198171133
H  H168  1  0.36210000  0.06130000  0.17570000  1.0 0.1198171133
H  H169  1  0.37960000  0.11680000  0.20450000  1.0 0.1444603416
H  H170  1  0.18980000  0.14370000  0.19580000  1.0 0.1302666174
H  H171  1  0.18440000  0.09470000  0.15160000  1.0 0.1198171133
H  H172  1  0.45460000  0.23090000  0.19740000  1.0 0.0509136832
H  H173  1  0.52360000  0.25170000  0.19190000  1.0 0.0612609886
H  H174  1  0.52180000  0.20840000  0.20340000  1.0 0.0709172644
H  H175  1  0.75090000  0.96600000  0.49780000  1.0 0.1198171133
H  H176  1  0.93910000  0.85910000  0.48530000  1.0 0.1132328012
H  H177  1  0.82830000  0.89540000  0.43460000  1.0 0.1198171133
H  H178  1  0.70250000  0.82320000  0.48370000  1.0 0.1198171133
H  H179  1  0.81070000  0.89420000  0.54810000  1.0 0.1198171133
H  H180  1  0.62340000  0.82680000  0.53830000  1.0 0.1302666174
H  H181  1  0.58090000  0.80870000  0.59460000  1.0 0.1302666174
H  H182  1  0.74390000  0.81840000  0.64530000  1.0 0.1302666174
H  H183  1  0.79530000  0.84900000  0.59420000  1.0 0.1302666174
H  H184  1  0.82970000  0.84790000  0.39080000  1.0 0.1198171133
H  H185  1  0.79870000  0.81840000  0.33060000  1.0 0.1198171133
H  H186  1  0.61540000  0.80100000  0.36210000  1.0 0.1520902689
H  H187  1  0.64140000  0.83020000  0.42090000  1.0 0.1132328012
H  H188  1  0.93860000  0.50210000  0.35800000  1.0 0.1198171133
H  H189  1  0.75010000  0.49960000  0.46540000  1.0 0.1132328012
H  H190  1  0.81230000  0.44130000  0.39860000  1.0 0.1302666174
H  H191  1  0.69250000  0.50030000  0.32780000  1.0 0.1198171133
H  H192  1  0.82140000  0.55620000  0.39220000  1.0 0.1302666174
H  H193  1  0.79670000  0.39850000  0.34550000  1.0 0.1198171133
H  H194  1  0.75420000  0.34000000  0.31910000  1.0 0.1302666174
H  H195  1  0.57080000  0.38820000  0.32760000  1.0 0.1302666174
H  H196  1  0.62460000  0.44440000  0.35070000  1.0 0.1198171133
H  H197  1  0.63790000  0.56130000  0.32430000  1.0 0.1198171133
H  H198  1  0.62040000  0.61680000  0.29550000  1.0 0.1444603416
H  H199  1  0.81020000  0.64370000  0.30420000  1.0 0.1302666174
H  H200  1  0.81560000  0.59470000  0.34840000  1.0 0.1198171133
H  H201  1  0.54540000  0.73090000  0.30260000  1.0 0.0509136832
H  H202  1  0.47640000  0.75170000  0.30810000  1.0 0.0612609886
H  H203  1  0.47820000  0.70840000  0.29660000  1.0 0.0709172644
H  H204  1  0.75090000  0.03400000  0.50220000  1.0 0.1198171133
H  H205  1  0.93910000  0.14090000  0.51470000  1.0 0.1132328012
H  H206  1  0.82830000  0.10460000  0.56540000  1.0 0.1198171133
H  H207  1  0.70250000  0.17680000  0.51630000  1.0 0.1198171133
H  H208  1  0.81070000  0.10580000  0.45190000  1.0 0.1198171133
H  H209  1  0.62340000  0.17320000  0.46170000  1.0 0.1302666174
H  H210  1  0.58090000  0.19130000  0.40540000  1.0 0.1302666174
H  H211  1  0.74390000  0.18160000  0.35470000  1.0 0.1302666174
H  H212  1  0.79530000  0.15100000  0.40580000  1.0 0.1302666174
H  H213  1  0.82970000  0.15210000  0.60920000  1.0 0.1198171133
H  H214  1  0.79870000  0.18160000  0.66940000  1.0 0.1198171133
H  H215  1  0.61540000  0.19900000  0.63790000  1.0 0.1520902689
H  H216  1  0.64140000  0.16980000  0.57910000  1.0 0.1132328012
H  H217  1  0.93860000  0.49790000  0.64200000  1.0 0.1198171133
H  H218  1  0.75010000  0.50040000  0.53460000  1.0 0.1132328012
H  H219  1  0.81230000  0.55870000  0.60140000  1.0 0.1302666174
H  H220  1  0.69250000  0.49970000  0.67220000  1.0 0.1198171133
H  H221  1  0.82140000  0.44380000  0.60780000  1.0 0.1302666174
H  H222  1  0.79670000  0.60150000  0.65450000  1.0 0.1198171133
H  H223  1  0.75420000  0.66000000  0.68090000  1.0 0.1302666174
H  H224  1  0.57080000  0.61180000  0.67240000  1.0 0.1198171133
H  H225  1  0.62460000  0.55560000  0.64930000  1.0 0.1198171133
H  H226  1  0.63790000  0.43870000  0.67570000  1.0 0.1198171133
H  H227  1  0.62040000  0.38320000  0.70450000  1.0 0.1444603416
H  H228  1  0.81020000  0.35630000  0.69580000  1.0 0.1302666174
H  H229  1  0.81560000  0.40530000  0.65160000  1.0 0.1198171133
H  H230  1  0.54540000  0.26910000  0.69740000  1.0 0.0612609886
H  H231  1  0.47640000  0.24830000  0.69190000  1.0 0.0612609886
H  H232  1  0.47820000  0.29160000  0.70340000  1.0 0.0709172644
C  C1  1  0.78900000  0.48138000  0.00133000  1.0 -0.16745171
C  C2  1  0.85770000  0.46757000  0.00278000  1.0 0.1596970565
C  C3  1  0.87700000  0.42996000  0.00773000  1.0 -0.0978040912
C  C4  1  0.94360000  0.41966000  0.00782000  1.0 0.1596970565
C  C5  1  0.96640000  0.38057000  0.01228000  1.0 -0.1779100692
C  C6  1  0.82500000  0.39938000  0.00770000  1.0 0.0801336767
C  C7  1  0.80740000  0.38600000  0.04360000  1.0 -0.1976420885
C  C8  1  0.75720000  0.35800000  0.04630000  1.0 0.0801336767
C  C9  1  0.73180000  0.34389000  0.01460000  1.0 -0.16745171
C  C10  1  0.74620000  0.35800000  0.97980000  1.0 0.0709172644
C  C11  1  0.79710000  0.38570000  0.97588000  1.0 -0.1779100692
C  C12  1  0.71650000  0.34020000  0.94220000  1.0 0.0994630184
C  C13  1  0.65060000  0.32630000  0.94000000  1.0 -0.1931274564
C  C14  1  0.62680000  0.31260000  0.90800000  1.0 -0.078808672
C  C15  1  0.66340000  0.30500000  0.88220000  1.0 -0.0435480729
C  C16  1  0.72220000  0.32000000  0.87810000  1.0 -0.1063774137
C  C17  1  0.75270000  0.33830000  0.90810000  1.0 -0.160503473
C  C18  1  0.64360000  0.28830000  0.84200000  1.0 0.5870179913
C  C19  1  0.73820000  0.34100000  0.08520000  1.0 0.0801336767
C  C20  1  0.78660000  0.33850000  0.11320000  1.0 -0.1779100692
C  C21  1  0.76730000  0.32010000  0.14980000  1.0 -0.0878681878
C  C22  1  0.70300000  0.30530000  0.15550000  1.0 -0.012450537
C  C23  1  0.65880000  0.30920000  0.13280000  1.0 -0.0597671636
C  C24  1  0.67620000  0.32740000  0.09670000  1.0 -0.1976420885
C  C25  1  0.68590000  0.29120000  0.19770000  1.0 0.5063642531
C  C26  1  0.96630000  0.00118000  0.12064000  1.0 -0.1779100692
C  C27  1  0.94420000  0.99939000  0.07989000  1.0 0.1943929687
C  C28  1  0.87860000  0.99948000  0.06860000  1.0 -0.1176626051
C  C29  1  0.85680000  0.99965000  0.03170000  1.0 0.1520902689
C  C30  1  0.78780000  0.99980000  0.01894000  1.0 -0.1779100692
C  C31  1  0.82430000  0.99890000  0.10051000  1.0 0.1132328012
C  C32  1  0.79750000  0.96436000  0.11160000  1.0 -0.2051821903
C  C33  1  0.74690000  0.96590000  0.13890000  1.0 0.0994630184
C  C34  1  0.72700000  0.00070000  0.15430000  1.0 -0.1976420885
C  C35  1  0.75470000  0.03620000  0.14510000  1.0 0.0801336767
C  C36  1  0.80240000  0.03359000  0.11680000  1.0 -0.2184643217
C  C37  1  0.71690000  0.92940000  0.15350000  1.0 0.0612609886
C  C38  1  0.75120000  0.89750000  0.16020000  1.0 -0.1779100692
C  C39  1  0.72690000  0.86090000  0.17540000  1.0 -0.0878681878
C  C40  1  0.66160000  0.86150000  0.18030000  1.0 -0.012450537
C  C41  1  0.61720000  0.89020000  0.17050000  1.0 -0.0878681878
C  C42  1  0.65170000  0.92400000  0.15670000  1.0 -0.16745171
C  C43  1  0.64390000  0.82120000  0.20060000  1.0 0.5870179913
C  C44  1  0.73240000  0.07100000  0.16200000  1.0 0.0509136832
C  C45  1  0.67270000  0.07900000  0.17730000  1.0 -0.1531942703
C  C46  1  0.66320000  0.11250000  0.19480000  1.0 -0.1063774137
C  C47  1  0.70620000  0.13980000  0.19990000  1.0 0.0211166579
C  C48  1  0.77260000  0.12970000  0.18850000  1.0 -0.1063774137
C  C49  1  0.77650000  0.09760000  0.16590000  1.0 -0.160503473
C  C50  1  0.68500000  0.17520000  0.22570000  1.0 0.4867114096
C  C51  1  0.78900000  0.51862000  0.99867000  1.0 -0.16745171
C  C52  1  0.85770000  0.53243000  0.99722000  1.0 0.1596970565
C  C53  1  0.87700000  0.57004000  0.99227000  1.0 -0.0978040912
C  C54  1  0.94360000  0.58034000  0.99218000  1.0 0.1596970565
C  C55  1  0.96640000  0.61943000  0.98772000  1.0 -0.1779100692
C  C56  1  0.82500000  0.60062000  0.99230000  1.0 0.0801336767
C  C57  1  0.80740000  0.61400000  0.95640000  1.0 -0.1976420885
C  C58  1  0.75720000  0.64200000  0.95370000  1.0 0.0801336767
C  C59  1  0.73180000  0.65611000  0.98540000  1.0 -0.16745171
C  C60  1  0.74620000  0.64200000  0.02020000  1.0 0.0709172644
C  C61  1  0.79710000  0.61430000  0.02412000  1.0 -0.1779100692
C  C62  1  0.71650000  0.65980000  0.05780000  1.0 0.0994630184
C  C63  1  0.65060000  0.67370000  0.06000000  1.0 -0.1931274564
C  C64  1  0.62680000  0.68740000  0.09200000  1.0 -0.078808672
C  C65  1  0.66340000  0.69500000  0.11780000  1.0 -0.0435480729
C  C66  1  0.72220000  0.68000000  0.12190000  1.0 -0.1063774137
C  C67  1  0.75270000  0.66170000  0.09190000  1.0 -0.160503473
C  C68  1  0.64360000  0.71170000  0.15800000  1.0 0.5870179913
C  C69  1  0.73820000  0.65900000  0.91480000  1.0 0.0801336767
C  C70  1  0.78660000  0.66150000  0.88680000  1.0 -0.1779100692
C  C71  1  0.76730000  0.67990000  0.85020000  1.0 -0.0878681878
C  C72  1  0.70300000  0.69470000  0.84450000  1.0 -0.012450537
C  C73  1  0.65880000  0.69080000  0.86720000  1.0 -0.0597671636
C  C74  1  0.67620000  0.67260000  0.90330000  1.0 -0.1976420885
C  C75  1  0.68590000  0.70880000  0.80230000  1.0 0.5063642531
C  C76  1  0.96630000  0.99882000  0.87936000  1.0 -0.1779100692
C  C77  1  0.94420000  0.00061000  0.92011000  1.0 0.1943929687
C  C78  1  0.87860000  0.00052000  0.93140000  1.0 -0.1176626051
C  C79  1  0.85680000  0.00035000  0.96830000  1.0 0.1520902689
C  C80  1  0.78780000  0.00020000  0.98106000  1.0 -0.1779100692
C  C81  1  0.82430000  0.00110000  0.89949000  1.0 0.1132328012
C  C82  1  0.79750000  0.03564000  0.88840000  1.0 -0.2051821903
C  C83  1  0.74690000  0.03410000  0.86110000  1.0 0.0994630184
C  C84  1  0.72700000  0.99930000  0.84570000  1.0 -0.1976420885
C  C85  1  0.75470000  0.96380000  0.85490000  1.0 0.0801336767
C  C86  1  0.80240000  0.96641000  0.88320000  1.0 -0.2184643217
C  C87  1  0.71690000  0.07060000  0.84650000  1.0 0.0612609886
C  C88  1  0.75120000  0.10250000  0.83980000  1.0 -0.1779100692
C  C89  1  0.72690000  0.13910000  0.82460000  1.0 -0.0878681878
C  C90  1  0.66160000  0.13850000  0.81970000  1.0 -0.012450537
C  C91  1  0.61720000  0.10980000  0.82950000  1.0 -0.0878681878
C  C92  1  0.65170000  0.07600000  0.84330000  1.0 -0.16745171
C  C93  1  0.64390000  0.17880000  0.79940000  1.0 0.5870179913
C  C94  1  0.73240000  0.92900000  0.83800000  1.0 0.0509136832
C  C95  1  0.67270000  0.92100000  0.82270000  1.0 -0.1531942703
C  C96  1  0.66320000  0.88750000  0.80520000  1.0 -0.1063774137
C  C97  1  0.70620000  0.86020000  0.80010000  1.0 0.0211166579
C  C98  1  0.77260000  0.87030000  0.81150000  1.0 -0.1063774137
C  C99  1  0.77650000  0.90240000  0.83410000  1.0 -0.160503473
C  C100  1  0.68500000  0.82480000  0.77430000  1.0 0.4867114096
C  C101  1  0.21100000  0.01862000  0.50133000  1.0 -0.16745171
C  C102  1  0.14230000  0.03243000  0.50278000  1.0 0.1596970565
C  C103  1  0.12300000  0.07004000  0.50773000  1.0 -0.0978040912
C  C104  1  0.05640000  0.08034000  0.50782000  1.0 0.1596970565
C  C105  1  0.03360000  0.11943000  0.51228000  1.0 -0.1779100692
C  C106  1  0.17500000  0.10062000  0.50770000  1.0 0.0801336767
C  C107  1  0.19260000  0.11400000  0.54360000  1.0 -0.1976420885
C  C108  1  0.24280000  0.14200000  0.54630000  1.0 0.0801336767
C  C109  1  0.26820000  0.15611000  0.51460000  1.0 -0.16745171
C  C110  1  0.25380000  0.14200000  0.47980000  1.0 0.0709172644
C  C111  1  0.20290000  0.11430000  0.47588000  1.0 -0.1779100692
C  C112  1  0.28350000  0.15980000  0.44220000  1.0 0.0994630184
C  C113  1  0.34940000  0.17370000  0.44000000  1.0 -0.1931274564
C  C114  1  0.37320000  0.18740000  0.40800000  1.0 -0.078808672
C  C115  1  0.33660000  0.19500000  0.38220000  1.0 -0.0435480729
C  C116  1  0.27780000  0.18000000  0.37810000  1.0 -0.1063774137
C  C117  1  0.24730000  0.16170000  0.40810000  1.0 -0.160503473
C  C118  1  0.35640000  0.21170000  0.34200000  1.0 0.5870179913
C  C119  1  0.26180000  0.15900000  0.58520000  1.0 0.0801336767
C  C120  1  0.21340000  0.16150000  0.61320000  1.0 -0.1779100692
C  C121  1  0.23270000  0.17990000  0.64980000  1.0 -0.0878681878
C  C122  1  0.29700000  0.19470000  0.65550000  1.0 -0.012450537
C  C123  1  0.34120000  0.19080000  0.63280000  1.0 -0.0597671636
C  C124  1  0.32380000  0.17260000  0.59670000  1.0 -0.1976420885
C  C125  1  0.31410000  0.20880000  0.69770000  1.0 0.5063642531
C  C126  1  0.03370000  0.49882000  0.62064000  1.0 -0.1779100692
C  C127  1  0.05580000  0.50061000  0.57989000  1.0 0.1943929687
C  C128  1  0.12140000  0.50052000  0.56860000  1.0 -0.1176626051
C  C129  1  0.14320000  0.50035000  0.53170000  1.0 0.1520902689
C  C130  1  0.21220000  0.50020000  0.51894000  1.0 -0.1779100692
C  C131  1  0.17570000  0.50110000  0.60051000  1.0 0.1132328012
C  C132  1  0.20250000  0.53564000  0.61160000  1.0 -0.2051821903
C  C133  1  0.25310000  0.53410000  0.63890000  1.0 0.0994630184
C  C134  1  0.27300000  0.49930000  0.65430000  1.0 -0.1976420885
C  C135  1  0.24530000  0.46380000  0.64510000  1.0 0.0801336767
C  C136  1  0.19760000  0.46641000  0.61680000  1.0 -0.2184643217
C  C137  1  0.28310000  0.57060000  0.65350000  1.0 0.0612609886
C  C138  1  0.24880000  0.60250000  0.66020000  1.0 -0.1779100692
C  C139  1  0.27310000  0.63910000  0.67540000  1.0 -0.0878681878
C  C140  1  0.33840000  0.63850000  0.68030000  1.0 -0.012450537
C  C141  1  0.38280000  0.60980000  0.67050000  1.0 -0.0878681878
C  C142  1  0.34830000  0.57600000  0.65670000  1.0 -0.1779100692
C  C143  1  0.35610000  0.67880000  0.70060000  1.0 0.5870179913
C  C144  1  0.26760000  0.42900000  0.66200000  1.0 0.0509136832
C  C145  1  0.32730000  0.42100000  0.67730000  1.0 -0.1531942703
C  C146  1  0.33680000  0.38750000  0.69480000  1.0 -0.1063774137
C  C147  1  0.29380000  0.36020000  0.69990000  1.0 0.0211166579
C  C148  1  0.22740000  0.37030000  0.68850000  1.0 -0.1063774137
C  C149  1  0.22350000  0.40240000  0.66590000  1.0 -0.160503473
C  C150  1  0.31500000  0.32480000  0.72570000  1.0 0.4867114096
C  C151  1  0.21100000  0.98138000  0.49867000  1.0 -0.16745171
C  C152  1  0.14230000  0.96757000  0.49722000  1.0 0.1596970565
C  C153  1  0.12300000  0.92996000  0.49227000  1.0 -0.0978040912
C  C154  1  0.05640000  0.91966000  0.49218000  1.0 0.1596970565
C  C155  1  0.03360000  0.88057000  0.48772000  1.0 -0.1779100692
C  C156  1  0.17500000  0.89938000  0.49230000  1.0 0.0801336767
C  C157  1  0.19260000  0.88600000  0.45640000  1.0 -0.1976420885
C  C158  1  0.24280000  0.85800000  0.45370000  1.0 0.0801336767
C  C159  1  0.26820000  0.84389000  0.48540000  1.0 -0.16745171
C  C160  1  0.25380000  0.85800000  0.52020000  1.0 0.0709172644
C  C161  1  0.20290000  0.88570000  0.52412000  1.0 -0.1779100692
C  C162  1  0.28350000  0.84020000  0.55780000  1.0 0.0994630184
C  C163  1  0.34940000  0.82630000  0.56000000  1.0 -0.1931274564
C  C164  1  0.37320000  0.81260000  0.59200000  1.0 -0.078808672
C  C165  1  0.33660000  0.80500000  0.61780000  1.0 -0.0435480729
C  C166  1  0.27780000  0.82000000  0.62190000  1.0 -0.1063774137
C  C167  1  0.24730000  0.83830000  0.59190000  1.0 -0.16745171
C  C168  1  0.35640000  0.78830000  0.65800000  1.0 0.5870179913
C  C169  1  0.26180000  0.84100000  0.41480000  1.0 0.0801336767
C  C170  1  0.21340000  0.83850000  0.38680000  1.0 -0.1779100692
C  C171  1  0.23270000  0.82010000  0.35020000  1.0 -0.0878681878
C  C172  1  0.29700000  0.80530000  0.34450000  1.0 -0.012450537
C  C173  1  0.34120000  0.80920000  0.36720000  1.0 -0.0597671636
C  C174  1  0.32380000  0.82740000  0.40330000  1.0 -0.1976420885
C  C175  1  0.31410000  0.79120000  0.30230000  1.0 0.5063642531
C  C176  1  0.03370000  0.50118000  0.37936000  1.0 -0.1779100692
C  C177  1  0.05580000  0.49939000  0.42011000  1.0 0.1959372431
C  C178  1  0.12140000  0.49948000  0.43140000  1.0 -0.1176626051
C  C179  1  0.14320000  0.49965000  0.46830000  1.0 0.1520902689
C  C180  1  0.21220000  0.49980000  0.48106000  1.0 -0.1779100692
C  C181  1  0.17570000  0.49890000  0.39949000  1.0 0.1132328012
C  C182  1  0.20250000  0.46436000  0.38840000  1.0 -0.2051821903
C  C183  1  0.25310000  0.46590000  0.36110000  1.0 0.0994630184
C  C184  1  0.27300000  0.50070000  0.34570000  1.0 -0.1976420885
C  C185  1  0.24530000  0.53620000  0.35490000  1.0 0.0801336767
C  C186  1  0.19760000  0.53359000  0.38320000  1.0 -0.2184643217
C  C187  1  0.28310000  0.42940000  0.34650000  1.0 0.0612609886
C  C188  1  0.24880000  0.39750000  0.33980000  1.0 -0.1779100692
C  C189  1  0.27310000  0.36090000  0.32460000  1.0 -0.0878681878
C  C190  1  0.33840000  0.36150000  0.31970000  1.0 -0.012450537
C  C191  1  0.38280000  0.39020000  0.32950000  1.0 -0.0878681878
C  C192  1  0.34830000  0.42400000  0.34330000  1.0 -0.16745171
C  C193  1  0.35610000  0.32120000  0.29940000  1.0 0.5870179913
C  C194  1  0.26760000  0.57100000  0.33800000  1.0 0.0509136832
C  C195  1  0.32730000  0.57900000  0.32270000  1.0 -0.1531942703
C  C196  1  0.33680000  0.61250000  0.30520000  1.0 -0.1063774137
C  C197  1  0.29380000  0.63980000  0.30010000  1.0 0.0211166579
C  C198  1  0.22740000  0.62970000  0.31150000  1.0 -0.1063774137
C  C199  1  0.22350000  0.59760000  0.33410000  1.0 -0.160503473
C  C200  1  0.31500000  0.67520000  0.27430000  1.0 0.4867114096
C  C201  1  0.21100000  0.51862000  0.99867000  1.0 -0.16745171
C  C202  1  0.14230000  0.53243000  0.99722000  1.0 0.1596970565
C  C203  1  0.12300000  0.57004000  0.99227000  1.0 -0.0978040912
C  C204  1  0.05640000  0.58034000  0.99218000  1.0 0.1596970565
C  C205  1  0.03360000  0.61943000  0.98772000  1.0 -0.1779100692
C  C206  1  0.17500000  0.60062000  0.99230000  1.0 0.0801336767
C  C207  1  0.19260000  0.61400000  0.95640000  1.0 -0.1976420885
C  C208  1  0.24280000  0.64200000  0.95370000  1.0 0.0801336767
C  C209  1  0.26820000  0.65611000  0.98540000  1.0 -0.16745171
C  C210  1  0.25380000  0.64200000  0.02020000  1.0 0.0709172644
C  C211  1  0.20290000  0.61430000  0.02412000  1.0 -0.1779100692
C  C212  1  0.28350000  0.65980000  0.05780000  1.0 0.0994630184
C  C213  1  0.34940000  0.67370000  0.06000000  1.0 -0.1931274564
C  C214  1  0.37320000  0.68740000  0.09200000  1.0 -0.078808672
C  C215  1  0.33660000  0.69500000  0.11780000  1.0 -0.0435480729
C  C216  1  0.27780000  0.68000000  0.12190000  1.0 -0.1063774137
C  C217  1  0.24730000  0.66170000  0.09190000  1.0 -0.16745171
C  C218  1  0.35640000  0.71170000  0.15800000  1.0 0.5870179913
C  C219  1  0.26180000  0.65900000  0.91480000  1.0 0.0801336767
C  C220  1  0.21340000  0.66150000  0.88680000  1.0 -0.1779100692
C  C221  1  0.23270000  0.67990000  0.85020000  1.0 -0.0878681878
C  C222  1  0.29700000  0.69470000  0.84450000  1.0 -0.012450537
C  C223  1  0.34120000  0.69080000  0.86720000  1.0 -0.0597671636
C  C224  1  0.32380000  0.67260000  0.90330000  1.0 -0.1976420885
C  C225  1  0.31410000  0.70880000  0.80230000  1.0 0.5063642531
C  C226  1  0.03370000  0.99882000  0.87936000  1.0 -0.1779100692
C  C227  1  0.05580000  0.00061000  0.92011000  1.0 0.1943929687
C  C228  1  0.12140000  0.00052000  0.93140000  1.0 -0.1176626051
C  C229  1  0.14320000  0.00035000  0.96830000  1.0 0.1520902689
C  C230  1  0.21220000  0.00020000  0.98106000  1.0 -0.1779100692
C  C231  1  0.17570000  0.00110000  0.89949000  1.0 0.1132328012
C  C232  1  0.20250000  0.03564000  0.88840000  1.0 -0.2051821903
C  C233  1  0.25310000  0.03410000  0.86110000  1.0 0.0994630184
C  C234  1  0.27300000  0.99930000  0.84570000  1.0 -0.1976420885
C  C235  1  0.24530000  0.96380000  0.85490000  1.0 0.0801336767
C  C236  1  0.19760000  0.96641000  0.88320000  1.0 -0.2184643217
C  C237  1  0.28310000  0.07060000  0.84650000  1.0 0.0612609886
C  C238  1  0.24880000  0.10250000  0.83980000  1.0 -0.1779100692
C  C239  1  0.27310000  0.13910000  0.82460000  1.0 -0.0878681878
C  C240  1  0.33840000  0.13850000  0.81970000  1.0 -0.012450537
C  C241  1  0.38280000  0.10980000  0.82950000  1.0 -0.0878681878
C  C242  1  0.34830000  0.07600000  0.84330000  1.0 -0.16745171
C  C243  1  0.35610000  0.17880000  0.79940000  1.0 0.5870179913
C  C244  1  0.26760000  0.92900000  0.83800000  1.0 0.0509136832
C  C245  1  0.32730000  0.92100000  0.82270000  1.0 -0.1531942703
C  C246  1  0.33680000  0.88750000  0.80520000  1.0 -0.1063774137
C  C247  1  0.29380000  0.86020000  0.80010000  1.0 0.0211166579
C  C248  1  0.22740000  0.87030000  0.81150000  1.0 -0.1063774137
C  C249  1  0.22350000  0.90240000  0.83410000  1.0 -0.160503473
C  C250  1  0.31500000  0.82480000  0.77430000  1.0 0.4867114096
C  C251  1  0.21100000  0.48138000  0.00133000  1.0 -0.16745171
C  C252  1  0.14230000  0.46757000  0.00278000  1.0 0.1596970565
C  C253  1  0.12300000  0.42996000  0.00773000  1.0 -0.0978040912
C  C254  1  0.05640000  0.41966000  0.00782000  1.0 0.1596970565
C  C255  1  0.03360000  0.38057000  0.01228000  1.0 -0.1779100692
C  C256  1  0.17500000  0.39938000  0.00770000  1.0 0.0801336767
C  C257  1  0.19260000  0.38600000  0.04360000  1.0 -0.1976420885
C  C258  1  0.24280000  0.35800000  0.04630000  1.0 0.0801336767
C  C259  1  0.26820000  0.34389000  0.01460000  1.0 -0.16745171
C  C260  1  0.25380000  0.35800000  0.97980000  1.0 0.0709172644
C  C261  1  0.20290000  0.38570000  0.97588000  1.0 -0.1779100692
C  C262  1  0.28350000  0.34020000  0.94220000  1.0 0.0994630184
C  C263  1  0.34940000  0.32630000  0.94000000  1.0 -0.1931274564
C  C264  1  0.37320000  0.31260000  0.90800000  1.0 -0.078808672
C  C265  1  0.33660000  0.30500000  0.88220000  1.0 -0.0435480729
C  C266  1  0.27780000  0.32000000  0.87810000  1.0 -0.1063774137
C  C267  1  0.24730000  0.33830000  0.90810000  1.0 -0.16745171
C  C268  1  0.35640000  0.28830000  0.84200000  1.0 0.5870179913
C  C269  1  0.26180000  0.34100000  0.08520000  1.0 0.0801336767
C  C270  1  0.21340000  0.33850000  0.11320000  1.0 -0.1779100692
C  C271  1  0.23270000  0.32010000  0.14980000  1.0 -0.0878681878
C  C272  1  0.29700000  0.30530000  0.15550000  1.0 -0.012450537
C  C273  1  0.34120000  0.30920000  0.13280000  1.0 -0.0597671636
C  C274  1  0.32380000  0.32740000  0.09670000  1.0 -0.1976420885
C  C275  1  0.31410000  0.29120000  0.19770000  1.0 0.5063642531
C  C276  1  0.03370000  0.00118000  0.12064000  1.0 -0.1779100692
C  C277  1  0.05580000  0.99939000  0.07989000  1.0 0.1943929687
C  C278  1  0.12140000  0.99948000  0.06860000  1.0 -0.1176626051
C  C279  1  0.14320000  0.99965000  0.03170000  1.0 0.1520902689
C  C280  1  0.21220000  0.99980000  0.01894000  1.0 -0.1779100692
C  C281  1  0.17570000  0.99890000  0.10051000  1.0 0.1132328012
C  C282  1  0.20250000  0.96436000  0.11160000  1.0 -0.2051821903
C  C283  1  0.25310000  0.96590000  0.13890000  1.0 0.0994630184
C  C284  1  0.27300000  0.00070000  0.15430000  1.0 -0.1976420885
C  C285  1  0.24530000  0.03620000  0.14510000  1.0 0.0801336767
C  C286  1  0.19760000  0.03359000  0.11680000  1.0 -0.2184643217
C  C287  1  0.28310000  0.92940000  0.15350000  1.0 0.0612609886
C  C288  1  0.24880000  0.89750000  0.16020000  1.0 -0.1779100692
C  C289  1  0.27310000  0.86090000  0.17540000  1.0 -0.0878681878
C  C290  1  0.33840000  0.86150000  0.18030000  1.0 -0.012450537
C  C291  1  0.38280000  0.89020000  0.17050000  1.0 -0.0878681878
C  C292  1  0.34830000  0.92400000  0.15670000  1.0 -0.1779100692
C  C293  1  0.35610000  0.82120000  0.20060000  1.0 0.5870179913
C  C294  1  0.26760000  0.07100000  0.16200000  1.0 0.0509136832
C  C295  1  0.32730000  0.07900000  0.17730000  1.0 -0.1531942703
C  C296  1  0.33680000  0.11250000  0.19480000  1.0 -0.1063774137
C  C297  1  0.29380000  0.13980000  0.19990000  1.0 0.0211166579
C  C298  1  0.22740000  0.12970000  0.18850000  1.0 -0.1063774137
C  C299  1  0.22350000  0.09760000  0.16590000  1.0 -0.160503473
C  C300  1  0.31500000  0.17520000  0.22570000  1.0 0.4867114096
C  C301  1  0.78900000  0.98138000  0.49867000  1.0 -0.16745171
C  C302  1  0.85770000  0.96757000  0.49722000  1.0 0.1596970565
C  C303  1  0.87700000  0.92996000  0.49227000  1.0 -0.0978040912
C  C304  1  0.94360000  0.91966000  0.49218000  1.0 0.1596970565
C  C305  1  0.96640000  0.88057000  0.48772000  1.0 -0.1779100692
C  C306  1  0.82500000  0.89938000  0.49230000  1.0 0.0801336767
C  C307  1  0.80740000  0.88600000  0.45640000  1.0 -0.1976420885
C  C308  1  0.75720000  0.85800000  0.45370000  1.0 0.0801336767
C  C309  1  0.73180000  0.84389000  0.48540000  1.0 -0.16745171
C  C310  1  0.74620000  0.85800000  0.52020000  1.0 0.0709172644
C  C311  1  0.79710000  0.88570000  0.52412000  1.0 -0.1779100692
C  C312  1  0.71650000  0.84020000  0.55780000  1.0 0.0994630184
C  C313  1  0.65060000  0.82630000  0.56000000  1.0 -0.1931274564
C  C314  1  0.62680000  0.81260000  0.59200000  1.0 -0.078808672
C  C315  1  0.66340000  0.80500000  0.61780000  1.0 -0.0435480729
C  C316  1  0.72220000  0.82000000  0.62190000  1.0 -0.1063774137
C  C317  1  0.75270000  0.83830000  0.59190000  1.0 -0.160503473
C  C318  1  0.64360000  0.78830000  0.65800000  1.0 0.5870179913
C  C319  1  0.73820000  0.84100000  0.41480000  1.0 0.0801336767
C  C320  1  0.78660000  0.83850000  0.38680000  1.0 -0.1779100692
C  C321  1  0.76730000  0.82010000  0.35020000  1.0 -0.0878681878
C  C322  1  0.70300000  0.80530000  0.34450000  1.0 -0.012450537
C  C323  1  0.65880000  0.80920000  0.36720000  1.0 -0.0597671636
C  C324  1  0.67620000  0.82740000  0.40330000  1.0 -0.1976420885
C  C325  1  0.68590000  0.79120000  0.30230000  1.0 0.5063642531
C  C326  1  0.96630000  0.50118000  0.37936000  1.0 -0.1779100692
C  C327  1  0.94420000  0.49939000  0.42011000  1.0 0.1959372431
C  C328  1  0.87860000  0.49948000  0.43140000  1.0 -0.1176626051
C  C329  1  0.85680000  0.49965000  0.46830000  1.0 0.1520902689
C  C330  1  0.78780000  0.49980000  0.48106000  1.0 -0.1779100692
C  C331  1  0.82430000  0.49890000  0.39949000  1.0 0.1132328012
C  C332  1  0.79750000  0.46436000  0.38840000  1.0 -0.2051821903
C  C333  1  0.74690000  0.46590000  0.36110000  1.0 0.0994630184
C  C334  1  0.72700000  0.50070000  0.34570000  1.0 -0.1976420885
C  C335  1  0.75470000  0.53620000  0.35490000  1.0 0.0801336767
C  C336  1  0.80240000  0.53359000  0.38320000  1.0 -0.2184643217
C  C337  1  0.71690000  0.42940000  0.34650000  1.0 0.0612609886
C  C338  1  0.75120000  0.39750000  0.33980000  1.0 -0.1779100692
C  C339  1  0.72690000  0.36090000  0.32460000  1.0 -0.0878681878
C  C340  1  0.66160000  0.36150000  0.31970000  1.0 -0.012450537
C  C341  1  0.61720000  0.39020000  0.32950000  1.0 -0.0878681878
C  C342  1  0.65170000  0.42400000  0.34330000  1.0 -0.16745171
C  C343  1  0.64390000  0.32120000  0.29940000  1.0 0.5870179913
C  C344  1  0.73240000  0.57100000  0.33800000  1.0 0.0509136832
C  C345  1  0.67270000  0.57900000  0.32270000  1.0 -0.1531942703
C  C346  1  0.66320000  0.61250000  0.30520000  1.0 -0.1063774137
C  C347  1  0.70620000  0.63980000  0.30010000  1.0 0.0211166579
C  C348  1  0.77260000  0.62970000  0.31150000  1.0 -0.1063774137
C  C349  1  0.77650000  0.59760000  0.33410000  1.0 -0.160503473
C  C350  1  0.68500000  0.67520000  0.27430000  1.0 0.4867114096
C  C351  1  0.78900000  0.01862000  0.50133000  1.0 -0.16745171
C  C352  1  0.85770000  0.03243000  0.50278000  1.0 0.1596970565
C  C353  1  0.87700000  0.07004000  0.50773000  1.0 -0.0978040912
C  C354  1  0.94360000  0.08034000  0.50782000  1.0 0.1596970565
C  C355  1  0.96640000  0.11943000  0.51228000  1.0 -0.1779100692
C  C356  1  0.82500000  0.10062000  0.50770000  1.0 0.0801336767
C  C357  1  0.80740000  0.11400000  0.54360000  1.0 -0.1976420885
C  C358  1  0.75720000  0.14200000  0.54630000  1.0 0.0801336767
C  C359  1  0.73180000  0.15611000  0.51460000  1.0 -0.16745171
C  C360  1  0.74620000  0.14200000  0.47980000  1.0 0.0709172644
C  C361  1  0.79710000  0.11430000  0.47588000  1.0 -0.1779100692
C  C362  1  0.71650000  0.15980000  0.44220000  1.0 0.0994630184
C  C363  1  0.65060000  0.17370000  0.44000000  1.0 -0.1931274564
C  C364  1  0.62680000  0.18740000  0.40800000  1.0 -0.078808672
C  C365  1  0.66340000  0.19500000  0.38220000  1.0 -0.0435480729
C  C366  1  0.72220000  0.18000000  0.37810000  1.0 -0.1063774137
C  C367  1  0.75270000  0.16170000  0.40810000  1.0 -0.160503473
C  C368  1  0.64360000  0.21170000  0.34200000  1.0 0.5870179913
C  C369  1  0.73820000  0.15900000  0.58520000  1.0 0.0801336767
C  C370  1  0.78660000  0.16150000  0.61320000  1.0 -0.1779100692
C  C371  1  0.76730000  0.17990000  0.64980000  1.0 -0.0878681878
C  C372  1  0.70300000  0.19470000  0.65550000  1.0 -0.012450537
C  C373  1  0.65880000  0.19080000  0.63280000  1.0 -0.0597671636
C  C374  1  0.67620000  0.17260000  0.59670000  1.0 -0.1976420885
C  C375  1  0.68590000  0.20880000  0.69770000  1.0 0.5063642531
C  C376  1  0.96630000  0.49882000  0.62064000  1.0 -0.1779100692
C  C377  1  0.94420000  0.50061000  0.57989000  1.0 0.1943929687
C  C378  1  0.87860000  0.50052000  0.56860000  1.0 -0.1176626051
C  C379  1  0.85680000  0.50035000  0.53170000  1.0 0.1520902689
C  C380  1  0.78780000  0.50020000  0.51894000  1.0 -0.1779100692
C  C381  1  0.82430000  0.50110000  0.60051000  1.0 0.1132328012
C  C382  1  0.79750000  0.53564000  0.61160000  1.0 -0.2051821903
C  C383  1  0.74690000  0.53410000  0.63890000  1.0 0.0994630184
C  C384  1  0.72700000  0.49930000  0.65430000  1.0 -0.1976420885
C  C385  1  0.75470000  0.46380000  0.64510000  1.0 0.0801336767
C  C386  1  0.80240000  0.46641000  0.61680000  1.0 -0.2184643217
C  C387  1  0.71690000  0.57060000  0.65350000  1.0 0.0612609886
C  C388  1  0.75120000  0.60250000  0.66020000  1.0 -0.1779100692
C  C389  1  0.72690000  0.63910000  0.67540000  1.0 -0.0878681878
C  C390  1  0.66160000  0.63850000  0.68030000  1.0 -0.012450537
C  C391  1  0.61720000  0.60980000  0.67050000  1.0 -0.0878681878
C  C392  1  0.65170000  0.57600000  0.65670000  1.0 -0.1779100692
C  C393  1  0.64390000  0.67880000  0.70060000  1.0 0.5870179913
C  C394  1  0.73240000  0.42900000  0.66200000  1.0 0.0509136832
C  C395  1  0.67270000  0.42100000  0.67730000  1.0 -0.1531942703
C  C396  1  0.66320000  0.38750000  0.69480000  1.0 -0.1063774137
C  C397  1  0.70620000  0.36020000  0.69990000  1.0 0.0211166579
C  C398  1  0.77260000  0.37030000  0.68850000  1.0 -0.1063774137
C  C399  1  0.77650000  0.40240000  0.66590000  1.0 -0.160503473
C  C400  1  0.68500000  0.32480000  0.72570000  1.0 0.4867114096
C  C401  1  0.50000000  0.24440000  0.25090000  1.0 0.5536191334
C  C402  1  0.50000000  0.23270000  0.20640000  1.0 -0.3895892531
C  C403  1  0.50000000  0.75560000  0.74910000  1.0 0.5536191334
C  C404  1  0.50000000  0.76730000  0.79360000  1.0 -0.3895892531
C  C405  1  0.50000000  0.25560000  0.75090000  1.0 0.5536191334
C  C406  1  0.50000000  0.26730000  0.70640000  1.0 -0.3895892531
C  C407  1  0.50000000  0.74440000  0.24910000  1.0 0.5561890274
C  C408  1  0.50000000  0.73270000  0.29360000  1.0 -0.3895892531
N  N1  1  0.00000000  0.44288000  0.00485000  1.0 -0.2510788086
N  N2  1  0.00000000  0.99940000  0.05815000  1.0 -0.2510788086
N  N3  1  0.00000000  0.55712000  0.99515000  1.0 -0.2510788086
N  N4  1  0.00000000  0.00060000  0.94185000  1.0 -0.2510788086
N  N5  1  0.00000000  0.05712000  0.50485000  1.0 -0.2510788086
N  N6  1  0.00000000  0.50060000  0.55815000  1.0 -0.2510788086
N  N7  1  0.00000000  0.94288000  0.49515000  1.0 -0.2510788086
N  N8  1  0.00000000  0.49940000  0.44185000  1.0 -0.2510788086
N  N9  1  0.89940000  0.50000000  0.00000000  1.0 -0.2577098266
N  N10  1  0.10060000  0.00000000  0.50000000  1.0 -0.2510788086
N  N11  1  0.10060000  0.50000000  0.00000000  1.0 -0.2577098266
N  N12  1  0.89940000  0.00000000  0.50000000  1.0 -0.2510788086
N  N13  1  0.89940000  0.00000000  0.00000000  1.0 -0.2510788086
N  N14  1  0.10060000  0.50000000  0.50000000  1.0 -0.2577098266
N  N15  1  0.10060000  0.00000000  0.00000000  1.0 -0.2510788086
N  N16  1  0.89940000  0.50000000  0.50000000  1.0 -0.2577098266
Cl  Cl1  1  0.00000000  0.50423000  0.06409000  1.0 -0.3048434884
Cl  Cl2  1  0.00000000  0.93583000  0.00098000  1.0 -0.3184781403
Cl  Cl3  1  0.00000000  0.49577000  0.93591000  1.0 -0.307502094
Cl  Cl4  1  0.00000000  0.06417000  0.99902000  1.0 -0.3184781403
Cl  Cl5  1  0.00000000  0.99577000  0.56409000  1.0 -0.307502094
Cl  Cl6  1  0.00000000  0.56417000  0.50098000  1.0 -0.3184781403
Cl  Cl7  1  0.00000000  0.00423000  0.43591000  1.0 -0.307502094
Cl  Cl8  1  0.00000000  0.43583000  0.49902000  1.0 -0.3184781403
O  O1  1  0.66450000  0.28596000  0.81437000  1.0 -0.46177685
O  O2  1  0.59060000  0.26130000  0.85080000  1.0 -0.7064976623
O  O3  1  0.64140000  0.27296000  0.19947000  1.0 -0.4455353984
O  O4  1  0.74460000  0.28332000  0.21960000  1.0 -0.6452668297
O  O5  1  0.66630000  0.80024000  0.21420000  1.0 -0.46177685
O  O6  1  0.57120000  0.82009000  0.18430000  1.0 -0.6899441809
O  O7  1  0.74610000  0.20340000  0.23040000  1.0 -0.5986237556
O  O8  1  0.64390000  0.18680000  0.23090000  1.0 -0.3802123398
O  O9  1  0.55280000  0.24500000  0.26287000  1.0 -0.515903476
O  O10  1  0.66450000  0.71404000  0.18563000  1.0 -0.46177685
O  O11  1  0.59060000  0.73870000  0.14920000  1.0 -0.7064976623
O  O12  1  0.64140000  0.72704000  0.80053000  1.0 -0.4455353984
O  O13  1  0.74460000  0.71668000  0.78040000  1.0 -0.6452668297
O  O14  1  0.66630000  0.19976000  0.78580000  1.0 -0.46177685
O  O15  1  0.57120000  0.17991000  0.81570000  1.0 -0.6899441809
O  O16  1  0.74610000  0.79660000  0.76960000  1.0 -0.5986237556
O  O17  1  0.64390000  0.81320000  0.76910000  1.0 -0.3802123398
O  O18  1  0.55280000  0.75500000  0.73713000  1.0 -0.515903476
O  O19  1  0.33550000  0.21404000  0.31437000  1.0 -0.46177685
O  O20  1  0.40940000  0.23870000  0.35080000  1.0 -0.7048597664
O  O21  1  0.35860000  0.22704000  0.69947000  1.0 -0.4455353984
O  O22  1  0.25540000  0.21668000  0.71960000  1.0 -0.6452668297
O  O23  1  0.33370000  0.69976000  0.71420000  1.0 -0.46177685
O  O24  1  0.42880000  0.67991000  0.68430000  1.0 -0.6899441809
O  O25  1  0.25390000  0.29660000  0.73040000  1.0 -0.5986237556
O  O26  1  0.35610000  0.31320000  0.73090000  1.0 -0.3802123398
O  O27  1  0.44720000  0.25500000  0.76287000  1.0 -0.515903476
O  O28  1  0.33550000  0.78596000  0.68563000  1.0 -0.46177685
O  O29  1  0.40940000  0.76130000  0.64920000  1.0 -0.7064976623
O  O30  1  0.35860000  0.77296000  0.30053000  1.0 -0.4455353984
O  O31  1  0.25540000  0.78332000  0.28040000  1.0 -0.6452668297
O  O32  1  0.33370000  0.30024000  0.28580000  1.0 -0.46177685
O  O33  1  0.42880000  0.32009000  0.31570000  1.0 -0.6899441809
O  O34  1  0.25390000  0.70340000  0.26960000  1.0 -0.5986237556
O  O35  1  0.35610000  0.68680000  0.26910000  1.0 -0.3802123398
O  O36  1  0.44720000  0.74500000  0.23713000  1.0 -0.515903476
O  O37  1  0.33550000  0.71404000  0.18563000  1.0 -0.46177685
O  O38  1  0.40940000  0.73870000  0.14920000  1.0 -0.7064976623
O  O39  1  0.35860000  0.72704000  0.80053000  1.0 -0.4455353984
O  O40  1  0.25540000  0.71668000  0.78040000  1.0 -0.6452668297
O  O41  1  0.33370000  0.19976000  0.78580000  1.0 -0.46177685
O  O42  1  0.42880000  0.17991000  0.81570000  1.0 -0.6899441809
O  O43  1  0.25390000  0.79660000  0.76960000  1.0 -0.5986237556
O  O44  1  0.35610000  0.81320000  0.76910000  1.0 -0.3802123398
O  O45  1  0.44720000  0.75500000  0.73713000  1.0 -0.515903476
O  O46  1  0.33550000  0.28596000  0.81437000  1.0 -0.46177685
O  O47  1  0.40940000  0.26130000  0.85080000  1.0 -0.7064976623
O  O48  1  0.35860000  0.27296000  0.19947000  1.0 -0.4455353984
O  O49  1  0.25540000  0.28332000  0.21960000  1.0 -0.6444921226
O  O50  1  0.33370000  0.80024000  0.21420000  1.0 -0.46177685
O  O51  1  0.42880000  0.82009000  0.18430000  1.0 -0.6899441809
O  O52  1  0.25390000  0.20340000  0.23040000  1.0 -0.5986237556
O  O53  1  0.35610000  0.18680000  0.23090000  1.0 -0.3802123398
O  O54  1  0.44720000  0.24500000  0.26287000  1.0 -0.515903476
O  O55  1  0.66450000  0.78596000  0.68563000  1.0 -0.46177685
O  O56  1  0.59060000  0.76130000  0.64920000  1.0 -0.7064976623
O  O57  1  0.64140000  0.77296000  0.30053000  1.0 -0.4455353984
O  O58  1  0.74460000  0.78332000  0.28040000  1.0 -0.6452668297
O  O59  1  0.66630000  0.30024000  0.28580000  1.0 -0.46177685
O  O60  1  0.57120000  0.32009000  0.31570000  1.0 -0.6899441809
O  O61  1  0.74610000  0.70340000  0.26960000  1.0 -0.5986237556
O  O62  1  0.64390000  0.68680000  0.26910000  1.0 -0.3802123398
O  O63  1  0.55280000  0.74500000  0.23713000  1.0 -0.515903476
O  O64  1  0.66450000  0.21404000  0.31437000  1.0 -0.46177685
O  O65  1  0.59060000  0.23870000  0.35080000  1.0 -0.7048597664
O  O66  1  0.64140000  0.22704000  0.69947000  1.0 -0.4455353984
O  O67  1  0.74460000  0.21668000  0.71960000  1.0 -0.6452668297
O  O68  1  0.66630000  0.69976000  0.71420000  1.0 -0.46177685
O  O69  1  0.57120000  0.67991000  0.68430000  1.0 -0.6899441809
O  O70  1  0.74610000  0.29660000  0.73040000  1.0 -0.5986237556
O  O71  1  0.64390000  0.31320000  0.73090000  1.0 -0.3802123398
O  O72  1  0.55280000  0.25500000  0.76287000  1.0 -0.515903476
