# DDEC6 charges by PACMAN v1.1 (https://github.com/mtap-research/PACMAN-charge/)
data_NOBWEI_ASR_pacman
_symmetry_space_group_name_H-M   'P 1'
_cell_length_a   21.75300000
_cell_length_b   21.75300000
_cell_length_c   21.75300000
_cell_angle_alpha   90.00000000
_cell_angle_beta   90.00000000
_cell_angle_gamma   90.00000000
_symmetry_Int_Tables_number   1
_chemical_formula_structural   CuH28C24(NO2)2
_chemical_formula_sum   'Cu12 H336 C288 N24 O48'
_cell_volume   10293.36752478
_cell_formula_units_Z   12
loop_
 _symmetry_equiv_pos_site_id
 _symmetry_equiv_pos_as_xyz
  1  'x, y, z'
loop_
 _atom_site_type_symbol
 _atom_site_label
 _atom_site_symmetry_multiplicity
 _atom_site_fract_x
 _atom_site_fract_y
 _atom_site_fract_z
 _atom_site_occupancy
 _atom_site_charge
Cu  Cu1  1  0.93888000  0.50000000  0.50000000  1.0 0.5080589168
Cu  Cu2  1  0.06112000  0.50000000  0.50000000  1.0 0.504248372
Cu  Cu3  1  0.50000000  0.93888000  0.50000000  1.0 0.5080589168
Cu  Cu4  1  0.50000000  0.06112000  0.50000000  1.0 0.504248372
Cu  Cu5  1  0.50000000  0.50000000  0.93888000  1.0 0.504248372
Cu  Cu6  1  0.50000000  0.50000000  0.06112000  1.0 0.5080589168
Cu  Cu7  1  0.00000000  0.00000000  0.44440000  1.0 0.1681026779
Cu  Cu8  1  0.00000000  0.00000000  0.55560000  1.0 0.1681026779
Cu  Cu9  1  0.00000000  0.44440000  0.00000000  1.0 0.1681026779
Cu  Cu10  1  0.00000000  0.55560000  0.00000000  1.0 0.1681026779
Cu  Cu11  1  0.55560000  0.00000000  0.00000000  1.0 0.1681026779
Cu  Cu12  1  0.44440000  0.00000000  0.00000000  1.0 0.1681026779
H  H1  1  0.03680000  0.12460000  0.38920000  1.0 0.0801575346
H  H2  1  0.03680000  0.87540000  0.61080000  1.0 0.0801575346
H  H3  1  0.96320000  0.87540000  0.38920000  1.0 0.0801575346
H  H4  1  0.96320000  0.12460000  0.61080000  1.0 0.0801575346
H  H5  1  0.87540000  0.03680000  0.38920000  1.0 0.0801575346
H  H6  1  0.12460000  0.03680000  0.61080000  1.0 0.0801575346
H  H7  1  0.12460000  0.96320000  0.38920000  1.0 0.0801575346
H  H8  1  0.87540000  0.96320000  0.61080000  1.0 0.0801575346
H  H9  1  0.12460000  0.38920000  0.03680000  1.0 0.0801575346
H  H10  1  0.87540000  0.61080000  0.03680000  1.0 0.0801575346
H  H11  1  0.12460000  0.61080000  0.96320000  1.0 0.0801575346
H  H12  1  0.87540000  0.38920000  0.96320000  1.0 0.0801575346
H  H13  1  0.61080000  0.12460000  0.03680000  1.0 0.0801575346
H  H14  1  0.61080000  0.87540000  0.96320000  1.0 0.0801575346
H  H15  1  0.38920000  0.87540000  0.03680000  1.0 0.0801575346
H  H16  1  0.38920000  0.12460000  0.96320000  1.0 0.0801575346
H  H17  1  0.38920000  0.03680000  0.12460000  1.0 0.0801575346
H  H18  1  0.61080000  0.03680000  0.87540000  1.0 0.0801575346
H  H19  1  0.61080000  0.96320000  0.12460000  1.0 0.0801575346
H  H20  1  0.38920000  0.96320000  0.87540000  1.0 0.0801575346
H  H21  1  0.96320000  0.61080000  0.87540000  1.0 0.0801575346
H  H22  1  0.96320000  0.38920000  0.12460000  1.0 0.0801575346
H  H23  1  0.03680000  0.61080000  0.12460000  1.0 0.0801575346
H  H24  1  0.03680000  0.38920000  0.87540000  1.0 0.0801575346
H  H25  1  0.96320000  0.87540000  0.61080000  1.0 0.0801575346
H  H26  1  0.96320000  0.12460000  0.38920000  1.0 0.0801575346
H  H27  1  0.03680000  0.12460000  0.61080000  1.0 0.0801575346
H  H28  1  0.03680000  0.87540000  0.38920000  1.0 0.0801575346
H  H29  1  0.12460000  0.96320000  0.61080000  1.0 0.0801575346
H  H30  1  0.87540000  0.96320000  0.38920000  1.0 0.0801575346
H  H31  1  0.87540000  0.03680000  0.61080000  1.0 0.0801575346
H  H32  1  0.12460000  0.03680000  0.38920000  1.0 0.0801575346
H  H33  1  0.87540000  0.61080000  0.96320000  1.0 0.0801575346
H  H34  1  0.12460000  0.38920000  0.96320000  1.0 0.0801575346
H  H35  1  0.87540000  0.38920000  0.03680000  1.0 0.0801575346
H  H36  1  0.12460000  0.61080000  0.03680000  1.0 0.0801575346
H  H37  1  0.38920000  0.87540000  0.96320000  1.0 0.0801575346
H  H38  1  0.38920000  0.12460000  0.03680000  1.0 0.0801575346
H  H39  1  0.61080000  0.12460000  0.96320000  1.0 0.0801575346
H  H40  1  0.61080000  0.87540000  0.03680000  1.0 0.0801575346
H  H41  1  0.61080000  0.96320000  0.87540000  1.0 0.0801575346
H  H42  1  0.38920000  0.96320000  0.12460000  1.0 0.0801575346
H  H43  1  0.38920000  0.03680000  0.87540000  1.0 0.0801575346
H  H44  1  0.61080000  0.03680000  0.12460000  1.0 0.0801575346
H  H45  1  0.03680000  0.38920000  0.12460000  1.0 0.0801575346
H  H46  1  0.03680000  0.61080000  0.87540000  1.0 0.0801575346
H  H47  1  0.96320000  0.38920000  0.87540000  1.0 0.0801575346
H  H48  1  0.96320000  0.61080000  0.12460000  1.0 0.0801575346
H  H49  1  0.90740000  0.31220000  0.46550000  1.0 0.0801575346
H  H50  1  0.90740000  0.68780000  0.53450000  1.0 0.0801575346
H  H51  1  0.09260000  0.68780000  0.46550000  1.0 0.0801575346
H  H52  1  0.09260000  0.31220000  0.53450000  1.0 0.0801575346
H  H53  1  0.68780000  0.90740000  0.46550000  1.0 0.0801575346
H  H54  1  0.31220000  0.90740000  0.53450000  1.0 0.0801575346
H  H55  1  0.31220000  0.09260000  0.46550000  1.0 0.0801575346
H  H56  1  0.68780000  0.09260000  0.53450000  1.0 0.0801575346
H  H57  1  0.31220000  0.46550000  0.90740000  1.0 0.0801575346
H  H58  1  0.68780000  0.53450000  0.90740000  1.0 0.0801575346
H  H59  1  0.31220000  0.53450000  0.09260000  1.0 0.0801575346
H  H60  1  0.68780000  0.46550000  0.09260000  1.0 0.0801575346
H  H61  1  0.53450000  0.31220000  0.90740000  1.0 0.0801575346
H  H62  1  0.53450000  0.68780000  0.09260000  1.0 0.0801575346
H  H63  1  0.46550000  0.68780000  0.90740000  1.0 0.0801575346
H  H64  1  0.46550000  0.31220000  0.09260000  1.0 0.0801575346
H  H65  1  0.46550000  0.90740000  0.31220000  1.0 0.0801575346
H  H66  1  0.53450000  0.90740000  0.68780000  1.0 0.0801575346
H  H67  1  0.53450000  0.09260000  0.31220000  1.0 0.0801575346
H  H68  1  0.46550000  0.09260000  0.68780000  1.0 0.0801575346
H  H69  1  0.09260000  0.53450000  0.68780000  1.0 0.0801575346
H  H70  1  0.09260000  0.46550000  0.31220000  1.0 0.0801575346
H  H71  1  0.90740000  0.53450000  0.31220000  1.0 0.0801575346
H  H72  1  0.90740000  0.46550000  0.68780000  1.0 0.0801575346
H  H73  1  0.09260000  0.68780000  0.53450000  1.0 0.0801575346
H  H74  1  0.09260000  0.31220000  0.46550000  1.0 0.0801575346
H  H75  1  0.90740000  0.31220000  0.53450000  1.0 0.0801575346
H  H76  1  0.90740000  0.68780000  0.46550000  1.0 0.0801575346
H  H77  1  0.31220000  0.09260000  0.53450000  1.0 0.0801575346
H  H78  1  0.68780000  0.09260000  0.46550000  1.0 0.0801575346
H  H79  1  0.68780000  0.90740000  0.53450000  1.0 0.0801575346
H  H80  1  0.31220000  0.90740000  0.46550000  1.0 0.0801575346
H  H81  1  0.68780000  0.53450000  0.09260000  1.0 0.0801575346
H  H82  1  0.31220000  0.46550000  0.09260000  1.0 0.0801575346
H  H83  1  0.68780000  0.46550000  0.90740000  1.0 0.0801575346
H  H84  1  0.31220000  0.53450000  0.90740000  1.0 0.0801575346
H  H85  1  0.46550000  0.68780000  0.09260000  1.0 0.0801575346
H  H86  1  0.46550000  0.31220000  0.90740000  1.0 0.0801575346
H  H87  1  0.53450000  0.31220000  0.09260000  1.0 0.0801575346
H  H88  1  0.53450000  0.68780000  0.90740000  1.0 0.0801575346
H  H89  1  0.53450000  0.09260000  0.68780000  1.0 0.0801575346
H  H90  1  0.46550000  0.09260000  0.31220000  1.0 0.0801575346
H  H91  1  0.46550000  0.90740000  0.68780000  1.0 0.0801575346
H  H92  1  0.53450000  0.90740000  0.31220000  1.0 0.0801575346
H  H93  1  0.90740000  0.46550000  0.31220000  1.0 0.0801575346
H  H94  1  0.90740000  0.53450000  0.68780000  1.0 0.0801575346
H  H95  1  0.09260000  0.46550000  0.68780000  1.0 0.0801575346
H  H96  1  0.09260000  0.53450000  0.31220000  1.0 0.0801575346
H  H97  1  0.90620000  0.20830000  0.43700000  1.0 0.1328853003
H  H98  1  0.90620000  0.79170000  0.56300000  1.0 0.1328853003
H  H99  1  0.09380000  0.79170000  0.43700000  1.0 0.1328853003
H  H100  1  0.09380000  0.20830000  0.56300000  1.0 0.1328853003
H  H101  1  0.79170000  0.90620000  0.43700000  1.0 0.1328853003
H  H102  1  0.20830000  0.90620000  0.56300000  1.0 0.1328853003
H  H103  1  0.20830000  0.09380000  0.43700000  1.0 0.1328853003
H  H104  1  0.79170000  0.09380000  0.56300000  1.0 0.1328853003
H  H105  1  0.20830000  0.43700000  0.90620000  1.0 0.1328853003
H  H106  1  0.79170000  0.56300000  0.90620000  1.0 0.1328853003
H  H107  1  0.20830000  0.56300000  0.09380000  1.0 0.1328853003
H  H108  1  0.79170000  0.43700000  0.09380000  1.0 0.1328853003
H  H109  1  0.56300000  0.20830000  0.90620000  1.0 0.1328853003
H  H110  1  0.56300000  0.79170000  0.09380000  1.0 0.1328853003
H  H111  1  0.43700000  0.79170000  0.90620000  1.0 0.1328853003
H  H112  1  0.43700000  0.20830000  0.09380000  1.0 0.1328853003
H  H113  1  0.43700000  0.90620000  0.20830000  1.0 0.1328853003
H  H114  1  0.56300000  0.90620000  0.79170000  1.0 0.1328853003
H  H115  1  0.56300000  0.09380000  0.20830000  1.0 0.1328853003
H  H116  1  0.43700000  0.09380000  0.79170000  1.0 0.1328853003
H  H117  1  0.09380000  0.56300000  0.79170000  1.0 0.1328853003
H  H118  1  0.09380000  0.43700000  0.20830000  1.0 0.1328853003
H  H119  1  0.90620000  0.56300000  0.20830000  1.0 0.1328853003
H  H120  1  0.90620000  0.43700000  0.79170000  1.0 0.1328853003
H  H121  1  0.09380000  0.79170000  0.56300000  1.0 0.1328853003
H  H122  1  0.09380000  0.20830000  0.43700000  1.0 0.1328853003
H  H123  1  0.90620000  0.20830000  0.56300000  1.0 0.1328853003
H  H124  1  0.90620000  0.79170000  0.43700000  1.0 0.1328853003
H  H125  1  0.20830000  0.09380000  0.56300000  1.0 0.1328853003
H  H126  1  0.79170000  0.09380000  0.43700000  1.0 0.1328853003
H  H127  1  0.79170000  0.90620000  0.56300000  1.0 0.1328853003
H  H128  1  0.20830000  0.90620000  0.43700000  1.0 0.1328853003
H  H129  1  0.79170000  0.56300000  0.09380000  1.0 0.1328853003
H  H130  1  0.20830000  0.43700000  0.09380000  1.0 0.1328853003
H  H131  1  0.79170000  0.43700000  0.90620000  1.0 0.1328853003
H  H132  1  0.20830000  0.56300000  0.90620000  1.0 0.1328853003
H  H133  1  0.43700000  0.79170000  0.09380000  1.0 0.1328853003
H  H134  1  0.43700000  0.20830000  0.90620000  1.0 0.1328853003
H  H135  1  0.56300000  0.20830000  0.09380000  1.0 0.1328853003
H  H136  1  0.56300000  0.79170000  0.90620000  1.0 0.1328853003
H  H137  1  0.56300000  0.09380000  0.79170000  1.0 0.1328853003
H  H138  1  0.43700000  0.09380000  0.20830000  1.0 0.1328853003
H  H139  1  0.43700000  0.90620000  0.79170000  1.0 0.1328853003
H  H140  1  0.56300000  0.90620000  0.20830000  1.0 0.1328853003
H  H141  1  0.90620000  0.43700000  0.20830000  1.0 0.1328853003
H  H142  1  0.90620000  0.56300000  0.79170000  1.0 0.1328853003
H  H143  1  0.09380000  0.43700000  0.79170000  1.0 0.1328853003
H  H144  1  0.09380000  0.56300000  0.20830000  1.0 0.1328853003
H  H145  1  0.11960000  0.04940000  0.54720000  1.0 0.05828603
H  H146  1  0.11960000  0.95060000  0.45280000  1.0 0.05828603
H  H147  1  0.88040000  0.95060000  0.54720000  1.0 0.05828603
H  H148  1  0.88040000  0.04940000  0.45280000  1.0 0.05828603
H  H149  1  0.95060000  0.11960000  0.54720000  1.0 0.05828603
H  H150  1  0.04940000  0.11960000  0.45280000  1.0 0.05828603
H  H151  1  0.04940000  0.88040000  0.54720000  1.0 0.05828603
H  H152  1  0.95060000  0.88040000  0.45280000  1.0 0.05828603
H  H153  1  0.04940000  0.54720000  0.11960000  1.0 0.05828603
H  H154  1  0.95060000  0.45280000  0.11960000  1.0 0.05828603
H  H155  1  0.04940000  0.45280000  0.88040000  1.0 0.05828603
H  H156  1  0.95060000  0.54720000  0.88040000  1.0 0.05828603
H  H157  1  0.45280000  0.04940000  0.11960000  1.0 0.05828603
H  H158  1  0.45280000  0.95060000  0.88040000  1.0 0.05828603
H  H159  1  0.54720000  0.95060000  0.11960000  1.0 0.05828603
H  H160  1  0.54720000  0.04940000  0.88040000  1.0 0.05828603
H  H161  1  0.54720000  0.11960000  0.04940000  1.0 0.05828603
H  H162  1  0.45280000  0.11960000  0.95060000  1.0 0.05828603
H  H163  1  0.45280000  0.88040000  0.04940000  1.0 0.05828603
H  H164  1  0.54720000  0.88040000  0.95060000  1.0 0.05828603
H  H165  1  0.88040000  0.45280000  0.95060000  1.0 0.05828603
H  H166  1  0.88040000  0.54720000  0.04940000  1.0 0.05828603
H  H167  1  0.11960000  0.45280000  0.04940000  1.0 0.05828603
H  H168  1  0.11960000  0.54720000  0.95060000  1.0 0.05828603
H  H169  1  0.88040000  0.95060000  0.45280000  1.0 0.05828603
H  H170  1  0.88040000  0.04940000  0.54720000  1.0 0.05828603
H  H171  1  0.11960000  0.04940000  0.45280000  1.0 0.05828603
H  H172  1  0.11960000  0.95060000  0.54720000  1.0 0.05828603
H  H173  1  0.04940000  0.88040000  0.45280000  1.0 0.05828603
H  H174  1  0.95060000  0.88040000  0.54720000  1.0 0.05828603
H  H175  1  0.95060000  0.11960000  0.45280000  1.0 0.05828603
H  H176  1  0.04940000  0.11960000  0.54720000  1.0 0.05828603
H  H177  1  0.95060000  0.45280000  0.88040000  1.0 0.05828603
H  H178  1  0.04940000  0.54720000  0.88040000  1.0 0.05828603
H  H179  1  0.95060000  0.54720000  0.11960000  1.0 0.05828603
H  H180  1  0.04940000  0.45280000  0.11960000  1.0 0.05828603
H  H181  1  0.54720000  0.95060000  0.88040000  1.0 0.05828603
H  H182  1  0.54720000  0.04940000  0.11960000  1.0 0.05828603
H  H183  1  0.45280000  0.04940000  0.88040000  1.0 0.05828603
H  H184  1  0.45280000  0.95060000  0.11960000  1.0 0.05828603
H  H185  1  0.45280000  0.88040000  0.95060000  1.0 0.05828603
H  H186  1  0.54720000  0.88040000  0.04940000  1.0 0.05828603
H  H187  1  0.54720000  0.11960000  0.95060000  1.0 0.05828603
H  H188  1  0.45280000  0.11960000  0.04940000  1.0 0.05828603
H  H189  1  0.11960000  0.54720000  0.04940000  1.0 0.05828603
H  H190  1  0.11960000  0.45280000  0.95060000  1.0 0.05828603
H  H191  1  0.88040000  0.54720000  0.95060000  1.0 0.05828603
H  H192  1  0.88040000  0.45280000  0.04940000  1.0 0.05828603
H  H193  1  0.12900000  0.08700000  0.48480000  1.0 0.0443446959
H  H194  1  0.12900000  0.91300000  0.51520000  1.0 0.0443446959
H  H195  1  0.87100000  0.91300000  0.48480000  1.0 0.0443446959
H  H196  1  0.87100000  0.08700000  0.51520000  1.0 0.0443446959
H  H197  1  0.91300000  0.12900000  0.48480000  1.0 0.0443446959
H  H198  1  0.08700000  0.12900000  0.51520000  1.0 0.0443446959
H  H199  1  0.08700000  0.87100000  0.48480000  1.0 0.0443446959
H  H200  1  0.91300000  0.87100000  0.51520000  1.0 0.0443446959
H  H201  1  0.08700000  0.48480000  0.12900000  1.0 0.0443446959
H  H202  1  0.91300000  0.51520000  0.12900000  1.0 0.0443446959
H  H203  1  0.08700000  0.51520000  0.87100000  1.0 0.0443446959
H  H204  1  0.91300000  0.48480000  0.87100000  1.0 0.0443446959
H  H205  1  0.51520000  0.08700000  0.12900000  1.0 0.0443446959
H  H206  1  0.51520000  0.91300000  0.87100000  1.0 0.0443446959
H  H207  1  0.48480000  0.91300000  0.12900000  1.0 0.0443446959
H  H208  1  0.48480000  0.08700000  0.87100000  1.0 0.0443446959
H  H209  1  0.48480000  0.12900000  0.08700000  1.0 0.0443446959
H  H210  1  0.51520000  0.12900000  0.91300000  1.0 0.0443446959
H  H211  1  0.51520000  0.87100000  0.08700000  1.0 0.0443446959
H  H212  1  0.48480000  0.87100000  0.91300000  1.0 0.0443446959
H  H213  1  0.87100000  0.51520000  0.91300000  1.0 0.0443446959
H  H214  1  0.87100000  0.48480000  0.08700000  1.0 0.0443446959
H  H215  1  0.12900000  0.51520000  0.08700000  1.0 0.0443446959
H  H216  1  0.12900000  0.48480000  0.91300000  1.0 0.0443446959
H  H217  1  0.87100000  0.91300000  0.51520000  1.0 0.0443446959
H  H218  1  0.87100000  0.08700000  0.48480000  1.0 0.0443446959
H  H219  1  0.12900000  0.08700000  0.51520000  1.0 0.0443446959
H  H220  1  0.12900000  0.91300000  0.48480000  1.0 0.0443446959
H  H221  1  0.08700000  0.87100000  0.51520000  1.0 0.0443446959
H  H222  1  0.91300000  0.87100000  0.48480000  1.0 0.0443446959
H  H223  1  0.91300000  0.12900000  0.51520000  1.0 0.0443446959
H  H224  1  0.08700000  0.12900000  0.48480000  1.0 0.0443446959
H  H225  1  0.91300000  0.51520000  0.87100000  1.0 0.0443446959
H  H226  1  0.08700000  0.48480000  0.87100000  1.0 0.0443446959
H  H227  1  0.91300000  0.48480000  0.12900000  1.0 0.0443446959
H  H228  1  0.08700000  0.51520000  0.12900000  1.0 0.0443446959
H  H229  1  0.48480000  0.91300000  0.87100000  1.0 0.0443446959
H  H230  1  0.48480000  0.08700000  0.12900000  1.0 0.0443446959
H  H231  1  0.51520000  0.08700000  0.87100000  1.0 0.0443446959
H  H232  1  0.51520000  0.91300000  0.12900000  1.0 0.0443446959
H  H233  1  0.51520000  0.87100000  0.91300000  1.0 0.0443446959
H  H234  1  0.48480000  0.87100000  0.08700000  1.0 0.0443446959
H  H235  1  0.48480000  0.12900000  0.91300000  1.0 0.0443446959
H  H236  1  0.51520000  0.12900000  0.08700000  1.0 0.0443446959
H  H237  1  0.12900000  0.48480000  0.08700000  1.0 0.0443446959
H  H238  1  0.12900000  0.51520000  0.91300000  1.0 0.0443446959
H  H239  1  0.87100000  0.48480000  0.91300000  1.0 0.0443446959
H  H240  1  0.87100000  0.51520000  0.08700000  1.0 0.0443446959
H  H241  1  0.02440000  0.07680000  0.55670000  1.0 0.0801575346
H  H242  1  0.02440000  0.92320000  0.44330000  1.0 0.0801575346
H  H243  1  0.97560000  0.92320000  0.55670000  1.0 0.0801575346
H  H244  1  0.97560000  0.07680000  0.44330000  1.0 0.0801575346
H  H245  1  0.92320000  0.02440000  0.55670000  1.0 0.0801575346
H  H246  1  0.07680000  0.02440000  0.44330000  1.0 0.0801575346
H  H247  1  0.07680000  0.97560000  0.55670000  1.0 0.0801575346
H  H248  1  0.92320000  0.97560000  0.44330000  1.0 0.0801575346
H  H249  1  0.07680000  0.55670000  0.02440000  1.0 0.0801575346
H  H250  1  0.92320000  0.44330000  0.02440000  1.0 0.0801575346
H  H251  1  0.07680000  0.44330000  0.97560000  1.0 0.0801575346
H  H252  1  0.92320000  0.55670000  0.97560000  1.0 0.0801575346
H  H253  1  0.44330000  0.07680000  0.02440000  1.0 0.0801575346
H  H254  1  0.44330000  0.92320000  0.97560000  1.0 0.0801575346
H  H255  1  0.55670000  0.92320000  0.02440000  1.0 0.0801575346
H  H256  1  0.55670000  0.07680000  0.97560000  1.0 0.0801575346
H  H257  1  0.55670000  0.02440000  0.07680000  1.0 0.0801575346
H  H258  1  0.44330000  0.02440000  0.92320000  1.0 0.0801575346
H  H259  1  0.44330000  0.97560000  0.07680000  1.0 0.0801575346
H  H260  1  0.55670000  0.97560000  0.92320000  1.0 0.0801575346
H  H261  1  0.97560000  0.44330000  0.92320000  1.0 0.0801575346
H  H262  1  0.97560000  0.55670000  0.07680000  1.0 0.0801575346
H  H263  1  0.02440000  0.44330000  0.07680000  1.0 0.0801575346
H  H264  1  0.02440000  0.55670000  0.92320000  1.0 0.0801575346
H  H265  1  0.97560000  0.92320000  0.44330000  1.0 0.0801575346
H  H266  1  0.97560000  0.07680000  0.55670000  1.0 0.0801575346
H  H267  1  0.02440000  0.07680000  0.44330000  1.0 0.0801575346
H  H268  1  0.02440000  0.92320000  0.55670000  1.0 0.0801575346
H  H269  1  0.07680000  0.97560000  0.44330000  1.0 0.0801575346
H  H270  1  0.92320000  0.97560000  0.55670000  1.0 0.0801575346
H  H271  1  0.92320000  0.02440000  0.44330000  1.0 0.0801575346
H  H272  1  0.07680000  0.02440000  0.55670000  1.0 0.0801575346
H  H273  1  0.92320000  0.44330000  0.97560000  1.0 0.0801575346
H  H274  1  0.07680000  0.55670000  0.97560000  1.0 0.0801575346
H  H275  1  0.92320000  0.55670000  0.02440000  1.0 0.0801575346
H  H276  1  0.07680000  0.44330000  0.02440000  1.0 0.0801575346
H  H277  1  0.55670000  0.92320000  0.97560000  1.0 0.0801575346
H  H278  1  0.55670000  0.07680000  0.02440000  1.0 0.0801575346
H  H279  1  0.44330000  0.07680000  0.97560000  1.0 0.0801575346
H  H280  1  0.44330000  0.92320000  0.02440000  1.0 0.0801575346
H  H281  1  0.44330000  0.97560000  0.92320000  1.0 0.0801575346
H  H282  1  0.55670000  0.97560000  0.07680000  1.0 0.0801575346
H  H283  1  0.55670000  0.02440000  0.92320000  1.0 0.0801575346
H  H284  1  0.44330000  0.02440000  0.07680000  1.0 0.0801575346
H  H285  1  0.02440000  0.55670000  0.07680000  1.0 0.0801575346
H  H286  1  0.02440000  0.44330000  0.92320000  1.0 0.0801575346
H  H287  1  0.97560000  0.55670000  0.92320000  1.0 0.0801575346
H  H288  1  0.97560000  0.44330000  0.07680000  1.0 0.0801575346
H  H289  1  0.05370000  0.13700000  0.52660000  1.0 0.05828603
H  H290  1  0.05370000  0.86300000  0.47340000  1.0 0.05828603
H  H291  1  0.94630000  0.86300000  0.52660000  1.0 0.05828603
H  H292  1  0.94630000  0.13700000  0.47340000  1.0 0.05828603
H  H293  1  0.86300000  0.05370000  0.52660000  1.0 0.05828603
H  H294  1  0.13700000  0.05370000  0.47340000  1.0 0.05828603
H  H295  1  0.13700000  0.94630000  0.52660000  1.0 0.05828603
H  H296  1  0.86300000  0.94630000  0.47340000  1.0 0.05828603
H  H297  1  0.13700000  0.52660000  0.05370000  1.0 0.05828603
H  H298  1  0.86300000  0.47340000  0.05370000  1.0 0.05828603
H  H299  1  0.13700000  0.47340000  0.94630000  1.0 0.05828603
H  H300  1  0.86300000  0.52660000  0.94630000  1.0 0.05828603
H  H301  1  0.47340000  0.13700000  0.05370000  1.0 0.05828603
H  H302  1  0.47340000  0.86300000  0.94630000  1.0 0.05828603
H  H303  1  0.52660000  0.86300000  0.05370000  1.0 0.05828603
H  H304  1  0.52660000  0.13700000  0.94630000  1.0 0.05828603
H  H305  1  0.52660000  0.05370000  0.13700000  1.0 0.05828603
H  H306  1  0.47340000  0.05370000  0.86300000  1.0 0.05828603
H  H307  1  0.47340000  0.94630000  0.13700000  1.0 0.05828603
H  H308  1  0.52660000  0.94630000  0.86300000  1.0 0.05828603
H  H309  1  0.94630000  0.47340000  0.86300000  1.0 0.05828603
H  H310  1  0.94630000  0.52660000  0.13700000  1.0 0.05828603
H  H311  1  0.05370000  0.47340000  0.13700000  1.0 0.05828603
H  H312  1  0.05370000  0.52660000  0.86300000  1.0 0.05828603
H  H313  1  0.94630000  0.86300000  0.47340000  1.0 0.05828603
H  H314  1  0.94630000  0.13700000  0.52660000  1.0 0.05828603
H  H315  1  0.05370000  0.13700000  0.47340000  1.0 0.05828603
H  H316  1  0.05370000  0.86300000  0.52660000  1.0 0.05828603
H  H317  1  0.13700000  0.94630000  0.47340000  1.0 0.05828603
H  H318  1  0.86300000  0.94630000  0.52660000  1.0 0.05828603
H  H319  1  0.86300000  0.05370000  0.47340000  1.0 0.05828603
H  H320  1  0.13700000  0.05370000  0.52660000  1.0 0.05828603
H  H321  1  0.86300000  0.47340000  0.94630000  1.0 0.05828603
H  H322  1  0.13700000  0.52660000  0.94630000  1.0 0.05828603
H  H323  1  0.86300000  0.52660000  0.05370000  1.0 0.05828603
H  H324  1  0.13700000  0.47340000  0.05370000  1.0 0.05828603
H  H325  1  0.52660000  0.86300000  0.94630000  1.0 0.05828603
H  H326  1  0.52660000  0.13700000  0.05370000  1.0 0.05828603
H  H327  1  0.47340000  0.13700000  0.94630000  1.0 0.05828603
H  H328  1  0.47340000  0.86300000  0.05370000  1.0 0.05828603
H  H329  1  0.47340000  0.94630000  0.86300000  1.0 0.05828603
H  H330  1  0.52660000  0.94630000  0.13700000  1.0 0.05828603
H  H331  1  0.52660000  0.05370000  0.86300000  1.0 0.05828603
H  H332  1  0.47340000  0.05370000  0.13700000  1.0 0.05828603
H  H333  1  0.05370000  0.52660000  0.13700000  1.0 0.05828603
H  H334  1  0.05370000  0.47340000  0.86300000  1.0 0.05828603
H  H335  1  0.94630000  0.52660000  0.86300000  1.0 0.05828603
H  H336  1  0.94630000  0.47340000  0.13700000  1.0 0.05828603
C  C1  1  0.00000000  0.38740000  0.48500000  1.0 0.2680616565
C  C2  1  0.00000000  0.61260000  0.51500000  1.0 0.2680616565
C  C3  1  0.00000000  0.61260000  0.48500000  1.0 0.2680616565
C  C4  1  0.00000000  0.38740000  0.51500000  1.0 0.2680616565
C  C5  1  0.61260000  0.00000000  0.48500000  1.0 0.2680616565
C  C6  1  0.38740000  0.00000000  0.51500000  1.0 0.2680616565
C  C7  1  0.38740000  0.00000000  0.48500000  1.0 0.2680616565
C  C8  1  0.61260000  0.00000000  0.51500000  1.0 0.2680616565
C  C9  1  0.38740000  0.48500000  0.00000000  1.0 0.2680616565
C  C10  1  0.61260000  0.51500000  0.00000000  1.0 0.2680616565
C  C11  1  0.38740000  0.51500000  0.00000000  1.0 0.2680616565
C  C12  1  0.61260000  0.48500000  0.00000000  1.0 0.2680616565
C  C13  1  0.51500000  0.38740000  0.00000000  1.0 0.2680616565
C  C14  1  0.51500000  0.61260000  0.00000000  1.0 0.2680616565
C  C15  1  0.48500000  0.61260000  0.00000000  1.0 0.2680616565
C  C16  1  0.48500000  0.38740000  0.00000000  1.0 0.2680616565
C  C17  1  0.48500000  0.00000000  0.38740000  1.0 0.2680616565
C  C18  1  0.51500000  0.00000000  0.61260000  1.0 0.2680616565
C  C19  1  0.51500000  0.00000000  0.38740000  1.0 0.2680616565
C  C20  1  0.48500000  0.00000000  0.61260000  1.0 0.2680616565
C  C21  1  0.00000000  0.51500000  0.61260000  1.0 0.2680616565
C  C22  1  0.00000000  0.48500000  0.38740000  1.0 0.2680616565
C  C23  1  0.00000000  0.51500000  0.38740000  1.0 0.2680616565
C  C24  1  0.00000000  0.48500000  0.61260000  1.0 0.2680616565
C  C25  1  0.00000000  0.13300000  0.41470000  1.0 -0.3024122131
C  C26  1  0.00000000  0.86700000  0.58530000  1.0 -0.3024122131
C  C27  1  0.00000000  0.86700000  0.41470000  1.0 -0.3024122131
C  C28  1  0.00000000  0.13300000  0.58530000  1.0 -0.3024122131
C  C29  1  0.86700000  0.00000000  0.41470000  1.0 -0.3024122131
C  C30  1  0.13300000  0.00000000  0.58530000  1.0 -0.3024122131
C  C31  1  0.13300000  0.00000000  0.41470000  1.0 -0.3024122131
C  C32  1  0.86700000  0.00000000  0.58530000  1.0 -0.3024122131
C  C33  1  0.13300000  0.41470000  0.00000000  1.0 -0.3024122131
C  C34  1  0.86700000  0.58530000  0.00000000  1.0 -0.3024122131
C  C35  1  0.13300000  0.58530000  0.00000000  1.0 -0.3024122131
C  C36  1  0.86700000  0.41470000  0.00000000  1.0 -0.3024122131
C  C37  1  0.58530000  0.13300000  0.00000000  1.0 -0.3024122131
C  C38  1  0.58530000  0.86700000  0.00000000  1.0 -0.3024122131
C  C39  1  0.41470000  0.86700000  0.00000000  1.0 -0.3024122131
C  C40  1  0.41470000  0.13300000  0.00000000  1.0 -0.3024122131
C  C41  1  0.41470000  0.00000000  0.13300000  1.0 -0.3024122131
C  C42  1  0.58530000  0.00000000  0.86700000  1.0 -0.3024122131
C  C43  1  0.58530000  0.00000000  0.13300000  1.0 -0.3024122131
C  C44  1  0.41470000  0.00000000  0.86700000  1.0 -0.3024122131
C  C45  1  0.00000000  0.58530000  0.86700000  1.0 -0.3024122131
C  C46  1  0.00000000  0.41470000  0.13300000  1.0 -0.3024122131
C  C47  1  0.00000000  0.58530000  0.13300000  1.0 -0.3024122131
C  C48  1  0.00000000  0.41470000  0.86700000  1.0 -0.3024122131
C  C49  1  0.94500000  0.29100000  0.45920000  1.0 -0.0733670382
C  C50  1  0.94500000  0.70900000  0.54080000  1.0 -0.0733670382
C  C51  1  0.05500000  0.70900000  0.45920000  1.0 -0.0733670382
C  C52  1  0.05500000  0.29100000  0.54080000  1.0 -0.0733670382
C  C53  1  0.70900000  0.94500000  0.45920000  1.0 -0.0733670382
C  C54  1  0.29100000  0.94500000  0.54080000  1.0 -0.0733670382
C  C55  1  0.29100000  0.05500000  0.45920000  1.0 -0.0733670382
C  C56  1  0.70900000  0.05500000  0.54080000  1.0 -0.0733670382
C  C57  1  0.29100000  0.45920000  0.94500000  1.0 -0.0733670382
C  C58  1  0.70900000  0.54080000  0.94500000  1.0 -0.0733670382
C  C59  1  0.29100000  0.54080000  0.05500000  1.0 -0.0733670382
C  C60  1  0.70900000  0.45920000  0.05500000  1.0 -0.0733670382
C  C61  1  0.54080000  0.29100000  0.94500000  1.0 -0.0733670382
C  C62  1  0.54080000  0.70900000  0.05500000  1.0 -0.0733670382
C  C63  1  0.45920000  0.70900000  0.94500000  1.0 -0.0733670382
C  C64  1  0.45920000  0.29100000  0.05500000  1.0 -0.0733670382
C  C65  1  0.45920000  0.94500000  0.29100000  1.0 -0.0733670382
C  C66  1  0.54080000  0.94500000  0.70900000  1.0 -0.0733670382
C  C67  1  0.54080000  0.05500000  0.29100000  1.0 -0.0733670382
C  C68  1  0.45920000  0.05500000  0.70900000  1.0 -0.0733670382
C  C69  1  0.05500000  0.54080000  0.70900000  1.0 -0.0733670382
C  C70  1  0.05500000  0.45920000  0.29100000  1.0 -0.0733670382
C  C71  1  0.94500000  0.54080000  0.29100000  1.0 -0.0733670382
C  C72  1  0.94500000  0.45920000  0.70900000  1.0 -0.0733670382
C  C73  1  0.05500000  0.70900000  0.54080000  1.0 -0.0733670382
C  C74  1  0.05500000  0.29100000  0.45920000  1.0 -0.0733670382
C  C75  1  0.94500000  0.29100000  0.54080000  1.0 -0.0733670382
C  C76  1  0.94500000  0.70900000  0.45920000  1.0 -0.0733670382
C  C77  1  0.29100000  0.05500000  0.54080000  1.0 -0.0733670382
C  C78  1  0.70900000  0.05500000  0.45920000  1.0 -0.0733670382
C  C79  1  0.70900000  0.94500000  0.54080000  1.0 -0.0733670382
C  C80  1  0.29100000  0.94500000  0.45920000  1.0 -0.0733670382
C  C81  1  0.70900000  0.54080000  0.05500000  1.0 -0.0733670382
C  C82  1  0.29100000  0.45920000  0.05500000  1.0 -0.0733670382
C  C83  1  0.70900000  0.45920000  0.94500000  1.0 -0.0733670382
C  C84  1  0.29100000  0.54080000  0.94500000  1.0 -0.0733670382
C  C85  1  0.45920000  0.70900000  0.05500000  1.0 -0.0733670382
C  C86  1  0.45920000  0.29100000  0.94500000  1.0 -0.0733670382
C  C87  1  0.54080000  0.29100000  0.05500000  1.0 -0.0733670382
C  C88  1  0.54080000  0.70900000  0.94500000  1.0 -0.0733670382
C  C89  1  0.54080000  0.05500000  0.70900000  1.0 -0.0733670382
C  C90  1  0.45920000  0.05500000  0.29100000  1.0 -0.0733670382
C  C91  1  0.45920000  0.94500000  0.70900000  1.0 -0.0733670382
C  C92  1  0.54080000  0.94500000  0.29100000  1.0 -0.0733670382
C  C93  1  0.94500000  0.45920000  0.29100000  1.0 -0.0733670382
C  C94  1  0.94500000  0.54080000  0.70900000  1.0 -0.0733670382
C  C95  1  0.05500000  0.45920000  0.70900000  1.0 -0.0733670382
C  C96  1  0.05500000  0.54080000  0.29100000  1.0 -0.0733670382
C  C97  1  0.94400000  0.22960000  0.44230000  1.0 -0.2498051462
C  C98  1  0.94400000  0.77040000  0.55770000  1.0 -0.2498051462
C  C99  1  0.05600000  0.77040000  0.44230000  1.0 -0.2498051462
C  C100  1  0.05600000  0.22960000  0.55770000  1.0 -0.2498051462
C  C101  1  0.77040000  0.94400000  0.44230000  1.0 -0.2498051462
C  C102  1  0.22960000  0.94400000  0.55770000  1.0 -0.2498051462
C  C103  1  0.22960000  0.05600000  0.44230000  1.0 -0.2498051462
C  C104  1  0.77040000  0.05600000  0.55770000  1.0 -0.2498051462
C  C105  1  0.22960000  0.44230000  0.94400000  1.0 -0.2498051462
C  C106  1  0.77040000  0.55770000  0.94400000  1.0 -0.2498051462
C  C107  1  0.22960000  0.55770000  0.05600000  1.0 -0.2498051462
C  C108  1  0.77040000  0.44230000  0.05600000  1.0 -0.2498051462
C  C109  1  0.55770000  0.22960000  0.94400000  1.0 -0.2498051462
C  C110  1  0.55770000  0.77040000  0.05600000  1.0 -0.2498051462
C  C111  1  0.44230000  0.77040000  0.94400000  1.0 -0.2498051462
C  C112  1  0.44230000  0.22960000  0.05600000  1.0 -0.2498051462
C  C113  1  0.44230000  0.94400000  0.22960000  1.0 -0.2498051462
C  C114  1  0.55770000  0.94400000  0.77040000  1.0 -0.2498051462
C  C115  1  0.55770000  0.05600000  0.22960000  1.0 -0.2498051462
C  C116  1  0.44230000  0.05600000  0.77040000  1.0 -0.2498051462
C  C117  1  0.05600000  0.55770000  0.77040000  1.0 -0.2498051462
C  C118  1  0.05600000  0.44230000  0.22960000  1.0 -0.2498051462
C  C119  1  0.94400000  0.55770000  0.22960000  1.0 -0.2498051462
C  C120  1  0.94400000  0.44230000  0.77040000  1.0 -0.2498051462
C  C121  1  0.05600000  0.77040000  0.55770000  1.0 -0.2498051462
C  C122  1  0.05600000  0.22960000  0.44230000  1.0 -0.2498051462
C  C123  1  0.94400000  0.22960000  0.55770000  1.0 -0.2498051462
C  C124  1  0.94400000  0.77040000  0.44230000  1.0 -0.2498051462
C  C125  1  0.22960000  0.05600000  0.55770000  1.0 -0.2498051462
C  C126  1  0.77040000  0.05600000  0.44230000  1.0 -0.2498051462
C  C127  1  0.77040000  0.94400000  0.55770000  1.0 -0.2498051462
C  C128  1  0.22960000  0.94400000  0.44230000  1.0 -0.2498051462
C  C129  1  0.77040000  0.55770000  0.05600000  1.0 -0.2498051462
C  C130  1  0.22960000  0.44230000  0.05600000  1.0 -0.2498051462
C  C131  1  0.77040000  0.44230000  0.94400000  1.0 -0.2498051462
C  C132  1  0.22960000  0.55770000  0.94400000  1.0 -0.2498051462
C  C133  1  0.44230000  0.77040000  0.05600000  1.0 -0.2498051462
C  C134  1  0.44230000  0.22960000  0.94400000  1.0 -0.2498051462
C  C135  1  0.55770000  0.22960000  0.05600000  1.0 -0.2498051462
C  C136  1  0.55770000  0.77040000  0.94400000  1.0 -0.2498051462
C  C137  1  0.55770000  0.05600000  0.77040000  1.0 -0.2498051462
C  C138  1  0.44230000  0.05600000  0.22960000  1.0 -0.2498051462
C  C139  1  0.44230000  0.94400000  0.77040000  1.0 -0.2498051462
C  C140  1  0.55770000  0.94400000  0.22960000  1.0 -0.2498051462
C  C141  1  0.94400000  0.44230000  0.22960000  1.0 -0.2498051462
C  C142  1  0.94400000  0.55770000  0.77040000  1.0 -0.2498051462
C  C143  1  0.05600000  0.44230000  0.77040000  1.0 -0.2498051462
C  C144  1  0.05600000  0.55770000  0.22960000  1.0 -0.2498051462
C  C145  1  0.00000000  0.20000000  0.43320000  1.0 -0.0017757923
C  C146  1  0.00000000  0.80000000  0.56680000  1.0 -0.0017757923
C  C147  1  0.00000000  0.80000000  0.43320000  1.0 -0.0017757923
C  C148  1  0.00000000  0.20000000  0.56680000  1.0 -0.0017757923
C  C149  1  0.80000000  0.00000000  0.43320000  1.0 -0.0017757923
C  C150  1  0.20000000  0.00000000  0.56680000  1.0 -0.0017757923
C  C151  1  0.20000000  0.00000000  0.43320000  1.0 -0.0017757923
C  C152  1  0.80000000  0.00000000  0.56680000  1.0 -0.0017757923
C  C153  1  0.20000000  0.43320000  0.00000000  1.0 -0.0017757923
C  C154  1  0.80000000  0.56680000  0.00000000  1.0 -0.0017757923
C  C155  1  0.20000000  0.56680000  0.00000000  1.0 -0.0017757923
C  C156  1  0.80000000  0.43320000  0.00000000  1.0 -0.0017757923
C  C157  1  0.56680000  0.20000000  0.00000000  1.0 -0.0017757923
C  C158  1  0.56680000  0.80000000  0.00000000  1.0 -0.0017757923
C  C159  1  0.43320000  0.80000000  0.00000000  1.0 -0.0017757923
C  C160  1  0.43320000  0.20000000  0.00000000  1.0 -0.0017757923
C  C161  1  0.43320000  0.00000000  0.20000000  1.0 -0.0017757923
C  C162  1  0.56680000  0.00000000  0.80000000  1.0 -0.0017757923
C  C163  1  0.56680000  0.00000000  0.20000000  1.0 -0.0017757923
C  C164  1  0.43320000  0.00000000  0.80000000  1.0 -0.0017757923
C  C165  1  0.00000000  0.56680000  0.80000000  1.0 -0.0017757923
C  C166  1  0.00000000  0.43320000  0.20000000  1.0 -0.0017757923
C  C167  1  0.00000000  0.56680000  0.20000000  1.0 -0.0017757923
C  C168  1  0.00000000  0.43320000  0.80000000  1.0 -0.0017757923
C  C169  1  0.00000000  0.32190000  0.46710000  1.0 -0.0017757923
C  C170  1  0.00000000  0.67810000  0.53290000  1.0 -0.0017757923
C  C171  1  0.00000000  0.67810000  0.46710000  1.0 -0.0017757923
C  C172  1  0.00000000  0.32190000  0.53290000  1.0 -0.0017757923
C  C173  1  0.67810000  0.00000000  0.46710000  1.0 -0.0017757923
C  C174  1  0.32190000  0.00000000  0.53290000  1.0 -0.0017757923
C  C175  1  0.32190000  0.00000000  0.46710000  1.0 -0.0017757923
C  C176  1  0.67810000  0.00000000  0.53290000  1.0 -0.0017757923
C  C177  1  0.32190000  0.46710000  0.00000000  1.0 -0.0017757923
C  C178  1  0.67810000  0.53290000  0.00000000  1.0 -0.0017757923
C  C179  1  0.32190000  0.53290000  0.00000000  1.0 -0.0017757923
C  C180  1  0.67810000  0.46710000  0.00000000  1.0 -0.0017757923
C  C181  1  0.53290000  0.32190000  0.00000000  1.0 -0.0017757923
C  C182  1  0.53290000  0.67810000  0.00000000  1.0 -0.0017757923
C  C183  1  0.46710000  0.67810000  0.00000000  1.0 -0.0017757923
C  C184  1  0.46710000  0.32190000  0.00000000  1.0 -0.0017757923
C  C185  1  0.46710000  0.00000000  0.32190000  1.0 -0.0017757923
C  C186  1  0.53290000  0.00000000  0.67810000  1.0 -0.0017757923
C  C187  1  0.53290000  0.00000000  0.32190000  1.0 -0.0017757923
C  C188  1  0.46710000  0.00000000  0.67810000  1.0 -0.0017757923
C  C189  1  0.00000000  0.53290000  0.67810000  1.0 -0.0017757923
C  C190  1  0.00000000  0.46710000  0.32190000  1.0 -0.0017757923
C  C191  1  0.00000000  0.53290000  0.32190000  1.0 -0.0017757923
C  C192  1  0.00000000  0.46710000  0.67810000  1.0 -0.0017757923
C  C193  1  0.04370000  0.09330000  0.51900000  1.0 -0.0179213114
C  C194  1  0.04370000  0.90670000  0.48100000  1.0 -0.0179213114
C  C195  1  0.95630000  0.90670000  0.51900000  1.0 -0.0179213114
C  C196  1  0.95630000  0.09330000  0.48100000  1.0 -0.0179213114
C  C197  1  0.90670000  0.04370000  0.51900000  1.0 -0.0179213114
C  C198  1  0.09330000  0.04370000  0.48100000  1.0 -0.0179213114
C  C199  1  0.09330000  0.95630000  0.51900000  1.0 -0.0179213114
C  C200  1  0.90670000  0.95630000  0.48100000  1.0 -0.0179213114
C  C201  1  0.09330000  0.51900000  0.04370000  1.0 -0.0179213114
C  C202  1  0.90670000  0.48100000  0.04370000  1.0 -0.0179213114
C  C203  1  0.09330000  0.48100000  0.95630000  1.0 -0.0179213114
C  C204  1  0.90670000  0.51900000  0.95630000  1.0 -0.0179213114
C  C205  1  0.48100000  0.09330000  0.04370000  1.0 -0.0179213114
C  C206  1  0.48100000  0.90670000  0.95630000  1.0 -0.0179213114
C  C207  1  0.51900000  0.90670000  0.04370000  1.0 -0.0179213114
C  C208  1  0.51900000  0.09330000  0.95630000  1.0 -0.0179213114
C  C209  1  0.51900000  0.04370000  0.09330000  1.0 -0.0179213114
C  C210  1  0.48100000  0.04370000  0.90670000  1.0 -0.0179213114
C  C211  1  0.48100000  0.95630000  0.09330000  1.0 -0.0179213114
C  C212  1  0.51900000  0.95630000  0.90670000  1.0 -0.0179213114
C  C213  1  0.95630000  0.48100000  0.90670000  1.0 -0.0179213114
C  C214  1  0.95630000  0.51900000  0.09330000  1.0 -0.0179213114
C  C215  1  0.04370000  0.48100000  0.09330000  1.0 -0.0179213114
C  C216  1  0.04370000  0.51900000  0.90670000  1.0 -0.0179213114
C  C217  1  0.95630000  0.90670000  0.48100000  1.0 -0.0179213114
C  C218  1  0.95630000  0.09330000  0.51900000  1.0 -0.0179213114
C  C219  1  0.04370000  0.09330000  0.48100000  1.0 -0.0179213114
C  C220  1  0.04370000  0.90670000  0.51900000  1.0 -0.0179213114
C  C221  1  0.09330000  0.95630000  0.48100000  1.0 -0.0179213114
C  C222  1  0.90670000  0.95630000  0.51900000  1.0 -0.0179213114
C  C223  1  0.90670000  0.04370000  0.48100000  1.0 -0.0179213114
C  C224  1  0.09330000  0.04370000  0.51900000  1.0 -0.0179213114
C  C225  1  0.90670000  0.48100000  0.95630000  1.0 -0.0179213114
C  C226  1  0.09330000  0.51900000  0.95630000  1.0 -0.0179213114
C  C227  1  0.90670000  0.51900000  0.04370000  1.0 -0.0179213114
C  C228  1  0.09330000  0.48100000  0.04370000  1.0 -0.0179213114
C  C229  1  0.51900000  0.90670000  0.95630000  1.0 -0.0179213114
C  C230  1  0.51900000  0.09330000  0.04370000  1.0 -0.0179213114
C  C231  1  0.48100000  0.09330000  0.95630000  1.0 -0.0179213114
C  C232  1  0.48100000  0.90670000  0.04370000  1.0 -0.0179213114
C  C233  1  0.48100000  0.95630000  0.90670000  1.0 -0.0179213114
C  C234  1  0.51900000  0.95630000  0.09330000  1.0 -0.0179213114
C  C235  1  0.51900000  0.04370000  0.90670000  1.0 -0.0179213114
C  C236  1  0.48100000  0.04370000  0.09330000  1.0 -0.0179213114
C  C237  1  0.04370000  0.51900000  0.09330000  1.0 -0.0179213114
C  C238  1  0.04370000  0.48100000  0.90670000  1.0 -0.0179213114
C  C239  1  0.95630000  0.51900000  0.90670000  1.0 -0.0179213114
C  C240  1  0.95630000  0.48100000  0.09330000  1.0 -0.0179213114
C  C241  1  0.10030000  0.06000000  0.50740000  1.0 -0.1107434345
C  C242  1  0.10030000  0.94000000  0.49260000  1.0 -0.1107434345
C  C243  1  0.89970000  0.94000000  0.50740000  1.0 -0.1107434345
C  C244  1  0.89970000  0.06000000  0.49260000  1.0 -0.1107434345
C  C245  1  0.94000000  0.10030000  0.50740000  1.0 -0.1107434345
C  C246  1  0.06000000  0.10030000  0.49260000  1.0 -0.1107434345
C  C247  1  0.06000000  0.89970000  0.50740000  1.0 -0.1107434345
C  C248  1  0.94000000  0.89970000  0.49260000  1.0 -0.1107434345
C  C249  1  0.06000000  0.50740000  0.10030000  1.0 -0.1107434345
C  C250  1  0.94000000  0.49260000  0.10030000  1.0 -0.1107434345
C  C251  1  0.06000000  0.49260000  0.89970000  1.0 -0.1107434345
C  C252  1  0.94000000  0.50740000  0.89970000  1.0 -0.1107434345
C  C253  1  0.49260000  0.06000000  0.10030000  1.0 -0.1107434345
C  C254  1  0.49260000  0.94000000  0.89970000  1.0 -0.1107434345
C  C255  1  0.50740000  0.94000000  0.10030000  1.0 -0.1107434345
C  C256  1  0.50740000  0.06000000  0.89970000  1.0 -0.1107434345
C  C257  1  0.50740000  0.10030000  0.06000000  1.0 -0.1107434345
C  C258  1  0.49260000  0.10030000  0.94000000  1.0 -0.1107434345
C  C259  1  0.49260000  0.89970000  0.06000000  1.0 -0.1107434345
C  C260  1  0.50740000  0.89970000  0.94000000  1.0 -0.1107434345
C  C261  1  0.89970000  0.49260000  0.94000000  1.0 -0.1107434345
C  C262  1  0.89970000  0.50740000  0.06000000  1.0 -0.1107434345
C  C263  1  0.10030000  0.49260000  0.06000000  1.0 -0.1107434345
C  C264  1  0.10030000  0.50740000  0.94000000  1.0 -0.1107434345
C  C265  1  0.89970000  0.94000000  0.49260000  1.0 -0.1107434345
C  C266  1  0.89970000  0.06000000  0.50740000  1.0 -0.1107434345
C  C267  1  0.10030000  0.06000000  0.49260000  1.0 -0.1107434345
C  C268  1  0.10030000  0.94000000  0.50740000  1.0 -0.1107434345
C  C269  1  0.06000000  0.89970000  0.49260000  1.0 -0.1107434345
C  C270  1  0.94000000  0.89970000  0.50740000  1.0 -0.1107434345
C  C271  1  0.94000000  0.10030000  0.49260000  1.0 -0.1107434345
C  C272  1  0.06000000  0.10030000  0.50740000  1.0 -0.1107434345
C  C273  1  0.94000000  0.49260000  0.89970000  1.0 -0.1107434345
C  C274  1  0.06000000  0.50740000  0.89970000  1.0 -0.1107434345
C  C275  1  0.94000000  0.50740000  0.10030000  1.0 -0.1107434345
C  C276  1  0.06000000  0.49260000  0.10030000  1.0 -0.1107434345
C  C277  1  0.50740000  0.94000000  0.89970000  1.0 -0.1107434345
C  C278  1  0.50740000  0.06000000  0.10030000  1.0 -0.1107434345
C  C279  1  0.49260000  0.06000000  0.89970000  1.0 -0.1107434345
C  C280  1  0.49260000  0.94000000  0.10030000  1.0 -0.1107434345
C  C281  1  0.49260000  0.89970000  0.94000000  1.0 -0.1107434345
C  C282  1  0.50740000  0.89970000  0.06000000  1.0 -0.1107434345
C  C283  1  0.50740000  0.10030000  0.94000000  1.0 -0.1107434345
C  C284  1  0.49260000  0.10030000  0.06000000  1.0 -0.1107434345
C  C285  1  0.10030000  0.50740000  0.06000000  1.0 -0.1107434345
C  C286  1  0.10030000  0.49260000  0.94000000  1.0 -0.1107434345
C  C287  1  0.89970000  0.50740000  0.94000000  1.0 -0.1107434345
C  C288  1  0.89970000  0.49260000  0.06000000  1.0 -0.1107434345
N  N1  1  0.00000000  0.09000000  0.46960000  1.0 -0.0179213114
N  N2  1  0.00000000  0.91000000  0.53040000  1.0 -0.0179213114
N  N3  1  0.00000000  0.91000000  0.46960000  1.0 -0.0179213114
N  N4  1  0.00000000  0.09000000  0.53040000  1.0 -0.0179213114
N  N5  1  0.91000000  0.00000000  0.46960000  1.0 -0.0179213114
N  N6  1  0.09000000  0.00000000  0.53040000  1.0 -0.0179213114
N  N7  1  0.09000000  0.00000000  0.46960000  1.0 -0.0179213114
N  N8  1  0.91000000  0.00000000  0.53040000  1.0 -0.0179213114
N  N9  1  0.09000000  0.46960000  0.00000000  1.0 -0.0179213114
N  N10  1  0.91000000  0.53040000  0.00000000  1.0 -0.0179213114
N  N11  1  0.09000000  0.53040000  0.00000000  1.0 -0.0179213114
N  N12  1  0.91000000  0.46960000  0.00000000  1.0 -0.0179213114
N  N13  1  0.53040000  0.09000000  0.00000000  1.0 -0.0179213114
N  N14  1  0.53040000  0.91000000  0.00000000  1.0 -0.0179213114
N  N15  1  0.46960000  0.91000000  0.00000000  1.0 -0.0179213114
N  N16  1  0.46960000  0.09000000  0.00000000  1.0 -0.0179213114
N  N17  1  0.46960000  0.00000000  0.09000000  1.0 -0.0179213114
N  N18  1  0.53040000  0.00000000  0.91000000  1.0 -0.0179213114
N  N19  1  0.53040000  0.00000000  0.09000000  1.0 -0.0179213114
N  N20  1  0.46960000  0.00000000  0.91000000  1.0 -0.0179213114
N  N21  1  0.00000000  0.53040000  0.91000000  1.0 -0.0179213114
N  N22  1  0.00000000  0.46960000  0.09000000  1.0 -0.0179213114
N  N23  1  0.00000000  0.53040000  0.09000000  1.0 -0.0179213114
N  N24  1  0.00000000  0.46960000  0.91000000  1.0 -0.0179213114
O  O1  1  0.94830000  0.41350000  0.48700000  1.0 -0.1388080437
O  O2  1  0.94830000  0.58650000  0.51300000  1.0 -0.1388080437
O  O3  1  0.05170000  0.58650000  0.48700000  1.0 -0.1388080437
O  O4  1  0.05170000  0.41350000  0.51300000  1.0 -0.1388080437
O  O5  1  0.58650000  0.94830000  0.48700000  1.0 -0.1388080437
O  O6  1  0.41350000  0.94830000  0.51300000  1.0 -0.1388080437
O  O7  1  0.41350000  0.05170000  0.48700000  1.0 -0.1388080437
O  O8  1  0.58650000  0.05170000  0.51300000  1.0 -0.1388080437
O  O9  1  0.41350000  0.48700000  0.94830000  1.0 -0.1388080437
O  O10  1  0.58650000  0.51300000  0.94830000  1.0 -0.1388080437
O  O11  1  0.41350000  0.51300000  0.05170000  1.0 -0.1388080437
O  O12  1  0.58650000  0.48700000  0.05170000  1.0 -0.1388080437
O  O13  1  0.51300000  0.41350000  0.94830000  1.0 -0.1388080437
O  O14  1  0.51300000  0.58650000  0.05170000  1.0 -0.1388080437
O  O15  1  0.48700000  0.58650000  0.94830000  1.0 -0.1388080437
O  O16  1  0.48700000  0.41350000  0.05170000  1.0 -0.1388080437
O  O17  1  0.48700000  0.94830000  0.41350000  1.0 -0.1388080437
O  O18  1  0.51300000  0.94830000  0.58650000  1.0 -0.1388080437
O  O19  1  0.51300000  0.05170000  0.41350000  1.0 -0.1388080437
O  O20  1  0.48700000  0.05170000  0.58650000  1.0 -0.1388080437
O  O21  1  0.05170000  0.51300000  0.58650000  1.0 -0.1388080437
O  O22  1  0.05170000  0.48700000  0.41350000  1.0 -0.1388080437
O  O23  1  0.94830000  0.51300000  0.41350000  1.0 -0.1388080437
O  O24  1  0.94830000  0.48700000  0.58650000  1.0 -0.1388080437
O  O25  1  0.05170000  0.58650000  0.51300000  1.0 -0.1388080437
O  O26  1  0.05170000  0.41350000  0.48700000  1.0 -0.1388080437
O  O27  1  0.94830000  0.41350000  0.51300000  1.0 -0.1388080437
O  O28  1  0.94830000  0.58650000  0.48700000  1.0 -0.1388080437
O  O29  1  0.41350000  0.05170000  0.51300000  1.0 -0.1388080437
O  O30  1  0.58650000  0.05170000  0.48700000  1.0 -0.1388080437
O  O31  1  0.58650000  0.94830000  0.51300000  1.0 -0.1388080437
O  O32  1  0.41350000  0.94830000  0.48700000  1.0 -0.1388080437
O  O33  1  0.58650000  0.51300000  0.05170000  1.0 -0.1388080437
O  O34  1  0.41350000  0.48700000  0.05170000  1.0 -0.1388080437
O  O35  1  0.58650000  0.48700000  0.94830000  1.0 -0.1388080437
O  O36  1  0.41350000  0.51300000  0.94830000  1.0 -0.1388080437
O  O37  1  0.48700000  0.58650000  0.05170000  1.0 -0.1388080437
O  O38  1  0.48700000  0.41350000  0.94830000  1.0 -0.1388080437
O  O39  1  0.51300000  0.41350000  0.05170000  1.0 -0.1388080437
O  O40  1  0.51300000  0.58650000  0.94830000  1.0 -0.1388080437
O  O41  1  0.51300000  0.05170000  0.58650000  1.0 -0.1388080437
O  O42  1  0.48700000  0.05170000  0.41350000  1.0 -0.1388080437
O  O43  1  0.48700000  0.94830000  0.58650000  1.0 -0.1388080437
O  O44  1  0.51300000  0.94830000  0.41350000  1.0 -0.1388080437
O  O45  1  0.94830000  0.48700000  0.41350000  1.0 -0.1388080437
O  O46  1  0.94830000  0.51300000  0.58650000  1.0 -0.1388080437
O  O47  1  0.05170000  0.48700000  0.58650000  1.0 -0.1388080437
O  O48  1  0.05170000  0.51300000  0.41350000  1.0 -0.1388080437
