# DDEC6 charges by PACMAN v1.1 (https://github.com/mtap-research/PACMAN-charge/)
data_NOBWUY_ASR_pacman
_symmetry_space_group_name_H-M   'P 1'
_cell_length_a   31.52850000
_cell_length_b   31.52850000
_cell_length_c   31.52850000
_cell_angle_alpha   60.00000000
_cell_angle_beta   60.00000000
_cell_angle_gamma   60.00000000
_symmetry_Int_Tables_number   1
_chemical_formula_structural   Cu9H27C51N12O23
_chemical_formula_sum   'Cu72 H216 C408 N96 O184'
_cell_volume   22161.28453979
_cell_formula_units_Z   8
loop_
 _symmetry_equiv_pos_site_id
 _symmetry_equiv_pos_as_xyz
  1  'x, y, z'
loop_
 _atom_site_type_symbol
 _atom_site_label
 _atom_site_symmetry_multiplicity
 _atom_site_fract_x
 _atom_site_fract_y
 _atom_site_fract_z
 _atom_site_occupancy
 _atom_site_charge
Cu  Cu1  1  0.83550000  0.50000000  0.16450000  1.0 0.787666347
Cu  Cu2  1  0.50000000  0.83550000  0.16450000  1.0 0.787666347
Cu  Cu3  1  0.50000000  0.83550000  0.50000000  1.0 0.787666347
Cu  Cu4  1  0.83550000  0.50000000  0.50000000  1.0 0.787666347
Cu  Cu5  1  0.50000000  0.50000000  0.16450000  1.0 0.787666347
Cu  Cu6  1  0.50000000  0.16450000  0.50000000  1.0 0.787666347
Cu  Cu7  1  0.83550000  0.16450000  0.50000000  1.0 0.787666347
Cu  Cu8  1  0.16450000  0.50000000  0.83550000  1.0 0.787666347
Cu  Cu9  1  0.16450000  0.83550000  0.50000000  1.0 0.787666347
Cu  Cu10  1  0.50000000  0.16450000  0.83550000  1.0 0.787666347
Cu  Cu11  1  0.16450000  0.50000000  0.50000000  1.0 0.787666347
Cu  Cu12  1  0.50000000  0.50000000  0.83550000  1.0 0.787666347
Cu  Cu13  1  0.75172000  0.50000000  0.24828000  1.0 0.7558195654
Cu  Cu14  1  0.50000000  0.75172000  0.24828000  1.0 0.7558195654
Cu  Cu15  1  0.50000000  0.75172000  0.50000000  1.0 0.7558195654
Cu  Cu16  1  0.75172000  0.50000000  0.50000000  1.0 0.7558195654
Cu  Cu17  1  0.50000000  0.50000000  0.24828000  1.0 0.7558195654
Cu  Cu18  1  0.50000000  0.24828000  0.50000000  1.0 0.7558195654
Cu  Cu19  1  0.75172000  0.24828000  0.50000000  1.0 0.7558195654
Cu  Cu20  1  0.24828000  0.50000000  0.75172000  1.0 0.7558195654
Cu  Cu21  1  0.24828000  0.75172000  0.50000000  1.0 0.7558195654
Cu  Cu22  1  0.50000000  0.24828000  0.75172000  1.0 0.7558195654
Cu  Cu23  1  0.24828000  0.50000000  0.50000000  1.0 0.7558195654
Cu  Cu24  1  0.50000000  0.50000000  0.75172000  1.0 0.7558195654
Cu  Cu25  1  0.89157000  0.78645000  0.89157000  1.0 0.2485972098
Cu  Cu26  1  0.56959000  0.10843000  0.10843000  1.0 0.243001077
Cu  Cu27  1  0.78645000  0.89157000  0.43041000  1.0 0.2485972098
Cu  Cu28  1  0.10843000  0.56959000  0.21355000  1.0 0.2485972098
Cu  Cu29  1  0.21355000  0.56959000  0.10843000  1.0 0.243001077
Cu  Cu30  1  0.43041000  0.89157000  0.78645000  1.0 0.2485972098
Cu  Cu31  1  0.10843000  0.10843000  0.56959000  1.0 0.2485972098
Cu  Cu32  1  0.21355000  0.10843000  0.56959000  1.0 0.2485972098
Cu  Cu33  1  0.89157000  0.43041000  0.89157000  1.0 0.2485972098
Cu  Cu34  1  0.56959000  0.10843000  0.21355000  1.0 0.2485972098
Cu  Cu35  1  0.89157000  0.89157000  0.78645000  1.0 0.2485972098
Cu  Cu36  1  0.78645000  0.89157000  0.89157000  1.0 0.2485972098
Cu  Cu37  1  0.89157000  0.78645000  0.43041000  1.0 0.2485972098
Cu  Cu38  1  0.43041000  0.78645000  0.89157000  1.0 0.2485972098
Cu  Cu39  1  0.89157000  0.43041000  0.78645000  1.0 0.243001077
Cu  Cu40  1  0.89157000  0.89157000  0.43041000  1.0 0.2485972098
Cu  Cu41  1  0.78645000  0.43041000  0.89157000  1.0 0.243001077
Cu  Cu42  1  0.43041000  0.89157000  0.89157000  1.0 0.2485972098
Cu  Cu43  1  0.10843000  0.21355000  0.56959000  1.0 0.2485972098
Cu  Cu44  1  0.21355000  0.10843000  0.10843000  1.0 0.2485972098
Cu  Cu45  1  0.56959000  0.21355000  0.10843000  1.0 0.2485972098
Cu  Cu46  1  0.10843000  0.10843000  0.21355000  1.0 0.2485972098
Cu  Cu47  1  0.10843000  0.56959000  0.10843000  1.0 0.2485972098
Cu  Cu48  1  0.10843000  0.21355000  0.10843000  1.0 0.2485972098
Cu  Cu49  1  0.87440000  0.77420000  0.87440000  1.0 0.243001077
Cu  Cu50  1  0.52300000  0.12560000  0.12560000  1.0 0.2485972098
Cu  Cu51  1  0.77420000  0.87440000  0.47700000  1.0 0.2485972098
Cu  Cu52  1  0.12560000  0.52300000  0.22580000  1.0 0.2485972098
Cu  Cu53  1  0.22580000  0.52300000  0.12560000  1.0 0.2485972098
Cu  Cu54  1  0.47700000  0.87440000  0.77420000  1.0 0.243001077
Cu  Cu55  1  0.12560000  0.12560000  0.52300000  1.0 0.243001077
Cu  Cu56  1  0.22580000  0.12560000  0.52300000  1.0 0.243001077
Cu  Cu57  1  0.87440000  0.47700000  0.87440000  1.0 0.243001077
Cu  Cu58  1  0.52300000  0.12560000  0.22580000  1.0 0.243001077
Cu  Cu59  1  0.87440000  0.87440000  0.77420000  1.0 0.243001077
Cu  Cu60  1  0.77420000  0.87440000  0.87440000  1.0 0.243001077
Cu  Cu61  1  0.87440000  0.77420000  0.47700000  1.0 0.243001077
Cu  Cu62  1  0.47700000  0.77420000  0.87440000  1.0 0.243001077
Cu  Cu63  1  0.87440000  0.47700000  0.77420000  1.0 0.243001077
Cu  Cu64  1  0.87440000  0.87440000  0.47700000  1.0 0.2485972098
Cu  Cu65  1  0.77420000  0.47700000  0.87440000  1.0 0.243001077
Cu  Cu66  1  0.47700000  0.87440000  0.87440000  1.0 0.243001077
Cu  Cu67  1  0.12560000  0.22580000  0.52300000  1.0 0.2485972098
Cu  Cu68  1  0.22580000  0.12560000  0.12560000  1.0 0.2485972098
Cu  Cu69  1  0.52300000  0.22580000  0.12560000  1.0 0.243001077
Cu  Cu70  1  0.12560000  0.12560000  0.22580000  1.0 0.243001077
Cu  Cu71  1  0.12560000  0.52300000  0.12560000  1.0 0.2485972098
Cu  Cu72  1  0.12560000  0.22580000  0.12560000  1.0 0.2485972098
H  H1  1  0.65740000  0.65740000  0.19840000  1.0 0.1275208755
H  H2  1  0.51320000  0.80160000  0.34260000  1.0 0.1275208755
H  H3  1  0.65740000  0.65740000  0.48680000  1.0 0.1275208755
H  H4  1  0.80160000  0.51320000  0.34260000  1.0 0.1275208755
H  H5  1  0.34260000  0.51320000  0.34260000  1.0 0.1275208755
H  H6  1  0.48680000  0.19840000  0.65740000  1.0 0.1275208755
H  H7  1  0.80160000  0.34260000  0.51320000  1.0 0.1275208755
H  H8  1  0.34260000  0.80160000  0.51320000  1.0 0.1275208755
H  H9  1  0.19840000  0.48680000  0.65740000  1.0 0.1275208755
H  H10  1  0.51320000  0.34260000  0.34260000  1.0 0.1275208755
H  H11  1  0.19840000  0.65740000  0.65740000  1.0 0.1275208755
H  H12  1  0.65740000  0.19840000  0.65740000  1.0 0.1275208755
H  H13  1  0.19840000  0.65740000  0.48680000  1.0 0.1275208755
H  H14  1  0.48680000  0.65740000  0.65740000  1.0 0.1275208755
H  H15  1  0.65740000  0.48680000  0.65740000  1.0 0.1275208755
H  H16  1  0.65740000  0.19840000  0.48680000  1.0 0.1275208755
H  H17  1  0.65740000  0.48680000  0.19840000  1.0 0.1275208755
H  H18  1  0.48680000  0.65740000  0.19840000  1.0 0.1275208755
H  H19  1  0.34260000  0.34260000  0.51320000  1.0 0.1275208755
H  H20  1  0.34260000  0.34260000  0.80160000  1.0 0.1275208755
H  H21  1  0.51320000  0.34260000  0.80160000  1.0 0.1275208755
H  H22  1  0.34260000  0.80160000  0.34260000  1.0 0.1275208755
H  H23  1  0.34260000  0.51320000  0.80160000  1.0 0.1275208755
H  H24  1  0.80160000  0.34260000  0.34260000  1.0 0.1275208755
H  H25  1  0.83930000  0.71370000  0.00530000  1.0 0.0489057464
H  H26  1  0.55830000  0.99470000  0.16070000  1.0 0.0489057464
H  H27  1  0.71370000  0.83930000  0.44170000  1.0 0.0489057464
H  H28  1  0.99470000  0.55830000  0.28630000  1.0 0.0489057464
H  H29  1  0.28630000  0.55830000  0.16070000  1.0 0.0489057464
H  H30  1  0.44170000  0.00530000  0.71370000  1.0 0.0489057464
H  H31  1  0.99470000  0.16070000  0.55830000  1.0 0.0489057464
H  H32  1  0.28630000  0.99470000  0.55830000  1.0 0.0489057464
H  H33  1  0.00530000  0.44170000  0.83930000  1.0 0.0489057464
H  H34  1  0.55830000  0.16070000  0.28630000  1.0 0.0489057464
H  H35  1  0.00530000  0.83930000  0.71370000  1.0 0.0489057464
H  H36  1  0.71370000  0.00530000  0.83930000  1.0 0.0489057464
H  H37  1  0.00530000  0.71370000  0.44170000  1.0 0.0489057464
H  H38  1  0.44170000  0.71370000  0.83930000  1.0 0.0489057464
H  H39  1  0.83930000  0.44170000  0.71370000  1.0 0.0489057464
H  H40  1  0.83930000  0.00530000  0.44170000  1.0 0.0489057464
H  H41  1  0.71370000  0.44170000  0.00530000  1.0 0.0489057464
H  H42  1  0.44170000  0.83930000  0.00530000  1.0 0.0489057464
H  H43  1  0.16070000  0.28630000  0.55830000  1.0 0.0489057464
H  H44  1  0.28630000  0.16070000  0.99470000  1.0 0.0489057464
H  H45  1  0.55830000  0.28630000  0.99470000  1.0 0.0489057464
H  H46  1  0.16070000  0.99470000  0.28630000  1.0 0.0489057464
H  H47  1  0.16070000  0.55830000  0.99470000  1.0 0.0489057464
H  H48  1  0.99470000  0.28630000  0.16070000  1.0 0.0489057464
H  H49  1  0.16070000  0.28630000  0.99470000  1.0 0.0489057464
H  H50  1  0.44170000  0.00530000  0.83930000  1.0 0.0489057464
H  H51  1  0.28630000  0.16070000  0.55830000  1.0 0.0489057464
H  H52  1  0.00530000  0.44170000  0.71370000  1.0 0.0489057464
H  H53  1  0.71370000  0.44170000  0.83930000  1.0 0.0489057464
H  H54  1  0.55830000  0.99470000  0.28630000  1.0 0.0489057464
H  H55  1  0.00530000  0.83930000  0.44170000  1.0 0.0489057464
H  H56  1  0.71370000  0.00530000  0.44170000  1.0 0.0489057464
H  H57  1  0.99470000  0.55830000  0.16070000  1.0 0.0489057464
H  H58  1  0.44170000  0.83930000  0.71370000  1.0 0.0489057464
H  H59  1  0.99470000  0.16070000  0.28630000  1.0 0.0489057464
H  H60  1  0.28630000  0.99470000  0.16070000  1.0 0.0489057464
H  H61  1  0.99470000  0.28630000  0.55830000  1.0 0.0489057464
H  H62  1  0.55830000  0.28630000  0.16070000  1.0 0.0489057464
H  H63  1  0.16070000  0.55830000  0.28630000  1.0 0.0489057464
H  H64  1  0.16070000  0.99470000  0.55830000  1.0 0.0489057464
H  H65  1  0.28630000  0.55830000  0.99470000  1.0 0.0489057464
H  H66  1  0.55830000  0.16070000  0.99470000  1.0 0.0489057464
H  H67  1  0.83930000  0.71370000  0.44170000  1.0 0.0489057464
H  H68  1  0.71370000  0.83930000  0.00530000  1.0 0.0489057464
H  H69  1  0.44170000  0.71370000  0.00530000  1.0 0.0489057464
H  H70  1  0.83930000  0.00530000  0.71370000  1.0 0.0489057464
H  H71  1  0.83930000  0.44170000  0.00530000  1.0 0.0489057464
H  H72  1  0.00530000  0.71370000  0.83930000  1.0 0.0489057464
H  H73  1  0.79430000  0.66890000  0.08210000  1.0 0.089118786
H  H74  1  0.54530000  0.91790000  0.20570000  1.0 0.089118786
H  H75  1  0.66890000  0.79430000  0.45470000  1.0 0.089118786
H  H76  1  0.91790000  0.54530000  0.33110000  1.0 0.089118786
H  H77  1  0.33110000  0.54530000  0.20570000  1.0 0.089118786
H  H78  1  0.45470000  0.08210000  0.66890000  1.0 0.089118786
H  H79  1  0.91790000  0.20570000  0.54530000  1.0 0.089118786
H  H80  1  0.33110000  0.91790000  0.54530000  1.0 0.089118786
H  H81  1  0.08210000  0.45470000  0.79430000  1.0 0.089118786
H  H82  1  0.54530000  0.20570000  0.33110000  1.0 0.089118786
H  H83  1  0.08210000  0.79430000  0.66890000  1.0 0.089118786
H  H84  1  0.66890000  0.08210000  0.79430000  1.0 0.089118786
H  H85  1  0.08210000  0.66890000  0.45470000  1.0 0.089118786
H  H86  1  0.45470000  0.66890000  0.79430000  1.0 0.089118786
H  H87  1  0.79430000  0.45470000  0.66890000  1.0 0.089118786
H  H88  1  0.79430000  0.08210000  0.45470000  1.0 0.089118786
H  H89  1  0.66890000  0.45470000  0.08210000  1.0 0.089118786
H  H90  1  0.45470000  0.79430000  0.08210000  1.0 0.089118786
H  H91  1  0.20570000  0.33110000  0.54530000  1.0 0.089118786
H  H92  1  0.33110000  0.20570000  0.91790000  1.0 0.089118786
H  H93  1  0.54530000  0.33110000  0.91790000  1.0 0.089118786
H  H94  1  0.20570000  0.91790000  0.33110000  1.0 0.089118786
H  H95  1  0.20570000  0.54530000  0.91790000  1.0 0.089118786
H  H96  1  0.91790000  0.33110000  0.20570000  1.0 0.089118786
H  H97  1  0.20570000  0.33110000  0.91790000  1.0 0.089118786
H  H98  1  0.45470000  0.08210000  0.79430000  1.0 0.089118786
H  H99  1  0.33110000  0.20570000  0.54530000  1.0 0.089118786
H  H100  1  0.08210000  0.45470000  0.66890000  1.0 0.089118786
H  H101  1  0.66890000  0.45470000  0.79430000  1.0 0.089118786
H  H102  1  0.54530000  0.91790000  0.33110000  1.0 0.089118786
H  H103  1  0.08210000  0.79430000  0.45470000  1.0 0.089118786
H  H104  1  0.66890000  0.08210000  0.45470000  1.0 0.089118786
H  H105  1  0.91790000  0.54530000  0.20570000  1.0 0.089118786
H  H106  1  0.45470000  0.79430000  0.66890000  1.0 0.089118786
H  H107  1  0.91790000  0.20570000  0.33110000  1.0 0.089118786
H  H108  1  0.33110000  0.91790000  0.20570000  1.0 0.089118786
H  H109  1  0.91790000  0.33110000  0.54530000  1.0 0.089118786
H  H110  1  0.54530000  0.33110000  0.20570000  1.0 0.089118786
H  H111  1  0.20570000  0.54530000  0.33110000  1.0 0.089118786
H  H112  1  0.20570000  0.91790000  0.54530000  1.0 0.089118786
H  H113  1  0.33110000  0.54530000  0.91790000  1.0 0.089118786
H  H114  1  0.54530000  0.20570000  0.91790000  1.0 0.089118786
H  H115  1  0.79430000  0.66890000  0.45470000  1.0 0.089118786
H  H116  1  0.66890000  0.79430000  0.08210000  1.0 0.089118786
H  H117  1  0.45470000  0.66890000  0.08210000  1.0 0.089118786
H  H118  1  0.79430000  0.08210000  0.66890000  1.0 0.089118786
H  H119  1  0.79430000  0.45470000  0.08210000  1.0 0.089118786
H  H120  1  0.08210000  0.66890000  0.79430000  1.0 0.089118786
H  H121  1  0.78710000  0.65750000  0.07310000  1.0 0.089118786
H  H122  1  0.51770000  0.92690000  0.21290000  1.0 0.089118786
H  H123  1  0.65750000  0.78710000  0.48230000  1.0 0.089118786
H  H124  1  0.92690000  0.51770000  0.34250000  1.0 0.089118786
H  H125  1  0.34250000  0.51770000  0.21290000  1.0 0.089118786
H  H126  1  0.48230000  0.07310000  0.65750000  1.0 0.089118786
H  H127  1  0.92690000  0.21290000  0.51770000  1.0 0.089118786
H  H128  1  0.34250000  0.92690000  0.51770000  1.0 0.089118786
H  H129  1  0.07310000  0.48230000  0.78710000  1.0 0.089118786
H  H130  1  0.51770000  0.21290000  0.34250000  1.0 0.089118786
H  H131  1  0.07310000  0.78710000  0.65750000  1.0 0.089118786
H  H132  1  0.65750000  0.07310000  0.78710000  1.0 0.089118786
H  H133  1  0.07310000  0.65750000  0.48230000  1.0 0.089118786
H  H134  1  0.48230000  0.65750000  0.78710000  1.0 0.089118786
H  H135  1  0.78710000  0.48230000  0.65750000  1.0 0.089118786
H  H136  1  0.78710000  0.07310000  0.48230000  1.0 0.089118786
H  H137  1  0.65750000  0.48230000  0.07310000  1.0 0.089118786
H  H138  1  0.48230000  0.78710000  0.07310000  1.0 0.089118786
H  H139  1  0.21290000  0.34250000  0.51770000  1.0 0.089118786
H  H140  1  0.34250000  0.21290000  0.92690000  1.0 0.089118786
H  H141  1  0.51770000  0.34250000  0.92690000  1.0 0.089118786
H  H142  1  0.21290000  0.92690000  0.34250000  1.0 0.089118786
H  H143  1  0.21290000  0.51770000  0.92690000  1.0 0.089118786
H  H144  1  0.92690000  0.34250000  0.21290000  1.0 0.089118786
H  H145  1  0.21290000  0.34250000  0.92690000  1.0 0.089118786
H  H146  1  0.48230000  0.07310000  0.78710000  1.0 0.089118786
H  H147  1  0.34250000  0.21290000  0.51770000  1.0 0.089118786
H  H148  1  0.07310000  0.48230000  0.65750000  1.0 0.089118786
H  H149  1  0.65750000  0.48230000  0.78710000  1.0 0.089118786
H  H150  1  0.51770000  0.92690000  0.34250000  1.0 0.089118786
H  H151  1  0.07310000  0.78710000  0.48230000  1.0 0.089118786
H  H152  1  0.65750000  0.07310000  0.48230000  1.0 0.089118786
H  H153  1  0.92690000  0.51770000  0.21290000  1.0 0.089118786
H  H154  1  0.48230000  0.78710000  0.65750000  1.0 0.089118786
H  H155  1  0.92690000  0.21290000  0.34250000  1.0 0.089118786
H  H156  1  0.34250000  0.92690000  0.21290000  1.0 0.089118786
H  H157  1  0.92690000  0.34250000  0.51770000  1.0 0.089118786
H  H158  1  0.51770000  0.34250000  0.21290000  1.0 0.089118786
H  H159  1  0.21290000  0.51770000  0.34250000  1.0 0.089118786
H  H160  1  0.21290000  0.92690000  0.51770000  1.0 0.089118786
H  H161  1  0.34250000  0.51770000  0.92690000  1.0 0.089118786
H  H162  1  0.51770000  0.21290000  0.92690000  1.0 0.089118786
H  H163  1  0.78710000  0.65750000  0.48230000  1.0 0.089118786
H  H164  1  0.65750000  0.78710000  0.07310000  1.0 0.089118786
H  H165  1  0.48230000  0.65750000  0.07310000  1.0 0.089118786
H  H166  1  0.78710000  0.07310000  0.65750000  1.0 0.089118786
H  H167  1  0.78710000  0.48230000  0.07310000  1.0 0.089118786
H  H168  1  0.07310000  0.65750000  0.78710000  1.0 0.089118786
H  H169  1  0.82850000  0.70490000  0.98930000  1.0 0.0489057464
H  H170  1  0.52270000  0.01070000  0.17150000  1.0 0.0489057464
H  H171  1  0.70490000  0.82850000  0.47730000  1.0 0.0489057464
H  H172  1  0.01070000  0.52270000  0.29510000  1.0 0.0489057464
H  H173  1  0.29510000  0.52270000  0.17150000  1.0 0.0489057464
H  H174  1  0.47730000  0.98930000  0.70490000  1.0 0.0489057464
H  H175  1  0.01070000  0.17150000  0.52270000  1.0 0.0489057464
H  H176  1  0.29510000  0.01070000  0.52270000  1.0 0.0489057464
H  H177  1  0.98930000  0.47730000  0.82850000  1.0 0.0489057464
H  H178  1  0.52270000  0.17150000  0.29510000  1.0 0.0489057464
H  H179  1  0.98930000  0.82850000  0.70490000  1.0 0.0489057464
H  H180  1  0.70490000  0.98930000  0.82850000  1.0 0.0489057464
H  H181  1  0.98930000  0.70490000  0.47730000  1.0 0.0489057464
H  H182  1  0.47730000  0.70490000  0.82850000  1.0 0.0489057464
H  H183  1  0.82850000  0.47730000  0.70490000  1.0 0.0489057464
H  H184  1  0.82850000  0.98930000  0.47730000  1.0 0.0489057464
H  H185  1  0.70490000  0.47730000  0.98930000  1.0 0.0489057464
H  H186  1  0.47730000  0.82850000  0.98930000  1.0 0.0489057464
H  H187  1  0.17150000  0.29510000  0.52270000  1.0 0.0489057464
H  H188  1  0.29510000  0.17150000  0.01070000  1.0 0.0489057464
H  H189  1  0.52270000  0.29510000  0.01070000  1.0 0.0489057464
H  H190  1  0.17150000  0.01070000  0.29510000  1.0 0.0489057464
H  H191  1  0.17150000  0.52270000  0.01070000  1.0 0.0489057464
H  H192  1  0.01070000  0.29510000  0.17150000  1.0 0.0489057464
H  H193  1  0.17150000  0.29510000  0.01070000  1.0 0.0489057464
H  H194  1  0.47730000  0.98930000  0.82850000  1.0 0.0489057464
H  H195  1  0.29510000  0.17150000  0.52270000  1.0 0.0489057464
H  H196  1  0.98930000  0.47730000  0.70490000  1.0 0.0489057464
H  H197  1  0.70490000  0.47730000  0.82850000  1.0 0.0489057464
H  H198  1  0.52270000  0.01070000  0.29510000  1.0 0.0489057464
H  H199  1  0.98930000  0.82850000  0.47730000  1.0 0.0489057464
H  H200  1  0.70490000  0.98930000  0.47730000  1.0 0.0489057464
H  H201  1  0.01070000  0.52270000  0.17150000  1.0 0.0489057464
H  H202  1  0.47730000  0.82850000  0.70490000  1.0 0.0489057464
H  H203  1  0.01070000  0.17150000  0.29510000  1.0 0.0489057464
H  H204  1  0.29510000  0.01070000  0.17150000  1.0 0.0489057464
H  H205  1  0.01070000  0.29510000  0.52270000  1.0 0.0489057464
H  H206  1  0.52270000  0.29510000  0.17150000  1.0 0.0489057464
H  H207  1  0.17150000  0.52270000  0.29510000  1.0 0.0489057464
H  H208  1  0.17150000  0.01070000  0.52270000  1.0 0.0489057464
H  H209  1  0.29510000  0.52270000  0.01070000  1.0 0.0489057464
H  H210  1  0.52270000  0.17150000  0.01070000  1.0 0.0489057464
H  H211  1  0.82850000  0.70490000  0.47730000  1.0 0.0489057464
H  H212  1  0.70490000  0.82850000  0.98930000  1.0 0.0489057464
H  H213  1  0.47730000  0.70490000  0.98930000  1.0 0.0489057464
H  H214  1  0.82850000  0.98930000  0.70490000  1.0 0.0489057464
H  H215  1  0.82850000  0.47730000  0.98930000  1.0 0.0489057464
H  H216  1  0.98930000  0.70490000  0.82850000  1.0 0.0489057464
C  C1  1  0.67641000  0.67641000  0.16573000  1.0 -0.1955433983
C  C2  1  0.51855000  0.83427000  0.32359000  1.0 -0.1955433983
C  C3  1  0.67641000  0.67641000  0.48145000  1.0 -0.1955433983
C  C4  1  0.83427000  0.51855000  0.32359000  1.0 -0.1912928761
C  C5  1  0.32359000  0.51855000  0.32359000  1.0 -0.1912928761
C  C6  1  0.48145000  0.16573000  0.67641000  1.0 -0.1912928761
C  C7  1  0.83427000  0.32359000  0.51855000  1.0 -0.1955433983
C  C8  1  0.32359000  0.83427000  0.51855000  1.0 -0.1955433983
C  C9  1  0.16573000  0.48145000  0.67641000  1.0 -0.1912928761
C  C10  1  0.51855000  0.32359000  0.32359000  1.0 -0.1955433983
C  C11  1  0.16573000  0.67641000  0.67641000  1.0 -0.1912928761
C  C12  1  0.67641000  0.16573000  0.67641000  1.0 -0.1912928761
C  C13  1  0.16573000  0.67641000  0.48145000  1.0 -0.1955433983
C  C14  1  0.48145000  0.67641000  0.67641000  1.0 -0.1955433983
C  C15  1  0.67641000  0.48145000  0.67641000  1.0 -0.1912928761
C  C16  1  0.67641000  0.16573000  0.48145000  1.0 -0.1912928761
C  C17  1  0.67641000  0.48145000  0.16573000  1.0 -0.1955433983
C  C18  1  0.48145000  0.67641000  0.16573000  1.0 -0.1955433983
C  C19  1  0.32359000  0.32359000  0.51855000  1.0 -0.1912928761
C  C20  1  0.32359000  0.32359000  0.83427000  1.0 -0.1955433983
C  C21  1  0.51855000  0.32359000  0.83427000  1.0 -0.1912928761
C  C22  1  0.32359000  0.83427000  0.32359000  1.0 -0.1955433983
C  C23  1  0.32359000  0.51855000  0.83427000  1.0 -0.1912928761
C  C24  1  0.83427000  0.32359000  0.32359000  1.0 -0.1955433983
C  C25  1  0.72835000  0.65215000  0.14203000  1.0 -0.0096971365
C  C26  1  0.52253000  0.85797000  0.27165000  1.0 -0.0096971365
C  C27  1  0.65215000  0.72835000  0.47747000  1.0 -0.0096971365
C  C28  1  0.85797000  0.52253000  0.34785000  1.0 -0.0096971365
C  C29  1  0.34785000  0.52253000  0.27165000  1.0 -0.0096971365
C  C30  1  0.47747000  0.14203000  0.65215000  1.0 -0.0096971365
C  C31  1  0.85797000  0.27165000  0.52253000  1.0 -0.0096971365
C  C32  1  0.34785000  0.85797000  0.52253000  1.0 -0.0096971365
C  C33  1  0.14203000  0.47747000  0.72835000  1.0 -0.0096971365
C  C34  1  0.52253000  0.27165000  0.34785000  1.0 -0.0096971365
C  C35  1  0.14203000  0.72835000  0.65215000  1.0 -0.0096971365
C  C36  1  0.65215000  0.14203000  0.72835000  1.0 -0.0096971365
C  C37  1  0.14203000  0.65215000  0.47747000  1.0 -0.0096971365
C  C38  1  0.47747000  0.65215000  0.72835000  1.0 -0.0096971365
C  C39  1  0.72835000  0.47747000  0.65215000  1.0 -0.0096971365
C  C40  1  0.72835000  0.14203000  0.47747000  1.0 -0.0096971365
C  C41  1  0.65215000  0.47747000  0.14203000  1.0 -0.0096971365
C  C42  1  0.47747000  0.72835000  0.14203000  1.0 -0.0096971365
C  C43  1  0.27165000  0.34785000  0.52253000  1.0 -0.0096971365
C  C44  1  0.34785000  0.27165000  0.85797000  1.0 -0.0096971365
C  C45  1  0.52253000  0.34785000  0.85797000  1.0 -0.0096971365
C  C46  1  0.27165000  0.85797000  0.34785000  1.0 -0.0096971365
C  C47  1  0.27165000  0.52253000  0.85797000  1.0 -0.0096971365
C  C48  1  0.85797000  0.34785000  0.27165000  1.0 -0.0096971365
C  C49  1  0.27165000  0.34785000  0.85797000  1.0 -0.0096971365
C  C50  1  0.47747000  0.14203000  0.72835000  1.0 -0.0096971365
C  C51  1  0.34785000  0.27165000  0.52253000  1.0 -0.0096971365
C  C52  1  0.14203000  0.47747000  0.65215000  1.0 -0.0096971365
C  C53  1  0.65215000  0.47747000  0.72835000  1.0 -0.0096971365
C  C54  1  0.52253000  0.85797000  0.34785000  1.0 -0.0096971365
C  C55  1  0.14203000  0.72835000  0.47747000  1.0 -0.0096971365
C  C56  1  0.65215000  0.14203000  0.47747000  1.0 -0.0096971365
C  C57  1  0.85797000  0.52253000  0.27165000  1.0 -0.0096971365
C  C58  1  0.47747000  0.72835000  0.65215000  1.0 -0.0096971365
C  C59  1  0.85797000  0.27165000  0.34785000  1.0 -0.0096971365
C  C60  1  0.34785000  0.85797000  0.27165000  1.0 -0.0096971365
C  C61  1  0.85797000  0.34785000  0.52253000  1.0 -0.0096971365
C  C62  1  0.52253000  0.34785000  0.27165000  1.0 -0.0096971365
C  C63  1  0.27165000  0.52253000  0.34785000  1.0 -0.0096971365
C  C64  1  0.27165000  0.85797000  0.52253000  1.0 -0.0096971365
C  C65  1  0.34785000  0.52253000  0.85797000  1.0 -0.0096971365
C  C66  1  0.52253000  0.27165000  0.85797000  1.0 -0.0096971365
C  C67  1  0.72835000  0.65215000  0.47747000  1.0 -0.0096971365
C  C68  1  0.65215000  0.72835000  0.14203000  1.0 -0.0096971365
C  C69  1  0.47747000  0.65215000  0.14203000  1.0 -0.0096971365
C  C70  1  0.72835000  0.14203000  0.65215000  1.0 -0.0096971365
C  C71  1  0.72835000  0.47747000  0.14203000  1.0 -0.0096971365
C  C72  1  0.14203000  0.65215000  0.72835000  1.0 -0.0096971365
C  C73  1  0.75347000  0.59573000  0.16601000  1.0 0.5143574665
C  C74  1  0.51521000  0.83399000  0.24653000  1.0 0.5143574665
C  C75  1  0.59573000  0.75347000  0.48479000  1.0 0.5143574665
C  C76  1  0.83399000  0.51521000  0.40427000  1.0 0.5143574665
C  C77  1  0.40427000  0.51521000  0.24653000  1.0 0.5143574665
C  C78  1  0.48479000  0.16601000  0.59573000  1.0 0.5143574665
C  C79  1  0.83399000  0.24653000  0.51521000  1.0 0.5143574665
C  C80  1  0.40427000  0.83399000  0.51521000  1.0 0.5143574665
C  C81  1  0.16601000  0.48479000  0.75347000  1.0 0.5143574665
C  C82  1  0.51521000  0.24653000  0.40427000  1.0 0.5143574665
C  C83  1  0.16601000  0.75347000  0.59573000  1.0 0.5156891757
C  C84  1  0.59573000  0.16601000  0.75347000  1.0 0.5143574665
C  C85  1  0.16601000  0.59573000  0.48479000  1.0 0.5143574665
C  C86  1  0.48479000  0.59573000  0.75347000  1.0 0.5143574665
C  C87  1  0.75347000  0.48479000  0.59573000  1.0 0.5156891757
C  C88  1  0.75347000  0.16601000  0.48479000  1.0 0.5143574665
C  C89  1  0.59573000  0.48479000  0.16601000  1.0 0.5143574665
C  C90  1  0.48479000  0.75347000  0.16601000  1.0 0.5143574665
C  C91  1  0.24653000  0.40427000  0.51521000  1.0 0.5143574665
C  C92  1  0.40427000  0.24653000  0.83399000  1.0 0.5143574665
C  C93  1  0.51521000  0.40427000  0.83399000  1.0 0.5143574665
C  C94  1  0.24653000  0.83399000  0.40427000  1.0 0.5143574665
C  C95  1  0.24653000  0.51521000  0.83399000  1.0 0.5143574665
C  C96  1  0.83399000  0.40427000  0.24653000  1.0 0.5156891757
C  C97  1  0.24653000  0.40427000  0.83399000  1.0 0.5143574665
C  C98  1  0.48479000  0.16601000  0.75347000  1.0 0.5143574665
C  C99  1  0.40427000  0.24653000  0.51521000  1.0 0.5143574665
C  C100  1  0.16601000  0.48479000  0.59573000  1.0 0.5143574665
C  C101  1  0.59573000  0.48479000  0.75347000  1.0 0.5143574665
C  C102  1  0.51521000  0.83399000  0.40427000  1.0 0.5143574665
C  C103  1  0.16601000  0.75347000  0.48479000  1.0 0.5143574665
C  C104  1  0.59573000  0.16601000  0.48479000  1.0 0.5143574665
C  C105  1  0.83399000  0.51521000  0.24653000  1.0 0.5143574665
C  C106  1  0.48479000  0.75347000  0.59573000  1.0 0.5156891757
C  C107  1  0.83399000  0.24653000  0.40427000  1.0 0.5143574665
C  C108  1  0.40427000  0.83399000  0.24653000  1.0 0.5143574665
C  C109  1  0.83399000  0.40427000  0.51521000  1.0 0.5143574665
C  C110  1  0.51521000  0.40427000  0.24653000  1.0 0.5143574665
C  C111  1  0.24653000  0.51521000  0.40427000  1.0 0.5156891757
C  C112  1  0.24653000  0.83399000  0.51521000  1.0 0.5143574665
C  C113  1  0.40427000  0.51521000  0.83399000  1.0 0.5143574665
C  C114  1  0.51521000  0.24653000  0.83399000  1.0 0.5143574665
C  C115  1  0.75347000  0.59573000  0.48479000  1.0 0.5143574665
C  C116  1  0.59573000  0.75347000  0.16601000  1.0 0.5143574665
C  C117  1  0.48479000  0.59573000  0.16601000  1.0 0.5143574665
C  C118  1  0.75347000  0.16601000  0.59573000  1.0 0.5143574665
C  C119  1  0.75347000  0.48479000  0.16601000  1.0 0.5143574665
C  C120  1  0.16601000  0.59573000  0.75347000  1.0 0.5143574665
C  C121  1  0.76530000  0.76530000  0.02390000  1.0 -0.0285076567
C  C122  1  0.55450000  0.97610000  0.23470000  1.0 -0.0285076567
C  C123  1  0.76530000  0.76530000  0.44550000  1.0 -0.0285076567
C  C124  1  0.97610000  0.55450000  0.23470000  1.0 -0.0285076567
C  C125  1  0.23470000  0.55450000  0.23470000  1.0 -0.0285076567
C  C126  1  0.44550000  0.02390000  0.76530000  1.0 -0.0285076567
C  C127  1  0.97610000  0.23470000  0.55450000  1.0 -0.0285076567
C  C128  1  0.23470000  0.97610000  0.55450000  1.0 -0.0285076567
C  C129  1  0.02390000  0.44550000  0.76530000  1.0 -0.0285076567
C  C130  1  0.55450000  0.23470000  0.23470000  1.0 -0.0285076567
C  C131  1  0.02390000  0.76530000  0.76530000  1.0 -0.0285076567
C  C132  1  0.76530000  0.02390000  0.76530000  1.0 -0.0285076567
C  C133  1  0.02390000  0.76530000  0.44550000  1.0 -0.0285076567
C  C134  1  0.44550000  0.76530000  0.76530000  1.0 -0.0285076567
C  C135  1  0.76530000  0.44550000  0.76530000  1.0 -0.0285076567
C  C136  1  0.76530000  0.02390000  0.44550000  1.0 -0.0285076567
C  C137  1  0.76530000  0.44550000  0.02390000  1.0 -0.0285076567
C  C138  1  0.44550000  0.76530000  0.02390000  1.0 -0.0285076567
C  C139  1  0.23470000  0.23470000  0.55450000  1.0 -0.0285076567
C  C140  1  0.23470000  0.23470000  0.97610000  1.0 -0.0285076567
C  C141  1  0.55450000  0.23470000  0.97610000  1.0 -0.0285076567
C  C142  1  0.23470000  0.97610000  0.23470000  1.0 -0.0285076567
C  C143  1  0.23470000  0.55450000  0.97610000  1.0 -0.0285076567
C  C144  1  0.97610000  0.23470000  0.23470000  1.0 -0.0285076567
C  C145  1  0.81622000  0.74798000  0.99558000  1.0 -0.0285076567
C  C146  1  0.55978000  0.00442000  0.18378000  1.0 -0.0285076567
C  C147  1  0.74798000  0.81622000  0.44022000  1.0 -0.0285076567
C  C148  1  0.00442000  0.55978000  0.25202000  1.0 -0.0285076567
C  C149  1  0.25202000  0.55978000  0.18378000  1.0 -0.0285076567
C  C150  1  0.44022000  0.99558000  0.74798000  1.0 -0.0285076567
C  C151  1  0.00442000  0.18378000  0.55978000  1.0 -0.0285076567
C  C152  1  0.25202000  0.00442000  0.55978000  1.0 -0.0285076567
C  C153  1  0.99558000  0.44022000  0.81622000  1.0 -0.0285076567
C  C154  1  0.55978000  0.18378000  0.25202000  1.0 -0.0285076567
C  C155  1  0.99558000  0.81622000  0.74798000  1.0 -0.0285076567
C  C156  1  0.74798000  0.99558000  0.81622000  1.0 -0.0285076567
C  C157  1  0.99558000  0.74798000  0.44022000  1.0 -0.0285076567
C  C158  1  0.44022000  0.74798000  0.81622000  1.0 -0.0285076567
C  C159  1  0.81622000  0.44022000  0.74798000  1.0 -0.0285076567
C  C160  1  0.81622000  0.99558000  0.44022000  1.0 -0.0285076567
C  C161  1  0.74798000  0.44022000  0.99558000  1.0 -0.0285076567
C  C162  1  0.44022000  0.81622000  0.99558000  1.0 -0.0285076567
C  C163  1  0.18378000  0.25202000  0.55978000  1.0 -0.0285076567
C  C164  1  0.25202000  0.18378000  0.00442000  1.0 -0.0285076567
C  C165  1  0.55978000  0.25202000  0.00442000  1.0 -0.0223496909
C  C166  1  0.18378000  0.00442000  0.25202000  1.0 -0.0285076567
C  C167  1  0.18378000  0.55978000  0.00442000  1.0 -0.0285076567
C  C168  1  0.00442000  0.25202000  0.18378000  1.0 -0.0285076567
C  C169  1  0.18378000  0.25202000  0.00442000  1.0 -0.0285076567
C  C170  1  0.44022000  0.99558000  0.81622000  1.0 -0.0285076567
C  C171  1  0.25202000  0.18378000  0.55978000  1.0 -0.0285076567
C  C172  1  0.99558000  0.44022000  0.74798000  1.0 -0.0285076567
C  C173  1  0.74798000  0.44022000  0.81622000  1.0 -0.0285076567
C  C174  1  0.55978000  0.00442000  0.25202000  1.0 -0.0285076567
C  C175  1  0.99558000  0.81622000  0.44022000  1.0 -0.0285076567
C  C176  1  0.74798000  0.99558000  0.44022000  1.0 -0.0285076567
C  C177  1  0.00442000  0.55978000  0.18378000  1.0 -0.0285076567
C  C178  1  0.44022000  0.81622000  0.74798000  1.0 -0.0285076567
C  C179  1  0.00442000  0.18378000  0.25202000  1.0 -0.0285076567
C  C180  1  0.25202000  0.00442000  0.18378000  1.0 -0.0285076567
C  C181  1  0.00442000  0.25202000  0.55978000  1.0 -0.0285076567
C  C182  1  0.55978000  0.25202000  0.18378000  1.0 -0.0285076567
C  C183  1  0.18378000  0.55978000  0.25202000  1.0 -0.0285076567
C  C184  1  0.18378000  0.00442000  0.55978000  1.0 -0.0285076567
C  C185  1  0.25202000  0.55978000  0.00442000  1.0 -0.0285076567
C  C186  1  0.55978000  0.18378000  0.00442000  1.0 -0.0223496909
C  C187  1  0.81622000  0.74798000  0.44022000  1.0 -0.0285076567
C  C188  1  0.74798000  0.81622000  0.99558000  1.0 -0.0285076567
C  C189  1  0.44022000  0.74798000  0.99558000  1.0 -0.0285076567
C  C190  1  0.81622000  0.99558000  0.74798000  1.0 -0.0285076567
C  C191  1  0.81622000  0.44022000  0.99558000  1.0 -0.0285076567
C  C192  1  0.99558000  0.74798000  0.81622000  1.0 -0.0223496909
C  C193  1  0.73430000  0.73430000  0.07250000  1.0 0.0198189711
C  C194  1  0.54110000  0.92750000  0.26570000  1.0 0.0286089218
C  C195  1  0.73430000  0.73430000  0.45890000  1.0 0.0286089218
C  C196  1  0.92750000  0.54110000  0.26570000  1.0 0.0198189711
C  C197  1  0.26570000  0.54110000  0.26570000  1.0 0.0198189711
C  C198  1  0.45890000  0.07250000  0.73430000  1.0 0.0286089218
C  C199  1  0.92750000  0.26570000  0.54110000  1.0 0.0286089218
C  C200  1  0.26570000  0.92750000  0.54110000  1.0 0.0198189711
C  C201  1  0.07250000  0.45890000  0.73430000  1.0 0.0286089218
C  C202  1  0.54110000  0.26570000  0.26570000  1.0 0.0286089218
C  C203  1  0.07250000  0.73430000  0.73430000  1.0 0.0286089218
C  C204  1  0.73430000  0.07250000  0.73430000  1.0 0.0286089218
C  C205  1  0.07250000  0.73430000  0.45890000  1.0 0.0286089218
C  C206  1  0.45890000  0.73430000  0.73430000  1.0 0.0286089218
C  C207  1  0.73430000  0.45890000  0.73430000  1.0 0.0286089218
C  C208  1  0.73430000  0.07250000  0.45890000  1.0 0.0286089218
C  C209  1  0.73430000  0.45890000  0.07250000  1.0 0.0198189711
C  C210  1  0.45890000  0.73430000  0.07250000  1.0 0.0286089218
C  C211  1  0.26570000  0.26570000  0.54110000  1.0 0.0198189711
C  C212  1  0.26570000  0.26570000  0.92750000  1.0 0.0198189711
C  C213  1  0.54110000  0.26570000  0.92750000  1.0 0.0198189711
C  C214  1  0.26570000  0.92750000  0.26570000  1.0 0.0286089218
C  C215  1  0.26570000  0.54110000  0.92750000  1.0 0.0286089218
C  C216  1  0.92750000  0.26570000  0.26570000  1.0 0.0286089218
C  C217  1  0.75776000  0.68384000  0.09604000  1.0 -0.0911958721
C  C218  1  0.53764000  0.90396000  0.24224000  1.0 -0.0911958721
C  C219  1  0.68384000  0.75776000  0.46236000  1.0 -0.0911958721
C  C220  1  0.90396000  0.53764000  0.31616000  1.0 -0.0911958721
C  C221  1  0.31616000  0.53764000  0.24224000  1.0 -0.0911958721
C  C222  1  0.46236000  0.09604000  0.68384000  1.0 -0.0911958721
C  C223  1  0.90396000  0.24224000  0.53764000  1.0 -0.0911958721
C  C224  1  0.31616000  0.90396000  0.53764000  1.0 -0.0911958721
C  C225  1  0.09604000  0.46236000  0.75776000  1.0 -0.0911958721
C  C226  1  0.53764000  0.24224000  0.31616000  1.0 -0.0911958721
C  C227  1  0.09604000  0.75776000  0.68384000  1.0 -0.0911958721
C  C228  1  0.68384000  0.09604000  0.75776000  1.0 -0.0911958721
C  C229  1  0.09604000  0.68384000  0.46236000  1.0 -0.0911958721
C  C230  1  0.46236000  0.68384000  0.75776000  1.0 -0.0911958721
C  C231  1  0.75776000  0.46236000  0.68384000  1.0 -0.0911958721
C  C232  1  0.75776000  0.09604000  0.46236000  1.0 -0.0911958721
C  C233  1  0.68384000  0.46236000  0.09604000  1.0 -0.0911958721
C  C234  1  0.46236000  0.75776000  0.09604000  1.0 -0.0911958721
C  C235  1  0.24224000  0.31616000  0.53764000  1.0 -0.0911958721
C  C236  1  0.31616000  0.24224000  0.90396000  1.0 -0.0911958721
C  C237  1  0.53764000  0.31616000  0.90396000  1.0 -0.0911958721
C  C238  1  0.24224000  0.90396000  0.31616000  1.0 -0.0911958721
C  C239  1  0.24224000  0.53764000  0.90396000  1.0 -0.0911958721
C  C240  1  0.90396000  0.31616000  0.24224000  1.0 -0.0911958721
C  C241  1  0.24224000  0.31616000  0.90396000  1.0 -0.0911958721
C  C242  1  0.46236000  0.09604000  0.75776000  1.0 -0.0911958721
C  C243  1  0.31616000  0.24224000  0.53764000  1.0 -0.0911958721
C  C244  1  0.09604000  0.46236000  0.68384000  1.0 -0.0911958721
C  C245  1  0.68384000  0.46236000  0.75776000  1.0 -0.0911958721
C  C246  1  0.53764000  0.90396000  0.31616000  1.0 -0.0911958721
C  C247  1  0.09604000  0.75776000  0.46236000  1.0 -0.0911958721
C  C248  1  0.68384000  0.09604000  0.46236000  1.0 -0.0911958721
C  C249  1  0.90396000  0.53764000  0.24224000  1.0 -0.0911958721
C  C250  1  0.46236000  0.75776000  0.68384000  1.0 -0.0911958721
C  C251  1  0.90396000  0.24224000  0.31616000  1.0 -0.0911958721
C  C252  1  0.31616000  0.90396000  0.24224000  1.0 -0.0911958721
C  C253  1  0.90396000  0.31616000  0.53764000  1.0 -0.0911958721
C  C254  1  0.53764000  0.31616000  0.24224000  1.0 -0.0911958721
C  C255  1  0.24224000  0.53764000  0.31616000  1.0 -0.0911958721
C  C256  1  0.24224000  0.90396000  0.53764000  1.0 -0.0911958721
C  C257  1  0.31616000  0.53764000  0.90396000  1.0 -0.0911958721
C  C258  1  0.53764000  0.24224000  0.90396000  1.0 -0.0911958721
C  C259  1  0.75776000  0.68384000  0.46236000  1.0 -0.0911958721
C  C260  1  0.68384000  0.75776000  0.09604000  1.0 -0.0911958721
C  C261  1  0.46236000  0.68384000  0.09604000  1.0 -0.0911958721
C  C262  1  0.75776000  0.09604000  0.68384000  1.0 -0.0911958721
C  C263  1  0.75776000  0.46236000  0.09604000  1.0 -0.0911958721
C  C264  1  0.09604000  0.68384000  0.75776000  1.0 -0.0911958721
C  C265  1  0.72690000  0.72690000  0.06550000  1.0 0.0198189711
C  C266  1  0.51930000  0.93450000  0.27310000  1.0 0.0120924158
C  C267  1  0.72690000  0.72690000  0.48070000  1.0 0.0120924158
C  C268  1  0.93450000  0.51930000  0.27310000  1.0 0.0198189711
C  C269  1  0.27310000  0.51930000  0.27310000  1.0 0.0120924158
C  C270  1  0.48070000  0.06550000  0.72690000  1.0 0.0198189711
C  C271  1  0.93450000  0.27310000  0.51930000  1.0 0.0198189711
C  C272  1  0.27310000  0.93450000  0.51930000  1.0 0.0120924158
C  C273  1  0.06550000  0.48070000  0.72690000  1.0 0.0120924158
C  C274  1  0.51930000  0.27310000  0.27310000  1.0 0.0120924158
C  C275  1  0.06550000  0.72690000  0.72690000  1.0 0.0120924158
C  C276  1  0.72690000  0.06550000  0.72690000  1.0 0.0198189711
C  C277  1  0.06550000  0.72690000  0.48070000  1.0 0.0120924158
C  C278  1  0.48070000  0.72690000  0.72690000  1.0 0.0198189711
C  C279  1  0.72690000  0.48070000  0.72690000  1.0 0.0198189711
C  C280  1  0.72690000  0.06550000  0.48070000  1.0 0.0120924158
C  C281  1  0.72690000  0.48070000  0.06550000  1.0 0.0198189711
C  C282  1  0.48070000  0.72690000  0.06550000  1.0 0.0198189711
C  C283  1  0.27310000  0.27310000  0.51930000  1.0 0.0198189711
C  C284  1  0.27310000  0.27310000  0.93450000  1.0 0.0120924158
C  C285  1  0.51930000  0.27310000  0.93450000  1.0 0.0120924158
C  C286  1  0.27310000  0.93450000  0.27310000  1.0 0.0120924158
C  C287  1  0.27310000  0.51930000  0.93450000  1.0 0.0120924158
C  C288  1  0.93450000  0.27310000  0.27310000  1.0 0.0198189711
C  C289  1  0.75300000  0.67560000  0.09100000  1.0 -0.0911958721
C  C290  1  0.51960000  0.90900000  0.24700000  1.0 -0.0911958721
C  C291  1  0.67560000  0.75300000  0.48040000  1.0 -0.0911958721
C  C292  1  0.90900000  0.51960000  0.32440000  1.0 -0.0911958721
C  C293  1  0.32440000  0.51960000  0.24700000  1.0 -0.0911958721
C  C294  1  0.48040000  0.09100000  0.67560000  1.0 -0.0911958721
C  C295  1  0.90900000  0.24700000  0.51960000  1.0 -0.0911958721
C  C296  1  0.32440000  0.90900000  0.51960000  1.0 -0.0911958721
C  C297  1  0.09100000  0.48040000  0.75300000  1.0 -0.0911958721
C  C298  1  0.51960000  0.24700000  0.32440000  1.0 -0.0911958721
C  C299  1  0.09100000  0.75300000  0.67560000  1.0 -0.0911958721
C  C300  1  0.67560000  0.09100000  0.75300000  1.0 -0.0911958721
C  C301  1  0.09100000  0.67560000  0.48040000  1.0 -0.0911958721
C  C302  1  0.48040000  0.67560000  0.75300000  1.0 -0.0911958721
C  C303  1  0.75300000  0.48040000  0.67560000  1.0 -0.0911958721
C  C304  1  0.75300000  0.09100000  0.48040000  1.0 -0.0911958721
C  C305  1  0.67560000  0.48040000  0.09100000  1.0 -0.0911958721
C  C306  1  0.48040000  0.75300000  0.09100000  1.0 -0.0911958721
C  C307  1  0.24700000  0.32440000  0.51960000  1.0 -0.0911958721
C  C308  1  0.32440000  0.24700000  0.90900000  1.0 -0.0911958721
C  C309  1  0.51960000  0.32440000  0.90900000  1.0 -0.0911958721
C  C310  1  0.24700000  0.90900000  0.32440000  1.0 -0.0911958721
C  C311  1  0.24700000  0.51960000  0.90900000  1.0 -0.0911958721
C  C312  1  0.90900000  0.32440000  0.24700000  1.0 -0.0911958721
C  C313  1  0.24700000  0.32440000  0.90900000  1.0 -0.0911958721
C  C314  1  0.48040000  0.09100000  0.75300000  1.0 -0.0911958721
C  C315  1  0.32440000  0.24700000  0.51960000  1.0 -0.0911958721
C  C316  1  0.09100000  0.48040000  0.67560000  1.0 -0.0911958721
C  C317  1  0.67560000  0.48040000  0.75300000  1.0 -0.0911958721
C  C318  1  0.51960000  0.90900000  0.32440000  1.0 -0.0911958721
C  C319  1  0.09100000  0.75300000  0.48040000  1.0 -0.0911958721
C  C320  1  0.67560000  0.09100000  0.48040000  1.0 -0.0911958721
C  C321  1  0.90900000  0.51960000  0.24700000  1.0 -0.0911958721
C  C322  1  0.48040000  0.75300000  0.67560000  1.0 -0.0911958721
C  C323  1  0.90900000  0.24700000  0.32440000  1.0 -0.0911958721
C  C324  1  0.32440000  0.90900000  0.24700000  1.0 -0.0911958721
C  C325  1  0.90900000  0.32440000  0.51960000  1.0 -0.0911958721
C  C326  1  0.51960000  0.32440000  0.24700000  1.0 -0.0911958721
C  C327  1  0.24700000  0.51960000  0.32440000  1.0 -0.0911958721
C  C328  1  0.24700000  0.90900000  0.51960000  1.0 -0.0911958721
C  C329  1  0.32440000  0.51960000  0.90900000  1.0 -0.0911958721
C  C330  1  0.51960000  0.24700000  0.90900000  1.0 -0.0911958721
C  C331  1  0.75300000  0.67560000  0.48040000  1.0 -0.0911958721
C  C332  1  0.67560000  0.75300000  0.09100000  1.0 -0.0911958721
C  C333  1  0.48040000  0.67560000  0.09100000  1.0 -0.0911958721
C  C334  1  0.75300000  0.09100000  0.67560000  1.0 -0.0911958721
C  C335  1  0.75300000  0.48040000  0.09100000  1.0 -0.0911958721
C  C336  1  0.09100000  0.67560000  0.75300000  1.0 -0.0911958721
C  C337  1  0.75590000  0.75590000  0.01510000  1.0 -0.0096971365
C  C338  1  0.52690000  0.98490000  0.24410000  1.0 -0.0096971365
C  C339  1  0.75590000  0.75590000  0.47310000  1.0 -0.0096971365
C  C340  1  0.98490000  0.52690000  0.24410000  1.0 -0.0096971365
C  C341  1  0.24410000  0.52690000  0.24410000  1.0 -0.0096971365
C  C342  1  0.47310000  0.01510000  0.75590000  1.0 -0.0096971365
C  C343  1  0.98490000  0.24410000  0.52690000  1.0 -0.0040054273
C  C344  1  0.24410000  0.98490000  0.52690000  1.0 -0.0096971365
C  C345  1  0.01510000  0.47310000  0.75590000  1.0 -0.0096971365
C  C346  1  0.52690000  0.24410000  0.24410000  1.0 -0.0040054273
C  C347  1  0.01510000  0.75590000  0.75590000  1.0 -0.0096971365
C  C348  1  0.75590000  0.01510000  0.75590000  1.0 -0.0096971365
C  C349  1  0.01510000  0.75590000  0.47310000  1.0 -0.0096971365
C  C350  1  0.47310000  0.75590000  0.75590000  1.0 -0.0096971365
C  C351  1  0.75590000  0.47310000  0.75590000  1.0 -0.0096971365
C  C352  1  0.75590000  0.01510000  0.47310000  1.0 -0.0096971365
C  C353  1  0.75590000  0.47310000  0.01510000  1.0 -0.0040054273
C  C354  1  0.47310000  0.75590000  0.01510000  1.0 -0.0040054273
C  C355  1  0.24410000  0.24410000  0.52690000  1.0 -0.0096971365
C  C356  1  0.24410000  0.24410000  0.98490000  1.0 -0.0096971365
C  C357  1  0.52690000  0.24410000  0.98490000  1.0 -0.0096971365
C  C358  1  0.24410000  0.98490000  0.24410000  1.0 -0.0040054273
C  C359  1  0.24410000  0.52690000  0.98490000  1.0 -0.0096971365
C  C360  1  0.98490000  0.24410000  0.24410000  1.0 -0.0040054273
C  C361  1  0.80520000  0.73960000  0.98140000  1.0 -0.0096971365
C  C362  1  0.52620000  0.01860000  0.19480000  1.0 -0.0096971365
C  C363  1  0.73960000  0.80520000  0.47380000  1.0 -0.0096971365
C  C364  1  0.01860000  0.52620000  0.26040000  1.0 -0.0096971365
C  C365  1  0.26040000  0.52620000  0.19480000  1.0 -0.0096971365
C  C366  1  0.47380000  0.98140000  0.73960000  1.0 -0.0096971365
C  C367  1  0.01860000  0.19480000  0.52620000  1.0 -0.0096971365
C  C368  1  0.26040000  0.01860000  0.52620000  1.0 -0.0096971365
C  C369  1  0.98140000  0.47380000  0.80520000  1.0 -0.0040054273
C  C370  1  0.52620000  0.19480000  0.26040000  1.0 -0.0096971365
C  C371  1  0.98140000  0.80520000  0.73960000  1.0 -0.0040054273
C  C372  1  0.73960000  0.98140000  0.80520000  1.0 -0.0096971365
C  C373  1  0.98140000  0.73960000  0.47380000  1.0 -0.0096971365
C  C374  1  0.47380000  0.73960000  0.80520000  1.0 -0.0096971365
C  C375  1  0.80520000  0.47380000  0.73960000  1.0 -0.0096971365
C  C376  1  0.80520000  0.98140000  0.47380000  1.0 -0.0096971365
C  C377  1  0.73960000  0.47380000  0.98140000  1.0 -0.0096971365
C  C378  1  0.47380000  0.80520000  0.98140000  1.0 -0.0096971365
C  C379  1  0.19480000  0.26040000  0.52620000  1.0 -0.0096971365
C  C380  1  0.26040000  0.19480000  0.01860000  1.0 -0.0096971365
C  C381  1  0.52620000  0.26040000  0.01860000  1.0 -0.0096971365
C  C382  1  0.19480000  0.01860000  0.26040000  1.0 -0.0096971365
C  C383  1  0.19480000  0.52620000  0.01860000  1.0 -0.0096971365
C  C384  1  0.01860000  0.26040000  0.19480000  1.0 -0.0096971365
C  C385  1  0.19480000  0.26040000  0.01860000  1.0 -0.0096971365
C  C386  1  0.47380000  0.98140000  0.80520000  1.0 -0.0096971365
C  C387  1  0.26040000  0.19480000  0.52620000  1.0 -0.0096971365
C  C388  1  0.98140000  0.47380000  0.73960000  1.0 -0.0040054273
C  C389  1  0.73960000  0.47380000  0.80520000  1.0 -0.0096971365
C  C390  1  0.52620000  0.01860000  0.26040000  1.0 -0.0096971365
C  C391  1  0.98140000  0.80520000  0.47380000  1.0 -0.0096971365
C  C392  1  0.73960000  0.98140000  0.47380000  1.0 -0.0096971365
C  C393  1  0.01860000  0.52620000  0.19480000  1.0 -0.0096971365
C  C394  1  0.47380000  0.80520000  0.73960000  1.0 -0.0096971365
C  C395  1  0.01860000  0.19480000  0.26040000  1.0 -0.0096971365
C  C396  1  0.26040000  0.01860000  0.19480000  1.0 -0.0096971365
C  C397  1  0.01860000  0.26040000  0.52620000  1.0 -0.0096971365
C  C398  1  0.52620000  0.26040000  0.19480000  1.0 -0.0096971365
C  C399  1  0.19480000  0.52620000  0.26040000  1.0 -0.0096971365
C  C400  1  0.19480000  0.01860000  0.52620000  1.0 -0.0096971365
C  C401  1  0.26040000  0.52620000  0.01860000  1.0 -0.0096971365
C  C402  1  0.52620000  0.19480000  0.01860000  1.0 -0.0040054273
C  C403  1  0.80520000  0.73960000  0.47380000  1.0 -0.0096971365
C  C404  1  0.73960000  0.80520000  0.98140000  1.0 -0.0096971365
C  C405  1  0.47380000  0.73960000  0.98140000  1.0 -0.0096971365
C  C406  1  0.80520000  0.98140000  0.73960000  1.0 -0.0096971365
C  C407  1  0.80520000  0.47380000  0.98140000  1.0 -0.0096971365
C  C408  1  0.98140000  0.73960000  0.80520000  1.0 -0.0040054273
N  N1  1  0.82927000  0.78677000  0.95153000  1.0 -0.0285076567
N  N2  1  0.56757000  0.04847000  0.17073000  1.0 -0.0285076567
N  N3  1  0.78677000  0.82927000  0.43243000  1.0 -0.0285076567
N  N4  1  0.04847000  0.56757000  0.21323000  1.0 -0.0285076567
N  N5  1  0.21323000  0.56757000  0.17073000  1.0 -0.0285076567
N  N6  1  0.43243000  0.95153000  0.78677000  1.0 -0.0285076567
N  N7  1  0.04847000  0.17073000  0.56757000  1.0 -0.0285076567
N  N8  1  0.21323000  0.04847000  0.56757000  1.0 -0.0285076567
N  N9  1  0.95153000  0.43243000  0.82927000  1.0 -0.0285076567
N  N10  1  0.56757000  0.17073000  0.21323000  1.0 -0.0285076567
N  N11  1  0.95153000  0.82927000  0.78677000  1.0 -0.0285076567
N  N12  1  0.78677000  0.95153000  0.82927000  1.0 -0.0285076567
N  N13  1  0.95153000  0.78677000  0.43243000  1.0 -0.0285076567
N  N14  1  0.43243000  0.78677000  0.82927000  1.0 -0.0285076567
N  N15  1  0.82927000  0.43243000  0.78677000  1.0 -0.0285076567
N  N16  1  0.82927000  0.95153000  0.43243000  1.0 -0.0285076567
N  N17  1  0.78677000  0.43243000  0.95153000  1.0 -0.0285076567
N  N18  1  0.43243000  0.82927000  0.95153000  1.0 -0.0285076567
N  N19  1  0.17073000  0.21323000  0.56757000  1.0 -0.0285076567
N  N20  1  0.21323000  0.17073000  0.04847000  1.0 -0.0285076567
N  N21  1  0.56757000  0.21323000  0.04847000  1.0 -0.0285076567
N  N22  1  0.17073000  0.04847000  0.21323000  1.0 -0.0285076567
N  N23  1  0.17073000  0.56757000  0.04847000  1.0 -0.0285076567
N  N24  1  0.04847000  0.21323000  0.17073000  1.0 -0.0285076567
N  N25  1  0.17073000  0.21323000  0.04847000  1.0 -0.0285076567
N  N26  1  0.43243000  0.95153000  0.82927000  1.0 -0.0285076567
N  N27  1  0.21323000  0.17073000  0.56757000  1.0 -0.0285076567
N  N28  1  0.95153000  0.43243000  0.78677000  1.0 -0.0285076567
N  N29  1  0.78677000  0.43243000  0.82927000  1.0 -0.0285076567
N  N30  1  0.56757000  0.04847000  0.21323000  1.0 -0.0285076567
N  N31  1  0.95153000  0.82927000  0.43243000  1.0 -0.0285076567
N  N32  1  0.78677000  0.95153000  0.43243000  1.0 -0.0285076567
N  N33  1  0.04847000  0.56757000  0.17073000  1.0 -0.0285076567
N  N34  1  0.43243000  0.82927000  0.78677000  1.0 -0.0285076567
N  N35  1  0.04847000  0.17073000  0.21323000  1.0 -0.0285076567
N  N36  1  0.21323000  0.04847000  0.17073000  1.0 -0.0285076567
N  N37  1  0.04847000  0.21323000  0.56757000  1.0 -0.0285076567
N  N38  1  0.56757000  0.21323000  0.17073000  1.0 -0.0285076567
N  N39  1  0.17073000  0.56757000  0.21323000  1.0 -0.0285076567
N  N40  1  0.17073000  0.04847000  0.56757000  1.0 -0.0285076567
N  N41  1  0.21323000  0.56757000  0.04847000  1.0 -0.0285076567
N  N42  1  0.56757000  0.17073000  0.04847000  1.0 -0.0285076567
N  N43  1  0.82927000  0.78677000  0.43243000  1.0 -0.0285076567
N  N44  1  0.78677000  0.82927000  0.95153000  1.0 -0.0285076567
N  N45  1  0.43243000  0.78677000  0.95153000  1.0 -0.0285076567
N  N46  1  0.82927000  0.95153000  0.78677000  1.0 -0.0285076567
N  N47  1  0.82927000  0.43243000  0.95153000  1.0 -0.0285076567
N  N48  1  0.95153000  0.78677000  0.82927000  1.0 -0.0285076567
N  N49  1  0.81620000  0.77620000  0.93820000  1.0 -0.0096971365
N  N50  1  0.53060000  0.06180000  0.18380000  1.0 -0.0096971365
N  N51  1  0.77620000  0.81620000  0.46940000  1.0 -0.0096971365
N  N52  1  0.06180000  0.53060000  0.22380000  1.0 -0.0096971365
N  N53  1  0.22380000  0.53060000  0.18380000  1.0 -0.0096971365
N  N54  1  0.46940000  0.93820000  0.77620000  1.0 -0.0096971365
N  N55  1  0.06180000  0.18380000  0.53060000  1.0 -0.0096971365
N  N56  1  0.22380000  0.06180000  0.53060000  1.0 -0.0096971365
N  N57  1  0.93820000  0.46940000  0.81620000  1.0 -0.0096971365
N  N58  1  0.53060000  0.18380000  0.22380000  1.0 -0.0096971365
N  N59  1  0.93820000  0.81620000  0.77620000  1.0 -0.0096971365
N  N60  1  0.77620000  0.93820000  0.81620000  1.0 -0.0096971365
N  N61  1  0.93820000  0.77620000  0.46940000  1.0 -0.0096971365
N  N62  1  0.46940000  0.77620000  0.81620000  1.0 -0.0096971365
N  N63  1  0.81620000  0.46940000  0.77620000  1.0 -0.0096971365
N  N64  1  0.81620000  0.93820000  0.46940000  1.0 -0.0096971365
N  N65  1  0.77620000  0.46940000  0.93820000  1.0 -0.0096971365
N  N66  1  0.46940000  0.81620000  0.93820000  1.0 -0.0096971365
N  N67  1  0.18380000  0.22380000  0.53060000  1.0 -0.0096971365
N  N68  1  0.22380000  0.18380000  0.06180000  1.0 -0.0096971365
N  N69  1  0.53060000  0.22380000  0.06180000  1.0 -0.0096971365
N  N70  1  0.18380000  0.06180000  0.22380000  1.0 -0.0096971365
N  N71  1  0.18380000  0.53060000  0.06180000  1.0 -0.0096971365
N  N72  1  0.06180000  0.22380000  0.18380000  1.0 -0.0096971365
N  N73  1  0.18380000  0.22380000  0.06180000  1.0 -0.0096971365
N  N74  1  0.46940000  0.93820000  0.81620000  1.0 -0.0096971365
N  N75  1  0.22380000  0.18380000  0.53060000  1.0 -0.0096971365
N  N76  1  0.93820000  0.46940000  0.77620000  1.0 -0.0096971365
N  N77  1  0.77620000  0.46940000  0.81620000  1.0 -0.0096971365
N  N78  1  0.53060000  0.06180000  0.22380000  1.0 -0.0096971365
N  N79  1  0.93820000  0.81620000  0.46940000  1.0 -0.0096971365
N  N80  1  0.77620000  0.93820000  0.46940000  1.0 -0.0096971365
N  N81  1  0.06180000  0.53060000  0.18380000  1.0 -0.0096971365
N  N82  1  0.46940000  0.81620000  0.77620000  1.0 -0.0096971365
N  N83  1  0.06180000  0.18380000  0.22380000  1.0 -0.0096971365
N  N84  1  0.22380000  0.06180000  0.18380000  1.0 -0.0096971365
N  N85  1  0.06180000  0.22380000  0.53060000  1.0 -0.0096971365
N  N86  1  0.53060000  0.22380000  0.18380000  1.0 -0.0096971365
N  N87  1  0.18380000  0.53060000  0.22380000  1.0 -0.0223496909
N  N88  1  0.18380000  0.06180000  0.53060000  1.0 -0.0096971365
N  N89  1  0.22380000  0.53060000  0.06180000  1.0 -0.0096971365
N  N90  1  0.53060000  0.18380000  0.06180000  1.0 -0.0096971365
N  N91  1  0.81620000  0.77620000  0.46940000  1.0 -0.0096971365
N  N92  1  0.77620000  0.81620000  0.93820000  1.0 -0.0096971365
N  N93  1  0.46940000  0.77620000  0.93820000  1.0 -0.0096971365
N  N94  1  0.81620000  0.93820000  0.77620000  1.0 -0.0096971365
N  N95  1  0.81620000  0.46940000  0.93820000  1.0 -0.0096971365
N  N96  1  0.93820000  0.77620000  0.81620000  1.0 -0.0096971365
O  O1  1  0.79808000  0.57448000  0.14028000  1.0 -0.4982078919
O  O2  1  0.51284000  0.85972000  0.20192000  1.0 -0.4982078919
O  O3  1  0.57448000  0.79808000  0.48716000  1.0 -0.4982078919
O  O4  1  0.85972000  0.51284000  0.42552000  1.0 -0.4982078919
O  O5  1  0.42552000  0.51284000  0.20192000  1.0 -0.4982078919
O  O6  1  0.48716000  0.14028000  0.57448000  1.0 -0.4982078919
O  O7  1  0.85972000  0.20192000  0.51284000  1.0 -0.4982078919
O  O8  1  0.42552000  0.85972000  0.51284000  1.0 -0.4982078919
O  O9  1  0.14028000  0.48716000  0.79808000  1.0 -0.4982078919
O  O10  1  0.51284000  0.20192000  0.42552000  1.0 -0.4982078919
O  O11  1  0.14028000  0.79808000  0.57448000  1.0 -0.4982078919
O  O12  1  0.57448000  0.14028000  0.79808000  1.0 -0.4982078919
O  O13  1  0.14028000  0.57448000  0.48716000  1.0 -0.4982078919
O  O14  1  0.48716000  0.57448000  0.79808000  1.0 -0.4982078919
O  O15  1  0.79808000  0.48716000  0.57448000  1.0 -0.4982078919
O  O16  1  0.79808000  0.14028000  0.48716000  1.0 -0.4982078919
O  O17  1  0.57448000  0.48716000  0.14028000  1.0 -0.4982078919
O  O18  1  0.48716000  0.79808000  0.14028000  1.0 -0.4982078919
O  O19  1  0.20192000  0.42552000  0.51284000  1.0 -0.4982078919
O  O20  1  0.42552000  0.20192000  0.85972000  1.0 -0.4982078919
O  O21  1  0.51284000  0.42552000  0.85972000  1.0 -0.4982078919
O  O22  1  0.20192000  0.85972000  0.42552000  1.0 -0.4982078919
O  O23  1  0.20192000  0.51284000  0.85972000  1.0 -0.4982078919
O  O24  1  0.85972000  0.42552000  0.20192000  1.0 -0.4982078919
O  O25  1  0.20192000  0.42552000  0.85972000  1.0 -0.4982078919
O  O26  1  0.48716000  0.14028000  0.79808000  1.0 -0.4982078919
O  O27  1  0.42552000  0.20192000  0.51284000  1.0 -0.4982078919
O  O28  1  0.14028000  0.48716000  0.57448000  1.0 -0.4982078919
O  O29  1  0.57448000  0.48716000  0.79808000  1.0 -0.4982078919
O  O30  1  0.51284000  0.85972000  0.42552000  1.0 -0.4982078919
O  O31  1  0.14028000  0.79808000  0.48716000  1.0 -0.4982078919
O  O32  1  0.57448000  0.14028000  0.48716000  1.0 -0.4982078919
O  O33  1  0.85972000  0.51284000  0.20192000  1.0 -0.4982078919
O  O34  1  0.48716000  0.79808000  0.57448000  1.0 -0.4982078919
O  O35  1  0.85972000  0.20192000  0.42552000  1.0 -0.4982078919
O  O36  1  0.42552000  0.85972000  0.20192000  1.0 -0.4982078919
O  O37  1  0.85972000  0.42552000  0.51284000  1.0 -0.4982078919
O  O38  1  0.51284000  0.42552000  0.20192000  1.0 -0.4982078919
O  O39  1  0.20192000  0.51284000  0.42552000  1.0 -0.4982078919
O  O40  1  0.20192000  0.85972000  0.51284000  1.0 -0.4982078919
O  O41  1  0.42552000  0.51284000  0.85972000  1.0 -0.4982078919
O  O42  1  0.51284000  0.20192000  0.85972000  1.0 -0.4982078919
O  O43  1  0.79808000  0.57448000  0.48716000  1.0 -0.4982078919
O  O44  1  0.57448000  0.79808000  0.14028000  1.0 -0.4982078919
O  O45  1  0.48716000  0.57448000  0.14028000  1.0 -0.4982078919
O  O46  1  0.79808000  0.14028000  0.57448000  1.0 -0.4982078919
O  O47  1  0.79808000  0.48716000  0.14028000  1.0 -0.4982078919
O  O48  1  0.14028000  0.57448000  0.79808000  1.0 -0.4982078919
O  O49  1  0.93680000  0.71860000  0.93680000  1.0 0.0198189711
O  O50  1  0.59220000  0.06320000  0.06320000  1.0 0.0198189711
O  O51  1  0.71860000  0.93680000  0.40780000  1.0 0.0198189711
O  O52  1  0.06320000  0.59220000  0.28140000  1.0 0.0032893538
O  O53  1  0.28140000  0.59220000  0.06320000  1.0 0.0198189711
O  O54  1  0.40780000  0.93680000  0.71860000  1.0 0.0198189711
O  O55  1  0.06320000  0.06320000  0.59220000  1.0 0.0032893538
O  O56  1  0.28140000  0.06320000  0.59220000  1.0 0.0120924158
O  O57  1  0.93680000  0.40780000  0.93680000  1.0 0.0120924158
O  O58  1  0.59220000  0.06320000  0.28140000  1.0 0.0198189711
O  O59  1  0.93680000  0.93680000  0.71860000  1.0 0.0198189711
O  O60  1  0.71860000  0.93680000  0.93680000  1.0 0.0198189711
O  O61  1  0.93680000  0.71860000  0.40780000  1.0 0.0032893538
O  O62  1  0.40780000  0.71860000  0.93680000  1.0 0.0198189711
O  O63  1  0.93680000  0.40780000  0.71860000  1.0 0.0198189711
O  O64  1  0.93680000  0.93680000  0.40780000  1.0 0.0198189711
O  O65  1  0.71860000  0.40780000  0.93680000  1.0 0.0120924158
O  O66  1  0.40780000  0.93680000  0.93680000  1.0 0.0198189711
O  O67  1  0.06320000  0.28140000  0.59220000  1.0 0.0198189711
O  O68  1  0.28140000  0.06320000  0.06320000  1.0 0.0198189711
O  O69  1  0.59220000  0.28140000  0.06320000  1.0 0.0198189711
O  O70  1  0.06320000  0.06320000  0.28140000  1.0 0.0120924158
O  O71  1  0.06320000  0.59220000  0.06320000  1.0 0.0198189711
O  O72  1  0.06320000  0.28140000  0.06320000  1.0 0.0198189711
O  O73  1  0.85820000  0.85820000  0.85820000  1.0 -0.3890404626
O  O74  1  0.57460000  0.14180000  0.14180000  1.0 -0.3890404626
O  O75  1  0.85820000  0.85820000  0.42540000  1.0 -0.3890404626
O  O76  1  0.14180000  0.57460000  0.14180000  1.0 -0.3890404626
O  O77  1  0.42540000  0.85820000  0.85820000  1.0 -0.3890404626
O  O78  1  0.14180000  0.14180000  0.57460000  1.0 -0.3890404626
O  O79  1  0.85820000  0.42540000  0.85820000  1.0 -0.3890404626
O  O80  1  0.14180000  0.14180000  0.14180000  1.0 -0.3890404626
O  O81  1  0.72748000  0.57392000  0.21092000  1.0 -0.5364427081
O  O82  1  0.51232000  0.78908000  0.27252000  1.0 -0.5364427081
O  O83  1  0.57392000  0.72748000  0.48768000  1.0 -0.5364427081
O  O84  1  0.78908000  0.51232000  0.42608000  1.0 -0.5364427081
O  O85  1  0.42608000  0.51232000  0.27252000  1.0 -0.5364427081
O  O86  1  0.48768000  0.21092000  0.57392000  1.0 -0.5364427081
O  O87  1  0.78908000  0.27252000  0.51232000  1.0 -0.5364427081
O  O88  1  0.42608000  0.78908000  0.51232000  1.0 -0.5364427081
O  O89  1  0.21092000  0.48768000  0.72748000  1.0 -0.5364427081
O  O90  1  0.51232000  0.27252000  0.42608000  1.0 -0.5364427081
O  O91  1  0.21092000  0.72748000  0.57392000  1.0 -0.5364427081
O  O92  1  0.57392000  0.21092000  0.72748000  1.0 -0.5364427081
O  O93  1  0.21092000  0.57392000  0.48768000  1.0 -0.5364427081
O  O94  1  0.48768000  0.57392000  0.72748000  1.0 -0.5364427081
O  O95  1  0.72748000  0.48768000  0.57392000  1.0 -0.5364427081
O  O96  1  0.72748000  0.21092000  0.48768000  1.0 -0.5364427081
O  O97  1  0.57392000  0.48768000  0.21092000  1.0 -0.5364427081
O  O98  1  0.48768000  0.72748000  0.21092000  1.0 -0.5364427081
O  O99  1  0.27252000  0.42608000  0.51232000  1.0 -0.5364427081
O  O100  1  0.42608000  0.27252000  0.78908000  1.0 -0.5364427081
O  O101  1  0.51232000  0.42608000  0.78908000  1.0 -0.5364427081
O  O102  1  0.27252000  0.78908000  0.42608000  1.0 -0.5364427081
O  O103  1  0.27252000  0.51232000  0.78908000  1.0 -0.5364427081
O  O104  1  0.78908000  0.42608000  0.27252000  1.0 -0.5364427081
O  O105  1  0.27252000  0.42608000  0.78908000  1.0 -0.5364427081
O  O106  1  0.48768000  0.21092000  0.72748000  1.0 -0.5364427081
O  O107  1  0.42608000  0.27252000  0.51232000  1.0 -0.5364427081
O  O108  1  0.21092000  0.48768000  0.57392000  1.0 -0.5364427081
O  O109  1  0.57392000  0.48768000  0.72748000  1.0 -0.5364427081
O  O110  1  0.51232000  0.78908000  0.42608000  1.0 -0.5364427081
O  O111  1  0.21092000  0.72748000  0.48768000  1.0 -0.5364427081
O  O112  1  0.57392000  0.21092000  0.48768000  1.0 -0.5364427081
O  O113  1  0.78908000  0.51232000  0.27252000  1.0 -0.5364427081
O  O114  1  0.48768000  0.72748000  0.57392000  1.0 -0.5364427081
O  O115  1  0.78908000  0.27252000  0.42608000  1.0 -0.5364427081
O  O116  1  0.42608000  0.78908000  0.27252000  1.0 -0.5364427081
O  O117  1  0.78908000  0.42608000  0.51232000  1.0 -0.5364427081
O  O118  1  0.51232000  0.42608000  0.27252000  1.0 -0.5364427081
O  O119  1  0.27252000  0.51232000  0.42608000  1.0 -0.5364427081
O  O120  1  0.27252000  0.78908000  0.51232000  1.0 -0.5364427081
O  O121  1  0.42608000  0.51232000  0.78908000  1.0 -0.5364427081
O  O122  1  0.51232000  0.27252000  0.78908000  1.0 -0.5364427081
O  O123  1  0.72748000  0.57392000  0.48768000  1.0 -0.5364427081
O  O124  1  0.57392000  0.72748000  0.21092000  1.0 -0.5364427081
O  O125  1  0.48768000  0.57392000  0.21092000  1.0 -0.5364427081
O  O126  1  0.72748000  0.21092000  0.57392000  1.0 -0.5364427081
O  O127  1  0.72748000  0.48768000  0.21092000  1.0 -0.5364427081
O  O128  1  0.21092000  0.57392000  0.72748000  1.0 -0.5364427081
O  O129  1  0.69124000  0.49280000  0.32316000  1.0 0.1520444334
O  O130  1  0.50720000  0.67684000  0.30876000  1.0 0.1558494904
O  O131  1  0.49280000  0.69124000  0.49280000  1.0 0.1558494904
O  O132  1  0.67684000  0.50720000  0.50720000  1.0 0.1520444334
O  O133  1  0.50720000  0.50720000  0.30876000  1.0 0.1558494904
O  O134  1  0.49280000  0.32316000  0.49280000  1.0 0.1520444334
O  O135  1  0.67684000  0.30876000  0.50720000  1.0 0.1520444334
O  O136  1  0.50720000  0.67684000  0.50720000  1.0 0.1520444334
O  O137  1  0.32316000  0.49280000  0.69124000  1.0 0.1520444334
O  O138  1  0.50720000  0.30876000  0.50720000  1.0 0.1520444334
O  O139  1  0.32316000  0.69124000  0.49280000  1.0 0.1520444334
O  O140  1  0.49280000  0.32316000  0.69124000  1.0 0.1520444334
O  O141  1  0.32316000  0.49280000  0.49280000  1.0 0.1520444334
O  O142  1  0.49280000  0.49280000  0.69124000  1.0 0.1520444334
O  O143  1  0.69124000  0.49280000  0.49280000  1.0 0.1520444334
O  O144  1  0.69124000  0.32316000  0.49280000  1.0 0.1520444334
O  O145  1  0.49280000  0.49280000  0.32316000  1.0 0.1520444334
O  O146  1  0.49280000  0.69124000  0.32316000  1.0 0.1520444334
O  O147  1  0.30876000  0.50720000  0.50720000  1.0 0.1520444334
O  O148  1  0.50720000  0.30876000  0.67684000  1.0 0.1520444334
O  O149  1  0.50720000  0.50720000  0.67684000  1.0 0.1520444334
O  O150  1  0.30876000  0.67684000  0.50720000  1.0 0.1520444334
O  O151  1  0.30876000  0.50720000  0.67684000  1.0 0.1520444334
O  O152  1  0.67684000  0.50720000  0.30876000  1.0 0.1558494904
O  O153  1  0.91550000  0.69850000  0.91550000  1.0 -0.0720879669
O  O154  1  0.52950000  0.08450000  0.08450000  1.0 -0.0720879669
O  O155  1  0.69850000  0.91550000  0.47050000  1.0 -0.0575307122
O  O156  1  0.08450000  0.52950000  0.30150000  1.0 -0.0575307122
O  O157  1  0.30150000  0.52950000  0.08450000  1.0 -0.0575307122
O  O158  1  0.47050000  0.91550000  0.69850000  1.0 -0.0575307122
O  O159  1  0.08450000  0.08450000  0.52950000  1.0 -0.0720879669
O  O160  1  0.30150000  0.08450000  0.52950000  1.0 -0.0720879669
O  O161  1  0.91550000  0.47050000  0.91550000  1.0 -0.0720879669
O  O162  1  0.52950000  0.08450000  0.30150000  1.0 -0.0720879669
O  O163  1  0.91550000  0.91550000  0.69850000  1.0 -0.0769735288
O  O164  1  0.69850000  0.91550000  0.91550000  1.0 -0.0720879669
O  O165  1  0.91550000  0.69850000  0.47050000  1.0 -0.0529744786
O  O166  1  0.47050000  0.69850000  0.91550000  1.0 -0.0720879669
O  O167  1  0.91550000  0.47050000  0.69850000  1.0 -0.0529744786
O  O168  1  0.91550000  0.91550000  0.47050000  1.0 -0.0769735288
O  O169  1  0.69850000  0.47050000  0.91550000  1.0 -0.0529744786
O  O170  1  0.47050000  0.91550000  0.91550000  1.0 -0.0769735288
O  O171  1  0.08450000  0.30150000  0.52950000  1.0 -0.0575307122
O  O172  1  0.30150000  0.08450000  0.08450000  1.0 -0.0720879669
O  O173  1  0.52950000  0.30150000  0.08450000  1.0 -0.0575307122
O  O174  1  0.08450000  0.08450000  0.30150000  1.0 -0.0720879669
O  O175  1  0.08450000  0.52950000  0.08450000  1.0 -0.0720879669
O  O176  1  0.08450000  0.30150000  0.08450000  1.0 -0.0575307122
O  O177  1  0.83460000  0.83460000  0.83460000  1.0 -0.4540555067
O  O178  1  0.50380000  0.16540000  0.16540000  1.0 -0.4540555067
O  O179  1  0.83460000  0.83460000  0.49620000  1.0 -0.458984622
O  O180  1  0.16540000  0.50380000  0.16540000  1.0 -0.458984622
O  O181  1  0.49620000  0.83460000  0.83460000  1.0 -0.458984622
O  O182  1  0.16540000  0.16540000  0.50380000  1.0 -0.458984622
O  O183  1  0.83460000  0.49620000  0.83460000  1.0 -0.458984622
O  O184  1  0.16540000  0.16540000  0.16540000  1.0 -0.458984622
