# DDEC6 charges by PACMAN v1.1 (https://github.com/mtap-research/PACMAN-charge/)
data_NODKOH_ASR_pacman
_symmetry_space_group_name_H-M   'P 1'
_cell_length_a   13.75480000
_cell_length_b   13.75480000
_cell_length_c   38.16120000
_cell_angle_alpha   90.00000000
_cell_angle_beta   90.00000000
_cell_angle_gamma   90.00000000
_symmetry_Int_Tables_number   1
_chemical_formula_structural   InH28(C13O5)2
_chemical_formula_sum   'In8 H224 C208 O80'
_cell_volume   7219.89003263
_cell_formula_units_Z   8
loop_
 _symmetry_equiv_pos_site_id
 _symmetry_equiv_pos_as_xyz
  1  'x, y, z'
loop_
 _atom_site_type_symbol
 _atom_site_label
 _atom_site_symmetry_multiplicity
 _atom_site_fract_x
 _atom_site_fract_y
 _atom_site_fract_z
 _atom_site_occupancy
 _atom_site_charge
In  In1  1  0.28660000  0.94973000  0.08505000  1.0 1.2969949389
In  In2  1  0.71340000  0.05027000  0.58505000  1.0 1.2969949389
In  In3  1  0.55027000  0.78660000  0.83505000  1.0 1.2969949389
In  In4  1  0.44973000  0.21340000  0.33505000  1.0 1.2969949389
In  In5  1  0.21340000  0.44973000  0.66495000  1.0 1.2969949389
In  In6  1  0.78660000  0.55027000  0.16495000  1.0 1.2969949389
In  In7  1  0.94973000  0.28660000  0.91495000  1.0 1.2969949389
In  In8  1  0.05027000  0.71340000  0.41495000  1.0 1.2969949389
H  H1  1  0.59470000  0.88290000  0.05460000  1.0 0.1108307965
H  H2  1  0.40530000  0.11710000  0.55460000  1.0 0.1108307965
H  H3  1  0.61710000  0.09470000  0.80460000  1.0 0.1108307965
H  H4  1  0.38290000  0.90530000  0.30460000  1.0 0.1108307965
H  H5  1  0.90530000  0.38290000  0.69540000  1.0 0.1108307965
H  H6  1  0.09470000  0.61710000  0.19540000  1.0 0.1108307965
H  H7  1  0.88290000  0.59470000  0.94540000  1.0 0.1108307965
H  H8  1  0.11710000  0.40530000  0.44540000  1.0 0.1108307965
H  H9  1  0.78300000  0.90640000  0.11790000  1.0 0.1217976075
H  H10  1  0.21700000  0.09360000  0.61790000  1.0 0.1217976075
H  H11  1  0.59360000  0.28300000  0.86790000  1.0 0.1217976075
H  H12  1  0.40640000  0.71700000  0.36790000  1.0 0.1217976075
H  H13  1  0.71700000  0.40640000  0.63210000  1.0 0.1217976075
H  H14  1  0.28300000  0.59360000  0.13210000  1.0 0.1217976075
H  H15  1  0.90640000  0.78300000  0.88210000  1.0 0.1217976075
H  H16  1  0.09360000  0.21700000  0.38210000  1.0 0.1217976075
H  H17  1  0.69550000  0.87670000  0.14200000  1.0 0.1108307965
H  H18  1  0.30450000  0.12330000  0.64200000  1.0 0.1108307965
H  H19  1  0.62330000  0.19550000  0.89200000  1.0 0.1108307965
H  H20  1  0.37670000  0.80450000  0.39200000  1.0 0.1108307965
H  H21  1  0.80450000  0.37670000  0.60800000  1.0 0.1108307965
H  H22  1  0.19550000  0.62330000  0.10800000  1.0 0.1108307965
H  H23  1  0.87670000  0.69550000  0.85800000  1.0 0.1108307965
H  H24  1  0.12330000  0.30450000  0.35800000  1.0 0.1108307965
H  H25  1  0.61100000  0.00650000  0.11360000  1.0 0.1217976075
H  H26  1  0.38900000  0.99350000  0.61360000  1.0 0.1217976075
H  H27  1  0.49350000  0.11100000  0.86360000  1.0 0.1217976075
H  H28  1  0.50650000  0.88900000  0.36360000  1.0 0.1217976075
H  H29  1  0.88900000  0.50650000  0.63640000  1.0 0.1217976075
H  H30  1  0.11100000  0.49350000  0.13640000  1.0 0.1217976075
H  H31  1  0.00650000  0.61100000  0.88640000  1.0 0.1217976075
H  H32  1  0.99350000  0.38900000  0.38640000  1.0 0.1217976075
H  H33  1  0.68100000  0.00330000  0.08040000  1.0 0.1108307965
H  H34  1  0.31900000  0.99670000  0.58040000  1.0 0.1108307965
H  H35  1  0.49670000  0.18100000  0.83040000  1.0 0.1108307965
H  H36  1  0.50330000  0.81900000  0.33040000  1.0 0.1108307965
H  H37  1  0.81900000  0.50330000  0.66960000  1.0 0.1108307965
H  H38  1  0.18100000  0.49670000  0.16960000  1.0 0.1108307965
H  H39  1  0.00330000  0.68100000  0.91960000  1.0 0.1108307965
H  H40  1  0.99670000  0.31900000  0.41960000  1.0 0.1108307965
H  H41  1  0.72890000  0.69740000  0.05560000  1.0 0.1217976075
H  H42  1  0.27110000  0.30260000  0.55560000  1.0 0.1217976075
H  H43  1  0.80260000  0.22890000  0.80560000  1.0 0.1217976075
H  H44  1  0.19740000  0.77110000  0.30560000  1.0 0.1217976075
H  H45  1  0.77110000  0.19740000  0.69440000  1.0 0.1217976075
H  H46  1  0.22890000  0.80260000  0.19440000  1.0 0.1217976075
H  H47  1  0.69740000  0.72890000  0.94440000  1.0 0.1217976075
H  H48  1  0.30260000  0.27110000  0.44440000  1.0 0.1217976075
H  H49  1  0.81410000  0.77160000  0.06120000  1.0 0.1409704926
H  H50  1  0.18590000  0.22840000  0.56120000  1.0 0.1409704926
H  H51  1  0.72840000  0.31410000  0.81120000  1.0 0.1409704926
H  H52  1  0.27160000  0.68590000  0.31120000  1.0 0.1409704926
H  H53  1  0.68590000  0.27160000  0.68880000  1.0 0.1409704926
H  H54  1  0.31410000  0.72840000  0.18880000  1.0 0.1409704926
H  H55  1  0.77160000  0.81410000  0.93880000  1.0 0.1409704926
H  H56  1  0.22840000  0.18590000  0.43880000  1.0 0.1409704926
H  H57  1  0.71280000  0.80810000  0.04780000  1.0 0.0986019088
H  H58  1  0.28720000  0.19190000  0.54780000  1.0 0.0986019088
H  H59  1  0.69190000  0.21280000  0.79780000  1.0 0.0986019088
H  H60  1  0.30810000  0.78720000  0.29780000  1.0 0.0986019088
H  H61  1  0.78720000  0.30810000  0.70220000  1.0 0.0986019088
H  H62  1  0.21280000  0.69190000  0.20220000  1.0 0.0986019088
H  H63  1  0.80810000  0.71280000  0.95220000  1.0 0.0986019088
H  H64  1  0.19190000  0.28720000  0.45220000  1.0 0.0986019088
H  H65  1  0.55290000  0.78780000  0.14550000  1.0 0.1409704926
H  H66  1  0.44710000  0.21220000  0.64550000  1.0 0.1409704926
H  H67  1  0.71220000  0.05290000  0.89550000  1.0 0.1409704926
H  H68  1  0.28780000  0.94710000  0.39550000  1.0 0.1409704926
H  H69  1  0.94710000  0.28780000  0.60450000  1.0 0.1409704926
H  H70  1  0.05290000  0.71220000  0.10450000  1.0 0.1409704926
H  H71  1  0.78780000  0.55290000  0.85450000  1.0 0.1409704926
H  H72  1  0.21220000  0.44710000  0.35450000  1.0 0.1409704926
H  H73  1  0.55480000  0.68460000  0.12810000  1.0 0.1569259975
H  H74  1  0.44520000  0.31540000  0.62810000  1.0 0.1569259975
H  H75  1  0.81540000  0.05480000  0.87810000  1.0 0.1569259975
H  H76  1  0.18460000  0.94520000  0.37810000  1.0 0.1569259975
H  H77  1  0.94520000  0.18460000  0.62190000  1.0 0.1569259975
H  H78  1  0.05480000  0.81540000  0.12190000  1.0 0.1569259975
H  H79  1  0.68460000  0.55480000  0.87190000  1.0 0.1569259975
H  H80  1  0.31540000  0.44520000  0.37190000  1.0 0.1569259975
H  H81  1  0.47190000  0.75830000  0.11870000  1.0 0.1409704926
H  H82  1  0.52810000  0.24170000  0.61870000  1.0 0.1409704926
H  H83  1  0.74170000  0.97190000  0.86870000  1.0 0.1409704926
H  H84  1  0.25830000  0.02810000  0.36870000  1.0 0.1409704926
H  H85  1  0.02810000  0.25830000  0.63130000  1.0 0.1409704926
H  H86  1  0.97190000  0.74170000  0.13130000  1.0 0.1409704926
H  H87  1  0.75830000  0.47190000  0.88130000  1.0 0.1409704926
H  H88  1  0.24170000  0.52810000  0.38130000  1.0 0.1409704926
H  H89  1  0.56910000  0.63790000  0.07640000  1.0 0.1505190703
H  H90  1  0.43090000  0.36210000  0.57640000  1.0 0.1505190703
H  H91  1  0.86210000  0.06910000  0.82640000  1.0 0.1505190703
H  H92  1  0.13790000  0.93090000  0.32640000  1.0 0.1505190703
H  H93  1  0.93090000  0.13790000  0.67360000  1.0 0.1505190703
H  H94  1  0.06910000  0.86210000  0.17360000  1.0 0.1505190703
H  H95  1  0.63790000  0.56910000  0.92360000  1.0 0.1505190703
H  H96  1  0.36210000  0.43090000  0.42360000  1.0 0.1505190703
H  H97  1  0.59200000  0.70690000  0.04470000  1.0 0.1217976075
H  H98  1  0.40800000  0.29310000  0.54470000  1.0 0.1217976075
H  H99  1  0.79310000  0.09200000  0.79470000  1.0 0.1217976075
H  H100  1  0.20690000  0.90800000  0.29470000  1.0 0.1217976075
H  H101  1  0.90800000  0.20690000  0.70530000  1.0 0.1217976075
H  H102  1  0.09200000  0.79310000  0.20530000  1.0 0.1217976075
H  H103  1  0.70690000  0.59200000  0.95530000  1.0 0.1217976075
H  H104  1  0.29310000  0.40800000  0.45530000  1.0 0.1217976075
H  H105  1  0.48930000  0.70970000  0.06260000  1.0 0.1505190703
H  H106  1  0.51070000  0.29030000  0.56260000  1.0 0.1505190703
H  H107  1  0.79030000  0.98930000  0.81260000  1.0 0.1505190703
H  H108  1  0.20970000  0.01070000  0.31260000  1.0 0.1505190703
H  H109  1  0.01070000  0.20970000  0.68740000  1.0 0.1505190703
H  H110  1  0.98930000  0.79030000  0.18740000  1.0 0.1505190703
H  H111  1  0.70970000  0.48930000  0.93740000  1.0 0.1505190703
H  H112  1  0.29030000  0.51070000  0.43740000  1.0 0.1505190703
H  H113  1  0.33340000  0.43190000  0.10380000  1.0 0.1108307965
H  H114  1  0.66666667  0.56810000  0.60380000  1.0 0.1108307965
H  H115  1  0.06810000  0.83340000  0.85380000  1.0 0.1108307965
H  H116  1  0.93190000  0.16660000  0.35380000  1.0 0.1108307965
H  H117  1  0.16660000  0.93190000  0.64620000  1.0 0.1108307965
H  H118  1  0.83340000  0.06810000  0.14620000  1.0 0.1108307965
H  H119  1  0.43190000  0.33340000  0.89620000  1.0 0.1108307965
H  H120  1  0.56810000  0.66666667  0.39620000  1.0 0.1108307965
H  H121  1  0.40160000  0.41450000  0.03550000  1.0 0.1108307965
H  H122  1  0.59840000  0.58550000  0.53550000  1.0 0.1108307965
H  H123  1  0.08550000  0.90160000  0.78550000  1.0 0.1108307965
H  H124  1  0.91450000  0.09840000  0.28550000  1.0 0.1108307965
H  H125  1  0.09840000  0.91450000  0.71450000  1.0 0.1108307965
H  H126  1  0.90160000  0.08550000  0.21450000  1.0 0.1108307965
H  H127  1  0.41450000  0.40160000  0.96450000  1.0 0.1108307965
H  H128  1  0.58550000  0.59840000  0.46450000  1.0 0.1108307965
H  H129  1  0.29910000  0.45270000  0.04830000  1.0 0.1108307965
H  H130  1  0.70090000  0.54730000  0.54830000  1.0 0.1108307965
H  H131  1  0.04730000  0.79910000  0.79830000  1.0 0.1108307965
H  H132  1  0.95270000  0.20090000  0.29830000  1.0 0.1108307965
H  H133  1  0.20090000  0.95270000  0.70170000  1.0 0.1108307965
H  H134  1  0.79910000  0.04730000  0.20170000  1.0 0.1108307965
H  H135  1  0.45270000  0.29910000  0.95170000  1.0 0.1108307965
H  H136  1  0.54730000  0.70090000  0.45170000  1.0 0.1108307965
H  H137  1  0.34700000  0.26140000  0.03130000  1.0 0.1108307965
H  H138  1  0.65300000  0.73860000  0.53130000  1.0 0.1108307965
H  H139  1  0.23860000  0.84700000  0.78130000  1.0 0.1108307965
H  H140  1  0.76140000  0.15300000  0.28130000  1.0 0.1108307965
H  H141  1  0.15300000  0.76140000  0.71870000  1.0 0.1108307965
H  H142  1  0.84700000  0.23860000  0.21870000  1.0 0.1108307965
H  H143  1  0.26140000  0.34700000  0.96870000  1.0 0.1108307965
H  H144  1  0.73860000  0.65300000  0.46870000  1.0 0.1108307965
H  H145  1  0.24170000  0.30440000  0.03490000  1.0 0.1108307965
H  H146  1  0.75830000  0.69560000  0.53490000  1.0 0.1108307965
H  H147  1  0.19560000  0.74170000  0.78490000  1.0 0.1108307965
H  H148  1  0.80440000  0.25830000  0.28490000  1.0 0.1108307965
H  H149  1  0.25830000  0.80440000  0.71510000  1.0 0.1108307965
H  H150  1  0.74170000  0.19560000  0.21510000  1.0 0.1108307965
H  H151  1  0.30440000  0.24170000  0.96510000  1.0 0.1108307965
H  H152  1  0.69560000  0.75830000  0.46510000  1.0 0.1108307965
H  H153  1  0.18240000  0.25600000  0.12190000  1.0 0.1409704926
H  H154  1  0.81760000  0.74400000  0.62190000  1.0 0.1409704926
H  H155  1  0.24400000  0.68240000  0.87190000  1.0 0.1409704926
H  H156  1  0.75600000  0.31760000  0.37190000  1.0 0.1409704926
H  H157  1  0.31760000  0.75600000  0.62810000  1.0 0.1409704926
H  H158  1  0.68240000  0.24400000  0.12810000  1.0 0.1409704926
H  H159  1  0.25600000  0.18240000  0.87810000  1.0 0.1409704926
H  H160  1  0.74400000  0.81760000  0.37810000  1.0 0.1409704926
H  H161  1  0.13780000  0.26400000  0.08420000  1.0 0.1505190703
H  H162  1  0.86220000  0.73600000  0.58420000  1.0 0.1505190703
H  H163  1  0.23600000  0.63780000  0.83420000  1.0 0.1505190703
H  H164  1  0.76400000  0.36220000  0.33420000  1.0 0.1505190703
H  H165  1  0.36220000  0.76400000  0.66580000  1.0 0.1505190703
H  H166  1  0.63780000  0.23600000  0.16580000  1.0 0.1505190703
H  H167  1  0.26400000  0.13780000  0.91580000  1.0 0.1505190703
H  H168  1  0.73600000  0.86220000  0.41580000  1.0 0.1505190703
H  H169  1  0.19230000  0.35310000  0.10070000  1.0 0.1217976075
H  H170  1  0.80770000  0.64690000  0.60070000  1.0 0.1217976075
H  H171  1  0.14690000  0.69230000  0.85070000  1.0 0.1217976075
H  H172  1  0.85310000  0.30770000  0.35070000  1.0 0.1217976075
H  H173  1  0.30770000  0.85310000  0.64930000  1.0 0.1217976075
H  H174  1  0.69230000  0.14690000  0.14930000  1.0 0.1217976075
H  H175  1  0.35310000  0.19230000  0.89930000  1.0 0.1217976075
H  H176  1  0.64690000  0.80770000  0.39930000  1.0 0.1217976075
H  H177  1  0.35880000  0.22780000  0.15270000  1.0 0.1569259975
H  H178  1  0.64120000  0.77220000  0.65270000  1.0 0.1569259975
H  H179  1  0.27220000  0.85880000  0.90270000  1.0 0.1569259975
H  H180  1  0.72780000  0.14120000  0.40270000  1.0 0.1569259975
H  H181  1  0.14120000  0.72780000  0.59730000  1.0 0.1569259975
H  H182  1  0.85880000  0.27220000  0.09730000  1.0 0.1569259975
H  H183  1  0.22780000  0.35880000  0.84730000  1.0 0.1569259975
H  H184  1  0.77220000  0.64120000  0.34730000  1.0 0.1569259975
H  H185  1  0.29600000  0.32220000  0.14850000  1.0 0.1217976075
H  H186  1  0.70400000  0.67780000  0.64850000  1.0 0.1217976075
H  H187  1  0.17780000  0.79600000  0.89850000  1.0 0.1217976075
H  H188  1  0.82220000  0.20400000  0.39850000  1.0 0.1217976075
H  H189  1  0.20400000  0.82220000  0.60150000  1.0 0.1217976075
H  H190  1  0.79600000  0.17780000  0.10150000  1.0 0.1217976075
H  H191  1  0.32220000  0.29600000  0.85150000  1.0 0.1217976075
H  H192  1  0.67780000  0.70400000  0.35150000  1.0 0.1217976075
H  H193  1  0.40720000  0.33020000  0.15700000  1.0 0.1505190703
H  H194  1  0.59280000  0.66980000  0.65700000  1.0 0.1505190703
H  H195  1  0.16980000  0.90720000  0.90700000  1.0 0.1505190703
H  H196  1  0.83020000  0.09280000  0.40700000  1.0 0.1505190703
H  H197  1  0.09280000  0.83020000  0.59300000  1.0 0.1505190703
H  H198  1  0.90720000  0.16980000  0.09300000  1.0 0.1505190703
H  H199  1  0.33020000  0.40720000  0.84300000  1.0 0.1505190703
H  H200  1  0.66980000  0.59280000  0.34300000  1.0 0.1505190703
H  H201  1  0.46120000  0.17230000  0.10250000  1.0 0.1505190703
H  H202  1  0.53880000  0.82770000  0.60250000  1.0 0.1505190703
H  H203  1  0.32770000  0.96120000  0.85250000  1.0 0.1505190703
H  H204  1  0.67230000  0.03880000  0.35250000  1.0 0.1505190703
H  H205  1  0.03880000  0.67230000  0.64750000  1.0 0.1505190703
H  H206  1  0.96120000  0.32770000  0.14750000  1.0 0.1505190703
H  H207  1  0.17230000  0.46120000  0.89750000  1.0 0.1505190703
H  H208  1  0.82770000  0.53880000  0.39750000  1.0 0.1505190703
H  H209  1  0.52540000  0.26560000  0.10730000  1.0 0.1505190703
H  H210  1  0.47460000  0.73440000  0.60730000  1.0 0.1505190703
H  H211  1  0.23440000  0.02540000  0.85730000  1.0 0.1505190703
H  H212  1  0.76560000  0.97460000  0.35730000  1.0 0.1505190703
H  H213  1  0.97460000  0.76560000  0.64270000  1.0 0.1505190703
H  H214  1  0.02540000  0.23440000  0.14270000  1.0 0.1505190703
H  H215  1  0.26560000  0.52540000  0.89270000  1.0 0.1505190703
H  H216  1  0.73440000  0.47460000  0.39270000  1.0 0.1505190703
H  H217  1  0.48550000  0.23790000  0.07010000  1.0 0.1409704926
H  H218  1  0.51450000  0.76210000  0.57010000  1.0 0.1409704926
H  H219  1  0.26210000  0.98550000  0.82010000  1.0 0.1409704926
H  H220  1  0.73790000  0.01450000  0.32010000  1.0 0.1409704926
H  H221  1  0.01450000  0.73790000  0.67990000  1.0 0.1409704926
H  H222  1  0.98550000  0.26210000  0.17990000  1.0 0.1409704926
H  H223  1  0.23790000  0.48550000  0.92990000  1.0 0.1409704926
H  H224  1  0.76210000  0.51450000  0.42990000  1.0 0.1409704926
C  C1  1  0.57680000  0.88670000  0.07950000  1.0 -0.1589478185
C  C2  1  0.42320000  0.11330000  0.57950000  1.0 -0.1589478185
C  C3  1  0.61330000  0.07680000  0.82950000  1.0 -0.1589478185
C  C4  1  0.38670000  0.92320000  0.32950000  1.0 -0.1589478185
C  C5  1  0.92320000  0.38670000  0.67050000  1.0 -0.1589478185
C  C6  1  0.07680000  0.61330000  0.17050000  1.0 -0.1589478185
C  C7  1  0.88670000  0.57680000  0.92050000  1.0 -0.1589478185
C  C8  1  0.11330000  0.42320000  0.42050000  1.0 -0.1589478185
C  C9  1  0.59910000  0.79040000  0.09570000  1.0 0.1569259975
C  C10  1  0.40090000  0.20960000  0.59570000  1.0 0.1569259975
C  C11  1  0.70960000  0.09910000  0.84570000  1.0 0.1569259975
C  C12  1  0.29040000  0.90090000  0.34570000  1.0 0.1569259975
C  C13  1  0.90090000  0.29040000  0.65430000  1.0 0.1569259975
C  C14  1  0.09910000  0.70960000  0.15430000  1.0 0.1569259975
C  C15  1  0.79040000  0.59910000  0.90430000  1.0 0.1569259975
C  C16  1  0.20960000  0.40090000  0.40430000  1.0 0.1569259975
C  C17  1  0.71330000  0.77780000  0.09950000  1.0 0.0542055624
C  C18  1  0.28670000  0.22220000  0.59950000  1.0 0.0542055624
C  C19  1  0.72220000  0.21330000  0.84950000  1.0 0.0542055624
C  C20  1  0.27780000  0.78670000  0.34950000  1.0 0.0542055624
C  C21  1  0.78670000  0.27780000  0.65050000  1.0 0.0542055624
C  C22  1  0.21330000  0.72220000  0.15050000  1.0 0.0542055624
C  C23  1  0.77780000  0.71330000  0.90050000  1.0 0.0542055624
C  C24  1  0.22220000  0.28670000  0.40050000  1.0 0.0542055624
C  C25  1  0.71650000  0.88290000  0.11780000  1.0 -0.1687487965
C  C26  1  0.28350000  0.11710000  0.61780000  1.0 -0.1687487965
C  C27  1  0.61710000  0.21650000  0.86780000  1.0 -0.1687487965
C  C28  1  0.38290000  0.78350000  0.36780000  1.0 -0.1687487965
C  C29  1  0.78350000  0.38290000  0.63220000  1.0 -0.1687487965
C  C30  1  0.21650000  0.61710000  0.13220000  1.0 -0.1687487965
C  C31  1  0.88290000  0.71650000  0.88220000  1.0 -0.1687487965
C  C32  1  0.11710000  0.28350000  0.38220000  1.0 -0.1687487965
C  C33  1  0.64550000  0.96450000  0.09740000  1.0 -0.1589478185
C  C34  1  0.35450000  0.03550000  0.59740000  1.0 -0.1589478185
C  C35  1  0.53550000  0.14550000  0.84740000  1.0 -0.1589478185
C  C36  1  0.46450000  0.85450000  0.34740000  1.0 -0.1589478185
C  C37  1  0.85450000  0.46450000  0.65260000  1.0 -0.1589478185
C  C38  1  0.14550000  0.53550000  0.15260000  1.0 -0.1589478185
C  C39  1  0.96450000  0.64550000  0.90260000  1.0 -0.1589478185
C  C40  1  0.03550000  0.35450000  0.40260000  1.0 -0.1589478185
C  C41  1  0.74510000  0.76230000  0.06280000  1.0 -0.4076654767
C  C42  1  0.25490000  0.23770000  0.56280000  1.0 -0.4076654767
C  C43  1  0.73770000  0.24510000  0.81280000  1.0 -0.4076654767
C  C44  1  0.26230000  0.75490000  0.31280000  1.0 -0.4076654767
C  C45  1  0.75490000  0.26230000  0.68720000  1.0 -0.4076654767
C  C46  1  0.24510000  0.73770000  0.18720000  1.0 -0.4076654767
C  C47  1  0.76230000  0.74510000  0.93720000  1.0 -0.4076654767
C  C48  1  0.23770000  0.25490000  0.43720000  1.0 -0.4076654767
C  C49  1  0.53950000  0.75190000  0.12450000  1.0 -0.4430186251
C  C50  1  0.46050000  0.24810000  0.62450000  1.0 -0.4430186251
C  C51  1  0.74810000  0.03950000  0.87450000  1.0 -0.4430186251
C  C52  1  0.25190000  0.96050000  0.37450000  1.0 -0.4430186251
C  C53  1  0.96050000  0.25190000  0.62550000  1.0 -0.4430186251
C  C54  1  0.03950000  0.74810000  0.12550000  1.0 -0.4430186251
C  C55  1  0.75190000  0.53950000  0.87550000  1.0 -0.4430186251
C  C56  1  0.24810000  0.46050000  0.37550000  1.0 -0.4430186251
C  C57  1  0.55770000  0.70110000  0.06660000  1.0 -0.4602863216
C  C58  1  0.44230000  0.29890000  0.56660000  1.0 -0.4602863216
C  C59  1  0.79890000  0.05770000  0.81660000  1.0 -0.4602863216
C  C60  1  0.20110000  0.94230000  0.31660000  1.0 -0.4602863216
C  C61  1  0.94230000  0.20110000  0.68340000  1.0 -0.4602863216
C  C62  1  0.05770000  0.79890000  0.18340000  1.0 -0.4602863216
C  C63  1  0.70110000  0.55770000  0.93340000  1.0 -0.4602863216
C  C64  1  0.29890000  0.44230000  0.43340000  1.0 -0.4602863216
C  C65  1  0.47370000  0.91750000  0.08130000  1.0 0.5388149465
C  C66  1  0.52630000  0.08250000  0.58130000  1.0 0.5388149465
C  C67  1  0.58250000  0.97370000  0.83130000  1.0 0.5388149465
C  C68  1  0.41750000  0.02630000  0.33130000  1.0 0.5388149465
C  C69  1  0.02630000  0.41750000  0.66870000  1.0 0.5388149465
C  C70  1  0.97370000  0.58250000  0.16870000  1.0 0.5388149465
C  C71  1  0.91750000  0.47370000  0.91870000  1.0 0.5388149465
C  C72  1  0.08250000  0.52630000  0.41870000  1.0 0.5388149465
C  C73  1  0.74320000  0.69910000  0.12410000  1.0 0.5003277505
C  C74  1  0.25680000  0.30090000  0.62410000  1.0 0.5003277505
C  C75  1  0.80090000  0.24320000  0.87410000  1.0 0.5003277505
C  C76  1  0.19910000  0.75680000  0.37410000  1.0 0.5003277505
C  C77  1  0.75680000  0.19910000  0.62590000  1.0 0.5003277505
C  C78  1  0.24320000  0.80090000  0.12590000  1.0 0.5003277505
C  C79  1  0.69910000  0.74320000  0.87590000  1.0 0.5003277505
C  C80  1  0.30090000  0.25680000  0.37590000  1.0 0.5003277505
C  C81  1  0.29180000  0.24530000  0.08240000  1.0 0.074695758
C  C82  1  0.70820000  0.75470000  0.58240000  1.0 0.074695758
C  C83  1  0.25470000  0.79180000  0.83240000  1.0 0.074695758
C  C84  1  0.74530000  0.20820000  0.33240000  1.0 0.074695758
C  C85  1  0.20820000  0.74530000  0.66760000  1.0 0.074695758
C  C86  1  0.79180000  0.25470000  0.16760000  1.0 0.074695758
C  C87  1  0.24530000  0.29180000  0.91760000  1.0 0.074695758
C  C88  1  0.75470000  0.70820000  0.41760000  1.0 0.074695758
C  C89  1  0.38390000  0.29600000  0.10140000  1.0 0.1863212338
C  C90  1  0.61610000  0.70400000  0.60140000  1.0 0.1863212338
C  C91  1  0.20400000  0.88390000  0.85140000  1.0 0.1863212338
C  C92  1  0.79600000  0.11610000  0.35140000  1.0 0.1863212338
C  C93  1  0.11610000  0.79600000  0.64860000  1.0 0.1863212338
C  C94  1  0.88390000  0.20400000  0.14860000  1.0 0.1863212338
C  C95  1  0.29600000  0.38390000  0.89860000  1.0 0.1863212338
C  C96  1  0.70400000  0.61610000  0.39860000  1.0 0.1863212338
C  C97  1  0.38340000  0.39910000  0.08980000  1.0 -0.1414584088
C  C98  1  0.61660000  0.60090000  0.58980000  1.0 -0.1414584088
C  C99  1  0.10090000  0.88340000  0.83980000  1.0 -0.1414584088
C  C100  1  0.89910000  0.11660000  0.33980000  1.0 -0.1414584088
C  C101  1  0.11660000  0.89910000  0.66020000  1.0 -0.1414584088
C  C102  1  0.88340000  0.10090000  0.16020000  1.0 -0.1414584088
C  C103  1  0.39910000  0.38340000  0.91020000  1.0 -0.1414584088
C  C104  1  0.60090000  0.61660000  0.41020000  1.0 -0.1414584088
C  C105  1  0.34800000  0.40280000  0.05150000  1.0 -0.1535341876
C  C106  1  0.65200000  0.59720000  0.55150000  1.0 -0.1535341876
C  C107  1  0.09720000  0.84800000  0.80150000  1.0 -0.1535341876
C  C108  1  0.90280000  0.15200000  0.30150000  1.0 -0.1535341876
C  C109  1  0.15200000  0.90280000  0.69850000  1.0 -0.1535341876
C  C110  1  0.84800000  0.09720000  0.19850000  1.0 -0.1535341876
C  C111  1  0.40280000  0.34800000  0.94850000  1.0 -0.1535341876
C  C112  1  0.59720000  0.65200000  0.44850000  1.0 -0.1535341876
C  C113  1  0.30440000  0.29920000  0.04630000  1.0 -0.1829885473
C  C114  1  0.69560000  0.70080000  0.54630000  1.0 -0.1829885473
C  C115  1  0.20080000  0.80440000  0.79630000  1.0 -0.1829885473
C  C116  1  0.79920000  0.19560000  0.29630000  1.0 -0.1829885473
C  C117  1  0.19560000  0.79920000  0.70370000  1.0 -0.1829885473
C  C118  1  0.80440000  0.20080000  0.20370000  1.0 -0.1829885473
C  C119  1  0.29920000  0.30440000  0.95370000  1.0 -0.1829885473
C  C120  1  0.70080000  0.69560000  0.45370000  1.0 -0.1829885473
C  C121  1  0.19090000  0.28350000  0.09900000  1.0 -0.4306478804
C  C122  1  0.80910000  0.71650000  0.59900000  1.0 -0.4306478804
C  C123  1  0.21650000  0.69090000  0.84900000  1.0 -0.4306478804
C  C124  1  0.78350000  0.30910000  0.34900000  1.0 -0.4306478804
C  C125  1  0.30910000  0.78350000  0.65100000  1.0 -0.4306478804
C  C126  1  0.69090000  0.21650000  0.15100000  1.0 -0.4306478804
C  C127  1  0.28350000  0.19090000  0.90100000  1.0 -0.4306478804
C  C128  1  0.71650000  0.80910000  0.40100000  1.0 -0.4306478804
C  C129  1  0.35880000  0.29400000  0.14450000  1.0 -0.4602863216
C  C130  1  0.64120000  0.70600000  0.64450000  1.0 -0.4602863216
C  C131  1  0.20600000  0.85880000  0.89450000  1.0 -0.4602863216
C  C132  1  0.79400000  0.14120000  0.39450000  1.0 -0.4602863216
C  C133  1  0.14120000  0.79400000  0.60550000  1.0 -0.4602863216
C  C134  1  0.85880000  0.20600000  0.10550000  1.0 -0.4602863216
C  C135  1  0.29400000  0.35880000  0.85550000  1.0 -0.4602863216
C  C136  1  0.70600000  0.64120000  0.35550000  1.0 -0.4602863216
C  C137  1  0.47160000  0.23790000  0.09480000  1.0 -0.4528991883
C  C138  1  0.52840000  0.76210000  0.59480000  1.0 -0.4528991883
C  C139  1  0.26210000  0.97160000  0.84480000  1.0 -0.4528991883
C  C140  1  0.73790000  0.02840000  0.34480000  1.0 -0.4528991883
C  C141  1  0.02840000  0.73790000  0.65520000  1.0 -0.4528991883
C  C142  1  0.97160000  0.26210000  0.15520000  1.0 -0.4528991883
C  C143  1  0.23790000  0.47160000  0.90520000  1.0 -0.4528991883
C  C144  1  0.76210000  0.52840000  0.40520000  1.0 -0.4528991883
C  C145  1  0.29010000  0.13410000  0.08270000  1.0 0.4894770826
C  C146  1  0.70990000  0.86590000  0.58270000  1.0 0.4894770826
C  C147  1  0.36590000  0.79010000  0.83270000  1.0 0.4894770826
C  C148  1  0.63410000  0.20990000  0.33270000  1.0 0.4894770826
C  C149  1  0.20990000  0.63410000  0.66730000  1.0 0.4894770826
C  C150  1  0.79010000  0.36590000  0.16730000  1.0 0.4894770826
C  C151  1  0.13410000  0.29010000  0.91730000  1.0 0.4894770826
C  C152  1  0.86590000  0.70990000  0.41730000  1.0 0.4894770826
C  C153  1  0.48070000  0.44920000  0.09890000  1.0 0.5511679793
C  C154  1  0.51930000  0.55080000  0.59890000  1.0 0.5511679793
C  C155  1  0.05080000  0.98070000  0.84890000  1.0 0.5511679793
C  C156  1  0.94920000  0.01930000  0.34890000  1.0 0.5511679793
C  C157  1  0.01930000  0.94920000  0.65110000  1.0 0.5511679793
C  C158  1  0.98070000  0.05080000  0.15110000  1.0 0.5511679793
C  C159  1  0.44920000  0.48070000  0.90110000  1.0 0.5511679793
C  C160  1  0.55080000  0.51930000  0.40110000  1.0 0.5511679793
C  C161  1  0.04430000  0.94120000  0.02000000  1.0 -0.0165112592
C  C162  1  0.95570000  0.05880000  0.52000000  1.0 -0.0165112592
C  C163  1  0.55880000  0.54430000  0.77000000  1.0 -0.0165112592
C  C164  1  0.44120000  0.45570000  0.27000000  1.0 -0.0165112592
C  C165  1  0.45570000  0.44120000  0.73000000  1.0 -0.0165112592
C  C166  1  0.54430000  0.55880000  0.23000000  1.0 -0.0165112592
C  C167  1  0.94120000  0.04430000  0.98000000  1.0 -0.0165112592
C  C168  1  0.05880000  0.95570000  0.48000000  1.0 -0.0165112592
C  C169  1  0.05900000  0.89400000  0.98030000  1.0 0.0621889974
C  C170  1  0.94100000  0.10600000  0.48030000  1.0 0.0621889974
C  C171  1  0.60600000  0.55900000  0.73030000  1.0 0.0621889974
C  C172  1  0.39400000  0.44100000  0.23030000  1.0 0.0621889974
C  C173  1  0.44100000  0.39400000  0.76970000  1.0 0.0621889974
C  C174  1  0.55900000  0.60600000  0.26970000  1.0 0.0621889974
C  C175  1  0.89400000  0.05900000  0.01970000  1.0 0.0621889974
C  C176  1  0.10600000  0.94100000  0.51970000  1.0 0.0621889974
C  C177  1  0.95200000  0.93900000  0.04110000  1.0 0.1108307965
C  C178  1  0.04800000  0.06100000  0.54110000  1.0 0.1108307965
C  C179  1  0.56100000  0.45200000  0.79110000  1.0 0.1108307965
C  C180  1  0.43900000  0.54800000  0.29110000  1.0 0.1108307965
C  C181  1  0.54800000  0.43900000  0.70890000  1.0 0.1108307965
C  C182  1  0.45200000  0.56100000  0.20890000  1.0 0.1108307965
C  C183  1  0.93900000  0.95200000  0.95890000  1.0 0.1108307965
C  C184  1  0.06100000  0.04800000  0.45890000  1.0 0.1108307965
C  C185  1  0.03600000  0.03600000  0.00000000  1.0 0.0299167986
C  C186  1  0.96400000  0.96400000  0.50000000  1.0 0.0299167986
C  C187  1  0.46400000  0.53600000  0.75000000  1.0 0.0299167986
C  C188  1  0.53600000  0.46400000  0.25000000  1.0 0.0299167986
C  C189  1  0.09800000  0.09800000  0.00000000  1.0 -0.1414584088
C  C190  1  0.90200000  0.90200000  0.50000000  1.0 -0.1414584088
C  C191  1  0.40200000  0.59800000  0.75000000  1.0 -0.1414584088
C  C192  1  0.59800000  0.40200000  0.25000000  1.0 -0.1414584088
C  C193  1  0.13200000  0.98700000  0.96690000  1.0 0.1217976075
C  C194  1  0.86800000  0.01300000  0.46690000  1.0 0.1269120963
C  C195  1  0.51300000  0.63200000  0.71690000  1.0 0.1269120963
C  C196  1  0.48700000  0.36800000  0.21690000  1.0 0.1269120963
C  C197  1  0.36800000  0.48700000  0.78310000  1.0 0.1269120963
C  C198  1  0.63200000  0.51300000  0.28310000  1.0 0.1269120963
C  C199  1  0.98700000  0.13200000  0.03310000  1.0 0.1269120963
C  C200  1  0.01300000  0.86800000  0.53310000  1.0 0.1269120963
C  C201  1  0.12760000  0.93780000  0.04330000  1.0 0.5388149465
C  C202  1  0.87240000  0.06220000  0.54330000  1.0 0.5388149465
C  C203  1  0.56220000  0.62760000  0.79330000  1.0 0.5388149465
C  C204  1  0.43780000  0.37240000  0.29330000  1.0 0.5388149465
C  C205  1  0.37240000  0.43780000  0.70670000  1.0 0.5388149465
C  C206  1  0.62760000  0.56220000  0.20670000  1.0 0.5388149465
C  C207  1  0.93780000  0.12760000  0.95670000  1.0 0.5388149465
C  C208  1  0.06220000  0.87240000  0.45670000  1.0 0.5388149465
O  O1  1  0.41750000  0.89300000  0.05660000  1.0 -0.4602863216
O  O2  1  0.58250000  0.10700000  0.55660000  1.0 -0.4602863216
O  O3  1  0.60700000  0.91750000  0.80660000  1.0 -0.4602863216
O  O4  1  0.39300000  0.08250000  0.30660000  1.0 -0.4602863216
O  O5  1  0.08250000  0.39300000  0.69340000  1.0 -0.4602863216
O  O6  1  0.91750000  0.60700000  0.19340000  1.0 -0.4602863216
O  O7  1  0.89300000  0.41750000  0.94340000  1.0 -0.4602863216
O  O8  1  0.10700000  0.58250000  0.44340000  1.0 -0.4602863216
O  O9  1  0.43880000  0.95420000  0.10880000  1.0 -0.4954438811
O  O10  1  0.56120000  0.04580000  0.60880000  1.0 -0.4954438811
O  O11  1  0.54580000  0.93880000  0.85880000  1.0 -0.4954438811
O  O12  1  0.45420000  0.06120000  0.35880000  1.0 -0.4954438811
O  O13  1  0.06120000  0.45420000  0.64120000  1.0 -0.4954438811
O  O14  1  0.93880000  0.54580000  0.14120000  1.0 -0.4954438811
O  O15  1  0.95420000  0.43880000  0.89120000  1.0 -0.4954438811
O  O16  1  0.04580000  0.56120000  0.39120000  1.0 -0.4954438811
O  O17  1  0.73780000  0.60830000  0.11210000  1.0 -0.4705756908
O  O18  1  0.26220000  0.39170000  0.61210000  1.0 -0.4705756908
O  O19  1  0.89170000  0.23780000  0.86210000  1.0 -0.4705756908
O  O20  1  0.10830000  0.76220000  0.36210000  1.0 -0.4705756908
O  O21  1  0.76220000  0.10830000  0.63790000  1.0 -0.4705756908
O  O22  1  0.23780000  0.89170000  0.13790000  1.0 -0.4705756908
O  O23  1  0.60830000  0.73780000  0.88790000  1.0 -0.4705756908
O  O24  1  0.39170000  0.26220000  0.38790000  1.0 -0.4705756908
O  O25  1  0.76770000  0.71200000  0.15440000  1.0 -0.4705756908
O  O26  1  0.23230000  0.28800000  0.65440000  1.0 -0.4705756908
O  O27  1  0.78800000  0.26770000  0.90440000  1.0 -0.4705756908
O  O28  1  0.21200000  0.73230000  0.40440000  1.0 -0.4772118067
O  O29  1  0.73230000  0.21200000  0.59560000  1.0 -0.4705756908
O  O30  1  0.26770000  0.78800000  0.09560000  1.0 -0.4772118067
O  O31  1  0.71200000  0.76770000  0.84560000  1.0 -0.4705756908
O  O32  1  0.28800000  0.23230000  0.34560000  1.0 -0.4705756908
O  O33  1  0.31540000  0.08900000  0.05650000  1.0 -0.4705756908
O  O34  1  0.68460000  0.91100000  0.55650000  1.0 -0.4705756908
O  O35  1  0.41100000  0.81540000  0.80650000  1.0 -0.4705756908
O  O36  1  0.58900000  0.18460000  0.30650000  1.0 -0.4705756908
O  O37  1  0.18460000  0.58900000  0.69350000  1.0 -0.4705756908
O  O38  1  0.81540000  0.41100000  0.19350000  1.0 -0.4705756908
O  O39  1  0.08900000  0.31540000  0.94350000  1.0 -0.4705756908
O  O40  1  0.91100000  0.68460000  0.44350000  1.0 -0.4705756908
O  O41  1  0.26920000  0.09630000  0.11130000  1.0 -0.4430186251
O  O42  1  0.73080000  0.90370000  0.61130000  1.0 -0.4430186251
O  O43  1  0.40370000  0.76920000  0.86130000  1.0 -0.4430186251
O  O44  1  0.59630000  0.23080000  0.36130000  1.0 -0.4430186251
O  O45  1  0.23080000  0.59630000  0.63870000  1.0 -0.4430186251
O  O46  1  0.76920000  0.40370000  0.13870000  1.0 -0.4430186251
O  O47  1  0.09630000  0.26920000  0.88870000  1.0 -0.4430186251
O  O48  1  0.90370000  0.73080000  0.38870000  1.0 -0.4430186251
O  O49  1  0.53000000  0.46700000  0.07470000  1.0 -0.4602863216
O  O50  1  0.47000000  0.53300000  0.57470000  1.0 -0.4602863216
O  O51  1  0.03300000  0.03000000  0.82470000  1.0 -0.4602863216
O  O52  1  0.96700000  0.97000000  0.32470000  1.0 -0.4602863216
O  O53  1  0.97000000  0.96700000  0.67530000  1.0 -0.4602863216
O  O54  1  0.03000000  0.03300000  0.17530000  1.0 -0.4602863216
O  O55  1  0.46700000  0.53000000  0.92530000  1.0 -0.4602863216
O  O56  1  0.53300000  0.47000000  0.42530000  1.0 -0.4602863216
O  O57  1  0.48890000  0.46710000  0.13020000  1.0 -0.4772118067
O  O58  1  0.51110000  0.53290000  0.63020000  1.0 -0.4772118067
O  O59  1  0.03290000  0.98890000  0.88020000  1.0 -0.4772118067
O  O60  1  0.96710000  0.01110000  0.38020000  1.0 -0.4772118067
O  O61  1  0.01110000  0.96710000  0.61980000  1.0 -0.4772118067
O  O62  1  0.98890000  0.03290000  0.11980000  1.0 -0.4772118067
O  O63  1  0.46710000  0.48890000  0.86980000  1.0 -0.4772118067
O  O64  1  0.53290000  0.51110000  0.36980000  1.0 -0.4772118067
O  O65  1  0.20790000  0.90970000  0.03240000  1.0 -0.4528991883
O  O66  1  0.79210000  0.09030000  0.53240000  1.0 -0.4528991883
O  O67  1  0.59030000  0.70790000  0.78240000  1.0 -0.4528991883
O  O68  1  0.40970000  0.29210000  0.28240000  1.0 -0.4528991883
O  O69  1  0.29210000  0.40970000  0.71760000  1.0 -0.4528991883
O  O70  1  0.70790000  0.59030000  0.21760000  1.0 -0.4528991883
O  O71  1  0.90970000  0.20790000  0.96760000  1.0 -0.4528991883
O  O72  1  0.09030000  0.79210000  0.46760000  1.0 -0.4528991883
O  O73  1  0.12450000  0.96890000  0.07430000  1.0 -0.4306478804
O  O74  1  0.87550000  0.03110000  0.57430000  1.0 -0.4306478804
O  O75  1  0.53110000  0.62450000  0.82430000  1.0 -0.4306478804
O  O76  1  0.46890000  0.37550000  0.32430000  1.0 -0.4306478804
O  O77  1  0.37550000  0.46890000  0.67570000  1.0 -0.4306478804
O  O78  1  0.62450000  0.53110000  0.17570000  1.0 -0.4306478804
O  O79  1  0.96890000  0.12450000  0.92570000  1.0 -0.4306478804
O  O80  1  0.03110000  0.87550000  0.42570000  1.0 -0.4306478804
