# DDEC6 charges by PACMAN v1.1 (https://github.com/mtap-research/PACMAN-charge/)
data_NOFPUT_ASR_pacman
_symmetry_space_group_name_H-M   'P 1'
_cell_length_a   21.22450000
_cell_length_b   21.22450000
_cell_length_c   21.22450000
_cell_angle_alpha   90.00000000
_cell_angle_beta   90.00000000
_cell_angle_gamma   90.00000000
_symmetry_Int_Tables_number   1
_chemical_formula_structural   Na6Bi5H66C42O61
_chemical_formula_sum   'Na24 Bi20 H264 C168 O244'
_cell_volume   9561.20003061
_cell_formula_units_Z   4
loop_
 _symmetry_equiv_pos_site_id
 _symmetry_equiv_pos_as_xyz
  1  'x, y, z'
loop_
 _atom_site_type_symbol
 _atom_site_label
 _atom_site_symmetry_multiplicity
 _atom_site_fract_x
 _atom_site_fract_y
 _atom_site_fract_z
 _atom_site_occupancy
 _atom_site_charge
Na  Na1  1  0.08647000  0.44965000  0.32479000  1.0 0.7607143469
Na  Na2  1  0.32479000  0.08647000  0.44965000  1.0 0.7607143469
Na  Na3  1  0.44965000  0.32479000  0.08647000  1.0 0.7607143469
Na  Na4  1  0.58647000  0.05035000  0.67521000  1.0 0.7607143469
Na  Na5  1  0.67521000  0.58647000  0.05035000  1.0 0.7607143469
Na  Na6  1  0.05035000  0.67521000  0.58647000  1.0 0.7607143469
Na  Na7  1  0.94965000  0.17521000  0.91353000  1.0 0.7607143469
Na  Na8  1  0.82479000  0.41353000  0.55035000  1.0 0.7607143469
Na  Na9  1  0.17521000  0.91353000  0.94965000  1.0 0.7607143469
Na  Na10  1  0.91353000  0.94965000  0.17521000  1.0 0.7607143469
Na  Na11  1  0.55035000  0.82479000  0.41353000  1.0 0.7607143469
Na  Na12  1  0.41353000  0.55035000  0.82479000  1.0 0.7607143469
Na  Na13  1  0.00812000  0.54555000  0.21420000  1.0 0.7690914569
Na  Na14  1  0.21420000  0.00812000  0.54555000  1.0 0.7690914569
Na  Na15  1  0.54555000  0.21420000  0.00812000  1.0 0.7690914569
Na  Na16  1  0.50812000  0.95445000  0.78580000  1.0 0.7690914569
Na  Na17  1  0.78580000  0.50812000  0.95445000  1.0 0.7690914569
Na  Na18  1  0.95445000  0.78580000  0.50812000  1.0 0.7690914569
Na  Na19  1  0.04555000  0.28580000  0.99188000  1.0 0.7690914569
Na  Na20  1  0.71420000  0.49188000  0.45445000  1.0 0.7690914569
Na  Na21  1  0.28580000  0.99188000  0.04555000  1.0 0.7690914569
Na  Na22  1  0.99188000  0.04555000  0.28580000  1.0 0.7690914569
Na  Na23  1  0.45445000  0.71420000  0.49188000  1.0 0.7690914569
Na  Na24  1  0.49188000  0.45445000  0.71420000  1.0 0.7690914569
Bi  Bi1  1  0.27771000  0.42258000  0.52774000  1.0 1.2563724566
Bi  Bi2  1  0.52774000  0.27771000  0.42258000  1.0 1.2563724566
Bi  Bi3  1  0.42258000  0.52774000  0.27771000  1.0 1.2563724566
Bi  Bi4  1  0.77771000  0.07742000  0.47226000  1.0 1.2563724566
Bi  Bi5  1  0.47226000  0.77771000  0.07742000  1.0 1.2563724566
Bi  Bi6  1  0.07742000  0.47226000  0.77771000  1.0 1.2563724566
Bi  Bi7  1  0.92258000  0.97226000  0.72229000  1.0 1.2563724566
Bi  Bi8  1  0.02774000  0.22229000  0.57742000  1.0 1.2563724566
Bi  Bi9  1  0.97226000  0.72229000  0.92258000  1.0 1.2563724566
Bi  Bi10  1  0.72229000  0.92258000  0.97226000  1.0 1.2563724566
Bi  Bi11  1  0.57742000  0.02774000  0.22229000  1.0 1.2563724566
Bi  Bi12  1  0.22229000  0.57742000  0.02774000  1.0 1.2563724566
Bi  Bi13  1  0.13182000  0.36818000  0.63182000  1.0 1.2563724566
Bi  Bi14  1  0.63182000  0.13182000  0.36818000  1.0 1.2563724566
Bi  Bi15  1  0.36818000  0.63182000  0.13182000  1.0 1.2563724566
Bi  Bi16  1  0.86818000  0.86818000  0.86818000  1.0 1.2563724566
Bi  Bi17  1  0.40643000  0.40643000  0.40643000  1.0 1.2447214571
Bi  Bi18  1  0.90643000  0.09357000  0.59357000  1.0 1.2447214571
Bi  Bi19  1  0.59357000  0.90643000  0.09357000  1.0 1.2458362627
Bi  Bi20  1  0.09357000  0.59357000  0.90643000  1.0 1.2447214571
H  H1  1  0.02020000  0.44420000  0.44450000  1.0 0.320613882
H  H2  1  0.44450000  0.02020000  0.44420000  1.0 0.320613882
H  H3  1  0.44420000  0.44450000  0.02020000  1.0 0.320613882
H  H4  1  0.52020000  0.05580000  0.55550000  1.0 0.320613882
H  H5  1  0.55550000  0.52020000  0.05580000  1.0 0.320613882
H  H6  1  0.05580000  0.55550000  0.52020000  1.0 0.320613882
H  H7  1  0.94420000  0.05550000  0.97980000  1.0 0.320613882
H  H8  1  0.94450000  0.47980000  0.55580000  1.0 0.320613882
H  H9  1  0.05550000  0.97980000  0.94420000  1.0 0.320613882
H  H10  1  0.97980000  0.94420000  0.05550000  1.0 0.320613882
H  H11  1  0.55580000  0.94450000  0.47980000  1.0 0.320613882
H  H12  1  0.47980000  0.55580000  0.94450000  1.0 0.320613882
H  H13  1  0.53550000  0.46910000  0.58750000  1.0 0.320613882
H  H14  1  0.58750000  0.53550000  0.46910000  1.0 0.320613882
H  H15  1  0.46910000  0.58750000  0.53550000  1.0 0.320613882
H  H16  1  0.03550000  0.03090000  0.41250000  1.0 0.320613882
H  H17  1  0.41250000  0.03550000  0.03090000  1.0 0.320613882
H  H18  1  0.03090000  0.41250000  0.03550000  1.0 0.320613882
H  H19  1  0.96910000  0.91250000  0.46450000  1.0 0.320613882
H  H20  1  0.08750000  0.96450000  0.53090000  1.0 0.320613882
H  H21  1  0.91250000  0.46450000  0.96910000  1.0 0.320613882
H  H22  1  0.46450000  0.96910000  0.91250000  1.0 0.320613882
H  H23  1  0.53090000  0.08750000  0.96450000  1.0 0.320613882
H  H24  1  0.96450000  0.53090000  0.08750000  1.0 0.320613882
H  H25  1  0.20130000  0.34230000  0.33590000  1.0 0.0905582088
H  H26  1  0.33590000  0.20130000  0.34230000  1.0 0.0905582088
H  H27  1  0.34230000  0.33590000  0.20130000  1.0 0.0905582088
H  H28  1  0.70130000  0.15770000  0.66410000  1.0 0.0905582088
H  H29  1  0.66410000  0.70130000  0.15770000  1.0 0.0905582088
H  H30  1  0.15770000  0.66410000  0.70130000  1.0 0.0905582088
H  H31  1  0.84230000  0.16410000  0.79870000  1.0 0.0905582088
H  H32  1  0.83590000  0.29870000  0.65770000  1.0 0.0905582088
H  H33  1  0.16410000  0.79870000  0.84230000  1.0 0.0905582088
H  H34  1  0.79870000  0.84230000  0.16410000  1.0 0.0905582088
H  H35  1  0.65770000  0.83590000  0.29870000  1.0 0.0905582088
H  H36  1  0.29870000  0.65770000  0.83590000  1.0 0.0905582088
H  H37  1  0.39050000  0.33390000  0.70090000  1.0 0.1122048955
H  H38  1  0.70090000  0.39050000  0.33390000  1.0 0.1122048955
H  H39  1  0.33390000  0.70090000  0.39050000  1.0 0.1122048955
H  H40  1  0.89050000  0.16610000  0.29910000  1.0 0.1122048955
H  H41  1  0.29910000  0.89050000  0.16610000  1.0 0.1122048955
H  H42  1  0.16610000  0.29910000  0.89050000  1.0 0.1122048955
H  H43  1  0.83390000  0.79910000  0.60950000  1.0 0.1122048955
H  H44  1  0.20090000  0.10950000  0.66610000  1.0 0.1122048955
H  H45  1  0.79910000  0.60950000  0.83390000  1.0 0.1122048955
H  H46  1  0.60950000  0.83390000  0.79910000  1.0 0.1122048955
H  H47  1  0.66610000  0.20090000  0.10950000  1.0 0.1122048955
H  H48  1  0.10950000  0.66610000  0.20090000  1.0 0.1122048955
H  H49  1  0.25720000  0.30730000  0.42810000  1.0 0.098920901
H  H50  1  0.42810000  0.25720000  0.30730000  1.0 0.098920901
H  H51  1  0.30730000  0.42810000  0.25720000  1.0 0.098920901
H  H52  1  0.75720000  0.19270000  0.57190000  1.0 0.098920901
H  H53  1  0.57190000  0.75720000  0.19270000  1.0 0.098920901
H  H54  1  0.19270000  0.57190000  0.75720000  1.0 0.098920901
H  H55  1  0.80730000  0.07190000  0.74280000  1.0 0.098920901
H  H56  1  0.92810000  0.24280000  0.69270000  1.0 0.098920901
H  H57  1  0.07190000  0.74280000  0.80730000  1.0 0.098920901
H  H58  1  0.74280000  0.80730000  0.07190000  1.0 0.098920901
H  H59  1  0.69270000  0.92810000  0.24280000  1.0 0.098920901
H  H60  1  0.24280000  0.69270000  0.92810000  1.0 0.098920901
H  H61  1  0.32930000  0.30000000  0.61070000  1.0 0.1192682494
H  H62  1  0.61070000  0.32930000  0.30000000  1.0 0.1192682494
H  H63  1  0.30000000  0.61070000  0.32930000  1.0 0.1192682494
H  H64  1  0.82930000  0.20000000  0.38930000  1.0 0.1192682494
H  H65  1  0.38930000  0.82930000  0.20000000  1.0 0.1192682494
H  H66  1  0.20000000  0.38930000  0.82930000  1.0 0.1192682494
H  H67  1  0.80000000  0.88930000  0.67070000  1.0 0.1192682494
H  H68  1  0.11070000  0.17070000  0.70000000  1.0 0.1192682494
H  H69  1  0.88930000  0.67070000  0.80000000  1.0 0.1192682494
H  H70  1  0.67070000  0.80000000  0.88930000  1.0 0.1192682494
H  H71  1  0.70000000  0.11070000  0.17070000  1.0 0.1192682494
H  H72  1  0.17070000  0.70000000  0.11070000  1.0 0.1192682494
H  H73  1  0.17670000  0.27620000  0.49240000  1.0 0.098920901
H  H74  1  0.49240000  0.17670000  0.27620000  1.0 0.098920901
H  H75  1  0.27620000  0.49240000  0.17670000  1.0 0.098920901
H  H76  1  0.67670000  0.22380000  0.50760000  1.0 0.098920901
H  H77  1  0.50760000  0.67670000  0.22380000  1.0 0.098920901
H  H78  1  0.22380000  0.50760000  0.67670000  1.0 0.098920901
H  H79  1  0.77620000  0.00760000  0.82330000  1.0 0.098920901
H  H80  1  0.99240000  0.32330000  0.72380000  1.0 0.098920901
H  H81  1  0.00760000  0.82330000  0.77620000  1.0 0.098920901
H  H82  1  0.82330000  0.77620000  0.00760000  1.0 0.098920901
H  H83  1  0.72380000  0.99240000  0.32330000  1.0 0.098920901
H  H84  1  0.32330000  0.72380000  0.99240000  1.0 0.098920901
H  H85  1  0.40340000  0.29220000  0.53460000  1.0 0.098920901
H  H86  1  0.53460000  0.40340000  0.29220000  1.0 0.098920901
H  H87  1  0.29220000  0.53460000  0.40340000  1.0 0.098920901
H  H88  1  0.90340000  0.20780000  0.46540000  1.0 0.098920901
H  H89  1  0.46540000  0.90340000  0.20780000  1.0 0.098920901
H  H90  1  0.20780000  0.46540000  0.90340000  1.0 0.098920901
H  H91  1  0.79220000  0.96540000  0.59660000  1.0 0.098920901
H  H92  1  0.03460000  0.09660000  0.70780000  1.0 0.098920901
H  H93  1  0.96540000  0.59660000  0.79220000  1.0 0.098920901
H  H94  1  0.59660000  0.79220000  0.96540000  1.0 0.098920901
H  H95  1  0.70780000  0.03460000  0.09660000  1.0 0.098920901
H  H96  1  0.09660000  0.70780000  0.03460000  1.0 0.098920901
H  H97  1  0.12640000  0.39890000  0.48680000  1.0 0.0905582088
H  H98  1  0.48680000  0.12640000  0.39890000  1.0 0.0905582088
H  H99  1  0.39890000  0.48680000  0.12640000  1.0 0.0905582088
H  H100  1  0.62640000  0.10110000  0.51320000  1.0 0.0905582088
H  H101  1  0.51320000  0.62640000  0.10110000  1.0 0.0905582088
H  H102  1  0.10110000  0.51320000  0.62640000  1.0 0.0905582088
H  H103  1  0.89890000  0.01320000  0.87360000  1.0 0.0905582088
H  H104  1  0.98680000  0.37360000  0.60110000  1.0 0.0905582088
H  H105  1  0.01320000  0.87360000  0.89890000  1.0 0.0905582088
H  H106  1  0.87360000  0.89890000  0.01320000  1.0 0.0905582088
H  H107  1  0.60110000  0.98680000  0.37360000  1.0 0.0905582088
H  H108  1  0.37360000  0.60110000  0.98680000  1.0 0.0905582088
H  H109  1  0.43510000  0.41920000  0.55350000  1.0 0.098920901
H  H110  1  0.55350000  0.43510000  0.41920000  1.0 0.098920901
H  H111  1  0.41920000  0.55350000  0.43510000  1.0 0.098920901
H  H112  1  0.93510000  0.08080000  0.44650000  1.0 0.098920901
H  H113  1  0.44650000  0.93510000  0.08080000  1.0 0.098920901
H  H114  1  0.08080000  0.44650000  0.93510000  1.0 0.098920901
H  H115  1  0.91920000  0.94650000  0.56490000  1.0 0.098920901
H  H116  1  0.05350000  0.06490000  0.58080000  1.0 0.098920901
H  H117  1  0.94650000  0.56490000  0.91920000  1.0 0.098920901
H  H118  1  0.56490000  0.91920000  0.94650000  1.0 0.098920901
H  H119  1  0.58080000  0.05350000  0.06490000  1.0 0.098920901
H  H120  1  0.06490000  0.58080000  0.05350000  1.0 0.098920901
H  H121  1  0.07910000  0.28820000  0.43220000  1.0 0.0905582088
H  H122  1  0.43220000  0.07910000  0.28820000  1.0 0.0905582088
H  H123  1  0.28820000  0.43220000  0.07910000  1.0 0.0905582088
H  H124  1  0.57910000  0.21180000  0.56780000  1.0 0.0905582088
H  H125  1  0.56780000  0.57910000  0.21180000  1.0 0.0905582088
H  H126  1  0.21180000  0.56780000  0.57910000  1.0 0.0905582088
H  H127  1  0.78820000  0.06780000  0.92090000  1.0 0.0905582088
H  H128  1  0.93220000  0.42090000  0.71180000  1.0 0.0905582088
H  H129  1  0.06780000  0.92090000  0.78820000  1.0 0.0905582088
H  H130  1  0.92090000  0.78820000  0.06780000  1.0 0.0905582088
H  H131  1  0.71180000  0.93220000  0.42090000  1.0 0.0905582088
H  H132  1  0.42090000  0.71180000  0.93220000  1.0 0.0905582088
H  H133  1  0.50390000  0.30990000  0.58370000  1.0 0.0821925971
H  H134  1  0.58370000  0.50390000  0.30990000  1.0 0.0821925971
H  H135  1  0.30990000  0.58370000  0.50390000  1.0 0.0821925971
H  H136  1  0.00390000  0.19010000  0.41630000  1.0 0.0821925971
H  H137  1  0.41630000  0.00390000  0.19010000  1.0 0.0821925971
H  H138  1  0.19010000  0.41630000  0.00390000  1.0 0.0821925971
H  H139  1  0.80990000  0.91630000  0.49610000  1.0 0.0821925971
H  H140  1  0.08370000  0.99610000  0.69010000  1.0 0.0821925971
H  H141  1  0.91630000  0.49610000  0.80990000  1.0 0.0821925971
H  H142  1  0.49610000  0.80990000  0.91630000  1.0 0.0821925971
H  H143  1  0.69010000  0.08370000  0.99610000  1.0 0.0821925971
H  H144  1  0.99610000  0.69010000  0.08370000  1.0 0.0821925971
H  H145  1  0.99700000  0.34270000  0.38960000  1.0 0.1192682494
H  H146  1  0.38960000  0.99700000  0.34270000  1.0 0.1192682494
H  H147  1  0.34270000  0.38960000  0.99700000  1.0 0.1192682494
H  H148  1  0.49700000  0.15730000  0.61040000  1.0 0.1192682494
H  H149  1  0.61040000  0.49700000  0.15730000  1.0 0.1192682494
H  H150  1  0.15730000  0.61040000  0.49700000  1.0 0.1192682494
H  H151  1  0.84270000  0.11040000  0.00300000  1.0 0.1192682494
H  H152  1  0.88960000  0.50300000  0.65730000  1.0 0.1192682494
H  H153  1  0.11040000  0.00300000  0.84270000  1.0 0.1192682494
H  H154  1  0.00300000  0.84270000  0.11040000  1.0 0.1192682494
H  H155  1  0.65730000  0.88960000  0.50300000  1.0 0.1192682494
H  H156  1  0.50300000  0.65730000  0.88960000  1.0 0.1192682494
H  H157  1  0.99460000  0.35430000  0.46170000  1.0 0.1122048955
H  H158  1  0.46170000  0.99460000  0.35430000  1.0 0.1122048955
H  H159  1  0.35430000  0.46170000  0.99460000  1.0 0.1122048955
H  H160  1  0.49460000  0.14570000  0.53830000  1.0 0.1122048955
H  H161  1  0.53830000  0.49460000  0.14570000  1.0 0.1122048955
H  H162  1  0.14570000  0.53830000  0.49460000  1.0 0.1122048955
H  H163  1  0.85430000  0.03830000  0.00540000  1.0 0.1122048955
H  H164  1  0.96170000  0.50540000  0.64570000  1.0 0.1122048955
H  H165  1  0.03830000  0.00540000  0.85430000  1.0 0.1122048955
H  H166  1  0.00540000  0.85430000  0.03830000  1.0 0.1122048955
H  H167  1  0.64570000  0.96170000  0.50540000  1.0 0.1122048955
H  H168  1  0.50540000  0.64570000  0.96170000  1.0 0.1122048955
H  H169  1  0.58370000  0.36900000  0.62380000  1.0 0.098920901
H  H170  1  0.62380000  0.58370000  0.36900000  1.0 0.098920901
H  H171  1  0.36900000  0.62380000  0.58370000  1.0 0.098920901
H  H172  1  0.08370000  0.13100000  0.37620000  1.0 0.098920901
H  H173  1  0.37620000  0.08370000  0.13100000  1.0 0.098920901
H  H174  1  0.13100000  0.37620000  0.08370000  1.0 0.098920901
H  H175  1  0.86900000  0.87620000  0.41630000  1.0 0.098920901
H  H176  1  0.12380000  0.91630000  0.63100000  1.0 0.098920901
H  H177  1  0.87620000  0.41630000  0.86900000  1.0 0.098920901
H  H178  1  0.41630000  0.86900000  0.87620000  1.0 0.098920901
H  H179  1  0.63100000  0.12380000  0.91630000  1.0 0.098920901
H  H180  1  0.91630000  0.63100000  0.12380000  1.0 0.098920901
H  H181  1  0.57510000  0.39050000  0.55460000  1.0 0.1192682494
H  H182  1  0.55460000  0.57510000  0.39050000  1.0 0.1192682494
H  H183  1  0.39050000  0.55460000  0.57510000  1.0 0.1192682494
H  H184  1  0.07510000  0.10950000  0.44540000  1.0 0.1192682494
H  H185  1  0.44540000  0.07510000  0.10950000  1.0 0.1192682494
H  H186  1  0.10950000  0.44540000  0.07510000  1.0 0.1192682494
H  H187  1  0.89050000  0.94540000  0.42490000  1.0 0.1192682494
H  H188  1  0.05460000  0.92490000  0.60950000  1.0 0.1192682494
H  H189  1  0.94540000  0.42490000  0.89050000  1.0 0.1192682494
H  H190  1  0.42490000  0.89050000  0.94540000  1.0 0.1192682494
H  H191  1  0.60950000  0.05460000  0.92490000  1.0 0.1192682494
H  H192  1  0.92490000  0.60950000  0.05460000  1.0 0.1192682494
H  H193  1  0.14720000  0.19740000  0.29840000  1.0 0.0905582088
H  H194  1  0.29840000  0.14720000  0.19740000  1.0 0.0905582088
H  H195  1  0.19740000  0.29840000  0.14720000  1.0 0.0905582088
H  H196  1  0.64720000  0.30260000  0.70160000  1.0 0.0905582088
H  H197  1  0.70160000  0.64720000  0.30260000  1.0 0.0905582088
H  H198  1  0.30260000  0.70160000  0.64720000  1.0 0.0905582088
H  H199  1  0.69740000  0.20160000  0.85280000  1.0 0.0905582088
H  H200  1  0.79840000  0.35280000  0.80260000  1.0 0.0905582088
H  H201  1  0.20160000  0.85280000  0.69740000  1.0 0.0905582088
H  H202  1  0.85280000  0.69740000  0.20160000  1.0 0.0905582088
H  H203  1  0.80260000  0.79840000  0.35280000  1.0 0.0905582088
H  H204  1  0.35280000  0.80260000  0.79840000  1.0 0.0905582088
H  H205  1  0.17250000  0.26020000  0.26910000  1.0 0.098920901
H  H206  1  0.26910000  0.17250000  0.26020000  1.0 0.098920901
H  H207  1  0.26020000  0.26910000  0.17250000  1.0 0.098920901
H  H208  1  0.67250000  0.23980000  0.73090000  1.0 0.098920901
H  H209  1  0.73090000  0.67250000  0.23980000  1.0 0.098920901
H  H210  1  0.23980000  0.73090000  0.67250000  1.0 0.098920901
H  H211  1  0.76020000  0.23090000  0.82750000  1.0 0.098920901
H  H212  1  0.76910000  0.32750000  0.73980000  1.0 0.098920901
H  H213  1  0.23090000  0.82750000  0.76020000  1.0 0.098920901
H  H214  1  0.82750000  0.76020000  0.23090000  1.0 0.098920901
H  H215  1  0.73980000  0.76910000  0.32750000  1.0 0.098920901
H  H216  1  0.32750000  0.73980000  0.76910000  1.0 0.098920901
H  H217  1  0.10620000  0.25870000  0.30170000  1.0 0.1192682494
H  H218  1  0.30170000  0.10620000  0.25870000  1.0 0.1192682494
H  H219  1  0.25870000  0.30170000  0.10620000  1.0 0.1192682494
H  H220  1  0.60620000  0.24130000  0.69830000  1.0 0.1192682494
H  H221  1  0.69830000  0.60620000  0.24130000  1.0 0.1192682494
H  H222  1  0.24130000  0.69830000  0.60620000  1.0 0.1192682494
H  H223  1  0.75870000  0.19830000  0.89380000  1.0 0.1192682494
H  H224  1  0.80170000  0.39380000  0.74130000  1.0 0.1192682494
H  H225  1  0.19830000  0.89380000  0.75870000  1.0 0.1192682494
H  H226  1  0.89380000  0.75870000  0.19830000  1.0 0.1192682494
H  H227  1  0.74130000  0.80170000  0.39380000  1.0 0.1192682494
H  H228  1  0.39380000  0.74130000  0.80170000  1.0 0.1192682494
H  H229  1  0.46560000  0.19580000  0.71620000  1.0 0.1338296282
H  H230  1  0.71620000  0.46560000  0.19580000  1.0 0.1338296282
H  H231  1  0.19580000  0.71620000  0.46560000  1.0 0.1338296282
H  H232  1  0.96560000  0.30420000  0.28380000  1.0 0.1338296282
H  H233  1  0.28380000  0.96560000  0.30420000  1.0 0.1338296282
H  H234  1  0.30420000  0.28380000  0.96560000  1.0 0.1338296282
H  H235  1  0.69580000  0.78380000  0.53440000  1.0 0.1338296282
H  H236  1  0.21620000  0.03440000  0.80420000  1.0 0.1338296282
H  H237  1  0.78380000  0.53440000  0.69580000  1.0 0.1338296282
H  H238  1  0.53440000  0.69580000  0.78380000  1.0 0.1338296282
H  H239  1  0.80420000  0.21620000  0.03440000  1.0 0.1338296282
H  H240  1  0.03440000  0.80420000  0.21620000  1.0 0.1338296282
H  H241  1  0.43150000  0.24940000  0.75400000  1.0 0.1192682494
H  H242  1  0.75400000  0.43150000  0.24940000  1.0 0.1192682494
H  H243  1  0.24940000  0.75400000  0.43150000  1.0 0.1192682494
H  H244  1  0.93150000  0.25060000  0.24600000  1.0 0.1192682494
H  H245  1  0.24600000  0.93150000  0.25060000  1.0 0.1192682494
H  H246  1  0.25060000  0.24600000  0.93150000  1.0 0.1192682494
H  H247  1  0.74940000  0.74600000  0.56850000  1.0 0.1192682494
H  H248  1  0.25400000  0.06850000  0.75060000  1.0 0.1192682494
H  H249  1  0.74600000  0.56850000  0.74940000  1.0 0.1192682494
H  H250  1  0.56850000  0.74940000  0.74600000  1.0 0.1192682494
H  H251  1  0.75060000  0.25400000  0.06850000  1.0 0.1192682494
H  H252  1  0.06850000  0.75060000  0.25400000  1.0 0.1192682494
H  H253  1  0.49570000  0.26320000  0.72000000  1.0 0.0905582088
H  H254  1  0.72000000  0.49570000  0.26320000  1.0 0.0905582088
H  H255  1  0.26320000  0.72000000  0.49570000  1.0 0.0905582088
H  H256  1  0.99570000  0.23680000  0.28000000  1.0 0.0905582088
H  H257  1  0.28000000  0.99570000  0.23680000  1.0 0.0905582088
H  H258  1  0.23680000  0.28000000  0.99570000  1.0 0.0905582088
H  H259  1  0.76320000  0.78000000  0.50430000  1.0 0.0905582088
H  H260  1  0.22000000  0.00430000  0.73680000  1.0 0.0905582088
H  H261  1  0.78000000  0.50430000  0.76320000  1.0 0.0905582088
H  H262  1  0.50430000  0.76320000  0.78000000  1.0 0.0905582088
H  H263  1  0.73680000  0.22000000  0.00430000  1.0 0.0905582088
H  H264  1  0.00430000  0.73680000  0.22000000  1.0 0.0905582088
C  C1  1  0.18030000  0.32380000  0.37140000  1.0 0.2108495035
C  C2  1  0.37140000  0.18030000  0.32380000  1.0 0.2108495035
C  C3  1  0.32380000  0.37140000  0.18030000  1.0 0.2108495035
C  C4  1  0.68030000  0.17620000  0.62860000  1.0 0.2108495035
C  C5  1  0.62860000  0.68030000  0.17620000  1.0 0.2108495035
C  C6  1  0.17620000  0.62860000  0.68030000  1.0 0.2108495035
C  C7  1  0.82380000  0.12860000  0.81970000  1.0 0.2108495035
C  C8  1  0.87140000  0.31970000  0.67620000  1.0 0.2108495035
C  C9  1  0.12860000  0.81970000  0.82380000  1.0 0.2108495035
C  C10  1  0.81970000  0.82380000  0.12860000  1.0 0.2108495035
C  C11  1  0.67620000  0.87140000  0.31970000  1.0 0.2108495035
C  C12  1  0.31970000  0.67620000  0.87140000  1.0 0.2108495035
C  C13  1  0.40900000  0.32300000  0.66110000  1.0 0.2157481758
C  C14  1  0.66110000  0.40900000  0.32300000  1.0 0.2157481758
C  C15  1  0.32300000  0.66110000  0.40900000  1.0 0.2157481758
C  C16  1  0.90900000  0.17700000  0.33890000  1.0 0.2157481758
C  C17  1  0.33890000  0.90900000  0.17700000  1.0 0.2157481758
C  C18  1  0.17700000  0.33890000  0.90900000  1.0 0.2157481758
C  C19  1  0.82300000  0.83890000  0.59100000  1.0 0.2157481758
C  C20  1  0.16110000  0.09100000  0.67700000  1.0 0.2157481758
C  C21  1  0.83890000  0.59100000  0.82300000  1.0 0.2157481758
C  C22  1  0.59100000  0.82300000  0.83890000  1.0 0.2157481758
C  C23  1  0.67700000  0.16110000  0.09100000  1.0 0.2157481758
C  C24  1  0.09100000  0.67700000  0.16110000  1.0 0.2157481758
C  C25  1  0.22140000  0.33490000  0.42980000  1.0 0.0267860586
C  C26  1  0.42980000  0.22140000  0.33490000  1.0 0.0267860586
C  C27  1  0.33490000  0.42980000  0.22140000  1.0 0.0267860586
C  C28  1  0.72140000  0.16510000  0.57020000  1.0 0.0267860586
C  C29  1  0.57020000  0.72140000  0.16510000  1.0 0.0267860586
C  C30  1  0.16510000  0.57020000  0.72140000  1.0 0.0267860586
C  C31  1  0.83490000  0.07020000  0.77860000  1.0 0.0267860586
C  C32  1  0.92980000  0.27860000  0.66510000  1.0 0.0267860586
C  C33  1  0.07020000  0.77860000  0.83490000  1.0 0.0267860586
C  C34  1  0.77860000  0.83490000  0.07020000  1.0 0.0267860586
C  C35  1  0.66510000  0.92980000  0.27860000  1.0 0.0267860586
C  C36  1  0.27860000  0.66510000  0.92980000  1.0 0.0267860586
C  C37  1  0.35920000  0.33390000  0.60920000  1.0 0.0215188994
C  C38  1  0.60920000  0.35920000  0.33390000  1.0 0.0215188994
C  C39  1  0.33390000  0.60920000  0.35920000  1.0 0.0215188994
C  C40  1  0.85920000  0.16610000  0.39080000  1.0 0.0215188994
C  C41  1  0.39080000  0.85920000  0.16610000  1.0 0.0215188994
C  C42  1  0.16610000  0.39080000  0.85920000  1.0 0.0215188994
C  C43  1  0.83390000  0.89080000  0.64080000  1.0 0.0215188994
C  C44  1  0.10920000  0.14080000  0.66610000  1.0 0.0215188994
C  C45  1  0.89080000  0.64080000  0.83390000  1.0 0.0215188994
C  C46  1  0.64080000  0.83390000  0.89080000  1.0 0.0215188994
C  C47  1  0.66610000  0.10920000  0.14080000  1.0 0.0215188994
C  C48  1  0.14080000  0.66610000  0.10920000  1.0 0.0215188994
C  C49  1  0.18380000  0.32080000  0.49000000  1.0 0.0624471467
C  C50  1  0.49000000  0.18380000  0.32080000  1.0 0.0624471467
C  C51  1  0.32080000  0.49000000  0.18380000  1.0 0.0624471467
C  C52  1  0.68380000  0.17920000  0.51000000  1.0 0.0624471467
C  C53  1  0.51000000  0.68380000  0.17920000  1.0 0.0624471467
C  C54  1  0.17920000  0.51000000  0.68380000  1.0 0.0624471467
C  C55  1  0.82080000  0.01000000  0.81620000  1.0 0.0624471467
C  C56  1  0.99000000  0.31620000  0.67920000  1.0 0.0624471467
C  C57  1  0.01000000  0.81620000  0.82080000  1.0 0.0624471467
C  C58  1  0.81620000  0.82080000  0.01000000  1.0 0.0624471467
C  C59  1  0.67920000  0.99000000  0.31620000  1.0 0.0624471467
C  C60  1  0.31620000  0.67920000  0.99000000  1.0 0.0624471467
C  C61  1  0.39010000  0.33440000  0.54430000  1.0 0.0624471467
C  C62  1  0.54430000  0.39010000  0.33440000  1.0 0.0624471467
C  C63  1  0.33440000  0.54430000  0.39010000  1.0 0.0624471467
C  C64  1  0.89010000  0.16560000  0.45570000  1.0 0.0624471467
C  C65  1  0.45570000  0.89010000  0.16560000  1.0 0.0624471467
C  C66  1  0.16560000  0.45570000  0.89010000  1.0 0.0624471467
C  C67  1  0.83440000  0.95570000  0.60990000  1.0 0.0624471467
C  C68  1  0.04430000  0.10990000  0.66560000  1.0 0.0624471467
C  C69  1  0.95570000  0.60990000  0.83440000  1.0 0.0624471467
C  C70  1  0.60990000  0.83440000  0.95570000  1.0 0.0624471467
C  C71  1  0.66560000  0.04430000  0.10990000  1.0 0.0624471467
C  C72  1  0.10990000  0.66560000  0.04430000  1.0 0.0624471467
C  C73  1  0.11960000  0.35420000  0.48910000  1.0 0.0524364369
C  C74  1  0.48910000  0.11960000  0.35420000  1.0 0.0524364369
C  C75  1  0.35420000  0.48910000  0.11960000  1.0 0.0524364369
C  C76  1  0.61960000  0.14580000  0.51090000  1.0 0.0524364369
C  C77  1  0.51090000  0.61960000  0.14580000  1.0 0.0524364369
C  C78  1  0.14580000  0.51090000  0.61960000  1.0 0.0524364369
C  C79  1  0.85420000  0.01090000  0.88040000  1.0 0.0524364369
C  C80  1  0.98910000  0.38040000  0.64580000  1.0 0.0524364369
C  C81  1  0.01090000  0.88040000  0.85420000  1.0 0.0524364369
C  C82  1  0.88040000  0.85420000  0.01090000  1.0 0.0524364369
C  C83  1  0.64580000  0.98910000  0.38040000  1.0 0.0524364369
C  C84  1  0.38040000  0.64580000  0.98910000  1.0 0.0524364369
C  C85  1  0.44770000  0.37720000  0.54270000  1.0 0.0430815426
C  C86  1  0.54270000  0.44770000  0.37720000  1.0 0.0430815426
C  C87  1  0.37720000  0.54270000  0.44770000  1.0 0.0430815426
C  C88  1  0.94770000  0.12280000  0.45730000  1.0 0.0430815426
C  C89  1  0.45730000  0.94770000  0.12280000  1.0 0.0430815426
C  C90  1  0.12280000  0.45730000  0.94770000  1.0 0.0430815426
C  C91  1  0.87720000  0.95730000  0.55230000  1.0 0.0430815426
C  C92  1  0.04270000  0.05230000  0.62280000  1.0 0.0430815426
C  C93  1  0.95730000  0.55230000  0.87720000  1.0 0.0430815426
C  C94  1  0.55230000  0.87720000  0.95730000  1.0 0.0430815426
C  C95  1  0.62280000  0.04270000  0.05230000  1.0 0.0430815426
C  C96  1  0.05230000  0.62280000  0.04270000  1.0 0.0430815426
C  C97  1  0.08350000  0.33320000  0.43100000  1.0 0.0624471467
C  C98  1  0.43100000  0.08350000  0.33320000  1.0 0.0624471467
C  C99  1  0.33320000  0.43100000  0.08350000  1.0 0.0624471467
C  C100  1  0.58350000  0.16680000  0.56900000  1.0 0.0624471467
C  C101  1  0.56900000  0.58350000  0.16680000  1.0 0.0624471467
C  C102  1  0.16680000  0.56900000  0.58350000  1.0 0.0624471467
C  C103  1  0.83320000  0.06900000  0.91650000  1.0 0.0624471467
C  C104  1  0.93100000  0.41650000  0.66680000  1.0 0.0624471467
C  C105  1  0.06900000  0.91650000  0.83320000  1.0 0.0624471467
C  C106  1  0.91650000  0.83320000  0.06900000  1.0 0.0624471467
C  C107  1  0.66680000  0.93100000  0.41650000  1.0 0.0624471467
C  C108  1  0.41650000  0.66680000  0.93100000  1.0 0.0624471467
C  C109  1  0.49460000  0.35350000  0.59160000  1.0 0.0524364369
C  C110  1  0.59160000  0.49460000  0.35350000  1.0 0.0524364369
C  C111  1  0.35350000  0.59160000  0.49460000  1.0 0.0524364369
C  C112  1  0.99460000  0.14650000  0.40840000  1.0 0.0524364369
C  C113  1  0.40840000  0.99460000  0.14650000  1.0 0.0524364369
C  C114  1  0.14650000  0.40840000  0.99460000  1.0 0.0524364369
C  C115  1  0.85350000  0.90840000  0.50540000  1.0 0.0524364369
C  C116  1  0.09160000  0.00540000  0.64650000  1.0 0.0524364369
C  C117  1  0.90840000  0.50540000  0.85350000  1.0 0.0524364369
C  C118  1  0.50540000  0.85350000  0.90840000  1.0 0.0524364369
C  C119  1  0.64650000  0.09160000  0.00540000  1.0 0.0524364369
C  C120  1  0.00540000  0.64650000  0.09160000  1.0 0.0524364369
C  C121  1  0.01840000  0.36240000  0.42420000  1.0 -0.0798165601
C  C122  1  0.42420000  0.01840000  0.36240000  1.0 -0.0798165601
C  C123  1  0.36240000  0.42420000  0.01840000  1.0 -0.0798165601
C  C124  1  0.51840000  0.13760000  0.57580000  1.0 -0.0798165601
C  C125  1  0.57580000  0.51840000  0.13760000  1.0 -0.0798165601
C  C126  1  0.13760000  0.57580000  0.51840000  1.0 -0.0798165601
C  C127  1  0.86240000  0.07580000  0.98160000  1.0 -0.0798165601
C  C128  1  0.92420000  0.48160000  0.63760000  1.0 -0.0798165601
C  C129  1  0.07580000  0.98160000  0.86240000  1.0 -0.0798165601
C  C130  1  0.98160000  0.86240000  0.07580000  1.0 -0.0798165601
C  C131  1  0.63760000  0.92420000  0.48160000  1.0 -0.0798165601
C  C132  1  0.48160000  0.63760000  0.92420000  1.0 -0.0798165601
C  C133  1  0.55570000  0.39030000  0.59540000  1.0 -0.1135333456
C  C134  1  0.59540000  0.55570000  0.39030000  1.0 -0.1135333456
C  C135  1  0.39030000  0.59540000  0.55570000  1.0 -0.1135333456
C  C136  1  0.05570000  0.10970000  0.40460000  1.0 -0.1135333456
C  C137  1  0.40460000  0.05570000  0.10970000  1.0 -0.1135333456
C  C138  1  0.10970000  0.40460000  0.05570000  1.0 -0.1135333456
C  C139  1  0.89030000  0.90460000  0.44430000  1.0 -0.1135333456
C  C140  1  0.09540000  0.94430000  0.60970000  1.0 -0.1135333456
C  C141  1  0.90460000  0.44430000  0.89030000  1.0 -0.1135333456
C  C142  1  0.44430000  0.89030000  0.90460000  1.0 -0.1135333456
C  C143  1  0.60970000  0.09540000  0.94430000  1.0 -0.1135333456
C  C144  1  0.94430000  0.60970000  0.09540000  1.0 -0.1135333456
C  C145  1  0.14840000  0.24230000  0.30290000  1.0 -0.2761460346
C  C146  1  0.30290000  0.14840000  0.24230000  1.0 -0.2761460346
C  C147  1  0.24230000  0.30290000  0.14840000  1.0 -0.2761460346
C  C148  1  0.64840000  0.25770000  0.69710000  1.0 -0.2761460346
C  C149  1  0.69710000  0.64840000  0.25770000  1.0 -0.2761460346
C  C150  1  0.25770000  0.69710000  0.64840000  1.0 -0.2761460346
C  C151  1  0.74230000  0.19710000  0.85160000  1.0 -0.2761460346
C  C152  1  0.80290000  0.35160000  0.75770000  1.0 -0.2761460346
C  C153  1  0.19710000  0.85160000  0.74230000  1.0 -0.2761460346
C  C154  1  0.85160000  0.74230000  0.19710000  1.0 -0.2761460346
C  C155  1  0.75770000  0.80290000  0.35160000  1.0 -0.2761460346
C  C156  1  0.35160000  0.75770000  0.80290000  1.0 -0.2761460346
C  C157  1  0.45680000  0.24020000  0.71760000  1.0 -0.2175202301
C  C158  1  0.71760000  0.45680000  0.24020000  1.0 -0.2175202301
C  C159  1  0.24020000  0.71760000  0.45680000  1.0 -0.2175202301
C  C160  1  0.95680000  0.25980000  0.28240000  1.0 -0.2175202301
C  C161  1  0.28240000  0.95680000  0.25980000  1.0 -0.2175202301
C  C162  1  0.25980000  0.28240000  0.95680000  1.0 -0.2175202301
C  C163  1  0.74020000  0.78240000  0.54320000  1.0 -0.2175202301
C  C164  1  0.21760000  0.04320000  0.75980000  1.0 -0.2175202301
C  C165  1  0.78240000  0.54320000  0.74020000  1.0 -0.2175202301
C  C166  1  0.54320000  0.74020000  0.78240000  1.0 -0.2175202301
C  C167  1  0.75980000  0.21760000  0.04320000  1.0 -0.2175202301
C  C168  1  0.04320000  0.75980000  0.21760000  1.0 -0.2175202301
O  O1  1  0.17680000  0.25820000  0.36150000  1.0 -0.2035618377
O  O2  1  0.36150000  0.17680000  0.25820000  1.0 -0.2035618377
O  O3  1  0.25820000  0.36150000  0.17680000  1.0 -0.2035618377
O  O4  1  0.67680000  0.24180000  0.63850000  1.0 -0.2035618377
O  O5  1  0.63850000  0.67680000  0.24180000  1.0 -0.2035618377
O  O6  1  0.24180000  0.63850000  0.67680000  1.0 -0.2035618377
O  O7  1  0.75820000  0.13850000  0.82320000  1.0 -0.2035618377
O  O8  1  0.86150000  0.32320000  0.74180000  1.0 -0.2035618377
O  O9  1  0.13850000  0.82320000  0.75820000  1.0 -0.2035618377
O  O10  1  0.82320000  0.75820000  0.13850000  1.0 -0.2035618377
O  O11  1  0.74180000  0.86150000  0.32320000  1.0 -0.2035618377
O  O12  1  0.32320000  0.74180000  0.86150000  1.0 -0.2035618377
O  O13  1  0.42370000  0.25800000  0.66230000  1.0 -0.2175202301
O  O14  1  0.66230000  0.42370000  0.25800000  1.0 -0.2175202301
O  O15  1  0.25800000  0.66230000  0.42370000  1.0 -0.2175202301
O  O16  1  0.92370000  0.24200000  0.33770000  1.0 -0.2175202301
O  O17  1  0.33770000  0.92370000  0.24200000  1.0 -0.2175202301
O  O18  1  0.24200000  0.33770000  0.92370000  1.0 -0.2175202301
O  O19  1  0.75800000  0.83770000  0.57630000  1.0 -0.2175202301
O  O20  1  0.16230000  0.07630000  0.74200000  1.0 -0.2175202301
O  O21  1  0.83770000  0.57630000  0.75800000  1.0 -0.2175202301
O  O22  1  0.57630000  0.75800000  0.83770000  1.0 -0.2175202301
O  O23  1  0.74200000  0.16230000  0.07630000  1.0 -0.2175202301
O  O24  1  0.07630000  0.74200000  0.16230000  1.0 -0.2175202301
O  O25  1  0.24270000  0.39840000  0.43250000  1.0 -0.5821765166
O  O26  1  0.43250000  0.24270000  0.39840000  1.0 -0.5821765166
O  O27  1  0.39840000  0.43250000  0.24270000  1.0 -0.5821765166
O  O28  1  0.74270000  0.10160000  0.56750000  1.0 -0.5821765166
O  O29  1  0.56750000  0.74270000  0.10160000  1.0 -0.5821765166
O  O30  1  0.10160000  0.56750000  0.74270000  1.0 -0.5821765166
O  O31  1  0.89840000  0.06750000  0.75730000  1.0 -0.5821765166
O  O32  1  0.93250000  0.25730000  0.60160000  1.0 -0.5821765166
O  O33  1  0.06750000  0.75730000  0.89840000  1.0 -0.5821765166
O  O34  1  0.75730000  0.89840000  0.06750000  1.0 -0.5821765166
O  O35  1  0.60160000  0.93250000  0.25730000  1.0 -0.5821765166
O  O36  1  0.25730000  0.60160000  0.93250000  1.0 -0.5821765166
O  O37  1  0.32660000  0.39120000  0.61840000  1.0 -0.5244308066
O  O38  1  0.61840000  0.32660000  0.39120000  1.0 -0.5244308066
O  O39  1  0.39120000  0.61840000  0.32660000  1.0 -0.5244308066
O  O40  1  0.82660000  0.10880000  0.38160000  1.0 -0.5244308066
O  O41  1  0.38160000  0.82660000  0.10880000  1.0 -0.5244308066
O  O42  1  0.10880000  0.38160000  0.82660000  1.0 -0.5244308066
O  O43  1  0.89120000  0.88160000  0.67340000  1.0 -0.5244308066
O  O44  1  0.11840000  0.17340000  0.60880000  1.0 -0.5244308066
O  O45  1  0.88160000  0.67340000  0.89120000  1.0 -0.5244308066
O  O46  1  0.67340000  0.89120000  0.88160000  1.0 -0.5244308066
O  O47  1  0.60880000  0.11840000  0.17340000  1.0 -0.5244308066
O  O48  1  0.17340000  0.60880000  0.11840000  1.0 -0.5244308066
O  O49  1  0.21820000  0.34010000  0.54510000  1.0 -0.556239779
O  O50  1  0.54510000  0.21820000  0.34010000  1.0 -0.556239779
O  O51  1  0.34010000  0.54510000  0.21820000  1.0 -0.556239779
O  O52  1  0.71820000  0.15990000  0.45490000  1.0 -0.556239779
O  O53  1  0.45490000  0.71820000  0.15990000  1.0 -0.556239779
O  O54  1  0.15990000  0.45490000  0.71820000  1.0 -0.556239779
O  O55  1  0.84010000  0.95490000  0.78180000  1.0 -0.556239779
O  O56  1  0.04510000  0.28180000  0.65990000  1.0 -0.556239779
O  O57  1  0.95490000  0.78180000  0.84010000  1.0 -0.556239779
O  O58  1  0.78180000  0.84010000  0.95490000  1.0 -0.556239779
O  O59  1  0.65990000  0.04510000  0.28180000  1.0 -0.556239779
O  O60  1  0.28180000  0.65990000  0.04510000  1.0 -0.556239779
O  O61  1  0.34600000  0.35380000  0.49760000  1.0 -0.5386617136
O  O62  1  0.49760000  0.34600000  0.35380000  1.0 -0.5386617136
O  O63  1  0.35380000  0.49760000  0.34600000  1.0 -0.5386617136
O  O64  1  0.84600000  0.14620000  0.50240000  1.0 -0.5386617136
O  O65  1  0.50240000  0.84600000  0.14620000  1.0 -0.5386617136
O  O66  1  0.14620000  0.50240000  0.84600000  1.0 -0.5386617136
O  O67  1  0.85380000  0.00240000  0.65400000  1.0 -0.5386617136
O  O68  1  0.99760000  0.15400000  0.64620000  1.0 -0.5386617136
O  O69  1  0.00240000  0.65400000  0.85380000  1.0 -0.5386617136
O  O70  1  0.65400000  0.85380000  0.00240000  1.0 -0.5386617136
O  O71  1  0.64620000  0.99760000  0.15400000  1.0 -0.5386617136
O  O72  1  0.15400000  0.64620000  0.99760000  1.0 -0.5386617136
O  O73  1  0.08560000  0.34040000  0.54520000  1.0 -0.6064169359
O  O74  1  0.54520000  0.08560000  0.34040000  1.0 -0.6064169359
O  O75  1  0.34040000  0.54520000  0.08560000  1.0 -0.6064169359
O  O76  1  0.58560000  0.15960000  0.45480000  1.0 -0.6064169359
O  O77  1  0.45480000  0.58560000  0.15960000  1.0 -0.6064169359
O  O78  1  0.15960000  0.45480000  0.58560000  1.0 -0.6064169359
O  O79  1  0.84040000  0.95480000  0.91440000  1.0 -0.6064169359
O  O80  1  0.04520000  0.41440000  0.65960000  1.0 -0.6064169359
O  O81  1  0.95480000  0.91440000  0.84040000  1.0 -0.6064169359
O  O82  1  0.91440000  0.84040000  0.95480000  1.0 -0.6064169359
O  O83  1  0.65960000  0.04520000  0.41440000  1.0 -0.6064169359
O  O84  1  0.41440000  0.65960000  0.04520000  1.0 -0.6064169359
O  O85  1  0.47330000  0.37720000  0.48040000  1.0 -0.5904550207
O  O86  1  0.48040000  0.47330000  0.37720000  1.0 -0.5904550207
O  O87  1  0.37720000  0.48040000  0.47330000  1.0 -0.5904550207
O  O88  1  0.97330000  0.12280000  0.51960000  1.0 -0.5904550207
O  O89  1  0.51960000  0.97330000  0.12280000  1.0 -0.5904550207
O  O90  1  0.12280000  0.51960000  0.97330000  1.0 -0.5904550207
O  O91  1  0.87720000  0.01960000  0.52670000  1.0 -0.5904550207
O  O92  1  0.98040000  0.02670000  0.62280000  1.0 -0.5904550207
O  O93  1  0.01960000  0.52670000  0.87720000  1.0 -0.5904550207
O  O94  1  0.52670000  0.87720000  0.01960000  1.0 -0.5904550207
O  O95  1  0.62280000  0.98040000  0.02670000  1.0 -0.5904550207
O  O96  1  0.02670000  0.62280000  0.98040000  1.0 -0.5904550207
O  O97  1  0.11900000  0.35030000  0.37530000  1.0 -0.3263316777
O  O98  1  0.37530000  0.11900000  0.35030000  1.0 -0.3263316777
O  O99  1  0.35030000  0.37530000  0.11900000  1.0 -0.3263316777
O  O100  1  0.61900000  0.14970000  0.62470000  1.0 -0.3263316777
O  O101  1  0.62470000  0.61900000  0.14970000  1.0 -0.3263316777
O  O102  1  0.14970000  0.62470000  0.61900000  1.0 -0.3263316777
O  O103  1  0.85030000  0.12470000  0.88100000  1.0 -0.3263316777
O  O104  1  0.87530000  0.38100000  0.64970000  1.0 -0.3263316777
O  O105  1  0.12470000  0.88100000  0.85030000  1.0 -0.3263316777
O  O106  1  0.88100000  0.85030000  0.12470000  1.0 -0.3263316777
O  O107  1  0.64970000  0.87530000  0.38100000  1.0 -0.3263316777
O  O108  1  0.38100000  0.64970000  0.87530000  1.0 -0.3263316777
O  O109  1  0.46490000  0.35960000  0.65320000  1.0 -0.3638748777
O  O110  1  0.65320000  0.46490000  0.35960000  1.0 -0.3638748777
O  O111  1  0.35960000  0.65320000  0.46490000  1.0 -0.3638748777
O  O112  1  0.96490000  0.14040000  0.34680000  1.0 -0.3638748777
O  O113  1  0.34680000  0.96490000  0.14040000  1.0 -0.3638748777
O  O114  1  0.14040000  0.34680000  0.96490000  1.0 -0.3638748777
O  O115  1  0.85960000  0.84680000  0.53510000  1.0 -0.3638748777
O  O116  1  0.15320000  0.03510000  0.64040000  1.0 -0.3638748777
O  O117  1  0.84680000  0.53510000  0.85960000  1.0 -0.3638748777
O  O118  1  0.53510000  0.85960000  0.84680000  1.0 -0.3638748777
O  O119  1  0.64040000  0.15320000  0.03510000  1.0 -0.3638748777
O  O120  1  0.03510000  0.64040000  0.15320000  1.0 -0.3638748777
O  O121  1  0.02050000  0.42750000  0.41380000  1.0 -0.4016590667
O  O122  1  0.41380000  0.02050000  0.42750000  1.0 -0.4016590667
O  O123  1  0.42750000  0.41380000  0.02050000  1.0 -0.4016590667
O  O124  1  0.52050000  0.07250000  0.58620000  1.0 -0.4016590667
O  O125  1  0.58620000  0.52050000  0.07250000  1.0 -0.4016590667
O  O126  1  0.07250000  0.58620000  0.52050000  1.0 -0.4016590667
O  O127  1  0.92750000  0.08620000  0.97950000  1.0 -0.4016590667
O  O128  1  0.91380000  0.47950000  0.57250000  1.0 -0.4016590667
O  O129  1  0.08620000  0.97950000  0.92750000  1.0 -0.4016590667
O  O130  1  0.97950000  0.92750000  0.08620000  1.0 -0.4016590667
O  O131  1  0.57250000  0.91380000  0.47950000  1.0 -0.4016590667
O  O132  1  0.47950000  0.57250000  0.91380000  1.0 -0.4016590667
O  O133  1  0.54820000  0.45320000  0.61580000  1.0 -0.4230695915
O  O134  1  0.61580000  0.54820000  0.45320000  1.0 -0.4230695915
O  O135  1  0.45320000  0.61580000  0.54820000  1.0 -0.4230695915
O  O136  1  0.04820000  0.04680000  0.38420000  1.0 -0.4230695915
O  O137  1  0.38420000  0.04820000  0.04680000  1.0 -0.4230695915
O  O138  1  0.04680000  0.38420000  0.04820000  1.0 -0.4230695915
O  O139  1  0.95320000  0.88420000  0.45180000  1.0 -0.4230695915
O  O140  1  0.11580000  0.95180000  0.54680000  1.0 -0.4230695915
O  O141  1  0.88420000  0.45180000  0.95320000  1.0 -0.4230695915
O  O142  1  0.45180000  0.95320000  0.88420000  1.0 -0.4230695915
O  O143  1  0.54680000  0.11580000  0.95180000  1.0 -0.4230695915
O  O144  1  0.95180000  0.54680000  0.11580000  1.0 -0.4230695915
O  O145  1  0.05910000  0.56070000  0.31420000  1.0 -0.8315512043
O  O146  1  0.31420000  0.05910000  0.56070000  1.0 -0.8315512043
O  O147  1  0.56070000  0.31420000  0.05910000  1.0 -0.8315512043
O  O148  1  0.55910000  0.93930000  0.68580000  1.0 -0.8315512043
O  O149  1  0.68580000  0.55910000  0.93930000  1.0 -0.8315512043
O  O150  1  0.93930000  0.68580000  0.55910000  1.0 -0.8315512043
O  O151  1  0.06070000  0.18580000  0.94090000  1.0 -0.8315512043
O  O152  1  0.81420000  0.44090000  0.43930000  1.0 -0.8315512043
O  O153  1  0.18580000  0.94090000  0.06070000  1.0 -0.8315512043
O  O154  1  0.94090000  0.06070000  0.18580000  1.0 -0.8315512043
O  O155  1  0.43930000  0.81420000  0.44090000  1.0 -0.8315512043
O  O156  1  0.44090000  0.43930000  0.81420000  1.0 -0.8315512043
O  O157  1  0.99800000  0.43570000  0.25130000  1.0 -0.822168559
O  O158  1  0.25130000  0.99800000  0.43570000  1.0 -0.822168559
O  O159  1  0.43570000  0.25130000  0.99800000  1.0 -0.822168559
O  O160  1  0.49800000  0.06430000  0.74870000  1.0 -0.822168559
O  O161  1  0.74870000  0.49800000  0.06430000  1.0 -0.822168559
O  O162  1  0.06430000  0.74870000  0.49800000  1.0 -0.822168559
O  O163  1  0.93570000  0.24870000  0.00200000  1.0 -0.822168559
O  O164  1  0.75130000  0.50200000  0.56430000  1.0 -0.822168559
O  O165  1  0.24870000  0.00200000  0.93570000  1.0 -0.822168559
O  O166  1  0.00200000  0.93570000  0.24870000  1.0 -0.822168559
O  O167  1  0.56430000  0.75130000  0.50200000  1.0 -0.822168559
O  O168  1  0.50200000  0.56430000  0.75130000  1.0 -0.822168559
O  O169  1  0.92260000  0.60320000  0.26900000  1.0 -0.0012232683
O  O170  1  0.26900000  0.92260000  0.60320000  1.0 -0.0012232683
O  O171  1  0.60320000  0.26900000  0.92260000  1.0 0.0009913389
O  O172  1  0.42260000  0.89680000  0.73100000  1.0 -0.0012232683
O  O173  1  0.73100000  0.42260000  0.89680000  1.0 0.0009913389
O  O174  1  0.89680000  0.73100000  0.42260000  1.0 -0.0012232683
O  O175  1  0.10320000  0.23100000  0.07740000  1.0 -0.0012232683
O  O176  1  0.76900000  0.57740000  0.39680000  1.0 -0.0012232683
O  O177  1  0.23100000  0.07740000  0.10320000  1.0 -0.0012232683
O  O178  1  0.07740000  0.10320000  0.23100000  1.0 -0.0012232683
O  O179  1  0.39680000  0.76900000  0.57740000  1.0 -0.0012232683
O  O180  1  0.57740000  0.39680000  0.76900000  1.0 0.0009913389
O  O181  1  0.13740000  0.39880000  0.22890000  1.0 0.0430815426
O  O182  1  0.22890000  0.13740000  0.39880000  1.0 0.0430815426
O  O183  1  0.39880000  0.22890000  0.13740000  1.0 0.0430815426
O  O184  1  0.63740000  0.10120000  0.77110000  1.0 0.0430815426
O  O185  1  0.77110000  0.63740000  0.10120000  1.0 0.0430815426
O  O186  1  0.10120000  0.77110000  0.63740000  1.0 0.0430815426
O  O187  1  0.89880000  0.27110000  0.86260000  1.0 0.0430815426
O  O188  1  0.72890000  0.36260000  0.60120000  1.0 0.0430815426
O  O189  1  0.27110000  0.86260000  0.89880000  1.0 0.0430815426
O  O190  1  0.86260000  0.89880000  0.27110000  1.0 0.0430815426
O  O191  1  0.60120000  0.72890000  0.36260000  1.0 0.0430815426
O  O192  1  0.36260000  0.60120000  0.72890000  1.0 0.0430815426
O  O193  1  0.84200000  0.55930000  0.29240000  1.0 -0.1184012842
O  O194  1  0.29240000  0.84200000  0.55930000  1.0 -0.1184012842
O  O195  1  0.55930000  0.29240000  0.84200000  1.0 -0.1184012842
O  O196  1  0.34200000  0.94070000  0.70760000  1.0 -0.1184012842
O  O197  1  0.70760000  0.34200000  0.94070000  1.0 -0.1184012842
O  O198  1  0.94070000  0.70760000  0.34200000  1.0 -0.1184012842
O  O199  1  0.05930000  0.20760000  0.15800000  1.0 -0.1184012842
O  O200  1  0.79240000  0.65800000  0.44070000  1.0 -0.1184012842
O  O201  1  0.20760000  0.15800000  0.05930000  1.0 -0.1184012842
O  O202  1  0.15800000  0.05930000  0.20760000  1.0 -0.1184012842
O  O203  1  0.44070000  0.79240000  0.65800000  1.0 -0.1184012842
O  O204  1  0.65800000  0.44070000  0.79240000  1.0 -0.1184012842
O  O205  1  0.15490000  0.15490000  0.15490000  1.0 -0.2175202301
O  O206  1  0.65490000  0.34510000  0.84510000  1.0 -0.2175202301
O  O207  1  0.84510000  0.65490000  0.34510000  1.0 -0.2175202301
O  O208  1  0.34510000  0.84510000  0.65490000  1.0 -0.2175202301
O  O209  1  0.90640000  0.56450000  0.26900000  1.0 0.2828240144
O  O210  1  0.26900000  0.90640000  0.56450000  1.0 0.2828240144
O  O211  1  0.56450000  0.26900000  0.90640000  1.0 0.2828240144
O  O212  1  0.40640000  0.93550000  0.73100000  1.0 0.2828240144
O  O213  1  0.73100000  0.40640000  0.93550000  1.0 0.2828240144
O  O214  1  0.93550000  0.73100000  0.40640000  1.0 0.2828240144
O  O215  1  0.06450000  0.23100000  0.09360000  1.0 0.2828240144
O  O216  1  0.76900000  0.59360000  0.43550000  1.0 0.2828240144
O  O217  1  0.23100000  0.09360000  0.06450000  1.0 0.2828240144
O  O218  1  0.09360000  0.06450000  0.23100000  1.0 0.2828240144
O  O219  1  0.43550000  0.76900000  0.59360000  1.0 0.2828240144
O  O220  1  0.59360000  0.43550000  0.76900000  1.0 0.2828240144
O  O221  1  0.16300000  0.42500000  0.24010000  1.0 -0.0012232683
O  O222  1  0.24010000  0.16300000  0.42500000  1.0 -0.0012232683
O  O223  1  0.42500000  0.24010000  0.16300000  1.0 -0.0012232683
O  O224  1  0.66300000  0.07500000  0.75990000  1.0 -0.0012232683
O  O225  1  0.75990000  0.66300000  0.07500000  1.0 -0.0012232683
O  O226  1  0.07500000  0.75990000  0.66300000  1.0 -0.0012232683
O  O227  1  0.92500000  0.25990000  0.83700000  1.0 -0.0012232683
O  O228  1  0.74010000  0.33700000  0.57500000  1.0 -0.0012232683
O  O229  1  0.25990000  0.83700000  0.92500000  1.0 -0.0012232683
O  O230  1  0.83700000  0.92500000  0.25990000  1.0 -0.0012232683
O  O231  1  0.57500000  0.74010000  0.33700000  1.0 -0.0012232683
O  O232  1  0.33700000  0.57500000  0.74010000  1.0 -0.0012232683
O  O233  1  0.87250000  0.60780000  0.29790000  1.0 0.3875442394
O  O234  1  0.29790000  0.87250000  0.60780000  1.0 0.3875442394
O  O235  1  0.60780000  0.29790000  0.87250000  1.0 0.3875442394
O  O236  1  0.37250000  0.89220000  0.70210000  1.0 0.3875442394
O  O237  1  0.70210000  0.37250000  0.89220000  1.0 0.3875442394
O  O238  1  0.89220000  0.70210000  0.37250000  1.0 0.3875442394
O  O239  1  0.10780000  0.20210000  0.12750000  1.0 0.3875442394
O  O240  1  0.79790000  0.62750000  0.39220000  1.0 0.3875442394
O  O241  1  0.20210000  0.12750000  0.10780000  1.0 0.3875442394
O  O242  1  0.12750000  0.10780000  0.20210000  1.0 0.3875442394
O  O243  1  0.39220000  0.79790000  0.62750000  1.0 0.3875442394
O  O244  1  0.62750000  0.39220000  0.79790000  1.0 0.3875442394
