# DDEC6 charges by PACMAN v1.1 (https://github.com/mtap-research/PACMAN-charge/)
data_NOFQAB_ASR_pacman
_symmetry_space_group_name_H-M   'P 1'
_cell_length_a   39.34660000
_cell_length_b   39.34660000
_cell_length_c   39.34660000
_cell_angle_alpha   120.97400000
_cell_angle_beta   120.97400000
_cell_angle_gamma   88.32040000
_symmetry_Int_Tables_number   1
_chemical_formula_structural   Zn2C28N8Cl5
_chemical_formula_sum   'Zn64 C896 N256 Cl160'
_cell_volume   42419.51329640
_cell_formula_units_Z   32
loop_
 _symmetry_equiv_pos_site_id
 _symmetry_equiv_pos_as_xyz
  1  'x, y, z'
loop_
 _atom_site_type_symbol
 _atom_site_label
 _atom_site_symmetry_multiplicity
 _atom_site_fract_x
 _atom_site_fract_y
 _atom_site_fract_z
 _atom_site_occupancy
 _atom_site_charge
Zn  Zn1  1  0.76220000  0.65470000  0.74110000  1.0 0.7092851603
Zn  Zn2  1  0.65470000  0.91360000  0.89250000  1.0 0.7092851603
Zn  Zn3  1  0.02110000  0.76220000  0.10750000  1.0 0.7092851603
Zn  Zn4  1  0.97890000  0.08640000  0.74110000  1.0 0.7092851603
Zn  Zn5  1  0.91360000  0.02110000  0.25890000  1.0 0.7092851603
Zn  Zn6  1  0.23780000  0.97890000  0.89250000  1.0 0.7092851603
Zn  Zn7  1  0.08640000  0.34530000  0.10750000  1.0 0.7092851603
Zn  Zn8  1  0.34530000  0.23780000  0.25890000  1.0 0.7092851603
Zn  Zn9  1  0.23780000  0.34530000  0.25890000  1.0 0.7092851603
Zn  Zn10  1  0.34530000  0.08640000  0.10750000  1.0 0.7092851603
Zn  Zn11  1  0.97890000  0.23780000  0.89250000  1.0 0.7092851603
Zn  Zn12  1  0.02110000  0.91360000  0.25890000  1.0 0.7092851603
Zn  Zn13  1  0.08640000  0.97890000  0.74110000  1.0 0.7092851603
Zn  Zn14  1  0.76220000  0.02110000  0.10750000  1.0 0.7092851603
Zn  Zn15  1  0.91360000  0.65470000  0.89250000  1.0 0.7092851603
Zn  Zn16  1  0.65470000  0.76220000  0.74110000  1.0 0.7092851603
Zn  Zn17  1  0.79680000  0.54960000  0.60120000  1.0 0.7092851603
Zn  Zn18  1  0.54960000  0.94840000  0.75280000  1.0 0.7092851603
Zn  Zn19  1  0.19560000  0.79680000  0.24720000  1.0 0.7092851603
Zn  Zn20  1  0.80440000  0.05160000  0.60120000  1.0 0.7092851603
Zn  Zn21  1  0.94840000  0.19560000  0.39880000  1.0 0.7092851603
Zn  Zn22  1  0.20320000  0.80440000  0.75280000  1.0 0.7092851603
Zn  Zn23  1  0.05160000  0.45040000  0.24720000  1.0 0.7092851603
Zn  Zn24  1  0.45040000  0.20320000  0.39880000  1.0 0.7092851603
Zn  Zn25  1  0.20320000  0.45040000  0.39880000  1.0 0.7092851603
Zn  Zn26  1  0.45040000  0.05160000  0.24720000  1.0 0.7092851603
Zn  Zn27  1  0.80440000  0.20320000  0.75280000  1.0 0.7092851603
Zn  Zn28  1  0.19560000  0.94840000  0.39880000  1.0 0.7092851603
Zn  Zn29  1  0.05160000  0.80440000  0.60120000  1.0 0.7092851603
Zn  Zn30  1  0.79680000  0.19560000  0.24720000  1.0 0.7092851603
Zn  Zn31  1  0.94840000  0.54960000  0.75280000  1.0 0.7092851603
Zn  Zn32  1  0.54960000  0.79680000  0.60120000  1.0 0.7092851603
Zn  Zn33  1  0.62390000  0.51750000  0.54600000  1.0 0.7290511108
Zn  Zn34  1  0.51750000  0.97150000  0.89360000  1.0 0.7290511108
Zn  Zn35  1  0.07790000  0.62390000  0.10640000  1.0 0.7290511108
Zn  Zn36  1  0.92210000  0.02850000  0.54600000  1.0 0.7290511108
Zn  Zn37  1  0.97150000  0.07790000  0.45400000  1.0 0.7290511108
Zn  Zn38  1  0.37610000  0.92210000  0.89360000  1.0 0.7290511108
Zn  Zn39  1  0.02850000  0.48250000  0.10640000  1.0 0.7290511108
Zn  Zn40  1  0.48250000  0.37610000  0.45400000  1.0 0.7290511108
Zn  Zn41  1  0.37610000  0.48250000  0.45400000  1.0 0.7290511108
Zn  Zn42  1  0.48250000  0.02850000  0.10640000  1.0 0.7290511108
Zn  Zn43  1  0.92210000  0.37610000  0.89360000  1.0 0.7290511108
Zn  Zn44  1  0.07790000  0.97150000  0.45400000  1.0 0.7290511108
Zn  Zn45  1  0.02850000  0.92210000  0.54600000  1.0 0.7290511108
Zn  Zn46  1  0.62390000  0.07790000  0.10640000  1.0 0.7290511108
Zn  Zn47  1  0.97150000  0.51750000  0.89360000  1.0 0.7290511108
Zn  Zn48  1  0.51750000  0.62390000  0.54600000  1.0 0.7290511108
Zn  Zn49  1  0.87160000  0.52160000  0.49700000  1.0 0.7290511108
Zn  Zn50  1  0.52160000  0.02460000  0.65000000  1.0 0.7290511108
Zn  Zn51  1  0.37460000  0.87160000  0.35000000  1.0 0.7226963691
Zn  Zn52  1  0.62540000  0.97540000  0.49700000  1.0 0.7290511108
Zn  Zn53  1  0.02460000  0.37460000  0.50300000  1.0 0.7226963691
Zn  Zn54  1  0.12840000  0.62540000  0.65000000  1.0 0.7226963691
Zn  Zn55  1  0.97540000  0.47840000  0.35000000  1.0 0.7290511108
Zn  Zn56  1  0.47840000  0.12840000  0.50300000  1.0 0.7226963691
Zn  Zn57  1  0.12840000  0.47840000  0.50300000  1.0 0.7226963691
Zn  Zn58  1  0.47840000  0.97540000  0.35000000  1.0 0.7226963691
Zn  Zn59  1  0.62540000  0.12840000  0.65000000  1.0 0.7226963691
Zn  Zn60  1  0.37460000  0.02460000  0.50300000  1.0 0.7226963691
Zn  Zn61  1  0.97540000  0.62540000  0.49700000  1.0 0.7290511108
Zn  Zn62  1  0.87160000  0.37460000  0.35000000  1.0 0.7226963691
Zn  Zn63  1  0.02460000  0.52160000  0.65000000  1.0 0.7290511108
Zn  Zn64  1  0.52160000  0.87160000  0.49700000  1.0 0.7290511108
C  C1  1  0.83990000  0.65100000  0.81110000  1.0 0.1093062412
C  C2  1  0.65100000  0.83990000  0.81110000  1.0 0.1093062412
C  C3  1  0.02880000  0.83990000  0.18890000  1.0 0.1093062412
C  C4  1  0.97120000  0.16010000  0.81110000  1.0 0.1093062412
C  C5  1  0.83990000  0.02880000  0.18890000  1.0 0.1093062412
C  C6  1  0.16010000  0.97120000  0.81110000  1.0 0.1093062412
C  C7  1  0.16010000  0.34900000  0.18890000  1.0 0.1093062412
C  C8  1  0.34900000  0.16010000  0.18890000  1.0 0.1093062412
C  C9  1  0.79380000  0.67170000  0.83610000  1.0 0.1869374996
C  C10  1  0.67170000  0.83560000  0.87790000  1.0 0.1869374996
C  C11  1  0.95770000  0.79380000  0.12210000  1.0 0.1869374996
C  C12  1  0.04230000  0.16440000  0.83610000  1.0 0.1869374996
C  C13  1  0.83560000  0.95770000  0.16390000  1.0 0.1869374996
C  C14  1  0.20620000  0.04230000  0.87790000  1.0 0.1869374996
C  C15  1  0.16440000  0.32830000  0.12210000  1.0 0.1869374996
C  C16  1  0.32830000  0.20620000  0.16390000  1.0 0.1869374996
C  C17  1  0.20620000  0.32830000  0.16390000  1.0 0.1869374996
C  C18  1  0.32830000  0.16440000  0.12210000  1.0 0.1869374996
C  C19  1  0.04230000  0.20620000  0.87790000  1.0 0.1869374996
C  C20  1  0.95770000  0.83560000  0.16390000  1.0 0.1869374996
C  C21  1  0.16440000  0.04230000  0.83610000  1.0 0.1869374996
C  C22  1  0.79380000  0.95770000  0.12210000  1.0 0.1869374996
C  C23  1  0.83560000  0.67170000  0.87790000  1.0 0.1869374996
C  C24  1  0.67170000  0.79380000  0.83610000  1.0 0.1869374996
C  C25  1  0.76440000  0.68400000  0.84700000  1.0 -0.1394068533
C  C26  1  0.68400000  0.83700000  0.91960000  1.0 -0.1394068533
C  C27  1  0.91740000  0.76440000  0.08040000  1.0 -0.1394068533
C  C28  1  0.08260000  0.16300000  0.84700000  1.0 -0.1394068533
C  C29  1  0.83700000  0.91740000  0.15300000  1.0 -0.1394068533
C  C30  1  0.23560000  0.08260000  0.91960000  1.0 -0.1394068533
C  C31  1  0.16300000  0.31600000  0.08040000  1.0 -0.1394068533
C  C32  1  0.31600000  0.23560000  0.15300000  1.0 -0.1394068533
C  C33  1  0.23560000  0.31600000  0.15300000  1.0 -0.1394068533
C  C34  1  0.31600000  0.16300000  0.08040000  1.0 -0.1394068533
C  C35  1  0.08260000  0.23560000  0.91960000  1.0 -0.1394068533
C  C36  1  0.91740000  0.83700000  0.15300000  1.0 -0.1394068533
C  C37  1  0.16300000  0.08260000  0.84700000  1.0 -0.1394068533
C  C38  1  0.76440000  0.91740000  0.08040000  1.0 -0.1394068533
C  C39  1  0.83700000  0.68400000  0.91960000  1.0 -0.1394068533
C  C40  1  0.68400000  0.76440000  0.84700000  1.0 -0.1394068533
C  C41  1  0.76990000  0.68420000  0.88530000  1.0 0.0593576001
C  C42  1  0.68420000  0.79890000  0.91430000  1.0 0.0500011196
C  C43  1  0.88460000  0.76990000  0.08570000  1.0 0.0500011196
C  C44  1  0.11540000  0.20110000  0.88530000  1.0 0.0500011196
C  C45  1  0.79890000  0.88460000  0.11470000  1.0 0.0593576001
C  C46  1  0.23010000  0.11540000  0.91430000  1.0 0.0500011196
C  C47  1  0.20110000  0.31580000  0.08570000  1.0 0.0500011196
C  C48  1  0.31580000  0.23010000  0.11470000  1.0 0.0500011196
C  C49  1  0.23010000  0.31580000  0.11470000  1.0 0.0500011196
C  C50  1  0.31580000  0.20110000  0.08570000  1.0 0.0593576001
C  C51  1  0.11540000  0.23010000  0.91430000  1.0 0.0500011196
C  C52  1  0.88460000  0.79890000  0.11470000  1.0 0.0593576001
C  C53  1  0.20110000  0.11540000  0.88530000  1.0 0.0500011196
C  C54  1  0.76990000  0.88460000  0.08570000  1.0 0.0500011196
C  C55  1  0.79890000  0.68420000  0.91430000  1.0 0.0500011196
C  C56  1  0.68420000  0.76990000  0.88530000  1.0 0.0593576001
C  C57  1  0.68440000  0.59260000  0.64900000  1.0 0.0500011196
C  C58  1  0.59260000  0.94360000  0.90820000  1.0 0.0439037344
C  C59  1  0.03540000  0.68440000  0.09180000  1.0 0.0500011196
C  C60  1  0.96460000  0.05640000  0.64900000  1.0 0.0500011196
C  C61  1  0.94360000  0.03540000  0.35100000  1.0 0.0500011196
C  C62  1  0.31560000  0.96460000  0.90820000  1.0 0.0500011196
C  C63  1  0.05640000  0.40740000  0.09180000  1.0 0.0439037344
C  C64  1  0.40740000  0.31560000  0.35100000  1.0 0.0439037344
C  C65  1  0.31560000  0.40740000  0.35100000  1.0 0.0500011196
C  C66  1  0.40740000  0.05640000  0.09180000  1.0 0.0500011196
C  C67  1  0.96460000  0.31560000  0.90820000  1.0 0.0500011196
C  C68  1  0.03540000  0.94360000  0.35100000  1.0 0.0500011196
C  C69  1  0.05640000  0.96460000  0.64900000  1.0 0.0500011196
C  C70  1  0.68440000  0.03540000  0.09180000  1.0 0.0500011196
C  C71  1  0.94360000  0.59260000  0.90820000  1.0 0.0500011196
C  C72  1  0.59260000  0.68440000  0.64900000  1.0 0.0439037344
C  C73  1  0.70250000  0.57450000  0.69340000  1.0 0.1685649048
C  C74  1  0.57450000  0.88110000  0.87200000  1.0 0.1685649048
C  C75  1  0.00910000  0.70250000  0.12800000  1.0 0.1685649048
C  C76  1  0.99090000  0.11890000  0.69340000  1.0 0.1685649048
C  C77  1  0.88110000  0.00910000  0.30660000  1.0 0.1685649048
C  C78  1  0.29750000  0.99090000  0.87200000  1.0 0.1685649048
C  C79  1  0.11890000  0.42550000  0.12800000  1.0 0.1685649048
C  C80  1  0.42550000  0.29750000  0.30660000  1.0 0.1685649048
C  C81  1  0.29750000  0.42550000  0.30660000  1.0 0.1685649048
C  C82  1  0.42550000  0.11890000  0.12800000  1.0 0.1685649048
C  C83  1  0.99090000  0.29750000  0.87200000  1.0 0.1685649048
C  C84  1  0.00910000  0.88110000  0.30660000  1.0 0.1685649048
C  C85  1  0.11890000  0.99090000  0.69340000  1.0 0.1685649048
C  C86  1  0.70250000  0.00910000  0.12800000  1.0 0.1685649048
C  C87  1  0.88110000  0.57450000  0.87200000  1.0 0.1685649048
C  C88  1  0.57450000  0.70250000  0.69340000  1.0 0.1685649048
C  C89  1  0.72080000  0.57170000  0.73250000  1.0 -0.1394068533
C  C90  1  0.57170000  0.83920000  0.85090000  1.0 -0.1394068533
C  C91  1  0.98830000  0.72080000  0.14910000  1.0 -0.1394068533
C  C92  1  0.01170000  0.16080000  0.73250000  1.0 -0.1394068533
C  C93  1  0.83920000  0.98830000  0.26750000  1.0 -0.1394068533
C  C94  1  0.27920000  0.01170000  0.85090000  1.0 -0.1394068533
C  C95  1  0.16080000  0.42830000  0.14910000  1.0 -0.1394068533
C  C96  1  0.42830000  0.27920000  0.26750000  1.0 -0.1394068533
C  C97  1  0.27920000  0.42830000  0.26750000  1.0 -0.1394068533
C  C98  1  0.42830000  0.16080000  0.14910000  1.0 -0.1394068533
C  C99  1  0.01170000  0.27920000  0.85090000  1.0 -0.1394068533
C  C100  1  0.98830000  0.83920000  0.26750000  1.0 -0.1394068533
C  C101  1  0.16080000  0.01170000  0.73250000  1.0 -0.1394068533
C  C102  1  0.72080000  0.98830000  0.14910000  1.0 -0.1394068533
C  C103  1  0.83920000  0.57170000  0.85090000  1.0 -0.1394068533
C  C104  1  0.57170000  0.72080000  0.73250000  1.0 -0.1394068533
C  C105  1  0.70520000  0.53610000  0.72610000  1.0 0.0220876275
C  C106  1  0.53610000  0.81000000  0.83090000  1.0 0.0220876275
C  C107  1  0.97910000  0.70520000  0.16910000  1.0 0.0220876275
C  C108  1  0.02090000  0.19000000  0.72610000  1.0 0.0220876275
C  C109  1  0.81000000  0.97910000  0.27390000  1.0 0.0220876275
C  C110  1  0.29480000  0.02090000  0.83090000  1.0 0.0220876275
C  C111  1  0.19000000  0.46390000  0.16910000  1.0 0.0220876275
C  C112  1  0.46390000  0.29480000  0.27390000  1.0 0.0220876275
C  C113  1  0.29480000  0.46390000  0.27390000  1.0 0.0220876275
C  C114  1  0.46390000  0.19000000  0.16910000  1.0 0.0220876275
C  C115  1  0.02090000  0.29480000  0.83090000  1.0 0.0220876275
C  C116  1  0.97910000  0.81000000  0.27390000  1.0 0.0220876275
C  C117  1  0.19000000  0.02090000  0.72610000  1.0 0.0220876275
C  C118  1  0.70520000  0.97910000  0.16910000  1.0 0.0220876275
C  C119  1  0.81000000  0.53610000  0.83090000  1.0 0.0220876275
C  C120  1  0.53610000  0.70520000  0.72610000  1.0 0.0220876275
C  C121  1  0.67100000  0.50320000  0.68040000  1.0 0.1409648358
C  C122  1  0.50320000  0.82280000  0.83220000  1.0 0.1409648358
C  C123  1  0.99060000  0.67100000  0.16780000  1.0 0.1409648358
C  C124  1  0.00940000  0.17720000  0.68040000  1.0 0.1409648358
C  C125  1  0.82280000  0.99060000  0.31960000  1.0 0.1409648358
C  C126  1  0.32900000  0.00940000  0.83220000  1.0 0.1409648358
C  C127  1  0.17720000  0.49680000  0.16780000  1.0 0.1409648358
C  C128  1  0.49680000  0.32900000  0.31960000  1.0 0.1409648358
C  C129  1  0.32900000  0.49680000  0.31960000  1.0 0.1409648358
C  C130  1  0.49680000  0.17720000  0.16780000  1.0 0.1409648358
C  C131  1  0.00940000  0.32900000  0.83220000  1.0 0.1409648358
C  C132  1  0.99060000  0.82280000  0.31960000  1.0 0.1409648358
C  C133  1  0.17720000  0.00940000  0.68040000  1.0 0.1409648358
C  C134  1  0.67100000  0.99060000  0.16780000  1.0 0.1409648358
C  C135  1  0.82280000  0.50320000  0.83220000  1.0 0.1409648358
C  C136  1  0.50320000  0.67100000  0.68040000  1.0 0.1409648358
C  C137  1  0.65260000  0.50600000  0.64120000  1.0 -0.1608171474
C  C138  1  0.50600000  0.86480000  0.85340000  1.0 -0.1608171474
C  C139  1  0.01140000  0.65260000  0.14660000  1.0 -0.1608171474
C  C140  1  0.98860000  0.13520000  0.64120000  1.0 -0.1608171474
C  C141  1  0.86480000  0.01140000  0.35880000  1.0 -0.1608171474
C  C142  1  0.34740000  0.98860000  0.85340000  1.0 -0.1608171474
C  C143  1  0.13520000  0.49400000  0.14660000  1.0 -0.1608171474
C  C144  1  0.49400000  0.34740000  0.35880000  1.0 -0.1608171474
C  C145  1  0.34740000  0.49400000  0.35880000  1.0 -0.1608171474
C  C146  1  0.49400000  0.13520000  0.14660000  1.0 -0.1608171474
C  C147  1  0.98860000  0.34740000  0.85340000  1.0 -0.1608171474
C  C148  1  0.01140000  0.86480000  0.35880000  1.0 -0.1608171474
C  C149  1  0.13520000  0.98860000  0.64120000  1.0 -0.1608171474
C  C150  1  0.65260000  0.01140000  0.14660000  1.0 -0.1608171474
C  C151  1  0.86480000  0.50600000  0.85340000  1.0 -0.1608171474
C  C152  1  0.50600000  0.65260000  0.64120000  1.0 -0.1608171474
C  C153  1  0.66830000  0.54160000  0.64770000  1.0 0.1607727501
C  C154  1  0.54160000  0.89390000  0.87330000  1.0 0.1607727501
C  C155  1  0.02060000  0.66830000  0.12670000  1.0 0.1607727501
C  C156  1  0.97940000  0.10610000  0.64770000  1.0 0.1607727501
C  C157  1  0.89390000  0.02060000  0.35230000  1.0 0.1607727501
C  C158  1  0.33170000  0.97940000  0.87330000  1.0 0.1607727501
C  C159  1  0.10610000  0.45840000  0.12670000  1.0 0.1607727501
C  C160  1  0.45840000  0.33170000  0.35230000  1.0 0.1607727501
C  C161  1  0.33170000  0.45840000  0.35230000  1.0 0.1607727501
C  C162  1  0.45840000  0.10610000  0.12670000  1.0 0.1607727501
C  C163  1  0.97940000  0.33170000  0.87330000  1.0 0.1607727501
C  C164  1  0.02060000  0.89390000  0.35230000  1.0 0.1607727501
C  C165  1  0.10610000  0.97940000  0.64770000  1.0 0.1607727501
C  C166  1  0.66830000  0.02060000  0.12670000  1.0 0.1607727501
C  C167  1  0.89390000  0.54160000  0.87330000  1.0 0.1607727501
C  C168  1  0.54160000  0.66830000  0.64770000  1.0 0.1607727501
C  C169  1  0.79680000  0.60900000  0.68800000  1.0 0.0500011196
C  C170  1  0.60900000  0.92100000  0.81220000  1.0 0.0500011196
C  C171  1  0.10880000  0.79680000  0.18780000  1.0 0.0500011196
C  C172  1  0.89120000  0.07900000  0.68800000  1.0 0.0500011196
C  C173  1  0.92100000  0.10880000  0.31200000  1.0 0.0500011196
C  C174  1  0.20320000  0.89120000  0.81220000  1.0 0.0500011196
C  C175  1  0.07900000  0.39100000  0.18780000  1.0 0.0500011196
C  C176  1  0.39100000  0.20320000  0.31200000  1.0 0.0500011196
C  C177  1  0.20320000  0.39100000  0.31200000  1.0 0.0500011196
C  C178  1  0.39100000  0.07900000  0.18780000  1.0 0.0500011196
C  C179  1  0.89120000  0.20320000  0.81220000  1.0 0.0500011196
C  C180  1  0.10880000  0.92100000  0.31200000  1.0 0.0500011196
C  C181  1  0.07900000  0.89120000  0.68800000  1.0 0.0500011196
C  C182  1  0.79680000  0.10880000  0.18780000  1.0 0.0500011196
C  C183  1  0.92100000  0.60900000  0.81220000  1.0 0.0500011196
C  C184  1  0.60900000  0.79680000  0.68800000  1.0 0.0500011196
C  C185  1  0.80440000  0.63830000  0.65330000  1.0 0.1607727501
C  C186  1  0.63830000  0.98500000  0.83390000  1.0 0.1607727501
C  C187  1  0.15110000  0.80440000  0.16610000  1.0 0.1607727501
C  C188  1  0.84890000  0.01500000  0.65330000  1.0 0.1607727501
C  C189  1  0.98500000  0.15110000  0.34670000  1.0 0.1607727501
C  C190  1  0.19560000  0.84890000  0.83390000  1.0 0.1607727501
C  C191  1  0.01500000  0.36170000  0.16610000  1.0 0.1607727501
C  C192  1  0.36170000  0.19560000  0.34670000  1.0 0.1607727501
C  C193  1  0.19560000  0.36170000  0.34670000  1.0 0.1607727501
C  C194  1  0.36170000  0.01500000  0.16610000  1.0 0.1607727501
C  C195  1  0.84890000  0.19560000  0.83390000  1.0 0.1607727501
C  C196  1  0.15110000  0.98500000  0.34670000  1.0 0.1607727501
C  C197  1  0.01500000  0.84890000  0.65330000  1.0 0.1607727501
C  C198  1  0.80440000  0.15110000  0.16610000  1.0 0.1607727501
C  C199  1  0.98500000  0.63830000  0.83390000  1.0 0.1607727501
C  C200  1  0.63830000  0.80440000  0.65330000  1.0 0.1607727501
C  C201  1  0.81040000  0.65630000  0.63350000  1.0 -0.1924654012
C  C202  1  0.65630000  0.02280000  0.84590000  1.0 -0.1924654012
C  C203  1  0.17690000  0.81040000  0.15410000  1.0 -0.1924654012
C  C204  1  0.82310000  0.97720000  0.63350000  1.0 -0.1924654012
C  C205  1  0.02280000  0.17690000  0.36650000  1.0 -0.1924654012
C  C206  1  0.18960000  0.82310000  0.84590000  1.0 -0.1924654012
C  C207  1  0.97720000  0.34370000  0.15410000  1.0 -0.1924654012
C  C208  1  0.34370000  0.18960000  0.36650000  1.0 -0.1924654012
C  C209  1  0.18960000  0.34370000  0.36650000  1.0 -0.1924654012
C  C210  1  0.34370000  0.97720000  0.15410000  1.0 -0.1924654012
C  C211  1  0.82310000  0.18960000  0.84590000  1.0 -0.1924654012
C  C212  1  0.17690000  0.02280000  0.36650000  1.0 -0.1924654012
C  C213  1  0.97720000  0.82310000  0.63350000  1.0 -0.1924654012
C  C214  1  0.81040000  0.17690000  0.15410000  1.0 -0.1924654012
C  C215  1  0.02280000  0.65630000  0.84590000  1.0 -0.1924654012
C  C216  1  0.65630000  0.81040000  0.63350000  1.0 -0.1924654012
C  C217  1  0.80510000  0.69500000  0.64550000  1.0 0.1409648358
C  C218  1  0.69500000  0.04950000  0.88990000  1.0 0.1409648358
C  C219  1  0.15960000  0.80510000  0.11010000  1.0 0.1409648358
C  C220  1  0.84040000  0.95050000  0.64550000  1.0 0.1409648358
C  C221  1  0.04950000  0.15960000  0.35450000  1.0 0.1409648358
C  C222  1  0.19490000  0.84040000  0.88990000  1.0 0.1409648358
C  C223  1  0.95050000  0.30500000  0.11010000  1.0 0.1477599179
C  C224  1  0.30500000  0.19490000  0.35450000  1.0 0.1409648358
C  C225  1  0.19490000  0.30500000  0.35450000  1.0 0.1409648358
C  C226  1  0.30500000  0.95050000  0.11010000  1.0 0.1409648358
C  C227  1  0.84040000  0.19490000  0.88990000  1.0 0.1409648358
C  C228  1  0.15960000  0.04950000  0.35450000  1.0 0.1409648358
C  C229  1  0.95050000  0.84040000  0.64550000  1.0 0.1409648358
C  C230  1  0.80510000  0.15960000  0.11010000  1.0 0.1409648358
C  C231  1  0.04950000  0.69500000  0.88990000  1.0 0.1409648358
C  C232  1  0.69500000  0.80510000  0.64550000  1.0 0.1409648358
C  C233  1  0.79410000  0.71590000  0.67760000  1.0 -0.0337246596
C  C234  1  0.71590000  0.03830000  0.92180000  1.0 -0.0337246596
C  C235  1  0.11650000  0.79410000  0.07820000  1.0 -0.0337246596
C  C236  1  0.88350000  0.96170000  0.67760000  1.0 -0.0337246596
C  C237  1  0.03830000  0.11650000  0.32240000  1.0 -0.0337246596
C  C238  1  0.20590000  0.88350000  0.92180000  1.0 -0.0337246596
C  C239  1  0.96170000  0.28410000  0.07820000  1.0 -0.0392303928
C  C240  1  0.28410000  0.20590000  0.32240000  1.0 -0.0337246596
C  C241  1  0.20590000  0.28410000  0.32240000  1.0 -0.0392303928
C  C242  1  0.28410000  0.96170000  0.07820000  1.0 -0.0337246596
C  C243  1  0.88350000  0.20590000  0.92180000  1.0 -0.0337246596
C  C244  1  0.11650000  0.03830000  0.32240000  1.0 -0.0392303928
C  C245  1  0.96170000  0.88350000  0.67760000  1.0 -0.0337246596
C  C246  1  0.79410000  0.11650000  0.07820000  1.0 -0.0392303928
C  C247  1  0.03830000  0.71590000  0.92180000  1.0 -0.0337246596
C  C248  1  0.71590000  0.79410000  0.67760000  1.0 -0.0337246596
C  C249  1  0.78820000  0.69810000  0.69750000  1.0 -0.1229480246
C  C250  1  0.69810000  0.00060000  0.90990000  1.0 -0.1229480246
C  C251  1  0.09070000  0.78820000  0.09010000  1.0 -0.1229480246
C  C252  1  0.90930000  0.99940000  0.69750000  1.0 -0.1229480246
C  C253  1  0.00060000  0.09070000  0.30250000  1.0 -0.1308279062
C  C254  1  0.21180000  0.90930000  0.90990000  1.0 -0.1308279062
C  C255  1  0.99940000  0.30190000  0.09010000  1.0 -0.1229480246
C  C256  1  0.30190000  0.21180000  0.30250000  1.0 -0.1308279062
C  C257  1  0.21180000  0.30190000  0.30250000  1.0 -0.1229480246
C  C258  1  0.30190000  0.99940000  0.09010000  1.0 -0.1308279062
C  C259  1  0.90930000  0.21180000  0.90990000  1.0 -0.1229480246
C  C260  1  0.09070000  0.00060000  0.30250000  1.0 -0.1229480246
C  C261  1  0.99940000  0.90930000  0.69750000  1.0 -0.1229480246
C  C262  1  0.78820000  0.09070000  0.09010000  1.0 -0.1229480246
C  C263  1  0.00060000  0.69810000  0.90990000  1.0 -0.1308279062
C  C264  1  0.69810000  0.78820000  0.69750000  1.0 -0.1229480246
C  C265  1  0.79330000  0.65920000  0.68530000  1.0 0.2133245
C  C266  1  0.65920000  0.97390000  0.86590000  1.0 0.2133245
C  C267  1  0.10800000  0.79330000  0.13410000  1.0 0.2133245
C  C268  1  0.89200000  0.02610000  0.68530000  1.0 0.2133245
C  C269  1  0.97390000  0.10800000  0.31470000  1.0 0.2133245
C  C270  1  0.20670000  0.89200000  0.86590000  1.0 0.2133245
C  C271  1  0.02610000  0.34080000  0.13410000  1.0 0.2133245
C  C272  1  0.34080000  0.20670000  0.31470000  1.0 0.2133245
C  C273  1  0.20670000  0.34080000  0.31470000  1.0 0.2133245
C  C274  1  0.34080000  0.02610000  0.13410000  1.0 0.2133245
C  C275  1  0.89200000  0.20670000  0.86590000  1.0 0.2133245
C  C276  1  0.10800000  0.97390000  0.31470000  1.0 0.2133245
C  C277  1  0.02610000  0.89200000  0.68530000  1.0 0.2133245
C  C278  1  0.79330000  0.10800000  0.13410000  1.0 0.2133245
C  C279  1  0.97390000  0.65920000  0.86590000  1.0 0.2133245
C  C280  1  0.65920000  0.79330000  0.68530000  1.0 0.2133245
C  C281  1  0.55180000  0.44820000  0.50000000  1.0 0.1409648358
C  C282  1  0.44820000  0.94820000  0.89640000  1.0 0.1409648358
C  C283  1  0.05180000  0.55180000  0.10360000  1.0 0.1409648358
C  C284  1  0.94820000  0.05180000  0.50000000  1.0 0.1409648358
C  C285  1  0.44820000  0.55180000  0.50000000  1.0 0.1409648358
C  C286  1  0.55180000  0.05180000  0.10360000  1.0 0.1409648358
C  C287  1  0.94820000  0.44820000  0.89640000  1.0 0.1477599179
C  C288  1  0.05180000  0.94820000  0.50000000  1.0 0.1409648358
C  C289  1  0.60510000  0.42380000  0.50830000  1.0 0.1204337001
C  C290  1  0.42380000  0.91550000  0.81870000  1.0 0.1204337001
C  C291  1  0.09680000  0.60510000  0.18130000  1.0 0.1204337001
C  C292  1  0.90320000  0.08450000  0.50830000  1.0 0.1204337001
C  C293  1  0.91550000  0.09680000  0.49170000  1.0 0.1204337001
C  C294  1  0.39490000  0.90320000  0.81870000  1.0 0.1204337001
C  C295  1  0.08450000  0.57620000  0.18130000  1.0 0.1204337001
C  C296  1  0.57620000  0.39490000  0.49170000  1.0 0.1204337001
C  C297  1  0.39490000  0.57620000  0.49170000  1.0 0.1204337001
C  C298  1  0.57620000  0.08450000  0.18130000  1.0 0.1204337001
C  C299  1  0.90320000  0.39490000  0.81870000  1.0 0.1204337001
C  C300  1  0.09680000  0.91550000  0.49170000  1.0 0.1204337001
C  C301  1  0.08450000  0.90320000  0.50830000  1.0 0.1204337001
C  C302  1  0.60510000  0.09680000  0.18130000  1.0 0.1204337001
C  C303  1  0.91550000  0.42380000  0.81870000  1.0 0.1204337001
C  C304  1  0.42380000  0.60510000  0.50830000  1.0 0.1204337001
C  C305  1  0.64610000  0.42270000  0.52260000  1.0 -0.1608171474
C  C306  1  0.42270000  0.90010000  0.77660000  1.0 -0.1608171474
C  C307  1  0.12350000  0.64610000  0.22340000  1.0 -0.1608171474
C  C308  1  0.87650000  0.09990000  0.52260000  1.0 -0.1608171474
C  C309  1  0.90010000  0.12350000  0.47740000  1.0 -0.1608171474
C  C310  1  0.35390000  0.87650000  0.77660000  1.0 -0.1608171474
C  C311  1  0.09990000  0.57730000  0.22340000  1.0 -0.1608171474
C  C312  1  0.57730000  0.35390000  0.47740000  1.0 -0.1608171474
C  C313  1  0.35390000  0.57730000  0.47740000  1.0 -0.1608171474
C  C314  1  0.57730000  0.09990000  0.22340000  1.0 -0.1608171474
C  C315  1  0.87650000  0.35390000  0.77660000  1.0 -0.1608171474
C  C316  1  0.12350000  0.90010000  0.47740000  1.0 -0.1608171474
C  C317  1  0.09990000  0.87650000  0.52260000  1.0 -0.1608171474
C  C318  1  0.64610000  0.12350000  0.22340000  1.0 -0.1608171474
C  C319  1  0.90010000  0.42270000  0.77660000  1.0 -0.1608171474
C  C320  1  0.42270000  0.64610000  0.52260000  1.0 -0.1608171474
C  C321  1  0.64660000  0.38430000  0.51270000  1.0 0.0593576001
C  C322  1  0.38430000  0.87160000  0.73770000  1.0 0.0593576001
C  C323  1  0.13390000  0.64660000  0.26230000  1.0 0.0593576001
C  C324  1  0.86610000  0.12840000  0.51270000  1.0 0.0593576001
C  C325  1  0.87160000  0.13390000  0.48730000  1.0 0.0593576001
C  C326  1  0.35340000  0.86610000  0.73770000  1.0 0.0593576001
C  C327  1  0.12840000  0.61570000  0.26230000  1.0 0.0593576001
C  C328  1  0.61570000  0.35340000  0.48730000  1.0 0.0593576001
C  C329  1  0.35340000  0.61570000  0.48730000  1.0 0.0593576001
C  C330  1  0.61570000  0.12840000  0.26230000  1.0 0.0593576001
C  C331  1  0.86610000  0.35340000  0.73770000  1.0 0.0593576001
C  C332  1  0.13390000  0.87160000  0.48730000  1.0 0.0593576001
C  C333  1  0.12840000  0.86610000  0.51270000  1.0 0.0593576001
C  C334  1  0.64660000  0.13390000  0.26230000  1.0 0.0593576001
C  C335  1  0.87160000  0.38430000  0.73770000  1.0 0.0593576001
C  C336  1  0.38430000  0.64660000  0.51270000  1.0 0.0593576001
C  C337  1  0.56730000  0.56730000  0.54300000  1.0 0.1980498841
C  C338  1  0.56730000  0.02430000  0.00000000  1.0 0.1980498841
C  C339  1  0.02430000  0.56730000  0.00000000  1.0 0.1980498841
C  C340  1  0.97570000  0.97570000  0.54300000  1.0 0.1980498841
C  C341  1  0.02430000  0.02430000  0.45700000  1.0 0.1980498841
C  C342  1  0.43270000  0.97570000  0.00000000  1.0 0.1980498841
C  C343  1  0.97570000  0.43270000  0.00000000  1.0 0.1980498841
C  C344  1  0.43270000  0.43270000  0.45700000  1.0 0.1980498841
C  C345  1  0.58120000  0.55440000  0.49100000  1.0 0.1607727501
C  C346  1  0.55440000  0.06340000  0.97320000  1.0 0.1607727501
C  C347  1  0.09020000  0.58120000  0.02680000  1.0 0.1607727501
C  C348  1  0.90980000  0.93660000  0.49100000  1.0 0.1607727501
C  C349  1  0.06340000  0.09020000  0.50900000  1.0 0.1607727501
C  C350  1  0.41880000  0.90980000  0.97320000  1.0 0.1607727501
C  C351  1  0.93660000  0.44560000  0.02680000  1.0 0.1607727501
C  C352  1  0.44560000  0.41880000  0.50900000  1.0 0.1607727501
C  C353  1  0.41880000  0.44560000  0.50900000  1.0 0.1607727501
C  C354  1  0.44560000  0.93660000  0.02680000  1.0 0.1607727501
C  C355  1  0.90980000  0.41880000  0.97320000  1.0 0.1607727501
C  C356  1  0.09020000  0.06340000  0.50900000  1.0 0.1607727501
C  C357  1  0.93660000  0.90980000  0.49100000  1.0 0.1607727501
C  C358  1  0.58120000  0.09020000  0.02680000  1.0 0.1607727501
C  C359  1  0.06340000  0.55440000  0.97320000  1.0 0.1607727501
C  C360  1  0.55440000  0.58120000  0.49100000  1.0 0.1607727501
C  C361  1  0.60030000  0.54550000  0.46300000  1.0 -0.1394068533
C  C362  1  0.54550000  0.08250000  0.94520000  1.0 -0.1308279062
C  C363  1  0.13730000  0.60030000  0.05480000  1.0 -0.1489051992
C  C364  1  0.86270000  0.91750000  0.46300000  1.0 -0.1394068533
C  C365  1  0.08250000  0.13730000  0.53700000  1.0 -0.1308279062
C  C366  1  0.39970000  0.86270000  0.94520000  1.0 -0.1308279062
C  C367  1  0.91750000  0.45450000  0.05480000  1.0 -0.1308279062
C  C368  1  0.45450000  0.39970000  0.53700000  1.0 -0.1308279062
C  C369  1  0.39970000  0.45450000  0.53700000  1.0 -0.1308279062
C  C370  1  0.45450000  0.91750000  0.05480000  1.0 -0.1489051992
C  C371  1  0.86270000  0.39970000  0.94520000  1.0 -0.1308279062
C  C372  1  0.13730000  0.08250000  0.53700000  1.0 -0.1308279062
C  C373  1  0.91750000  0.86270000  0.46300000  1.0 -0.1308279062
C  C374  1  0.60030000  0.13730000  0.05480000  1.0 -0.1394068533
C  C375  1  0.08250000  0.54550000  0.94520000  1.0 -0.1308279062
C  C376  1  0.54550000  0.60030000  0.46300000  1.0 -0.1229480246
C  C377  1  0.58350000  0.56000000  0.43350000  1.0 0.0500011196
C  C378  1  0.56000000  0.12650000  0.97650000  1.0 0.0500011196
C  C379  1  0.15000000  0.58350000  0.02350000  1.0 0.0593576001
C  C380  1  0.85000000  0.87350000  0.43350000  1.0 0.0500011196
C  C381  1  0.12650000  0.15000000  0.56650000  1.0 0.0500011196
C  C382  1  0.41650000  0.85000000  0.97650000  1.0 0.0500011196
C  C383  1  0.87350000  0.44000000  0.02350000  1.0 0.0593576001
C  C384  1  0.44000000  0.41650000  0.56650000  1.0 0.0500011196
C  C385  1  0.41650000  0.44000000  0.56650000  1.0 0.0500011196
C  C386  1  0.44000000  0.87350000  0.02350000  1.0 0.0593576001
C  C387  1  0.85000000  0.41650000  0.97650000  1.0 0.0500011196
C  C388  1  0.15000000  0.12650000  0.56650000  1.0 0.0500011196
C  C389  1  0.87350000  0.85000000  0.43350000  1.0 0.0500011196
C  C390  1  0.58350000  0.15000000  0.02350000  1.0 0.0593576001
C  C391  1  0.12650000  0.56000000  0.97650000  1.0 0.0500011196
C  C392  1  0.56000000  0.58350000  0.43350000  1.0 0.0500011196
C  C393  1  0.70730000  0.53360000  0.57090000  1.0 0.1607727501
C  C394  1  0.53360000  0.96270000  0.82630000  1.0 0.1477599179
C  C395  1  0.13640000  0.70730000  0.17370000  1.0 0.1607727501
C  C396  1  0.86360000  0.03730000  0.57090000  1.0 0.1607727501
C  C397  1  0.96270000  0.13640000  0.42910000  1.0 0.1607727501
C  C398  1  0.29270000  0.86360000  0.82630000  1.0 0.1607727501
C  C399  1  0.03730000  0.46640000  0.17370000  1.0 0.1607727501
C  C400  1  0.46640000  0.29270000  0.42910000  1.0 0.1607727501
C  C401  1  0.29270000  0.46640000  0.42910000  1.0 0.1607727501
C  C402  1  0.46640000  0.03730000  0.17370000  1.0 0.1607727501
C  C403  1  0.86360000  0.29270000  0.82630000  1.0 0.1607727501
C  C404  1  0.13640000  0.96270000  0.42910000  1.0 0.1607727501
C  C405  1  0.03730000  0.86360000  0.57090000  1.0 0.1607727501
C  C406  1  0.70730000  0.13640000  0.17370000  1.0 0.1477599179
C  C407  1  0.96270000  0.53360000  0.82630000  1.0 0.1607727501
C  C408  1  0.53360000  0.70730000  0.57090000  1.0 0.1607727501
C  C409  1  0.66910000  0.48330000  0.49720000  1.0 0.1409648358
C  C410  1  0.48330000  0.98610000  0.81420000  1.0 0.1409648358
C  C411  1  0.17190000  0.66910000  0.18580000  1.0 0.1409648358
C  C412  1  0.82810000  0.01390000  0.49720000  1.0 0.1409648358
C  C413  1  0.98610000  0.17190000  0.50280000  1.0 0.1409648358
C  C414  1  0.33090000  0.82810000  0.81420000  1.0 0.1409648358
C  C415  1  0.01390000  0.51670000  0.18580000  1.0 0.1409648358
C  C416  1  0.51670000  0.33090000  0.50280000  1.0 0.1409648358
C  C417  1  0.33090000  0.51670000  0.50280000  1.0 0.1409648358
C  C418  1  0.51670000  0.01390000  0.18580000  1.0 0.1409648358
C  C419  1  0.82810000  0.33090000  0.81420000  1.0 0.1409648358
C  C420  1  0.17190000  0.98610000  0.50280000  1.0 0.1409648358
C  C421  1  0.01390000  0.82810000  0.49720000  1.0 0.1409648358
C  C422  1  0.66910000  0.17190000  0.18580000  1.0 0.1409648358
C  C423  1  0.98610000  0.48330000  0.81420000  1.0 0.1409648358
C  C424  1  0.48330000  0.66910000  0.49720000  1.0 0.1409648358
C  C425  1  0.63580000  0.45210000  0.44970000  1.0 -0.0337246596
C  C426  1  0.45210000  0.00240000  0.81630000  1.0 -0.0337246596
C  C427  1  0.18610000  0.63580000  0.18370000  1.0 -0.0337246596
C  C428  1  0.81390000  0.99760000  0.44970000  1.0 -0.0392303928
C  C429  1  0.00240000  0.18610000  0.55030000  1.0 -0.0392303928
C  C430  1  0.36420000  0.81390000  0.81630000  1.0 -0.0392303928
C  C431  1  0.99760000  0.54790000  0.18370000  1.0 -0.0337246596
C  C432  1  0.54790000  0.36420000  0.55030000  1.0 -0.0392303928
C  C433  1  0.36420000  0.54790000  0.55030000  1.0 -0.0392303928
C  C434  1  0.54790000  0.99760000  0.18370000  1.0 -0.0392303928
C  C435  1  0.81390000  0.36420000  0.81630000  1.0 -0.0392303928
C  C436  1  0.18610000  0.00240000  0.55030000  1.0 -0.0337246596
C  C437  1  0.99760000  0.81390000  0.44970000  1.0 -0.0337246596
C  C438  1  0.63580000  0.18610000  0.18370000  1.0 -0.0392303928
C  C439  1  0.00240000  0.45210000  0.81630000  1.0 -0.0392303928
C  C440  1  0.45210000  0.63580000  0.44970000  1.0 -0.0337246596
C  C441  1  0.64300000  0.42560000  0.41520000  1.0 -0.0392303928
C  C442  1  0.42560000  0.01040000  0.78260000  1.0 -0.0392303928
C  C443  1  0.22780000  0.64300000  0.21740000  1.0 -0.0392303928
C  C444  1  0.77220000  0.98960000  0.41520000  1.0 -0.0392303928
C  C445  1  0.01040000  0.22780000  0.58480000  1.0 -0.0392303928
C  C446  1  0.35700000  0.77220000  0.78260000  1.0 -0.0392303928
C  C447  1  0.98960000  0.57440000  0.21740000  1.0 -0.0392303928
C  C448  1  0.57440000  0.35700000  0.58480000  1.0 -0.0392303928
C  C449  1  0.35700000  0.57440000  0.58480000  1.0 -0.0392303928
C  C450  1  0.57440000  0.98960000  0.21740000  1.0 -0.0392303928
C  C451  1  0.77220000  0.35700000  0.78260000  1.0 -0.0392303928
C  C452  1  0.22780000  0.01040000  0.58480000  1.0 -0.0392303928
C  C453  1  0.98960000  0.77220000  0.41520000  1.0 -0.0392303928
C  C454  1  0.64300000  0.22780000  0.21740000  1.0 -0.0392303928
C  C455  1  0.01040000  0.42560000  0.78260000  1.0 -0.0392303928
C  C456  1  0.42560000  0.64300000  0.41520000  1.0 -0.0392303928
C  C457  1  0.68380000  0.43040000  0.42840000  1.0 0.1409648358
C  C458  1  0.43040000  0.00200000  0.74660000  1.0 0.1409648358
C  C459  1  0.25540000  0.68380000  0.25340000  1.0 0.1409648358
C  C460  1  0.74460000  0.99800000  0.42840000  1.0 0.1409648358
C  C461  1  0.00200000  0.25540000  0.57160000  1.0 0.1409648358
C  C462  1  0.31620000  0.74460000  0.74660000  1.0 0.1409648358
C  C463  1  0.99800000  0.56960000  0.25340000  1.0 0.1409648358
C  C464  1  0.56960000  0.31620000  0.57160000  1.0 0.1409648358
C  C465  1  0.31620000  0.56960000  0.57160000  1.0 0.1409648358
C  C466  1  0.56960000  0.99800000  0.25340000  1.0 0.1409648358
C  C467  1  0.74460000  0.31620000  0.74660000  1.0 0.1409648358
C  C468  1  0.25540000  0.00200000  0.57160000  1.0 0.1409648358
C  C469  1  0.99800000  0.74460000  0.42840000  1.0 0.1409648358
C  C470  1  0.68380000  0.25540000  0.25340000  1.0 0.1409648358
C  C471  1  0.00200000  0.43040000  0.74660000  1.0 0.1409648358
C  C472  1  0.43040000  0.68380000  0.42840000  1.0 0.1409648358
C  C473  1  0.71710000  0.46160000  0.47590000  1.0 -0.1924654012
C  C474  1  0.46160000  0.98570000  0.74450000  1.0 -0.198483867
C  C475  1  0.24120000  0.71710000  0.25550000  1.0 -0.1924654012
C  C476  1  0.75880000  0.01430000  0.47590000  1.0 -0.1924654012
C  C477  1  0.98570000  0.24120000  0.52410000  1.0 -0.198483867
C  C478  1  0.28290000  0.75880000  0.74450000  1.0 -0.198483867
C  C479  1  0.01430000  0.53840000  0.25550000  1.0 -0.198483867
C  C480  1  0.53840000  0.28290000  0.52410000  1.0 -0.198483867
C  C481  1  0.28290000  0.53840000  0.52410000  1.0 -0.198483867
C  C482  1  0.53840000  0.01430000  0.25550000  1.0 -0.198483867
C  C483  1  0.75880000  0.28290000  0.74450000  1.0 -0.198483867
C  C484  1  0.24120000  0.98570000  0.52410000  1.0 -0.198483867
C  C485  1  0.01430000  0.75880000  0.47590000  1.0 -0.198483867
C  C486  1  0.71710000  0.24120000  0.25550000  1.0 -0.1924654012
C  C487  1  0.98570000  0.46160000  0.74450000  1.0 -0.198483867
C  C488  1  0.46160000  0.71710000  0.47590000  1.0 -0.198483867
C  C489  1  0.70980000  0.48810000  0.51030000  1.0 0.1685649048
C  C490  1  0.48810000  0.97780000  0.77830000  1.0 0.1685649048
C  C491  1  0.19950000  0.70980000  0.22170000  1.0 0.1685649048
C  C492  1  0.80050000  0.02220000  0.51030000  1.0 0.1685649048
C  C493  1  0.97780000  0.19950000  0.48970000  1.0 0.1685649048
C  C494  1  0.29020000  0.80050000  0.77830000  1.0 0.1685649048
C  C495  1  0.02220000  0.51190000  0.22170000  1.0 0.1685649048
C  C496  1  0.51190000  0.29020000  0.48970000  1.0 0.1685649048
C  C497  1  0.29020000  0.51190000  0.48970000  1.0 0.1685649048
C  C498  1  0.51190000  0.02220000  0.22170000  1.0 0.1685649048
C  C499  1  0.80050000  0.29020000  0.77830000  1.0 0.1685649048
C  C500  1  0.19950000  0.97780000  0.48970000  1.0 0.1685649048
C  C501  1  0.02220000  0.80050000  0.51030000  1.0 0.1685649048
C  C502  1  0.70980000  0.19950000  0.22170000  1.0 0.1685649048
C  C503  1  0.97780000  0.48810000  0.77830000  1.0 0.1685649048
C  C504  1  0.48810000  0.70980000  0.51030000  1.0 0.1685649048
C  C505  1  0.87340000  0.54920000  0.67580000  1.0 0.2634007817
C  C506  1  0.54920000  0.87340000  0.67580000  1.0 0.2709623685
C  C507  1  0.19760000  0.87340000  0.32420000  1.0 0.2790842896
C  C508  1  0.80240000  0.12660000  0.67580000  1.0 0.2709623685
C  C509  1  0.87340000  0.19760000  0.32420000  1.0 0.2709623685
C  C510  1  0.12660000  0.80240000  0.67580000  1.0 0.2790842896
C  C511  1  0.12660000  0.45080000  0.32420000  1.0 0.2790842896
C  C512  1  0.45080000  0.12660000  0.32420000  1.0 0.2709623685
C  C513  1  0.82540000  0.48310000  0.61830000  1.0 0.1869374996
C  C514  1  0.48310000  0.86480000  0.65770000  1.0 0.1869374996
C  C515  1  0.20710000  0.82540000  0.34230000  1.0 0.1869374996
C  C516  1  0.79290000  0.13520000  0.61830000  1.0 0.1869374996
C  C517  1  0.86480000  0.20710000  0.38170000  1.0 0.1869374996
C  C518  1  0.17460000  0.79290000  0.65770000  1.0 0.1869374996
C  C519  1  0.13520000  0.51690000  0.34230000  1.0 0.1869374996
C  C520  1  0.51690000  0.17460000  0.38170000  1.0 0.1869374996
C  C521  1  0.17460000  0.51690000  0.38170000  1.0 0.1869374996
C  C522  1  0.51690000  0.13520000  0.34230000  1.0 0.1869374996
C  C523  1  0.79290000  0.17460000  0.65770000  1.0 0.1869374996
C  C524  1  0.20710000  0.86480000  0.38170000  1.0 0.1869374996
C  C525  1  0.13520000  0.79290000  0.61830000  1.0 0.1869374996
C  C526  1  0.82540000  0.20710000  0.34230000  1.0 0.1869374996
C  C527  1  0.86480000  0.48310000  0.65770000  1.0 0.1869374996
C  C528  1  0.48310000  0.82540000  0.61830000  1.0 0.1869374996
C  C529  1  0.79330000  0.45180000  0.57810000  1.0 -0.1803896098
C  C530  1  0.45180000  0.87370000  0.65850000  1.0 -0.1803896098
C  C531  1  0.21520000  0.79330000  0.34150000  1.0 -0.1803896098
C  C532  1  0.78480000  0.12630000  0.57810000  1.0 -0.1803896098
C  C533  1  0.87370000  0.21520000  0.42190000  1.0 -0.1803896098
C  C534  1  0.20670000  0.78480000  0.65850000  1.0 -0.1803896098
C  C535  1  0.12630000  0.54820000  0.34150000  1.0 -0.1803896098
C  C536  1  0.54820000  0.20670000  0.42190000  1.0 -0.1803896098
C  C537  1  0.20670000  0.54820000  0.42190000  1.0 -0.1803896098
C  C538  1  0.54820000  0.12630000  0.34150000  1.0 -0.1803896098
C  C539  1  0.78480000  0.20670000  0.65850000  1.0 -0.1803896098
C  C540  1  0.21520000  0.87370000  0.42190000  1.0 -0.1803896098
C  C541  1  0.12630000  0.78480000  0.57810000  1.0 -0.1803896098
C  C542  1  0.79330000  0.21520000  0.34150000  1.0 -0.1803896098
C  C543  1  0.87370000  0.45180000  0.65850000  1.0 -0.1803896098
C  C544  1  0.45180000  0.79330000  0.57810000  1.0 -0.1803896098
C  C545  1  0.80150000  0.42170000  0.58340000  1.0 0.0593576001
C  C546  1  0.42170000  0.83830000  0.62020000  1.0 0.0593576001
C  C547  1  0.21810000  0.80150000  0.37980000  1.0 0.0650704986
C  C548  1  0.78190000  0.16170000  0.58340000  1.0 0.0593576001
C  C549  1  0.83830000  0.21810000  0.41660000  1.0 0.0593576001
C  C550  1  0.19850000  0.78190000  0.62020000  1.0 0.0593576001
C  C551  1  0.16170000  0.57830000  0.37980000  1.0 0.0593576001
C  C552  1  0.57830000  0.19850000  0.41660000  1.0 0.0593576001
C  C553  1  0.19850000  0.57830000  0.41660000  1.0 0.0593576001
C  C554  1  0.57830000  0.16170000  0.37980000  1.0 0.0593576001
C  C555  1  0.78190000  0.19850000  0.62020000  1.0 0.0650704986
C  C556  1  0.21810000  0.83830000  0.41660000  1.0 0.0593576001
C  C557  1  0.16170000  0.78190000  0.58340000  1.0 0.0593576001
C  C558  1  0.80150000  0.21810000  0.37980000  1.0 0.0593576001
C  C559  1  0.83830000  0.42170000  0.62020000  1.0 0.0650704986
C  C560  1  0.42170000  0.80150000  0.58340000  1.0 0.0650704986
C  C561  1  0.83460000  0.53500000  0.54800000  1.0 0.1607727501
C  C562  1  0.53500000  0.98700000  0.70040000  1.0 0.1607727501
C  C563  1  0.28660000  0.83460000  0.29960000  1.0 0.1607727501
C  C564  1  0.71340000  0.01300000  0.54800000  1.0 0.1607727501
C  C565  1  0.98700000  0.28660000  0.45200000  1.0 0.1607727501
C  C566  1  0.16540000  0.71340000  0.70040000  1.0 0.1607727501
C  C567  1  0.01300000  0.46500000  0.29960000  1.0 0.1607727501
C  C568  1  0.46500000  0.16540000  0.45200000  1.0 0.1607727501
C  C569  1  0.16540000  0.46500000  0.45200000  1.0 0.1607727501
C  C570  1  0.46500000  0.01300000  0.29960000  1.0 0.1607727501
C  C571  1  0.71340000  0.16540000  0.70040000  1.0 0.1607727501
C  C572  1  0.28660000  0.98700000  0.45200000  1.0 0.1607727501
C  C573  1  0.01300000  0.71340000  0.54800000  1.0 0.1607727501
C  C574  1  0.83460000  0.28660000  0.29960000  1.0 0.1607727501
C  C575  1  0.98700000  0.53500000  0.70040000  1.0 0.1607727501
C  C576  1  0.53500000  0.83460000  0.54800000  1.0 0.1607727501
C  C577  1  0.77980000  0.55160000  0.52100000  1.0 0.1477599179
C  C578  1  0.55160000  0.03060000  0.77180000  1.0 0.1477599179
C  C579  1  0.25880000  0.77980000  0.22820000  1.0 0.1477599179
C  C580  1  0.74120000  0.96940000  0.52100000  1.0 0.1477599179
C  C581  1  0.03060000  0.25880000  0.47900000  1.0 0.1477599179
C  C582  1  0.22020000  0.74120000  0.77180000  1.0 0.1477599179
C  C583  1  0.96940000  0.44840000  0.22820000  1.0 0.1477599179
C  C584  1  0.44840000  0.22020000  0.47900000  1.0 0.1477599179
C  C585  1  0.22020000  0.44840000  0.47900000  1.0 0.1477599179
C  C586  1  0.44840000  0.96940000  0.22820000  1.0 0.1477599179
C  C587  1  0.74120000  0.22020000  0.77180000  1.0 0.1477599179
C  C588  1  0.25880000  0.03060000  0.47900000  1.0 0.1477599179
C  C589  1  0.96940000  0.74120000  0.52100000  1.0 0.1477599179
C  C590  1  0.77980000  0.25880000  0.22820000  1.0 0.1477599179
C  C591  1  0.03060000  0.55160000  0.77180000  1.0 0.1477599179
C  C592  1  0.55160000  0.77980000  0.52100000  1.0 0.1477599179
C  C593  1  0.74450000  0.56400000  0.50630000  1.0 -0.067644125
C  C594  1  0.56400000  0.05770000  0.81950000  1.0 -0.0767210112
C  C595  1  0.23820000  0.74450000  0.18050000  1.0 -0.0767210112
C  C596  1  0.76180000  0.94230000  0.50630000  1.0 -0.0767210112
C  C597  1  0.05770000  0.23820000  0.49370000  1.0 -0.0767210112
C  C598  1  0.25550000  0.76180000  0.81950000  1.0 -0.0767210112
C  C599  1  0.94230000  0.43600000  0.18050000  1.0 -0.0767210112
C  C600  1  0.43600000  0.25550000  0.49370000  1.0 -0.0767210112
C  C601  1  0.25550000  0.43600000  0.49370000  1.0 -0.0767210112
C  C602  1  0.43600000  0.94230000  0.18050000  1.0 -0.0767210112
C  C603  1  0.76180000  0.25550000  0.81950000  1.0 -0.067644125
C  C604  1  0.23820000  0.05770000  0.49370000  1.0 -0.0767210112
C  C605  1  0.94230000  0.76180000  0.50630000  1.0 -0.0767210112
C  C606  1  0.74450000  0.23820000  0.18050000  1.0 -0.0767210112
C  C607  1  0.05770000  0.56400000  0.81950000  1.0 -0.0767210112
C  C608  1  0.56400000  0.74450000  0.50630000  1.0 -0.0767210112
C  C609  1  0.72870000  0.56850000  0.46860000  1.0 -0.0065580078
C  C610  1  0.56850000  0.09990000  0.83980000  1.0 -0.0065580078
C  C611  1  0.26010000  0.72870000  0.16020000  1.0 -0.0065580078
C  C612  1  0.73990000  0.90010000  0.46860000  1.0 -0.0065580078
C  C613  1  0.09990000  0.26010000  0.53140000  1.0 -0.0065580078
C  C614  1  0.27130000  0.73990000  0.83980000  1.0 -0.0065580078
C  C615  1  0.90010000  0.43150000  0.16020000  1.0 -0.0065580078
C  C616  1  0.43150000  0.27130000  0.53140000  1.0 -0.0065580078
C  C617  1  0.27130000  0.43150000  0.53140000  1.0 -0.0065580078
C  C618  1  0.43150000  0.90010000  0.16020000  1.0 -0.0065580078
C  C619  1  0.73990000  0.27130000  0.83980000  1.0 -0.0065580078
C  C620  1  0.26010000  0.09990000  0.53140000  1.0 -0.0065580078
C  C621  1  0.90010000  0.73990000  0.46860000  1.0 -0.0065580078
C  C622  1  0.72870000  0.26010000  0.16020000  1.0 -0.0065580078
C  C623  1  0.09990000  0.56850000  0.83980000  1.0 -0.0065580078
C  C624  1  0.56850000  0.72870000  0.46860000  1.0 -0.0065580078
C  C625  1  0.74820000  0.56050000  0.44550000  1.0 0.1204337001
C  C626  1  0.56050000  0.11500000  0.81230000  1.0 0.1204337001
C  C627  1  0.30270000  0.74820000  0.18770000  1.0 0.1204337001
C  C628  1  0.69730000  0.88500000  0.44550000  1.0 0.1204337001
C  C629  1  0.11500000  0.30270000  0.55450000  1.0 0.1204337001
C  C630  1  0.25180000  0.69730000  0.81230000  1.0 0.1204337001
C  C631  1  0.88500000  0.43950000  0.18770000  1.0 0.1204337001
C  C632  1  0.43950000  0.25180000  0.55450000  1.0 0.1204337001
C  C633  1  0.25180000  0.43950000  0.55450000  1.0 0.1204337001
C  C634  1  0.43950000  0.88500000  0.18770000  1.0 0.1204337001
C  C635  1  0.69730000  0.25180000  0.81230000  1.0 0.1204337001
C  C636  1  0.30270000  0.11500000  0.55450000  1.0 0.1204337001
C  C637  1  0.88500000  0.69730000  0.44550000  1.0 0.1204337001
C  C638  1  0.74820000  0.30270000  0.18770000  1.0 0.1204337001
C  C639  1  0.11500000  0.56050000  0.81230000  1.0 0.1204337001
C  C640  1  0.56050000  0.74820000  0.44550000  1.0 0.1204337001
C  C641  1  0.78370000  0.54810000  0.46020000  1.0 -0.2087281986
C  C642  1  0.54810000  0.08790000  0.76440000  1.0 -0.2087281986
C  C643  1  0.32350000  0.78370000  0.23560000  1.0 -0.2087281986
C  C644  1  0.67650000  0.91210000  0.46020000  1.0 -0.2087281986
C  C645  1  0.08790000  0.32350000  0.53980000  1.0 -0.2087281986
C  C646  1  0.21630000  0.67650000  0.76440000  1.0 -0.2087281986
C  C647  1  0.91210000  0.45190000  0.23560000  1.0 -0.2087281986
C  C648  1  0.45190000  0.21630000  0.53980000  1.0 -0.2087281986
C  C649  1  0.21630000  0.45190000  0.53980000  1.0 -0.2087281986
C  C650  1  0.45190000  0.91210000  0.23560000  1.0 -0.2087281986
C  C651  1  0.67650000  0.21630000  0.76440000  1.0 -0.2087281986
C  C652  1  0.32350000  0.08790000  0.53980000  1.0 -0.2087281986
C  C653  1  0.91210000  0.67650000  0.46020000  1.0 -0.2087281986
C  C654  1  0.78370000  0.32350000  0.23560000  1.0 -0.2087281986
C  C655  1  0.08790000  0.54810000  0.76440000  1.0 -0.2087281986
C  C656  1  0.54810000  0.78370000  0.46020000  1.0 -0.198483867
C  C657  1  0.79940000  0.54360000  0.49780000  1.0 0.1607727501
C  C658  1  0.54360000  0.04580000  0.74420000  1.0 0.1607727501
C  C659  1  0.30160000  0.79940000  0.25580000  1.0 0.1607727501
C  C660  1  0.69840000  0.95420000  0.49780000  1.0 0.1607727501
C  C661  1  0.04580000  0.30160000  0.50220000  1.0 0.1607727501
C  C662  1  0.20060000  0.69840000  0.74420000  1.0 0.1607727501
C  C663  1  0.95420000  0.45640000  0.25580000  1.0 0.1607727501
C  C664  1  0.45640000  0.20060000  0.50220000  1.0 0.1607727501
C  C665  1  0.20060000  0.45640000  0.50220000  1.0 0.1607727501
C  C666  1  0.45640000  0.95420000  0.25580000  1.0 0.1607727501
C  C667  1  0.69840000  0.20060000  0.74420000  1.0 0.1607727501
C  C668  1  0.30160000  0.04580000  0.50220000  1.0 0.1607727501
C  C669  1  0.95420000  0.69840000  0.49780000  1.0 0.1607727501
C  C670  1  0.79940000  0.30160000  0.25580000  1.0 0.1607727501
C  C671  1  0.04580000  0.54360000  0.74420000  1.0 0.1607727501
C  C672  1  0.54360000  0.79940000  0.49780000  1.0 0.1607727501
C  C673  1  0.70310000  0.70310000  0.73900000  1.0 0.0963695606
C  C674  1  0.70310000  0.96410000  0.00000000  1.0 0.0963695606
C  C675  1  0.96410000  0.70310000  0.00000000  1.0 0.0963695606
C  C676  1  0.03590000  0.03590000  0.73900000  1.0 0.0963695606
C  C677  1  0.96410000  0.96410000  0.26100000  1.0 0.0963695606
C  C678  1  0.29690000  0.03590000  0.00000000  1.0 0.0963695606
C  C679  1  0.03590000  0.29690000  0.00000000  1.0 0.0963695606
C  C680  1  0.29690000  0.29690000  0.26100000  1.0 0.0963695606
C  C681  1  0.77110000  0.74380000  0.79090000  1.0 0.1980498841
C  C682  1  0.74380000  0.95290000  0.97270000  1.0 0.1980498841
C  C683  1  0.98020000  0.77110000  0.02730000  1.0 0.1980498841
C  C684  1  0.01980000  0.04710000  0.79090000  1.0 0.1980498841
C  C685  1  0.95290000  0.98020000  0.20910000  1.0 0.1980498841
C  C686  1  0.22890000  0.01980000  0.97270000  1.0 0.1980498841
C  C687  1  0.04710000  0.25620000  0.02730000  1.0 0.1980498841
C  C688  1  0.25620000  0.22890000  0.20910000  1.0 0.1980498841
C  C689  1  0.22890000  0.25620000  0.20910000  1.0 0.1980498841
C  C690  1  0.25620000  0.04710000  0.02730000  1.0 0.1980498841
C  C691  1  0.01980000  0.22890000  0.97270000  1.0 0.1980498841
C  C692  1  0.98020000  0.95290000  0.20910000  1.0 0.1980498841
C  C693  1  0.04710000  0.01980000  0.79090000  1.0 0.1980498841
C  C694  1  0.77110000  0.98020000  0.02730000  1.0 0.1980498841
C  C695  1  0.95290000  0.74380000  0.97270000  1.0 0.1980498841
C  C696  1  0.74380000  0.77110000  0.79090000  1.0 0.1980498841
C  C697  1  0.81930000  0.76400000  0.82270000  1.0 -0.2087281986
C  C698  1  0.76400000  0.94130000  0.94470000  1.0 -0.2087281986
C  C699  1  0.99660000  0.81930000  0.05530000  1.0 -0.2087281986
C  C700  1  0.00340000  0.05870000  0.82270000  1.0 -0.2087281986
C  C701  1  0.94130000  0.99660000  0.17730000  1.0 -0.2087281986
C  C702  1  0.18070000  0.00340000  0.94470000  1.0 -0.2087281986
C  C703  1  0.05870000  0.23600000  0.05530000  1.0 -0.2087281986
C  C704  1  0.23600000  0.18070000  0.17730000  1.0 -0.2087281986
C  C705  1  0.18070000  0.23600000  0.17730000  1.0 -0.2087281986
C  C706  1  0.23600000  0.05870000  0.05530000  1.0 -0.2087281986
C  C707  1  0.00340000  0.18070000  0.94470000  1.0 -0.2087281986
C  C708  1  0.99660000  0.94130000  0.17730000  1.0 -0.2087281986
C  C709  1  0.05870000  0.00340000  0.82270000  1.0 -0.2087281986
C  C710  1  0.81930000  0.99660000  0.05530000  1.0 -0.2087281986
C  C711  1  0.94130000  0.76400000  0.94470000  1.0 -0.2087281986
C  C712  1  0.76400000  0.81930000  0.82270000  1.0 -0.2087281986
C  C713  1  0.83030000  0.80550000  0.84740000  1.0 0.0788228296
C  C714  1  0.80550000  0.95810000  0.97520000  1.0 0.0788228296
C  C715  1  0.98290000  0.83030000  0.02480000  1.0 0.0788228296
C  C716  1  0.01710000  0.04190000  0.84740000  1.0 0.0788228296
C  C717  1  0.95810000  0.98290000  0.15260000  1.0 0.0788228296
C  C718  1  0.16970000  0.01710000  0.97520000  1.0 0.0788228296
C  C719  1  0.04190000  0.19450000  0.02480000  1.0 0.0788228296
C  C720  1  0.19450000  0.16970000  0.15260000  1.0 0.0788228296
C  C721  1  0.16970000  0.19450000  0.15260000  1.0 0.0788228296
C  C722  1  0.19450000  0.04190000  0.02480000  1.0 0.0788228296
C  C723  1  0.01710000  0.16970000  0.97520000  1.0 0.0788228296
C  C724  1  0.98290000  0.95810000  0.15260000  1.0 0.0788228296
C  C725  1  0.04190000  0.01710000  0.84740000  1.0 0.0788228296
C  C726  1  0.83030000  0.98290000  0.02480000  1.0 0.0788228296
C  C727  1  0.95810000  0.80550000  0.97520000  1.0 0.0788228296
C  C728  1  0.80550000  0.83030000  0.84740000  1.0 0.0788228296
C  C729  1  0.94660000  0.51640000  0.56980000  1.0 0.2790842896
C  C730  1  0.51640000  0.94660000  0.56980000  1.0 0.2872784024
C  C731  1  0.37680000  0.94660000  0.43020000  1.0 0.2872784024
C  C732  1  0.62320000  0.05340000  0.56980000  1.0 0.2790842896
C  C733  1  0.94660000  0.37680000  0.43020000  1.0 0.2872784024
C  C734  1  0.05340000  0.62320000  0.56980000  1.0 0.2872784024
C  C735  1  0.05340000  0.48360000  0.43020000  1.0 0.2872784024
C  C736  1  0.48360000  0.05340000  0.43020000  1.0 0.2872784024
C  C737  1  0.89780000  0.47230000  0.54410000  1.0 0.1204337001
C  C738  1  0.47230000  0.92820000  0.57450000  1.0 0.1204337001
C  C739  1  0.35370000  0.89780000  0.42550000  1.0 0.1204337001
C  C740  1  0.64630000  0.07180000  0.54410000  1.0 0.1204337001
C  C741  1  0.92820000  0.35370000  0.45590000  1.0 0.1204337001
C  C742  1  0.10220000  0.64630000  0.57450000  1.0 0.1204337001
C  C743  1  0.07180000  0.52770000  0.42550000  1.0 0.1204337001
C  C744  1  0.52770000  0.10220000  0.45590000  1.0 0.1204337001
C  C745  1  0.10220000  0.52770000  0.45590000  1.0 0.1204337001
C  C746  1  0.52770000  0.07180000  0.42550000  1.0 0.1204337001
C  C747  1  0.64630000  0.10220000  0.57450000  1.0 0.1204337001
C  C748  1  0.35370000  0.92820000  0.45590000  1.0 0.1204337001
C  C749  1  0.07180000  0.64630000  0.54410000  1.0 0.1204337001
C  C750  1  0.89780000  0.35370000  0.42550000  1.0 0.1204337001
C  C751  1  0.92820000  0.47230000  0.57450000  1.0 0.1204337001
C  C752  1  0.47230000  0.89780000  0.54410000  1.0 0.1204337001
C  C753  1  0.85750000  0.44450000  0.51400000  1.0 -0.1803896098
C  C754  1  0.44450000  0.93050000  0.58700000  1.0 -0.1803896098
C  C755  1  0.34350000  0.85750000  0.41300000  1.0 -0.1803896098
C  C756  1  0.65650000  0.06950000  0.51400000  1.0 -0.1803896098
C  C757  1  0.93050000  0.34350000  0.48600000  1.0 -0.1803896098
C  C758  1  0.14250000  0.65650000  0.58700000  1.0 -0.1803896098
C  C759  1  0.06950000  0.55550000  0.41300000  1.0 -0.1803896098
C  C760  1  0.55550000  0.14250000  0.48600000  1.0 -0.1803896098
C  C761  1  0.14250000  0.55550000  0.48600000  1.0 -0.1803896098
C  C762  1  0.55550000  0.06950000  0.41300000  1.0 -0.1803896098
C  C763  1  0.65650000  0.14250000  0.58700000  1.0 -0.1803896098
C  C764  1  0.34350000  0.93050000  0.48600000  1.0 -0.1803896098
C  C765  1  0.06950000  0.65650000  0.51400000  1.0 -0.1803896098
C  C766  1  0.85750000  0.34350000  0.41300000  1.0 -0.1803896098
C  C767  1  0.93050000  0.44450000  0.58700000  1.0 -0.1803896098
C  C768  1  0.44450000  0.85750000  0.51400000  1.0 -0.1803896098
C  C769  1  0.85370000  0.41670000  0.52380000  1.0 0.0874502387
C  C770  1  0.41670000  0.89290000  0.56300000  1.0 0.0874502387
C  C771  1  0.32990000  0.85370000  0.43700000  1.0 0.0874502387
C  C772  1  0.67010000  0.10710000  0.52380000  1.0 0.0874502387
C  C773  1  0.89290000  0.32990000  0.47620000  1.0 0.0874502387
C  C774  1  0.14630000  0.67010000  0.56300000  1.0 0.0874502387
C  C775  1  0.10710000  0.58330000  0.43700000  1.0 0.0874502387
C  C776  1  0.58330000  0.14630000  0.47620000  1.0 0.0874502387
C  C777  1  0.14630000  0.58330000  0.47620000  1.0 0.0874502387
C  C778  1  0.58330000  0.10710000  0.43700000  1.0 0.0874502387
C  C779  1  0.67010000  0.14630000  0.56300000  1.0 0.0874502387
C  C780  1  0.32990000  0.89290000  0.47620000  1.0 0.0874502387
C  C781  1  0.10710000  0.67010000  0.52380000  1.0 0.0874502387
C  C782  1  0.85370000  0.32990000  0.43700000  1.0 0.0874502387
C  C783  1  0.89290000  0.41670000  0.56300000  1.0 0.0874502387
C  C784  1  0.41670000  0.85370000  0.52380000  1.0 0.0874502387
C  C785  1  0.92780000  0.57570000  0.50350000  1.0 0.3094818744
C  C786  1  0.57570000  0.07220000  0.64790000  1.0 0.3094818744
C  C787  1  0.42430000  0.92780000  0.35210000  1.0 0.3094818744
C  C788  1  0.57570000  0.92780000  0.50350000  1.0 0.3094818744
C  C789  1  0.07220000  0.42430000  0.49650000  1.0 0.3094818744
C  C790  1  0.07220000  0.57570000  0.64790000  1.0 0.3094818744
C  C791  1  0.92780000  0.42430000  0.35210000  1.0 0.3094818744
C  C792  1  0.42430000  0.07220000  0.49650000  1.0 0.3094818744
C  C793  1  0.91130000  0.61590000  0.55140000  1.0 0.1204337001
C  C794  1  0.61590000  0.06450000  0.70460000  1.0 0.1204337001
C  C795  1  0.35990000  0.91130000  0.29540000  1.0 0.1204337001
C  C796  1  0.64010000  0.93550000  0.55140000  1.0 0.1204337001
C  C797  1  0.06450000  0.35990000  0.44860000  1.0 0.1250561511
C  C798  1  0.08870000  0.64010000  0.70460000  1.0 0.1204337001
C  C799  1  0.93550000  0.38410000  0.29540000  1.0 0.1204337001
C  C800  1  0.38410000  0.08870000  0.44860000  1.0 0.1204337001
C  C801  1  0.08870000  0.38410000  0.44860000  1.0 0.1250561511
C  C802  1  0.38410000  0.93550000  0.29540000  1.0 0.1204337001
C  C803  1  0.64010000  0.08870000  0.70460000  1.0 0.1204337001
C  C804  1  0.35990000  0.06450000  0.44860000  1.0 0.1204337001
C  C805  1  0.93550000  0.64010000  0.55140000  1.0 0.1204337001
C  C806  1  0.91130000  0.35990000  0.29540000  1.0 0.1204337001
C  C807  1  0.06450000  0.61590000  0.70460000  1.0 0.1204337001
C  C808  1  0.61590000  0.91130000  0.55140000  1.0 0.1204337001
C  C809  1  0.88510000  0.63350000  0.56780000  1.0 -0.0598647156
C  C810  1  0.63350000  0.06570000  0.74840000  1.0 -0.0598647156
C  C811  1  0.31730000  0.88510000  0.25160000  1.0 -0.0598647156
C  C812  1  0.68270000  0.93430000  0.56780000  1.0 -0.0598647156
C  C813  1  0.06570000  0.31730000  0.43220000  1.0 -0.0598647156
C  C814  1  0.11490000  0.68270000  0.74840000  1.0 -0.0598647156
C  C815  1  0.93430000  0.36650000  0.25160000  1.0 -0.0598647156
C  C816  1  0.36650000  0.11490000  0.43220000  1.0 -0.0598647156
C  C817  1  0.11490000  0.36650000  0.43220000  1.0 -0.0598647156
C  C818  1  0.36650000  0.93430000  0.25160000  1.0 -0.0598647156
C  C819  1  0.68270000  0.11490000  0.74840000  1.0 -0.0598647156
C  C820  1  0.31730000  0.06570000  0.43220000  1.0 -0.0598647156
C  C821  1  0.93430000  0.68270000  0.56780000  1.0 -0.0598647156
C  C822  1  0.88510000  0.31730000  0.25160000  1.0 -0.0598647156
C  C823  1  0.06570000  0.63350000  0.74840000  1.0 -0.0598647156
C  C824  1  0.63350000  0.88510000  0.56780000  1.0 -0.0598647156
C  C825  1  0.89110000  0.67320000  0.58910000  1.0 0.0500011196
C  C826  1  0.67320000  0.08410000  0.78210000  1.0 0.0500011196
C  C827  1  0.30200000  0.89110000  0.21790000  1.0 0.0500011196
C  C828  1  0.69800000  0.91590000  0.58910000  1.0 0.0500011196
C  C829  1  0.08410000  0.30200000  0.41090000  1.0 0.0500011196
C  C830  1  0.10890000  0.69800000  0.78210000  1.0 0.0500011196
C  C831  1  0.91590000  0.32680000  0.21790000  1.0 0.0500011196
C  C832  1  0.32680000  0.10890000  0.41090000  1.0 0.0500011196
C  C833  1  0.10890000  0.32680000  0.41090000  1.0 0.0500011196
C  C834  1  0.32680000  0.91590000  0.21790000  1.0 0.0500011196
C  C835  1  0.69800000  0.10890000  0.78210000  1.0 0.0500011196
C  C836  1  0.30200000  0.08410000  0.41090000  1.0 0.0500011196
C  C837  1  0.91590000  0.69800000  0.58910000  1.0 0.0500011196
C  C838  1  0.89110000  0.30200000  0.21790000  1.0 0.0500011196
C  C839  1  0.08410000  0.67320000  0.78210000  1.0 0.0500011196
C  C840  1  0.67320000  0.89110000  0.58910000  1.0 0.0500011196
C  C841  1  0.85690000  0.44270000  0.41420000  1.0 0.3181489209
C  C842  1  0.44270000  0.02850000  0.58580000  1.0 0.3181489209
C  C843  1  0.44270000  0.85690000  0.41420000  1.0 0.3181489209
C  C844  1  0.55730000  0.97150000  0.41420000  1.0 0.3094818744
C  C845  1  0.02850000  0.44270000  0.58580000  1.0 0.3181489209
C  C846  1  0.14310000  0.55730000  0.58580000  1.0 0.3181489209
C  C847  1  0.97150000  0.55730000  0.41420000  1.0 0.3181489209
C  C848  1  0.55730000  0.14310000  0.58580000  1.0 0.3181489209
C  C849  1  0.84670000  0.48570000  0.39560000  1.0 0.0500011196
C  C850  1  0.48570000  0.09010000  0.63900000  1.0 0.0500011196
C  C851  1  0.45110000  0.84670000  0.36100000  1.0 0.0500011196
C  C852  1  0.54890000  0.90990000  0.39560000  1.0 0.0500011196
C  C853  1  0.09010000  0.45110000  0.60440000  1.0 0.0500011196
C  C854  1  0.15330000  0.54890000  0.63900000  1.0 0.0500011196
C  C855  1  0.90990000  0.51430000  0.36100000  1.0 0.0500011196
C  C856  1  0.51430000  0.15330000  0.60440000  1.0 0.0500011196
C  C857  1  0.15330000  0.51430000  0.60440000  1.0 0.0500011196
C  C858  1  0.51430000  0.90990000  0.36100000  1.0 0.0500011196
C  C859  1  0.54890000  0.15330000  0.63900000  1.0 0.0500011196
C  C860  1  0.45110000  0.09010000  0.60440000  1.0 0.0500011196
C  C861  1  0.90990000  0.54890000  0.39560000  1.0 0.0500011196
C  C862  1  0.84670000  0.45110000  0.36100000  1.0 0.0500011196
C  C863  1  0.09010000  0.48570000  0.63900000  1.0 0.0500011196
C  C864  1  0.48570000  0.84670000  0.39560000  1.0 0.0500011196
C  C865  1  0.83940000  0.51590000  0.38610000  1.0 -0.0528208829
C  C866  1  0.51590000  0.12980000  0.67650000  1.0 -0.0528208829
C  C867  1  0.45330000  0.83940000  0.32350000  1.0 -0.0528208829
C  C868  1  0.54670000  0.87020000  0.38610000  1.0 -0.0528208829
C  C869  1  0.12980000  0.45330000  0.61390000  1.0 -0.0528208829
C  C870  1  0.16060000  0.54670000  0.67650000  1.0 -0.0528208829
C  C871  1  0.87020000  0.48410000  0.32350000  1.0 -0.0528208829
C  C872  1  0.48410000  0.16060000  0.61390000  1.0 -0.0528208829
C  C873  1  0.16060000  0.48410000  0.61390000  1.0 -0.0528208829
C  C874  1  0.48410000  0.87020000  0.32350000  1.0 -0.0528208829
C  C875  1  0.54670000  0.16060000  0.67650000  1.0 -0.0528208829
C  C876  1  0.45330000  0.12980000  0.61390000  1.0 -0.0528208829
C  C877  1  0.87020000  0.54670000  0.38610000  1.0 -0.0598647156
C  C878  1  0.83940000  0.45330000  0.32350000  1.0 -0.0598647156
C  C879  1  0.12980000  0.51590000  0.67650000  1.0 -0.0528208829
C  C880  1  0.51590000  0.83940000  0.38610000  1.0 -0.0598647156
C  C881  1  0.80840000  0.50550000  0.33970000  1.0 -0.0065580078
C  C882  1  0.50550000  0.16580000  0.69710000  1.0 -0.0048064526
C  C883  1  0.46870000  0.80840000  0.30290000  1.0 -0.0065580078
C  C884  1  0.53130000  0.83420000  0.33970000  1.0 -0.0065580078
C  C885  1  0.16580000  0.46870000  0.66030000  1.0 -0.0048064526
C  C886  1  0.19160000  0.53130000  0.69710000  1.0 -0.0048064526
C  C887  1  0.83420000  0.49450000  0.30290000  1.0 -0.0065580078
C  C888  1  0.49450000  0.19160000  0.66030000  1.0 -0.0048064526
C  C889  1  0.19160000  0.49450000  0.66030000  1.0 -0.0048064526
C  C890  1  0.49450000  0.83420000  0.30290000  1.0 -0.0065580078
C  C891  1  0.53130000  0.19160000  0.69710000  1.0 -0.0048064526
C  C892  1  0.46870000  0.16580000  0.66030000  1.0 -0.0048064526
C  C893  1  0.83420000  0.53130000  0.33970000  1.0 -0.0048064526
C  C894  1  0.80840000  0.46870000  0.30290000  1.0 -0.0065580078
C  C895  1  0.16580000  0.50550000  0.69710000  1.0 -0.0048064526
C  C896  1  0.50550000  0.80840000  0.33970000  1.0 -0.0065580078
N  N1  1  0.80260000  0.65860000  0.80180000  1.0 -0.2537290307
N  N2  1  0.65860000  0.85680000  0.85600000  1.0 -0.2574701937
N  N3  1  0.00080000  0.80260000  0.14400000  1.0 -0.2574701937
N  N4  1  0.99920000  0.14320000  0.80180000  1.0 -0.2537290307
N  N5  1  0.85680000  0.00080000  0.19820000  1.0 -0.2537290307
N  N6  1  0.19740000  0.99920000  0.85600000  1.0 -0.2574701937
N  N7  1  0.14320000  0.34140000  0.14400000  1.0 -0.2537290307
N  N8  1  0.34140000  0.19740000  0.19820000  1.0 -0.2574701937
N  N9  1  0.19740000  0.34140000  0.19820000  1.0 -0.2574701937
N  N10  1  0.34140000  0.14320000  0.14400000  1.0 -0.2537290307
N  N11  1  0.99920000  0.19740000  0.85600000  1.0 -0.2574701937
N  N12  1  0.00080000  0.85680000  0.19820000  1.0 -0.2574701937
N  N13  1  0.14320000  0.99920000  0.80180000  1.0 -0.2537290307
N  N14  1  0.80260000  0.00080000  0.14400000  1.0 -0.2574701937
N  N15  1  0.85680000  0.65860000  0.85600000  1.0 -0.2537290307
N  N16  1  0.65860000  0.80260000  0.80180000  1.0 -0.2537290307
N  N17  1  0.71210000  0.60390000  0.69440000  1.0 -0.198483867
N  N18  1  0.60390000  0.90950000  0.89180000  1.0 -0.198483867
N  N19  1  0.01770000  0.71210000  0.10820000  1.0 -0.198483867
N  N20  1  0.98230000  0.09050000  0.69440000  1.0 -0.2087281986
N  N21  1  0.90950000  0.01770000  0.30560000  1.0 -0.198483867
N  N22  1  0.28790000  0.98230000  0.89180000  1.0 -0.198483867
N  N23  1  0.09050000  0.39610000  0.10820000  1.0 -0.198483867
N  N24  1  0.39610000  0.28790000  0.30560000  1.0 -0.2087281986
N  N25  1  0.28790000  0.39610000  0.30560000  1.0 -0.198483867
N  N26  1  0.39610000  0.09050000  0.10820000  1.0 -0.198483867
N  N27  1  0.98230000  0.28790000  0.89180000  1.0 -0.198483867
N  N28  1  0.01770000  0.90950000  0.30560000  1.0 -0.198483867
N  N29  1  0.09050000  0.98230000  0.69440000  1.0 -0.198483867
N  N30  1  0.71210000  0.01770000  0.10820000  1.0 -0.198483867
N  N31  1  0.90950000  0.60390000  0.89180000  1.0 -0.2087281986
N  N32  1  0.60390000  0.71210000  0.69440000  1.0 -0.198483867
N  N33  1  0.65660000  0.55390000  0.61990000  1.0 -0.2673013599
N  N34  1  0.55390000  0.93400000  0.89730000  1.0 -0.2574701937
N  N35  1  0.03670000  0.65660000  0.10270000  1.0 -0.2673013599
N  N36  1  0.96330000  0.06600000  0.61990000  1.0 -0.2673013599
N  N37  1  0.93400000  0.03670000  0.38010000  1.0 -0.2673013599
N  N38  1  0.34340000  0.96330000  0.89730000  1.0 -0.2673013599
N  N39  1  0.06600000  0.44610000  0.10270000  1.0 -0.2673013599
N  N40  1  0.44610000  0.34340000  0.38010000  1.0 -0.2574701937
N  N41  1  0.34340000  0.44610000  0.38010000  1.0 -0.2574701937
N  N42  1  0.44610000  0.06600000  0.10270000  1.0 -0.2673013599
N  N43  1  0.96330000  0.34340000  0.89730000  1.0 -0.2673013599
N  N44  1  0.03670000  0.93400000  0.38010000  1.0 -0.2673013599
N  N45  1  0.06600000  0.96330000  0.61990000  1.0 -0.2673013599
N  N46  1  0.65660000  0.03670000  0.10270000  1.0 -0.2673013599
N  N47  1  0.93400000  0.55390000  0.89730000  1.0 -0.2673013599
N  N48  1  0.55390000  0.65660000  0.61990000  1.0 -0.2673013599
N  N49  1  0.78890000  0.64740000  0.70870000  1.0 -0.2924970017
N  N50  1  0.64740000  0.93870000  0.85850000  1.0 -0.2924970017
N  N51  1  0.08020000  0.78890000  0.14150000  1.0 -0.2924970017
N  N52  1  0.91980000  0.06130000  0.70870000  1.0 -0.2924970017
N  N53  1  0.93870000  0.08020000  0.29130000  1.0 -0.2924970017
N  N54  1  0.21110000  0.91980000  0.85850000  1.0 -0.2924970017
N  N55  1  0.06130000  0.35260000  0.14150000  1.0 -0.2924970017
N  N56  1  0.35260000  0.21110000  0.29130000  1.0 -0.2924970017
N  N57  1  0.21110000  0.35260000  0.29130000  1.0 -0.2924970017
N  N58  1  0.35260000  0.06130000  0.14150000  1.0 -0.2924970017
N  N59  1  0.91980000  0.21110000  0.85850000  1.0 -0.2924970017
N  N60  1  0.08020000  0.93870000  0.29130000  1.0 -0.2924970017
N  N61  1  0.06130000  0.91980000  0.70870000  1.0 -0.2924970017
N  N62  1  0.78890000  0.08020000  0.14150000  1.0 -0.2924970017
N  N63  1  0.93870000  0.64740000  0.85850000  1.0 -0.2924970017
N  N64  1  0.64740000  0.78890000  0.70870000  1.0 -0.2924970017
N  N65  1  0.80360000  0.60580000  0.65620000  1.0 -0.1924654012
N  N66  1  0.60580000  0.94960000  0.80220000  1.0 -0.198483867
N  N67  1  0.14740000  0.80360000  0.19780000  1.0 -0.198483867
N  N68  1  0.85260000  0.05040000  0.65620000  1.0 -0.198483867
N  N69  1  0.94960000  0.14740000  0.34380000  1.0 -0.198483867
N  N70  1  0.19640000  0.85260000  0.80220000  1.0 -0.1924654012
N  N71  1  0.05040000  0.39420000  0.19780000  1.0 -0.198483867
N  N72  1  0.39420000  0.19640000  0.34380000  1.0 -0.198483867
N  N73  1  0.19640000  0.39420000  0.34380000  1.0 -0.198483867
N  N74  1  0.39420000  0.05040000  0.19780000  1.0 -0.198483867
N  N75  1  0.85260000  0.19640000  0.80220000  1.0 -0.198483867
N  N76  1  0.14740000  0.94960000  0.34380000  1.0 -0.198483867
N  N77  1  0.05040000  0.85260000  0.65620000  1.0 -0.1924654012
N  N78  1  0.80360000  0.14740000  0.19780000  1.0 -0.198483867
N  N79  1  0.94960000  0.60580000  0.80220000  1.0 -0.1924654012
N  N80  1  0.60580000  0.80360000  0.65620000  1.0 -0.198483867
N  N81  1  0.59090000  0.45970000  0.51540000  1.0 -0.3109742679
N  N82  1  0.45970000  0.94430000  0.86880000  1.0 -0.3109742679
N  N83  1  0.07550000  0.59090000  0.13120000  1.0 -0.3109742679
N  N84  1  0.92450000  0.05570000  0.51540000  1.0 -0.3109742679
N  N85  1  0.94430000  0.07550000  0.48460000  1.0 -0.3109742679
N  N86  1  0.40910000  0.92450000  0.86880000  1.0 -0.3109742679
N  N87  1  0.05570000  0.54030000  0.13120000  1.0 -0.3109742679
N  N88  1  0.54030000  0.40910000  0.48460000  1.0 -0.3109742679
N  N89  1  0.40910000  0.54030000  0.48460000  1.0 -0.3109742679
N  N90  1  0.54030000  0.05570000  0.13120000  1.0 -0.3109742679
N  N91  1  0.92450000  0.40910000  0.86880000  1.0 -0.3109742679
N  N92  1  0.07550000  0.94430000  0.48460000  1.0 -0.3109742679
N  N93  1  0.05570000  0.92450000  0.51540000  1.0 -0.3109742679
N  N94  1  0.59090000  0.07550000  0.13120000  1.0 -0.3109742679
N  N95  1  0.94430000  0.45970000  0.86880000  1.0 -0.3109742679
N  N96  1  0.45970000  0.59090000  0.51540000  1.0 -0.3109742679
N  N97  1  0.58710000  0.54650000  0.52380000  1.0 -0.3219622322
N  N98  1  0.54650000  0.02270000  0.95940000  1.0 -0.3219622322
N  N99  1  0.06330000  0.58710000  0.04060000  1.0 -0.3109742679
N  N100  1  0.93670000  0.97730000  0.52380000  1.0 -0.3219622322
N  N101  1  0.02270000  0.06330000  0.47620000  1.0 -0.3219622322
N  N102  1  0.41290000  0.93670000  0.95940000  1.0 -0.3219622322
N  N103  1  0.97730000  0.45350000  0.04060000  1.0 -0.3219622322
N  N104  1  0.45350000  0.41290000  0.47620000  1.0 -0.3219622322
N  N105  1  0.41290000  0.45350000  0.47620000  1.0 -0.3219622322
N  N106  1  0.45350000  0.97730000  0.04060000  1.0 -0.3219622322
N  N107  1  0.93670000  0.41290000  0.95940000  1.0 -0.3219622322
N  N108  1  0.06330000  0.02270000  0.47620000  1.0 -0.3219622322
N  N109  1  0.97730000  0.93670000  0.52380000  1.0 -0.3219622322
N  N110  1  0.58710000  0.06330000  0.04060000  1.0 -0.3219622322
N  N111  1  0.02270000  0.54650000  0.95940000  1.0 -0.3219622322
N  N112  1  0.54650000  0.58710000  0.52380000  1.0 -0.3219622322
N  N113  1  0.73490000  0.51820000  0.55890000  1.0 -0.3514692915
N  N114  1  0.51820000  0.95930000  0.78330000  1.0 -0.3514692915
N  N115  1  0.17600000  0.73490000  0.21670000  1.0 -0.3514692915
N  N116  1  0.82400000  0.04070000  0.55890000  1.0 -0.3514692915
N  N117  1  0.95930000  0.17600000  0.44110000  1.0 -0.3514692915
N  N118  1  0.26510000  0.82400000  0.78330000  1.0 -0.3514692915
N  N119  1  0.04070000  0.48180000  0.21670000  1.0 -0.3514692915
N  N120  1  0.48180000  0.26510000  0.44110000  1.0 -0.3514692915
N  N121  1  0.26510000  0.48180000  0.44110000  1.0 -0.3514692915
N  N122  1  0.48180000  0.04070000  0.21670000  1.0 -0.3514692915
N  N123  1  0.82400000  0.26510000  0.78330000  1.0 -0.3514692915
N  N124  1  0.17600000  0.95930000  0.44110000  1.0 -0.3514692915
N  N125  1  0.04070000  0.82400000  0.55890000  1.0 -0.3514692915
N  N126  1  0.73490000  0.17600000  0.21670000  1.0 -0.3514692915
N  N127  1  0.95930000  0.51820000  0.78330000  1.0 -0.3514692915
N  N128  1  0.51820000  0.73490000  0.55890000  1.0 -0.3514692915
N  N129  1  0.66720000  0.51170000  0.53430000  1.0 -0.3219622322
N  N130  1  0.51170000  0.97740000  0.84450000  1.0 -0.3219622322
N  N131  1  0.13290000  0.66720000  0.15550000  1.0 -0.3219622322
N  N132  1  0.86710000  0.02260000  0.53430000  1.0 -0.3219622322
N  N133  1  0.97740000  0.13290000  0.46570000  1.0 -0.3219622322
N  N134  1  0.33280000  0.86710000  0.84450000  1.0 -0.3219622322
N  N135  1  0.02260000  0.48830000  0.15550000  1.0 -0.3219622322
N  N136  1  0.48830000  0.33280000  0.46570000  1.0 -0.3219622322
N  N137  1  0.33280000  0.48830000  0.46570000  1.0 -0.3219622322
N  N138  1  0.48830000  0.02260000  0.15550000  1.0 -0.3219622322
N  N139  1  0.86710000  0.33280000  0.84450000  1.0 -0.3219622322
N  N140  1  0.13290000  0.97740000  0.46570000  1.0 -0.3219622322
N  N141  1  0.02260000  0.86710000  0.53430000  1.0 -0.3219622322
N  N142  1  0.66720000  0.13290000  0.15550000  1.0 -0.3219622322
N  N143  1  0.97740000  0.51170000  0.84450000  1.0 -0.3219622322
N  N144  1  0.51170000  0.66720000  0.53430000  1.0 -0.3219622322
N  N145  1  0.83210000  0.52560000  0.63070000  1.0 -0.393219234
N  N146  1  0.52560000  0.89490000  0.69350000  1.0 -0.393219234
N  N147  1  0.20140000  0.83210000  0.30650000  1.0 -0.393219234
N  N148  1  0.79860000  0.10510000  0.63070000  1.0 -0.393219234
N  N149  1  0.89490000  0.20140000  0.36930000  1.0 -0.3956450635
N  N150  1  0.16790000  0.79860000  0.69350000  1.0 -0.3956450635
N  N151  1  0.10510000  0.47440000  0.30650000  1.0 -0.393219234
N  N152  1  0.47440000  0.16790000  0.36930000  1.0 -0.3956450635
N  N153  1  0.16790000  0.47440000  0.36930000  1.0 -0.3956450635
N  N154  1  0.47440000  0.10510000  0.30650000  1.0 -0.393219234
N  N155  1  0.79860000  0.16790000  0.69350000  1.0 -0.393219234
N  N156  1  0.20140000  0.89490000  0.36930000  1.0 -0.3956450635
N  N157  1  0.10510000  0.79860000  0.63070000  1.0 -0.3956450635
N  N158  1  0.83210000  0.20140000  0.30650000  1.0 -0.393219234
N  N159  1  0.89490000  0.52560000  0.69350000  1.0 -0.393219234
N  N160  1  0.52560000  0.83210000  0.63070000  1.0 -0.3956450635
N  N161  1  0.83090000  0.52900000  0.50810000  1.0 -0.3109742679
N  N162  1  0.52900000  0.02090000  0.69810000  1.0 -0.3109742679
N  N163  1  0.32280000  0.83090000  0.30190000  1.0 -0.3109742679
N  N164  1  0.67720000  0.97910000  0.50810000  1.0 -0.3109742679
N  N165  1  0.02090000  0.32280000  0.49190000  1.0 -0.3109742679
N  N166  1  0.16910000  0.67720000  0.69810000  1.0 -0.3109742679
N  N167  1  0.97910000  0.47100000  0.30190000  1.0 -0.3109742679
N  N168  1  0.47100000  0.16910000  0.49190000  1.0 -0.3109742679
N  N169  1  0.16910000  0.47100000  0.49190000  1.0 -0.3109742679
N  N170  1  0.47100000  0.97910000  0.30190000  1.0 -0.3109742679
N  N171  1  0.67720000  0.16910000  0.69810000  1.0 -0.3109742679
N  N172  1  0.32280000  0.02090000  0.49190000  1.0 -0.3109742679
N  N173  1  0.97910000  0.67720000  0.50810000  1.0 -0.3109742679
N  N174  1  0.83090000  0.32280000  0.30190000  1.0 -0.3109742679
N  N175  1  0.02090000  0.52900000  0.69810000  1.0 -0.3109742679
N  N176  1  0.52900000  0.83090000  0.50810000  1.0 -0.3109742679
N  N177  1  0.80580000  0.54990000  0.55830000  1.0 -0.3219622322
N  N178  1  0.54990000  0.99160000  0.74410000  1.0 -0.3219622322
N  N179  1  0.24750000  0.80580000  0.25590000  1.0 -0.3219622322
N  N180  1  0.75250000  0.00840000  0.55830000  1.0 -0.3219622322
N  N181  1  0.99160000  0.24750000  0.44170000  1.0 -0.3219622322
N  N182  1  0.19420000  0.75250000  0.74410000  1.0 -0.3219622322
N  N183  1  0.00840000  0.45010000  0.25590000  1.0 -0.3219622322
N  N184  1  0.45010000  0.19420000  0.44170000  1.0 -0.3219622322
N  N185  1  0.19420000  0.45010000  0.44170000  1.0 -0.3219622322
N  N186  1  0.45010000  0.00840000  0.25590000  1.0 -0.3219622322
N  N187  1  0.75250000  0.19420000  0.74410000  1.0 -0.3219622322
N  N188  1  0.24750000  0.99160000  0.44170000  1.0 -0.3219622322
N  N189  1  0.00840000  0.75250000  0.55830000  1.0 -0.3219622322
N  N190  1  0.80580000  0.24750000  0.25590000  1.0 -0.3219622322
N  N191  1  0.99160000  0.54990000  0.74410000  1.0 -0.3219622322
N  N192  1  0.54990000  0.80580000  0.55830000  1.0 -0.3219622322
N  N193  1  0.74240000  0.70470000  0.75630000  1.0 -0.223001864
N  N194  1  0.70470000  0.94840000  0.96230000  1.0 -0.223001864
N  N195  1  0.98610000  0.74240000  0.03770000  1.0 -0.223001864
N  N196  1  0.01390000  0.05160000  0.75630000  1.0 -0.2258933225
N  N197  1  0.94840000  0.98610000  0.24370000  1.0 -0.223001864
N  N198  1  0.25760000  0.01390000  0.96230000  1.0 -0.2258933225
N  N199  1  0.05160000  0.29530000  0.03770000  1.0 -0.2258933225
N  N200  1  0.29530000  0.25760000  0.24370000  1.0 -0.223001864
N  N201  1  0.25760000  0.29530000  0.24370000  1.0 -0.2258933225
N  N202  1  0.29530000  0.05160000  0.03770000  1.0 -0.2258933225
N  N203  1  0.01390000  0.25760000  0.96230000  1.0 -0.2258933225
N  N204  1  0.98610000  0.94840000  0.24370000  1.0 -0.223001864
N  N205  1  0.05160000  0.01390000  0.75630000  1.0 -0.2258933225
N  N206  1  0.74240000  0.98610000  0.03770000  1.0 -0.223001864
N  N207  1  0.94840000  0.70470000  0.96230000  1.0 -0.2258933225
N  N208  1  0.70470000  0.74240000  0.75630000  1.0 -0.223001864
N  N209  1  0.90590000  0.50020000  0.53570000  1.0 -0.3394217019
N  N210  1  0.50020000  0.96450000  0.59430000  1.0 -0.3394217019
N  N211  1  0.37020000  0.90590000  0.40570000  1.0 -0.3394217019
N  N212  1  0.62980000  0.03550000  0.53570000  1.0 -0.3394217019
N  N213  1  0.96450000  0.37020000  0.46430000  1.0 -0.3394217019
N  N214  1  0.09410000  0.62980000  0.59430000  1.0 -0.3394217019
N  N215  1  0.03550000  0.49980000  0.40570000  1.0 -0.3394217019
N  N216  1  0.49980000  0.09410000  0.46430000  1.0 -0.3394217019
N  N217  1  0.09410000  0.49980000  0.46430000  1.0 -0.3394217019
N  N218  1  0.49980000  0.03550000  0.40570000  1.0 -0.3394217019
N  N219  1  0.62980000  0.09410000  0.59430000  1.0 -0.3394217019
N  N220  1  0.37020000  0.96450000  0.46430000  1.0 -0.3394217019
N  N221  1  0.03550000  0.62980000  0.53570000  1.0 -0.3394217019
N  N222  1  0.90590000  0.37020000  0.40570000  1.0 -0.3394217019
N  N223  1  0.96450000  0.50020000  0.59430000  1.0 -0.3394217019
N  N224  1  0.50020000  0.90590000  0.53570000  1.0 -0.3394217019
N  N225  1  0.85080000  0.47880000  0.43200000  1.0 -0.3394217019
N  N226  1  0.47880000  0.04680000  0.62800000  1.0 -0.3394217019
N  N227  1  0.41880000  0.85080000  0.37200000  1.0 -0.3394217019
N  N228  1  0.58120000  0.95320000  0.43200000  1.0 -0.3394217019
N  N229  1  0.04680000  0.41880000  0.56800000  1.0 -0.3394217019
N  N230  1  0.14920000  0.58120000  0.62800000  1.0 -0.3349189574
N  N231  1  0.95320000  0.52120000  0.37200000  1.0 -0.3394217019
N  N232  1  0.52120000  0.14920000  0.56800000  1.0 -0.3394217019
N  N233  1  0.14920000  0.52120000  0.56800000  1.0 -0.3394217019
N  N234  1  0.52120000  0.95320000  0.37200000  1.0 -0.3394217019
N  N235  1  0.58120000  0.14920000  0.62800000  1.0 -0.3394217019
N  N236  1  0.41880000  0.04680000  0.56800000  1.0 -0.3394217019
N  N237  1  0.95320000  0.58120000  0.43200000  1.0 -0.3394217019
N  N238  1  0.85080000  0.41880000  0.37200000  1.0 -0.3349189574
N  N239  1  0.04680000  0.47880000  0.62800000  1.0 -0.3394217019
N  N240  1  0.47880000  0.85080000  0.43200000  1.0 -0.3394217019
N  N241  1  0.90550000  0.57330000  0.51920000  1.0 -0.3597734628
N  N242  1  0.57330000  0.05410000  0.66780000  1.0 -0.3597734628
N  N243  1  0.38630000  0.90550000  0.33220000  1.0 -0.3597734628
N  N244  1  0.61370000  0.94590000  0.51920000  1.0 -0.3597734628
N  N245  1  0.05410000  0.38630000  0.48080000  1.0 -0.3597734628
N  N246  1  0.09450000  0.61370000  0.66780000  1.0 -0.3597734628
N  N247  1  0.94590000  0.42670000  0.33220000  1.0 -0.3597734628
N  N248  1  0.42670000  0.09450000  0.48080000  1.0 -0.3597734628
N  N249  1  0.09450000  0.42670000  0.48080000  1.0 -0.3597734628
N  N250  1  0.42670000  0.94590000  0.33220000  1.0 -0.3597734628
N  N251  1  0.61370000  0.09450000  0.66780000  1.0 -0.3597734628
N  N252  1  0.38630000  0.05410000  0.48080000  1.0 -0.3597734628
N  N253  1  0.94590000  0.61370000  0.51920000  1.0 -0.3597734628
N  N254  1  0.90550000  0.38630000  0.33220000  1.0 -0.3597734628
N  N255  1  0.05410000  0.57330000  0.66780000  1.0 -0.3597734628
N  N256  1  0.57330000  0.90550000  0.51920000  1.0 -0.3597734628
Cl  Cl1  1  0.66010000  0.44640000  0.66370000  1.0 -0.1924654012
Cl  Cl2  1  0.44640000  0.78270000  0.78630000  1.0 -0.1924654012
Cl  Cl3  1  0.99640000  0.66010000  0.21370000  1.0 -0.1924654012
Cl  Cl4  1  0.00360000  0.21730000  0.66370000  1.0 -0.1924654012
Cl  Cl5  1  0.78270000  0.99640000  0.33630000  1.0 -0.1803896098
Cl  Cl6  1  0.33990000  0.00360000  0.78630000  1.0 -0.1924654012
Cl  Cl7  1  0.21730000  0.55360000  0.21370000  1.0 -0.1743919963
Cl  Cl8  1  0.55360000  0.33990000  0.33630000  1.0 -0.198483867
Cl  Cl9  1  0.33990000  0.55360000  0.33630000  1.0 -0.1924654012
Cl  Cl10  1  0.55360000  0.21730000  0.21370000  1.0 -0.1803896098
Cl  Cl11  1  0.00360000  0.33990000  0.78630000  1.0 -0.1924654012
Cl  Cl12  1  0.99640000  0.78270000  0.33630000  1.0 -0.1803896098
Cl  Cl13  1  0.21730000  0.00360000  0.66370000  1.0 -0.1924654012
Cl  Cl14  1  0.66010000  0.99640000  0.21370000  1.0 -0.1924654012
Cl  Cl15  1  0.78270000  0.44640000  0.78630000  1.0 -0.1924654012
Cl  Cl16  1  0.44640000  0.66010000  0.66370000  1.0 -0.1743919963
Cl  Cl17  1  0.79520000  0.69490000  0.59510000  1.0 -0.0905813772
Cl  Cl18  1  0.69490000  0.09980000  0.89970000  1.0 -0.0905813772
Cl  Cl19  1  0.20010000  0.79520000  0.10030000  1.0 -0.0905813772
Cl  Cl20  1  0.79990000  0.90020000  0.59510000  1.0 -0.0905813772
Cl  Cl21  1  0.09980000  0.20010000  0.40490000  1.0 -0.0905813772
Cl  Cl22  1  0.20480000  0.79990000  0.89970000  1.0 -0.0905813772
Cl  Cl23  1  0.90020000  0.30510000  0.10030000  1.0 -0.0905813772
Cl  Cl24  1  0.30510000  0.20480000  0.40490000  1.0 -0.0905813772
Cl  Cl25  1  0.20480000  0.30510000  0.40490000  1.0 -0.0905813772
Cl  Cl26  1  0.30510000  0.90020000  0.10030000  1.0 -0.0905813772
Cl  Cl27  1  0.79990000  0.20480000  0.89970000  1.0 -0.0905813772
Cl  Cl28  1  0.20010000  0.09980000  0.40490000  1.0 -0.0905813772
Cl  Cl29  1  0.90020000  0.79990000  0.59510000  1.0 -0.0905813772
Cl  Cl30  1  0.79520000  0.20010000  0.10030000  1.0 -0.0905813772
Cl  Cl31  1  0.09980000  0.69490000  0.89970000  1.0 -0.0905813772
Cl  Cl32  1  0.69490000  0.79520000  0.59510000  1.0 -0.0905813772
Cl  Cl33  1  0.69400000  0.37470000  0.52490000  1.0 0.0220876275
Cl  Cl34  1  0.37470000  0.84980000  0.68070000  1.0 0.0220876275
Cl  Cl35  1  0.16910000  0.69400000  0.31930000  1.0 0.0220876275
Cl  Cl36  1  0.83090000  0.15020000  0.52490000  1.0 0.0291212825
Cl  Cl37  1  0.84980000  0.16910000  0.47510000  1.0 0.0291212825
Cl  Cl38  1  0.30600000  0.83090000  0.68070000  1.0 0.0220876275
Cl  Cl39  1  0.15020000  0.62530000  0.31930000  1.0 0.0220876275
Cl  Cl40  1  0.62530000  0.30600000  0.47510000  1.0 0.0291212825
Cl  Cl41  1  0.30600000  0.62530000  0.47510000  1.0 0.0220876275
Cl  Cl42  1  0.62530000  0.15020000  0.31930000  1.0 0.0220876275
Cl  Cl43  1  0.83090000  0.30600000  0.68070000  1.0 0.0220876275
Cl  Cl44  1  0.16910000  0.84980000  0.47510000  1.0 0.0220876275
Cl  Cl45  1  0.15020000  0.83090000  0.52490000  1.0 0.0220876275
Cl  Cl46  1  0.69400000  0.16910000  0.31930000  1.0 0.0220876275
Cl  Cl47  1  0.84980000  0.37470000  0.68070000  1.0 0.0220876275
Cl  Cl48  1  0.37470000  0.69400000  0.52490000  1.0 0.0220876275
Cl  Cl49  1  0.60240000  0.54490000  0.39690000  1.0 -0.0598647156
Cl  Cl50  1  0.54490000  0.14800000  0.94250000  1.0 -0.0528208829
Cl  Cl51  1  0.20550000  0.60240000  0.05750000  1.0 -0.0528208829
Cl  Cl52  1  0.79450000  0.85200000  0.39690000  1.0 -0.0528208829
Cl  Cl53  1  0.14800000  0.20550000  0.60310000  1.0 -0.0528208829
Cl  Cl54  1  0.39760000  0.79450000  0.94250000  1.0 -0.0528208829
Cl  Cl55  1  0.85200000  0.45510000  0.05750000  1.0 -0.0598647156
Cl  Cl56  1  0.45510000  0.39760000  0.60310000  1.0 -0.0528208829
Cl  Cl57  1  0.39760000  0.45510000  0.60310000  1.0 -0.0528208829
Cl  Cl58  1  0.45510000  0.85200000  0.05750000  1.0 -0.0528208829
Cl  Cl59  1  0.79450000  0.39760000  0.94250000  1.0 -0.0528208829
Cl  Cl60  1  0.20550000  0.14800000  0.60310000  1.0 -0.0528208829
Cl  Cl61  1  0.85200000  0.79450000  0.39690000  1.0 -0.0528208829
Cl  Cl62  1  0.60240000  0.20550000  0.05750000  1.0 -0.0598647156
Cl  Cl63  1  0.14800000  0.54490000  0.94250000  1.0 -0.0528208829
Cl  Cl64  1  0.54490000  0.60240000  0.39690000  1.0 -0.0392303928
Cl  Cl65  1  0.69590000  0.39970000  0.38660000  1.0 -0.067644125
Cl  Cl66  1  0.39970000  0.01310000  0.70380000  1.0 -0.067644125
Cl  Cl67  1  0.30930000  0.69590000  0.29620000  1.0 -0.067644125
Cl  Cl68  1  0.69070000  0.98690000  0.38660000  1.0 -0.067644125
Cl  Cl69  1  0.01310000  0.30930000  0.61340000  1.0 -0.067644125
Cl  Cl70  1  0.30410000  0.69070000  0.70380000  1.0 -0.067644125
Cl  Cl71  1  0.98690000  0.60030000  0.29620000  1.0 -0.067644125
Cl  Cl72  1  0.60030000  0.30410000  0.61340000  1.0 -0.067644125
Cl  Cl73  1  0.30410000  0.60030000  0.61340000  1.0 -0.067644125
Cl  Cl74  1  0.60030000  0.98690000  0.29620000  1.0 -0.067644125
Cl  Cl75  1  0.69070000  0.30410000  0.70380000  1.0 -0.067644125
Cl  Cl76  1  0.30930000  0.01310000  0.61340000  1.0 -0.067644125
Cl  Cl77  1  0.98690000  0.69070000  0.38660000  1.0 -0.067644125
Cl  Cl78  1  0.69590000  0.30930000  0.29620000  1.0 -0.067644125
Cl  Cl79  1  0.01310000  0.39970000  0.70380000  1.0 -0.067644125
Cl  Cl80  1  0.39970000  0.69590000  0.38660000  1.0 -0.067644125
Cl  Cl81  1  0.76240000  0.36950000  0.53070000  1.0 -0.0048064526
Cl  Cl82  1  0.36950000  0.83880000  0.60710000  1.0 -0.0048064526
Cl  Cl83  1  0.23170000  0.76240000  0.39290000  1.0 -0.0048064526
Cl  Cl84  1  0.76830000  0.16120000  0.53070000  1.0 -0.0065580078
Cl  Cl85  1  0.83880000  0.23170000  0.46930000  1.0 -0.0065580078
Cl  Cl86  1  0.23760000  0.76830000  0.60710000  1.0 -0.0065580078
Cl  Cl87  1  0.16120000  0.63050000  0.39290000  1.0 -0.0065580078
Cl  Cl88  1  0.63050000  0.23760000  0.46930000  1.0 -0.0065580078
Cl  Cl89  1  0.23760000  0.63050000  0.46930000  1.0 -0.0065580078
Cl  Cl90  1  0.63050000  0.16120000  0.39290000  1.0 -0.0065580078
Cl  Cl91  1  0.76830000  0.23760000  0.60710000  1.0 -0.0065580078
Cl  Cl92  1  0.23170000  0.83880000  0.46930000  1.0 -0.0065580078
Cl  Cl93  1  0.16120000  0.76830000  0.53070000  1.0 -0.0065580078
Cl  Cl94  1  0.76240000  0.23170000  0.39290000  1.0 -0.0048064526
Cl  Cl95  1  0.83880000  0.36950000  0.60710000  1.0 -0.0048064526
Cl  Cl96  1  0.36950000  0.76240000  0.53070000  1.0 -0.0065580078
Cl  Cl97  1  0.73040000  0.58880000  0.41400000  1.0 -0.067644125
Cl  Cl98  1  0.58880000  0.17480000  0.85840000  1.0 -0.067644125
Cl  Cl99  1  0.31640000  0.73040000  0.14160000  1.0 -0.067644125
Cl  Cl100  1  0.68360000  0.82520000  0.41400000  1.0 -0.067644125
Cl  Cl101  1  0.17480000  0.31640000  0.58600000  1.0 -0.067644125
Cl  Cl102  1  0.26960000  0.68360000  0.85840000  1.0 -0.0598647156
Cl  Cl103  1  0.82520000  0.41120000  0.14160000  1.0 -0.0598647156
Cl  Cl104  1  0.41120000  0.26960000  0.58600000  1.0 -0.067644125
Cl  Cl105  1  0.26960000  0.41120000  0.58600000  1.0 -0.067644125
Cl  Cl106  1  0.41120000  0.82520000  0.14160000  1.0 -0.067644125
Cl  Cl107  1  0.68360000  0.26960000  0.85840000  1.0 -0.067644125
Cl  Cl108  1  0.31640000  0.17480000  0.58600000  1.0 -0.067644125
Cl  Cl109  1  0.82520000  0.68360000  0.41400000  1.0 -0.0598647156
Cl  Cl110  1  0.73040000  0.31640000  0.14160000  1.0 -0.0598647156
Cl  Cl111  1  0.17480000  0.58880000  0.85840000  1.0 -0.067644125
Cl  Cl112  1  0.58880000  0.73040000  0.41400000  1.0 -0.0598647156
Cl  Cl113  1  0.88540000  0.83090000  0.88010000  1.0 0.0291212825
Cl  Cl114  1  0.83090000  0.95080000  0.94550000  1.0 0.0220876275
Cl  Cl115  1  0.00530000  0.88540000  0.05450000  1.0 0.0220876275
Cl  Cl116  1  0.99470000  0.04920000  0.88010000  1.0 0.0220876275
Cl  Cl117  1  0.95080000  0.00530000  0.11990000  1.0 0.0291212825
Cl  Cl118  1  0.11460000  0.99470000  0.94550000  1.0 0.0291212825
Cl  Cl119  1  0.04920000  0.16910000  0.05450000  1.0 0.0291212825
Cl  Cl120  1  0.16910000  0.11460000  0.11990000  1.0 0.0220876275
Cl  Cl121  1  0.11460000  0.16910000  0.11990000  1.0 0.0220876275
Cl  Cl122  1  0.16910000  0.04920000  0.05450000  1.0 0.0220876275
Cl  Cl123  1  0.99470000  0.11460000  0.94550000  1.0 0.0291212825
Cl  Cl124  1  0.00530000  0.95080000  0.11990000  1.0 0.0220876275
Cl  Cl125  1  0.04920000  0.99470000  0.88010000  1.0 0.0220876275
Cl  Cl126  1  0.88540000  0.00530000  0.05450000  1.0 0.0220876275
Cl  Cl127  1  0.95080000  0.83090000  0.94550000  1.0 0.0220876275
Cl  Cl128  1  0.83090000  0.88540000  0.88010000  1.0 0.0291212825
Cl  Cl129  1  0.79870000  0.38310000  0.47840000  1.0 -0.0392303928
Cl  Cl130  1  0.38310000  0.90470000  0.58440000  1.0 -0.0392303928
Cl  Cl131  1  0.32030000  0.79870000  0.41560000  1.0 -0.0392303928
Cl  Cl132  1  0.67970000  0.09530000  0.47840000  1.0 -0.0392303928
Cl  Cl133  1  0.90470000  0.32030000  0.52160000  1.0 -0.0392303928
Cl  Cl134  1  0.20130000  0.67970000  0.58440000  1.0 -0.0392303928
Cl  Cl135  1  0.09530000  0.61690000  0.41560000  1.0 -0.0392303928
Cl  Cl136  1  0.61690000  0.20130000  0.52160000  1.0 -0.0392303928
Cl  Cl137  1  0.20130000  0.61690000  0.52160000  1.0 -0.0392303928
Cl  Cl138  1  0.61690000  0.09530000  0.41560000  1.0 -0.0392303928
Cl  Cl139  1  0.67970000  0.20130000  0.58440000  1.0 -0.0392303928
Cl  Cl140  1  0.32030000  0.90470000  0.52160000  1.0 -0.0392303928
Cl  Cl141  1  0.09530000  0.67970000  0.47840000  1.0 -0.0392303928
Cl  Cl142  1  0.79870000  0.32030000  0.41560000  1.0 -0.0392303928
Cl  Cl143  1  0.90470000  0.38310000  0.58440000  1.0 -0.0392303928
Cl  Cl144  1  0.38310000  0.79870000  0.47840000  1.0 -0.0392303928
Cl  Cl145  1  0.88710000  0.71050000  0.64120000  1.0 -0.021013257
Cl  Cl146  1  0.71050000  0.06930000  0.82340000  1.0 -0.021013257
Cl  Cl147  1  0.24590000  0.88710000  0.17660000  1.0 -0.021013257
Cl  Cl148  1  0.75410000  0.93070000  0.64120000  1.0 -0.021013257
Cl  Cl149  1  0.06930000  0.24590000  0.35880000  1.0 -0.021013257
Cl  Cl150  1  0.11290000  0.75410000  0.82340000  1.0 -0.021013257
Cl  Cl151  1  0.93070000  0.28950000  0.17660000  1.0 -0.021013257
Cl  Cl152  1  0.28950000  0.11290000  0.35880000  1.0 -0.021013257
Cl  Cl153  1  0.11290000  0.28950000  0.35880000  1.0 -0.021013257
Cl  Cl154  1  0.28950000  0.93070000  0.17660000  1.0 -0.021013257
Cl  Cl155  1  0.75410000  0.11290000  0.82340000  1.0 -0.021013257
Cl  Cl156  1  0.24590000  0.06930000  0.35880000  1.0 -0.021013257
Cl  Cl157  1  0.93070000  0.75410000  0.64120000  1.0 -0.021013257
Cl  Cl158  1  0.88710000  0.24590000  0.17660000  1.0 -0.0337246596
Cl  Cl159  1  0.06930000  0.71050000  0.82340000  1.0 -0.021013257
Cl  Cl160  1  0.71050000  0.88710000  0.64120000  1.0 -0.021013257
