# DDEC6 charges by PACMAN v1.1 (https://github.com/mtap-research/PACMAN-charge/)
data_NOHQEI_ASR_pacman
_symmetry_space_group_name_H-M   'P 1'
_cell_length_a   28.60430000
_cell_length_b   28.60430000
_cell_length_c   28.60430000
_cell_angle_alpha   98.19370000
_cell_angle_beta   98.19370000
_cell_angle_gamma   98.19370000
_symmetry_Int_Tables_number   1
_chemical_formula_structural   In2H32C79N9O20
_chemical_formula_sum   'In12 H192 C474 N54 O120'
_cell_volume   22609.89957561
_cell_formula_units_Z   6
loop_
 _symmetry_equiv_pos_site_id
 _symmetry_equiv_pos_as_xyz
  1  'x, y, z'
loop_
 _atom_site_type_symbol
 _atom_site_label
 _atom_site_symmetry_multiplicity
 _atom_site_fract_x
 _atom_site_fract_y
 _atom_site_fract_z
 _atom_site_occupancy
 _atom_site_charge
In  In1  1  0.74276000  0.58173000  0.30254000  1.0 1.3819426477
In  In2  1  0.58173000  0.30254000  0.74276000  1.0 1.3819426477
In  In3  1  0.30254000  0.74276000  0.58173000  1.0 1.3819426477
In  In4  1  0.00354000  0.15765000  0.43694000  1.0 1.0024007738
In  In5  1  0.15765000  0.43694000  0.00354000  1.0 1.0024007738
In  In6  1  0.43694000  0.00354000  0.15765000  1.0 1.0024007738
In  In7  1  0.25724000  0.41827000  0.69746000  1.0 1.3819426477
In  In8  1  0.41827000  0.69746000  0.25724000  1.0 1.3819426477
In  In9  1  0.69746000  0.25724000  0.41827000  1.0 1.3819426477
In  In10  1  0.99646000  0.84235000  0.56306000  1.0 1.0024007738
In  In11  1  0.84235000  0.56306000  0.99646000  1.0 1.0024007738
In  In12  1  0.56306000  0.99646000  0.84235000  1.0 1.0024007738
H  H1  1  0.79580000  0.75130000  0.35800000  1.0 0.1321317481
H  H2  1  0.75130000  0.35800000  0.79580000  1.0 0.1321317481
H  H3  1  0.35800000  0.79580000  0.75130000  1.0 0.1321317481
H  H4  1  0.79370000  0.83190000  0.35420000  1.0 0.1208356616
H  H5  1  0.83190000  0.35420000  0.79370000  1.0 0.1208356616
H  H6  1  0.35420000  0.79370000  0.83190000  1.0 0.1208356616
H  H7  1  0.68220000  0.79510000  0.24630000  1.0 0.1208356616
H  H8  1  0.79510000  0.24630000  0.68220000  1.0 0.1208356616
H  H9  1  0.24630000  0.68220000  0.79510000  1.0 0.1208356616
H  H10  1  0.68720000  0.71350000  0.24790000  1.0 0.1321317481
H  H11  1  0.71350000  0.24790000  0.68720000  1.0 0.1321317481
H  H12  1  0.24790000  0.68720000  0.71350000  1.0 0.1321317481
H  H13  1  0.62190000  0.87940000  0.21750000  1.0 0.1208356616
H  H14  1  0.87940000  0.21750000  0.62190000  1.0 0.1208356616
H  H15  1  0.21750000  0.62190000  0.87940000  1.0 0.1208356616
H  H16  1  0.55130000  0.89850000  0.18260000  1.0 0.1102953669
H  H17  1  0.89850000  0.18260000  0.55130000  1.0 0.1102953669
H  H18  1  0.18260000  0.55130000  0.89850000  1.0 0.1102953669
H  H19  1  0.56790000  0.01380000  0.28290000  1.0 0.1102953669
H  H20  1  0.01380000  0.28290000  0.56790000  1.0 0.1102953669
H  H21  1  0.28290000  0.56790000  0.01380000  1.0 0.1102953669
H  H22  1  0.64620000  0.00010000  0.31370000  1.0 0.1321317481
H  H23  1  0.00010000  0.31370000  0.64620000  1.0 0.1321317481
H  H24  1  0.31370000  0.64620000  0.00010000  1.0 0.1321317481
H  H25  1  0.77980000  0.04210000  0.31390000  1.0 0.1208356616
H  H26  1  0.04210000  0.31390000  0.77980000  1.0 0.1208356616
H  H27  1  0.31390000  0.77980000  0.04210000  1.0 0.1208356616
H  H28  1  0.84450000  0.10130000  0.34720000  1.0 0.1321317481
H  H29  1  0.10130000  0.34720000  0.84450000  1.0 0.1321317481
H  H30  1  0.34720000  0.84450000  0.10130000  1.0 0.1321317481
H  H31  1  0.91440000  0.00260000  0.40150000  1.0 0.1321317481
H  H32  1  0.00260000  0.40150000  0.91440000  1.0 0.1321317481
H  H33  1  0.40150000  0.91440000  0.00260000  1.0 0.1321317481
H  H34  1  0.84990000  0.94360000  0.36870000  1.0 0.1208356616
H  H35  1  0.94360000  0.36870000  0.84990000  1.0 0.1208356616
H  H36  1  0.36870000  0.84990000  0.94360000  1.0 0.1208356616
H  H37  1  0.66680000  0.49400000  0.15090000  1.0 0.1321317481
H  H38  1  0.49400000  0.15090000  0.66680000  1.0 0.1321317481
H  H39  1  0.15090000  0.66680000  0.49400000  1.0 0.1321317481
H  H40  1  0.62910000  0.42720000  0.09670000  1.0 0.1208356616
H  H41  1  0.42720000  0.09670000  0.62910000  1.0 0.1208356616
H  H42  1  0.09670000  0.62910000  0.42720000  1.0 0.1208356616
H  H43  1  0.64280000  0.34680000  0.20150000  1.0 0.1208356616
H  H44  1  0.34680000  0.20150000  0.64280000  1.0 0.1208356616
H  H45  1  0.20150000  0.64280000  0.34680000  1.0 0.1208356616
H  H46  1  0.68480000  0.41340000  0.25400000  1.0 0.1321317481
H  H47  1  0.41340000  0.25400000  0.68480000  1.0 0.1321317481
H  H48  1  0.25400000  0.68480000  0.41340000  1.0 0.1321317481
H  H49  1  0.55300000  0.24850000  0.18200000  1.0 0.1208356616
H  H50  1  0.24850000  0.18200000  0.55300000  1.0 0.1208356616
H  H51  1  0.18200000  0.55300000  0.24850000  1.0 0.1208356616
H  H52  1  0.51170000  0.18200000  0.20520000  1.0 0.1372422867
H  H53  1  0.18200000  0.20520000  0.51170000  1.0 0.1372422867
H  H54  1  0.20520000  0.51170000  0.18200000  1.0 0.1372422867
H  H55  1  0.51340000  0.10330000  0.07850000  1.0 0.1372422867
H  H56  1  0.10330000  0.07850000  0.51340000  1.0 0.1372422867
H  H57  1  0.07850000  0.51340000  0.10330000  1.0 0.1372422867
H  H58  1  0.54550000  0.17200000  0.05000000  1.0 0.1102953669
H  H59  1  0.17200000  0.05000000  0.54550000  1.0 0.1102953669
H  H60  1  0.05000000  0.54550000  0.17200000  1.0 0.1102953669
H  H61  1  0.57240000  0.22690000  0.96310000  1.0 0.1208356616
H  H62  1  0.22690000  0.96310000  0.57240000  1.0 0.1208356616
H  H63  1  0.96310000  0.57240000  0.22690000  1.0 0.1208356616
H  H64  1  0.57290000  0.22670000  0.88150000  1.0 0.1321317481
H  H65  1  0.22670000  0.88150000  0.57290000  1.0 0.1321317481
H  H66  1  0.88150000  0.57290000  0.22670000  1.0 0.1321317481
H  H67  1  0.58510000  0.37100000  0.90320000  1.0 0.1321317481
H  H68  1  0.37100000  0.90320000  0.58510000  1.0 0.1321317481
H  H69  1  0.90320000  0.58510000  0.37100000  1.0 0.1372422867
H  H70  1  0.58830000  0.37170000  0.98540000  1.0 0.1208356616
H  H71  1  0.37170000  0.98540000  0.58830000  1.0 0.1208356616
H  H72  1  0.98540000  0.58830000  0.37170000  1.0 0.1208356616
H  H73  1  0.70350000  0.53840000  0.44840000  1.0 0.1321317481
H  H74  1  0.53840000  0.44840000  0.70350000  1.0 0.1321317481
H  H75  1  0.44840000  0.70350000  0.53840000  1.0 0.1321317481
H  H76  1  0.65470000  0.52650000  0.50520000  1.0 0.1321317481
H  H77  1  0.52650000  0.50520000  0.65470000  1.0 0.1321317481
H  H78  1  0.50520000  0.65470000  0.52650000  1.0 0.1321317481
H  H79  1  0.54990000  0.57690000  0.42700000  1.0 0.1208356616
H  H80  1  0.57690000  0.42700000  0.54990000  1.0 0.1208356616
H  H81  1  0.42700000  0.54990000  0.57690000  1.0 0.1208356616
H  H82  1  0.59870000  0.58630000  0.36760000  1.0 0.1372422867
H  H83  1  0.58630000  0.36760000  0.59870000  1.0 0.1372422867
H  H84  1  0.36760000  0.59870000  0.58630000  1.0 0.1372422867
H  H85  1  0.67220000  0.01060000  0.25410000  1.0 0.1208356616
H  H86  1  0.01060000  0.25410000  0.67220000  1.0 0.1208356616
H  H87  1  0.25410000  0.67220000  0.01060000  1.0 0.1208356616
H  H88  1  0.59870000  0.03450000  0.23080000  1.0 0.1030185766
H  H89  1  0.03450000  0.23080000  0.59870000  1.0 0.1102953669
H  H90  1  0.23080000  0.59870000  0.03450000  1.0 0.1102953669
H  H91  1  0.52890000  0.90850000  0.25410000  1.0 0.1030185766
H  H92  1  0.90850000  0.25410000  0.52890000  1.0 0.1030185766
H  H93  1  0.25410000  0.52890000  0.90850000  1.0 0.1030185766
H  H94  1  0.60240000  0.88460000  0.27740000  1.0 0.1208356616
H  H95  1  0.88460000  0.27740000  0.60240000  1.0 0.1208356616
H  H96  1  0.27740000  0.60240000  0.88460000  1.0 0.1208356616
H  H97  1  0.20420000  0.24870000  0.64200000  1.0 0.1321317481
H  H98  1  0.24870000  0.64200000  0.20420000  1.0 0.1321317481
H  H99  1  0.64200000  0.20420000  0.24870000  1.0 0.1321317481
H  H100  1  0.20630000  0.16810000  0.64580000  1.0 0.1208356616
H  H101  1  0.16810000  0.64580000  0.20630000  1.0 0.1208356616
H  H102  1  0.64580000  0.20630000  0.16810000  1.0 0.1208356616
H  H103  1  0.31780000  0.20490000  0.75370000  1.0 0.1208356616
H  H104  1  0.20490000  0.75370000  0.31780000  1.0 0.1208356616
H  H105  1  0.75370000  0.31780000  0.20490000  1.0 0.1208356616
H  H106  1  0.31280000  0.28650000  0.75210000  1.0 0.1321317481
H  H107  1  0.28650000  0.75210000  0.31280000  1.0 0.1321317481
H  H108  1  0.75210000  0.31280000  0.28650000  1.0 0.1321317481
H  H109  1  0.37810000  0.12060000  0.78250000  1.0 0.1208356616
H  H110  1  0.12060000  0.78250000  0.37810000  1.0 0.1208356616
H  H111  1  0.78250000  0.37810000  0.12060000  1.0 0.1208356616
H  H112  1  0.44870000  0.10150000  0.81740000  1.0 0.1102953669
H  H113  1  0.10150000  0.81740000  0.44870000  1.0 0.1102953669
H  H114  1  0.81740000  0.44870000  0.10150000  1.0 0.1102953669
H  H115  1  0.43210000  0.98620000  0.71710000  1.0 0.1102953669
H  H116  1  0.98620000  0.71710000  0.43210000  1.0 0.1102953669
H  H117  1  0.71710000  0.43210000  0.98620000  1.0 0.1102953669
H  H118  1  0.35380000  0.99990000  0.68630000  1.0 0.1321317481
H  H119  1  0.99990000  0.68630000  0.35380000  1.0 0.1321317481
H  H120  1  0.68630000  0.35380000  0.99990000  1.0 0.1321317481
H  H121  1  0.22020000  0.95790000  0.68610000  1.0 0.1208356616
H  H122  1  0.95790000  0.68610000  0.22020000  1.0 0.1208356616
H  H123  1  0.68610000  0.22020000  0.95790000  1.0 0.1208356616
H  H124  1  0.15550000  0.89870000  0.65280000  1.0 0.1321317481
H  H125  1  0.89870000  0.65280000  0.15550000  1.0 0.1321317481
H  H126  1  0.65280000  0.15550000  0.89870000  1.0 0.1321317481
H  H127  1  0.08560000  0.99740000  0.59850000  1.0 0.1321317481
H  H128  1  0.99740000  0.59850000  0.08560000  1.0 0.1321317481
H  H129  1  0.59850000  0.08560000  0.99740000  1.0 0.1321317481
H  H130  1  0.15010000  0.05640000  0.63130000  1.0 0.1208356616
H  H131  1  0.05640000  0.63130000  0.15010000  1.0 0.1208356616
H  H132  1  0.63130000  0.15010000  0.05640000  1.0 0.1208356616
H  H133  1  0.33320000  0.50600000  0.84910000  1.0 0.1321317481
H  H134  1  0.50600000  0.84910000  0.33320000  1.0 0.1321317481
H  H135  1  0.84910000  0.33320000  0.50600000  1.0 0.1321317481
H  H136  1  0.37090000  0.57280000  0.90330000  1.0 0.1208356616
H  H137  1  0.57280000  0.90330000  0.37090000  1.0 0.1208356616
H  H138  1  0.90330000  0.37090000  0.57280000  1.0 0.1208356616
H  H139  1  0.35720000  0.65320000  0.79850000  1.0 0.1208356616
H  H140  1  0.65320000  0.79850000  0.35720000  1.0 0.1208356616
H  H141  1  0.79850000  0.35720000  0.65320000  1.0 0.1208356616
H  H142  1  0.31520000  0.58660000  0.74600000  1.0 0.1321317481
H  H143  1  0.58660000  0.74600000  0.31520000  1.0 0.1321317481
H  H144  1  0.74600000  0.31520000  0.58660000  1.0 0.1321317481
H  H145  1  0.44700000  0.75150000  0.81800000  1.0 0.1208356616
H  H146  1  0.75150000  0.81800000  0.44700000  1.0 0.1208356616
H  H147  1  0.81800000  0.44700000  0.75150000  1.0 0.1208356616
H  H148  1  0.48830000  0.81800000  0.79480000  1.0 0.1372422867
H  H149  1  0.81800000  0.79480000  0.48830000  1.0 0.1372422867
H  H150  1  0.79480000  0.48830000  0.81800000  1.0 0.1372422867
H  H151  1  0.48660000  0.89670000  0.92150000  1.0 0.1372422867
H  H152  1  0.89670000  0.92150000  0.48660000  1.0 0.1372422867
H  H153  1  0.92150000  0.48660000  0.89670000  1.0 0.1372422867
H  H154  1  0.45450000  0.82800000  0.95000000  1.0 0.1102953669
H  H155  1  0.82800000  0.95000000  0.45450000  1.0 0.1102953669
H  H156  1  0.95000000  0.45450000  0.82800000  1.0 0.1102953669
H  H157  1  0.42760000  0.77310000  0.03690000  1.0 0.1208356616
H  H158  1  0.77310000  0.03690000  0.42760000  1.0 0.1208356616
H  H159  1  0.03690000  0.42760000  0.77310000  1.0 0.1208356616
H  H160  1  0.42710000  0.77330000  0.11850000  1.0 0.1321317481
H  H161  1  0.77330000  0.11850000  0.42710000  1.0 0.1321317481
H  H162  1  0.11850000  0.42710000  0.77330000  1.0 0.1321317481
H  H163  1  0.41490000  0.62900000  0.09680000  1.0 0.1372422867
H  H164  1  0.62900000  0.09680000  0.41490000  1.0 0.1321317481
H  H165  1  0.09680000  0.41490000  0.62900000  1.0 0.1321317481
H  H166  1  0.41170000  0.62830000  0.01460000  1.0 0.1208356616
H  H167  1  0.62830000  0.01460000  0.41170000  1.0 0.1208356616
H  H168  1  0.01460000  0.41170000  0.62830000  1.0 0.1208356616
H  H169  1  0.29650000  0.46160000  0.55160000  1.0 0.1321317481
H  H170  1  0.46160000  0.55160000  0.29650000  1.0 0.1321317481
H  H171  1  0.55160000  0.29650000  0.46160000  1.0 0.1321317481
H  H172  1  0.34530000  0.47350000  0.49480000  1.0 0.1321317481
H  H173  1  0.47350000  0.49480000  0.34530000  1.0 0.1321317481
H  H174  1  0.49480000  0.34530000  0.47350000  1.0 0.1321317481
H  H175  1  0.45010000  0.42310000  0.57300000  1.0 0.1208356616
H  H176  1  0.42310000  0.57300000  0.45010000  1.0 0.1208356616
H  H177  1  0.57300000  0.45010000  0.42310000  1.0 0.1208356616
H  H178  1  0.40130000  0.41370000  0.63240000  1.0 0.1372422867
H  H179  1  0.41370000  0.63240000  0.40130000  1.0 0.1372422867
H  H180  1  0.63240000  0.40130000  0.41370000  1.0 0.1372422867
H  H181  1  0.32780000  0.98940000  0.74590000  1.0 0.1208356616
H  H182  1  0.98940000  0.74590000  0.32780000  1.0 0.1208356616
H  H183  1  0.74590000  0.32780000  0.98940000  1.0 0.1208356616
H  H184  1  0.40130000  0.96550000  0.76920000  1.0 0.1102953669
H  H185  1  0.96550000  0.76920000  0.40130000  1.0 0.1030185766
H  H186  1  0.76920000  0.40130000  0.96550000  1.0 0.1030185766
H  H187  1  0.47110000  0.09150000  0.74590000  1.0 0.1030185766
H  H188  1  0.09150000  0.74590000  0.47110000  1.0 0.1030185766
H  H189  1  0.74590000  0.47110000  0.09150000  1.0 0.1030185766
H  H190  1  0.39760000  0.11540000  0.72260000  1.0 0.1208356616
H  H191  1  0.11540000  0.72260000  0.39760000  1.0 0.1208356616
H  H192  1  0.72260000  0.39760000  0.11540000  1.0 0.1208356616
C  C1  1  0.74480000  0.67390000  0.30400000  1.0 0.5378295759
C  C2  1  0.67390000  0.30400000  0.74480000  1.0 0.5378295759
C  C3  1  0.30400000  0.74480000  0.67390000  1.0 0.5378295759
C  C4  1  0.74180000  0.72480000  0.30290000  1.0 -0.0030614049
C  C5  1  0.72480000  0.30290000  0.74180000  1.0 -0.0030614049
C  C6  1  0.30290000  0.74180000  0.72480000  1.0 -0.0030614049
C  C7  1  0.77290000  0.75980000  0.33460000  1.0 -0.0906634158
C  C8  1  0.75980000  0.33460000  0.77290000  1.0 -0.0906634158
C  C9  1  0.33460000  0.77290000  0.75980000  1.0 -0.0906634158
C  C10  1  0.77120000  0.80780000  0.33270000  1.0 -0.1206934433
C  C11  1  0.80780000  0.33270000  0.77120000  1.0 -0.1206934433
C  C12  1  0.33270000  0.77120000  0.80780000  1.0 -0.1206934433
C  C13  1  0.73790000  0.82080000  0.30110000  1.0 0.0280569915
C  C14  1  0.82080000  0.30110000  0.73790000  1.0 0.0280569915
C  C15  1  0.30110000  0.73790000  0.82080000  1.0 0.0280569915
C  C16  1  0.70570000  0.78630000  0.26880000  1.0 -0.1206934433
C  C17  1  0.78630000  0.26880000  0.70570000  1.0 -0.1206934433
C  C18  1  0.26880000  0.70570000  0.78630000  1.0 -0.1206934433
C  C19  1  0.70860000  0.73770000  0.27010000  1.0 -0.0906634158
C  C20  1  0.73770000  0.27010000  0.70860000  1.0 -0.0906634158
C  C21  1  0.27010000  0.70860000  0.73770000  1.0 -0.0906634158
C  C22  1  0.73390000  0.87170000  0.30100000  1.0 0.3636384272
C  C23  1  0.87170000  0.30100000  0.73390000  1.0 0.3636384272
C  C24  1  0.30100000  0.73390000  0.87170000  1.0 0.3636384272
C  C25  1  0.68820000  0.92780000  0.28520000  1.0 0.2877093037
C  C26  1  0.92780000  0.28520000  0.68820000  1.0 0.2877093037
C  C27  1  0.28520000  0.68820000  0.92780000  1.0 0.2877093037
C  C28  1  0.76690000  0.94980000  0.32010000  1.0 0.3515803993
C  C29  1  0.94980000  0.32010000  0.76690000  1.0 0.3515803993
C  C30  1  0.32010000  0.76690000  0.94980000  1.0 0.3515803993
C  C31  1  0.64130000  0.93920000  0.26730000  1.0 0.0018876425
C  C32  1  0.93920000  0.26730000  0.64130000  1.0 0.0018876425
C  C33  1  0.26730000  0.64130000  0.93920000  1.0 0.0018876425
C  C34  1  0.61230000  0.90850000  0.22980000  1.0 -0.0404759527
C  C35  1  0.90850000  0.22980000  0.61230000  1.0 -0.0404759527
C  C36  1  0.22980000  0.61230000  0.90850000  1.0 -0.0404759527
C  C37  1  0.56990000  0.91920000  0.20990000  1.0 -0.0906634158
C  C38  1  0.91920000  0.20990000  0.56990000  1.0 -0.0906634158
C  C39  1  0.20990000  0.56990000  0.91920000  1.0 -0.0906634158
C  C40  1  0.55530000  0.95620000  0.22740000  1.0 0.0395003025
C  C41  1  0.95620000  0.22740000  0.55530000  1.0 0.0395003025
C  C42  1  0.22740000  0.55530000  0.95620000  1.0 0.0395003025
C  C43  1  0.58090000  0.98760000  0.26850000  1.0 -0.0404759527
C  C44  1  0.98760000  0.26850000  0.58090000  1.0 -0.0404759527
C  C45  1  0.26850000  0.58090000  0.98760000  1.0 -0.0404759527
C  C46  1  0.62650000  0.97880000  0.28750000  1.0 -0.0404759527
C  C47  1  0.97880000  0.28750000  0.62650000  1.0 -0.0404759527
C  C48  1  0.28750000  0.62650000  0.97880000  1.0 -0.0404759527
C  C49  1  0.51070000  0.97080000  0.20040000  1.0 0.244217364
C  C50  1  0.97080000  0.20040000  0.51070000  1.0 0.244217364
C  C51  1  0.20040000  0.51070000  0.97080000  1.0 0.244217364
C  C52  1  0.80760000  0.98710000  0.33960000  1.0 0.0091804662
C  C53  1  0.98710000  0.33960000  0.80760000  1.0 0.0091804662
C  C54  1  0.33960000  0.80760000  0.98710000  1.0 0.0091804662
C  C55  1  0.80700000  0.03410000  0.33220000  1.0 -0.1206934433
C  C56  1  0.03410000  0.33220000  0.80700000  1.0 -0.1206934433
C  C57  1  0.33220000  0.80700000  0.03410000  1.0 -0.1206934433
C  C58  1  0.84560000  0.06900000  0.35140000  1.0 -0.0906634158
C  C59  1  0.06900000  0.35140000  0.84560000  1.0 -0.0906634158
C  C60  1  0.35140000  0.84560000  0.06900000  1.0 -0.0906634158
C  C61  1  0.88660000  0.05740000  0.37690000  1.0 0.0200842537
C  C62  1  0.05740000  0.37690000  0.88660000  1.0 0.0200842537
C  C63  1  0.37690000  0.88660000  0.05740000  1.0 0.0200842537
C  C64  1  0.88700000  0.01070000  0.38360000  1.0 -0.0906634158
C  C65  1  0.01070000  0.38360000  0.88700000  1.0 -0.0906634158
C  C66  1  0.38360000  0.88700000  0.01070000  1.0 -0.0906634158
C  C67  1  0.84860000  0.97590000  0.36470000  1.0 -0.1206934433
C  C68  1  0.97590000  0.36470000  0.84860000  1.0 -0.1206934433
C  C69  1  0.36470000  0.84860000  0.97590000  1.0 -0.1206934433
C  C70  1  0.92890000  0.09510000  0.39830000  1.0 0.5115297616
C  C71  1  0.09510000  0.39830000  0.92890000  1.0 0.5115297616
C  C72  1  0.39830000  0.92890000  0.09510000  1.0 0.5115297616
C  C73  1  0.70440000  0.50340000  0.24220000  1.0 0.5378295759
C  C74  1  0.50340000  0.24220000  0.70440000  1.0 0.5378295759
C  C75  1  0.24220000  0.70440000  0.50340000  1.0 0.5378295759
C  C76  1  0.66240000  0.46380000  0.16120000  1.0 -0.0906634158
C  C77  1  0.46380000  0.16120000  0.66240000  1.0 -0.0906634158
C  C78  1  0.16120000  0.66240000  0.46380000  1.0 -0.0906634158
C  C79  1  0.67910000  0.46070000  0.20760000  1.0 0.0018876425
C  C80  1  0.46070000  0.20760000  0.67910000  1.0 0.0018876425
C  C81  1  0.20760000  0.67910000  0.46070000  1.0 0.0018876425
C  C82  1  0.63960000  0.42450000  0.12910000  1.0 -0.1318137269
C  C83  1  0.42450000  0.12910000  0.63960000  1.0 -0.1318137269
C  C84  1  0.12910000  0.63960000  0.42450000  1.0 -0.1318137269
C  C85  1  0.63180000  0.37990000  0.14400000  1.0 0.0200842537
C  C86  1  0.37990000  0.14400000  0.63180000  1.0 0.0200842537
C  C87  1  0.14400000  0.63180000  0.37990000  1.0 0.0200842537
C  C88  1  0.64820000  0.37670000  0.19080000  1.0 -0.1206934433
C  C89  1  0.37670000  0.19080000  0.64820000  1.0 -0.1206934433
C  C90  1  0.19080000  0.64820000  0.37670000  1.0 -0.1206934433
C  C91  1  0.67250000  0.41640000  0.22220000  1.0 -0.0906634158
C  C92  1  0.41640000  0.22220000  0.67250000  1.0 -0.0906634158
C  C93  1  0.22220000  0.67250000  0.41640000  1.0 -0.0906634158
C  C94  1  0.60680000  0.33780000  0.10970000  1.0 0.3636384272
C  C95  1  0.33780000  0.10970000  0.60680000  1.0 0.3636384272
C  C96  1  0.10970000  0.60680000  0.33780000  1.0 0.3636384272
C  C97  1  0.57030000  0.26130000  0.09580000  1.0 0.3636384272
C  C98  1  0.26130000  0.09580000  0.57030000  1.0 0.3636384272
C  C99  1  0.09580000  0.57030000  0.26130000  1.0 0.3636384272
C  C100  1  0.58000000  0.29930000  0.98180000  1.0 0.0200842537
C  C101  1  0.29930000  0.98180000  0.58000000  1.0 0.0200842537
C  C102  1  0.98180000  0.58000000  0.29930000  1.0 0.0200842537
C  C103  1  0.54870000  0.21790000  0.11310000  1.0 0.0091804662
C  C104  1  0.21790000  0.11310000  0.54870000  1.0 0.0091804662
C  C105  1  0.11310000  0.54870000  0.21790000  1.0 0.0091804662
C  C106  1  0.54220000  0.21980000  0.15970000  1.0 -0.1104053102
C  C107  1  0.21980000  0.15970000  0.54220000  1.0 -0.1104053102
C  C108  1  0.15970000  0.54220000  0.21980000  1.0 -0.1104053102
C  C109  1  0.51980000  0.17960000  0.17400000  1.0 -0.0906634158
C  C110  1  0.17960000  0.17400000  0.51980000  1.0 -0.0906634158
C  C111  1  0.17400000  0.51980000  0.17960000  1.0 -0.0906634158
C  C112  1  0.50890000  0.13650000  0.14460000  1.0 0.0091804662
C  C113  1  0.13650000  0.14460000  0.50890000  1.0 0.0091804662
C  C114  1  0.14460000  0.50890000  0.13650000  1.0 0.0091804662
C  C115  1  0.51950000  0.13350000  0.09890000  1.0 -0.1104053102
C  C116  1  0.13350000  0.09890000  0.51950000  1.0 -0.1104053102
C  C117  1  0.09890000  0.51950000  0.13350000  1.0 -0.1104053102
C  C118  1  0.53900000  0.17400000  0.08180000  1.0 -0.1104053102
C  C119  1  0.17400000  0.08180000  0.53900000  1.0 -0.1104053102
C  C120  1  0.08180000  0.53900000  0.17400000  1.0 -0.1104053102
C  C121  1  0.48780000  0.09140000  0.15830000  1.0 0.5299165874
C  C122  1  0.09140000  0.15830000  0.48780000  1.0 0.5299165874
C  C123  1  0.15830000  0.48780000  0.09140000  1.0 0.5299165874
C  C124  1  0.58260000  0.29960000  0.03350000  1.0 0.3688042342
C  C125  1  0.29960000  0.03350000  0.58260000  1.0 0.3688042342
C  C126  1  0.03350000  0.58260000  0.29960000  1.0 0.3688042342
C  C127  1  0.57560000  0.25620000  0.95100000  1.0 -0.1318137269
C  C128  1  0.25620000  0.95100000  0.57560000  1.0 -0.1318137269
C  C129  1  0.95100000  0.57560000  0.25620000  1.0 -0.1318137269
C  C130  1  0.57540000  0.25610000  0.90270000  1.0 -0.0906634158
C  C131  1  0.25610000  0.90270000  0.57540000  1.0 -0.0906634158
C  C132  1  0.90270000  0.57540000  0.25610000  1.0 -0.0906634158
C  C133  1  0.57910000  0.29850000  0.88540000  1.0 0.0018876425
C  C134  1  0.29850000  0.88540000  0.57910000  1.0 0.0018876425
C  C135  1  0.88540000  0.57910000  0.29850000  1.0 0.0018876425
C  C136  1  0.58310000  0.34190000  0.91570000  1.0 -0.0906634158
C  C137  1  0.34190000  0.91570000  0.58310000  1.0 -0.0906634158
C  C138  1  0.91570000  0.58310000  0.34190000  1.0 -0.0906634158
C  C139  1  0.58440000  0.34220000  0.96420000  1.0 -0.1401378557
C  C140  1  0.34220000  0.96420000  0.58440000  1.0 -0.1401378557
C  C141  1  0.96420000  0.58440000  0.34220000  1.0 -0.1401378557
C  C142  1  0.57970000  0.29960000  0.83360000  1.0 0.5378295759
C  C143  1  0.29960000  0.83360000  0.57970000  1.0 0.5378295759
C  C144  1  0.83360000  0.57970000  0.29960000  1.0 0.5378295759
C  C145  1  0.68700000  0.57010000  0.36600000  1.0 0.5299165874
C  C146  1  0.57010000  0.36600000  0.68700000  1.0 0.5299165874
C  C147  1  0.36600000  0.68700000  0.57010000  1.0 0.5299165874
C  C148  1  0.65540000  0.56260000  0.40210000  1.0 0.0018876425
C  C149  1  0.56260000  0.40210000  0.65540000  1.0 0.0018876425
C  C150  1  0.40210000  0.65540000  0.56260000  1.0 0.0018876425
C  C151  1  0.67200000  0.54560000  0.44360000  1.0 -0.0906634158
C  C152  1  0.54560000  0.44360000  0.67200000  1.0 -0.0906634158
C  C153  1  0.44360000  0.67200000  0.54560000  1.0 -0.0906634158
C  C154  1  0.64340000  0.53930000  0.47760000  1.0 -0.1104053102
C  C155  1  0.53930000  0.47760000  0.64340000  1.0 -0.1104053102
C  C156  1  0.47760000  0.64340000  0.53930000  1.0 -0.1104053102
C  C157  1  0.59840000  0.55170000  0.47150000  1.0 0.0280569915
C  C158  1  0.55170000  0.47150000  0.59840000  1.0 0.0280569915
C  C159  1  0.47150000  0.59840000  0.55170000  1.0 0.0280569915
C  C160  1  0.58130000  0.56880000  0.43100000  1.0 -0.1104053102
C  C161  1  0.56880000  0.43100000  0.58130000  1.0 -0.1104053102
C  C162  1  0.43100000  0.58130000  0.56880000  1.0 -0.1104053102
C  C163  1  0.61030000  0.57450000  0.39570000  1.0 -0.0906634158
C  C164  1  0.57450000  0.39570000  0.61030000  1.0 -0.0906634158
C  C165  1  0.39570000  0.61030000  0.57450000  1.0 -0.0906634158
C  C166  1  0.56770000  0.54620000  0.50860000  1.0 0.3688042342
C  C167  1  0.54620000  0.50860000  0.56770000  1.0 0.3688042342
C  C168  1  0.50860000  0.56770000  0.54620000  1.0 0.3688042342
C  C169  1  0.04280000  0.11430000  0.34380000  1.0 0.2643436372
C  C170  1  0.11430000  0.34380000  0.04280000  1.0 0.2643436372
C  C171  1  0.34380000  0.04280000  0.11430000  1.0 0.2643436372
C  C172  1  0.06230000  0.11990000  0.29650000  1.0 0.0200842537
C  C173  1  0.11990000  0.29650000  0.06230000  1.0 0.0200842537
C  C174  1  0.29650000  0.06230000  0.11990000  1.0 0.0200842537
C  C175  1  0.05080000  0.15280000  0.26730000  1.0 0.0200842537
C  C176  1  0.15280000  0.26730000  0.05080000  1.0 0.0200842537
C  C177  1  0.26730000  0.05080000  0.15280000  1.0 0.0200842537
C  C178  1  0.07050000  0.15480000  0.22580000  1.0 -0.0527913056
C  C179  1  0.15480000  0.22580000  0.07050000  1.0 -0.0527913056
C  C180  1  0.22580000  0.07050000  0.15480000  1.0 -0.0527913056
C  C181  1  0.10200000  0.12420000  0.21380000  1.0 0.0200842537
C  C182  1  0.12420000  0.21380000  0.10200000  1.0 0.0200842537
C  C183  1  0.21380000  0.10200000  0.12420000  1.0 0.0200842537
C  C184  1  0.11330000  0.09090000  0.24270000  1.0 -0.1206934433
C  C185  1  0.09090000  0.24270000  0.11330000  1.0 -0.1206934433
C  C186  1  0.24270000  0.11330000  0.09090000  1.0 -0.1206934433
C  C187  1  0.09370000  0.08900000  0.28430000  1.0 -0.0673226247
C  C188  1  0.08900000  0.28430000  0.09370000  1.0 -0.0673226247
C  C189  1  0.28430000  0.09370000  0.08900000  1.0 -0.0673226247
C  C190  1  0.13210000  0.13380000  0.17410000  1.0 0.1372422867
C  C191  1  0.13380000  0.17410000  0.13210000  1.0 0.1372422867
C  C192  1  0.17410000  0.13210000  0.13380000  1.0 0.1372422867
C  C193  1  0.64450000  0.94550000  0.26800000  1.0 -0.0030614049
C  C194  1  0.94550000  0.26800000  0.64450000  1.0 0.0018876425
C  C195  1  0.26800000  0.64450000  0.94550000  1.0 -0.0030614049
C  C196  1  0.64370000  0.98970000  0.25370000  1.0 -0.0589698039
C  C197  1  0.98970000  0.25370000  0.64370000  1.0 -0.0589698039
C  C198  1  0.25370000  0.64370000  0.98970000  1.0 -0.0589698039
C  C199  1  0.59940000  0.00400000  0.24020000  1.0 -0.0673226247
C  C200  1  0.00400000  0.24020000  0.59940000  1.0 -0.0673226247
C  C201  1  0.24020000  0.59940000  0.00400000  1.0 -0.0673226247
C  C202  1  0.55720000  0.97380000  0.24000000  1.0 0.0451882809
C  C203  1  0.97380000  0.24000000  0.55720000  1.0 0.0395003025
C  C204  1  0.24000000  0.55720000  0.97380000  1.0 0.0395003025
C  C205  1  0.55810000  0.92910000  0.25410000  1.0 -0.0673226247
C  C206  1  0.92910000  0.25410000  0.55810000  1.0 -0.0673226247
C  C207  1  0.25410000  0.55810000  0.92910000  1.0 -0.0673226247
C  C208  1  0.60250000  0.91550000  0.26800000  1.0 -0.0297403554
C  C209  1  0.91550000  0.26800000  0.60250000  1.0 -0.0297403554
C  C210  1  0.26800000  0.60250000  0.91550000  1.0 -0.0297403554
C  C211  1  0.51300000  0.99200000  0.23900000  1.0 0.2065669253
C  C212  1  0.99200000  0.23900000  0.51300000  1.0 0.2065669253
C  C213  1  0.23900000  0.51300000  0.99200000  1.0 0.2065669253
C  C214  1  0.03720000  0.16140000  0.36290000  1.0 0.0395003025
C  C215  1  0.16140000  0.36290000  0.03720000  1.0 0.0395003025
C  C216  1  0.36290000  0.03720000  0.16140000  1.0 0.0395003025
C  C217  1  0.06540000  0.16600000  0.32110000  1.0 0.1102953669
C  C218  1  0.16600000  0.32110000  0.06540000  1.0 0.1102953669
C  C219  1  0.32110000  0.06540000  0.16600000  1.0 0.1102953669
C  C220  1  0.06560000  0.20440000  0.29630000  1.0 -0.0297403554
C  C221  1  0.20440000  0.29630000  0.06560000  1.0 -0.0297403554
C  C222  1  0.29630000  0.06560000  0.20440000  1.0 -0.0222061123
C  C223  1  0.09150000  0.20660000  0.25890000  1.0 -0.0297403554
C  C224  1  0.20660000  0.25890000  0.09150000  1.0 -0.0297403554
C  C225  1  0.25890000  0.09150000  0.20660000  1.0 -0.0297403554
C  C226  1  0.11730000  0.17030000  0.24630000  1.0 -0.0222061123
C  C227  1  0.17030000  0.24630000  0.11730000  1.0 -0.0222061123
C  C228  1  0.24630000  0.11730000  0.17030000  1.0 -0.0222061123
C  C229  1  0.11710000  0.13190000  0.27110000  1.0 0.0451882809
C  C230  1  0.13190000  0.27110000  0.11710000  1.0 0.0451882809
C  C231  1  0.27110000  0.11710000  0.13190000  1.0 0.0451882809
C  C232  1  0.09110000  0.12980000  0.30850000  1.0 -0.0404759527
C  C233  1  0.12980000  0.30850000  0.09110000  1.0 -0.0404759527
C  C234  1  0.30850000  0.09110000  0.12980000  1.0 -0.0404759527
C  C235  1  0.15040000  0.17540000  0.20870000  1.0 0.1372422867
C  C236  1  0.17540000  0.20870000  0.15040000  1.0 0.1372422867
C  C237  1  0.20870000  0.15040000  0.17540000  1.0 0.1372422867
C  C238  1  0.25520000  0.32610000  0.69600000  1.0 0.5378295759
C  C239  1  0.32610000  0.69600000  0.25520000  1.0 0.5378295759
C  C240  1  0.69600000  0.25520000  0.32610000  1.0 0.5378295759
C  C241  1  0.25820000  0.27520000  0.69710000  1.0 -0.0030614049
C  C242  1  0.27520000  0.69710000  0.25820000  1.0 -0.0030614049
C  C243  1  0.69710000  0.25820000  0.27520000  1.0 -0.0030614049
C  C244  1  0.22710000  0.24020000  0.66540000  1.0 -0.0906634158
C  C245  1  0.24020000  0.66540000  0.22710000  1.0 -0.0906634158
C  C246  1  0.66540000  0.22710000  0.24020000  1.0 -0.0906634158
C  C247  1  0.22880000  0.19220000  0.66730000  1.0 -0.1206934433
C  C248  1  0.19220000  0.66730000  0.22880000  1.0 -0.1206934433
C  C249  1  0.66730000  0.22880000  0.19220000  1.0 -0.1206934433
C  C250  1  0.26210000  0.17920000  0.69890000  1.0 0.0280569915
C  C251  1  0.17920000  0.69890000  0.26210000  1.0 0.0280569915
C  C252  1  0.69890000  0.26210000  0.17920000  1.0 0.0280569915
C  C253  1  0.29430000  0.21370000  0.73120000  1.0 -0.1206934433
C  C254  1  0.21370000  0.73120000  0.29430000  1.0 -0.1206934433
C  C255  1  0.73120000  0.29430000  0.21370000  1.0 -0.1206934433
C  C256  1  0.29140000  0.26230000  0.72990000  1.0 -0.0906634158
C  C257  1  0.26230000  0.72990000  0.29140000  1.0 -0.0906634158
C  C258  1  0.72990000  0.29140000  0.26230000  1.0 -0.0906634158
C  C259  1  0.26610000  0.12830000  0.69900000  1.0 0.3636384272
C  C260  1  0.12830000  0.69900000  0.26610000  1.0 0.3636384272
C  C261  1  0.69900000  0.26610000  0.12830000  1.0 0.3636384272
C  C262  1  0.31180000  0.07220000  0.71480000  1.0 0.2877093037
C  C263  1  0.07220000  0.71480000  0.31180000  1.0 0.2877093037
C  C264  1  0.71480000  0.31180000  0.07220000  1.0 0.2877093037
C  C265  1  0.23310000  0.05020000  0.67990000  1.0 0.3515803993
C  C266  1  0.05020000  0.67990000  0.23310000  1.0 0.3515803993
C  C267  1  0.67990000  0.23310000  0.05020000  1.0 0.3515803993
C  C268  1  0.35870000  0.06080000  0.73270000  1.0 0.0018876425
C  C269  1  0.06080000  0.73270000  0.35870000  1.0 0.0018876425
C  C270  1  0.73270000  0.35870000  0.06080000  1.0 0.0018876425
C  C271  1  0.38770000  0.09150000  0.77020000  1.0 -0.0404759527
C  C272  1  0.09150000  0.77020000  0.38770000  1.0 -0.0404759527
C  C273  1  0.77020000  0.38770000  0.09150000  1.0 -0.0404759527
C  C274  1  0.43010000  0.08080000  0.79010000  1.0 -0.0906634158
C  C275  1  0.08080000  0.79010000  0.43010000  1.0 -0.0906634158
C  C276  1  0.79010000  0.43010000  0.08080000  1.0 -0.0906634158
C  C277  1  0.44470000  0.04380000  0.77260000  1.0 0.0395003025
C  C278  1  0.04380000  0.77260000  0.44470000  1.0 0.0395003025
C  C279  1  0.77260000  0.44470000  0.04380000  1.0 0.0395003025
C  C280  1  0.41910000  0.01240000  0.73150000  1.0 -0.0404759527
C  C281  1  0.01240000  0.73150000  0.41910000  1.0 -0.0404759527
C  C282  1  0.73150000  0.41910000  0.01240000  1.0 -0.0404759527
C  C283  1  0.37350000  0.02120000  0.71250000  1.0 -0.0404759527
C  C284  1  0.02120000  0.71250000  0.37350000  1.0 -0.0404759527
C  C285  1  0.71250000  0.37350000  0.02120000  1.0 -0.0404759527
C  C286  1  0.48930000  0.02920000  0.79960000  1.0 0.244217364
C  C287  1  0.02920000  0.79960000  0.48930000  1.0 0.244217364
C  C288  1  0.79960000  0.48930000  0.02920000  1.0 0.244217364
C  C289  1  0.19240000  0.01290000  0.66040000  1.0 0.0091804662
C  C290  1  0.01290000  0.66040000  0.19240000  1.0 0.0091804662
C  C291  1  0.66040000  0.19240000  0.01290000  1.0 0.0091804662
C  C292  1  0.19300000  0.96590000  0.66780000  1.0 -0.1206934433
C  C293  1  0.96590000  0.66780000  0.19300000  1.0 -0.1206934433
C  C294  1  0.66780000  0.19300000  0.96590000  1.0 -0.1104053102
C  C295  1  0.15440000  0.93100000  0.64860000  1.0 -0.0906634158
C  C296  1  0.93100000  0.64860000  0.15440000  1.0 -0.0906634158
C  C297  1  0.64860000  0.15440000  0.93100000  1.0 -0.0906634158
C  C298  1  0.11340000  0.94260000  0.62310000  1.0 0.0200842537
C  C299  1  0.94260000  0.62310000  0.11340000  1.0 0.0200842537
C  C300  1  0.62310000  0.11340000  0.94260000  1.0 0.0200842537
C  C301  1  0.11300000  0.98930000  0.61640000  1.0 -0.0906634158
C  C302  1  0.98930000  0.61640000  0.11300000  1.0 -0.0906634158
C  C303  1  0.61640000  0.11300000  0.98930000  1.0 -0.0906634158
C  C304  1  0.15140000  0.02410000  0.63530000  1.0 -0.1206934433
C  C305  1  0.02410000  0.63530000  0.15140000  1.0 -0.1206934433
C  C306  1  0.63530000  0.15140000  0.02410000  1.0 -0.1206934433
C  C307  1  0.07110000  0.90490000  0.60170000  1.0 0.5115297616
C  C308  1  0.90490000  0.60170000  0.07110000  1.0 0.5115297616
C  C309  1  0.60170000  0.07110000  0.90490000  1.0 0.5115297616
C  C310  1  0.29560000  0.49660000  0.75780000  1.0 0.5378295759
C  C311  1  0.49660000  0.75780000  0.29560000  1.0 0.5378295759
C  C312  1  0.75780000  0.29560000  0.49660000  1.0 0.5378295759
C  C313  1  0.33760000  0.53620000  0.83880000  1.0 -0.0906634158
C  C314  1  0.53620000  0.83880000  0.33760000  1.0 -0.0906634158
C  C315  1  0.83880000  0.33760000  0.53620000  1.0 -0.0906634158
C  C316  1  0.32090000  0.53930000  0.79240000  1.0 0.0018876425
C  C317  1  0.53930000  0.79240000  0.32090000  1.0 0.0018876425
C  C318  1  0.79240000  0.32090000  0.53930000  1.0 0.0018876425
C  C319  1  0.36040000  0.57550000  0.87090000  1.0 -0.1318137269
C  C320  1  0.57550000  0.87090000  0.36040000  1.0 -0.1318137269
C  C321  1  0.87090000  0.36040000  0.57550000  1.0 -0.1318137269
C  C322  1  0.36820000  0.62010000  0.85600000  1.0 0.0200842537
C  C323  1  0.62010000  0.85600000  0.36820000  1.0 0.0200842537
C  C324  1  0.85600000  0.36820000  0.62010000  1.0 0.0200842537
C  C325  1  0.35180000  0.62330000  0.80920000  1.0 -0.1206934433
C  C326  1  0.62330000  0.80920000  0.35180000  1.0 -0.1206934433
C  C327  1  0.80920000  0.35180000  0.62330000  1.0 -0.1206934433
C  C328  1  0.32750000  0.58360000  0.77780000  1.0 -0.0906634158
C  C329  1  0.58360000  0.77780000  0.32750000  1.0 -0.0906634158
C  C330  1  0.77780000  0.32750000  0.58360000  1.0 -0.0906634158
C  C331  1  0.39320000  0.66220000  0.89030000  1.0 0.3636384272
C  C332  1  0.66220000  0.89030000  0.39320000  1.0 0.3636384272
C  C333  1  0.89030000  0.39320000  0.66220000  1.0 0.3636384272
C  C334  1  0.42970000  0.73870000  0.90420000  1.0 0.3636384272
C  C335  1  0.73870000  0.90420000  0.42970000  1.0 0.3636384272
C  C336  1  0.90420000  0.42970000  0.73870000  1.0 0.3636384272
C  C337  1  0.42000000  0.70070000  0.01820000  1.0 0.0200842537
C  C338  1  0.70070000  0.01820000  0.42000000  1.0 0.0200842537
C  C339  1  0.01820000  0.42000000  0.70070000  1.0 0.0200842537
C  C340  1  0.45130000  0.78210000  0.88690000  1.0 0.0091804662
C  C341  1  0.78210000  0.88690000  0.45130000  1.0 0.0091804662
C  C342  1  0.88690000  0.45130000  0.78210000  1.0 0.0091804662
C  C343  1  0.45780000  0.78020000  0.84030000  1.0 -0.1104053102
C  C344  1  0.78020000  0.84030000  0.45780000  1.0 -0.1104053102
C  C345  1  0.84030000  0.45780000  0.78020000  1.0 -0.1104053102
C  C346  1  0.48020000  0.82040000  0.82600000  1.0 -0.0906634158
C  C347  1  0.82040000  0.82600000  0.48020000  1.0 -0.0906634158
C  C348  1  0.82600000  0.48020000  0.82040000  1.0 -0.0906634158
C  C349  1  0.49110000  0.86350000  0.85540000  1.0 0.0091804662
C  C350  1  0.86350000  0.85540000  0.49110000  1.0 0.0091804662
C  C351  1  0.85540000  0.49110000  0.86350000  1.0 0.0091804662
C  C352  1  0.48050000  0.86650000  0.90110000  1.0 -0.1104053102
C  C353  1  0.86650000  0.90110000  0.48050000  1.0 -0.1104053102
C  C354  1  0.90110000  0.48050000  0.86650000  1.0 -0.1104053102
C  C355  1  0.46100000  0.82600000  0.91820000  1.0 -0.1104053102
C  C356  1  0.82600000  0.91820000  0.46100000  1.0 -0.1104053102
C  C357  1  0.91820000  0.46100000  0.82600000  1.0 -0.1104053102
C  C358  1  0.51220000  0.90860000  0.84170000  1.0 0.5299165874
C  C359  1  0.90860000  0.84170000  0.51220000  1.0 0.5299165874
C  C360  1  0.84170000  0.51220000  0.90860000  1.0 0.5299165874
C  C361  1  0.41740000  0.70040000  0.96650000  1.0 0.3688042342
C  C362  1  0.70040000  0.96650000  0.41740000  1.0 0.3688042342
C  C363  1  0.96650000  0.41740000  0.70040000  1.0 0.3688042342
C  C364  1  0.42440000  0.74380000  0.04900000  1.0 -0.1206934433
C  C365  1  0.74380000  0.04900000  0.42440000  1.0 -0.1318137269
C  C366  1  0.04900000  0.42440000  0.74380000  1.0 -0.1318137269
C  C367  1  0.42460000  0.74390000  0.09730000  1.0 -0.0906634158
C  C368  1  0.74390000  0.09730000  0.42460000  1.0 -0.0906634158
C  C369  1  0.09730000  0.42460000  0.74390000  1.0 -0.0906634158
C  C370  1  0.42090000  0.70150000  0.11460000  1.0 0.0018876425
C  C371  1  0.70150000  0.11460000  0.42090000  1.0 0.0018876425
C  C372  1  0.11460000  0.42090000  0.70150000  1.0 0.0018876425
C  C373  1  0.41690000  0.65810000  0.08430000  1.0 -0.0906634158
C  C374  1  0.65810000  0.08430000  0.41690000  1.0 -0.0906634158
C  C375  1  0.08430000  0.41690000  0.65810000  1.0 -0.0906634158
C  C376  1  0.41560000  0.65780000  0.03580000  1.0 -0.1401378557
C  C377  1  0.65780000  0.03580000  0.41560000  1.0 -0.1401378557
C  C378  1  0.03580000  0.41560000  0.65780000  1.0 -0.1401378557
C  C379  1  0.42030000  0.70040000  0.16640000  1.0 0.5378295759
C  C380  1  0.70040000  0.16640000  0.42030000  1.0 0.5378295759
C  C381  1  0.16640000  0.42030000  0.70040000  1.0 0.5378295759
C  C382  1  0.31300000  0.42990000  0.63400000  1.0 0.5299165874
C  C383  1  0.42990000  0.63400000  0.31300000  1.0 0.5299165874
C  C384  1  0.63400000  0.31300000  0.42990000  1.0 0.5299165874
C  C385  1  0.34460000  0.43740000  0.59790000  1.0 0.0018876425
C  C386  1  0.43740000  0.59790000  0.34460000  1.0 0.0018876425
C  C387  1  0.59790000  0.34460000  0.43740000  1.0 0.0018876425
C  C388  1  0.32800000  0.45440000  0.55640000  1.0 -0.0906634158
C  C389  1  0.45440000  0.55640000  0.32800000  1.0 -0.0906634158
C  C390  1  0.55640000  0.32800000  0.45440000  1.0 -0.0906634158
C  C391  1  0.35660000  0.46070000  0.52240000  1.0 -0.1104053102
C  C392  1  0.46070000  0.52240000  0.35660000  1.0 -0.1104053102
C  C393  1  0.52240000  0.35660000  0.46070000  1.0 -0.1104053102
C  C394  1  0.40160000  0.44830000  0.52850000  1.0 0.0280569915
C  C395  1  0.44830000  0.52850000  0.40160000  1.0 0.0280569915
C  C396  1  0.52850000  0.40160000  0.44830000  1.0 0.0280569915
C  C397  1  0.41870000  0.43120000  0.56900000  1.0 -0.1104053102
C  C398  1  0.43120000  0.56900000  0.41870000  1.0 -0.1104053102
C  C399  1  0.56900000  0.41870000  0.43120000  1.0 -0.1104053102
C  C400  1  0.38970000  0.42550000  0.60430000  1.0 -0.0906634158
C  C401  1  0.42550000  0.60430000  0.38970000  1.0 -0.0906634158
C  C402  1  0.60430000  0.38970000  0.42550000  1.0 -0.0906634158
C  C403  1  0.43230000  0.45380000  0.49140000  1.0 0.3688042342
C  C404  1  0.45380000  0.49140000  0.43230000  1.0 0.3688042342
C  C405  1  0.49140000  0.43230000  0.45380000  1.0 0.3688042342
C  C406  1  0.95720000  0.88570000  0.65620000  1.0 0.2643436372
C  C407  1  0.88570000  0.65620000  0.95720000  1.0 0.2643436372
C  C408  1  0.65620000  0.95720000  0.88570000  1.0 0.2643436372
C  C409  1  0.93770000  0.88010000  0.70350000  1.0 0.0200842537
C  C410  1  0.88010000  0.70350000  0.93770000  1.0 0.0200842537
C  C411  1  0.70350000  0.93770000  0.88010000  1.0 0.0200842537
C  C412  1  0.94920000  0.84720000  0.73270000  1.0 0.0200842537
C  C413  1  0.84720000  0.73270000  0.94920000  1.0 0.0200842537
C  C414  1  0.73270000  0.94920000  0.84720000  1.0 0.0200842537
C  C415  1  0.92950000  0.84520000  0.77420000  1.0 -0.0527913056
C  C416  1  0.84520000  0.77420000  0.92950000  1.0 -0.0527913056
C  C417  1  0.77420000  0.92950000  0.84520000  1.0 -0.0527913056
C  C418  1  0.89800000  0.87580000  0.78620000  1.0 0.0200842537
C  C419  1  0.87580000  0.78620000  0.89800000  1.0 0.0200842537
C  C420  1  0.78620000  0.89800000  0.87580000  1.0 0.0200842537
C  C421  1  0.88670000  0.90910000  0.75730000  1.0 -0.1206934433
C  C422  1  0.90910000  0.75730000  0.88670000  1.0 -0.1206934433
C  C423  1  0.75730000  0.88670000  0.90910000  1.0 -0.1206934433
C  C424  1  0.90630000  0.91100000  0.71570000  1.0 -0.0589698039
C  C425  1  0.91100000  0.71570000  0.90630000  1.0 -0.0589698039
C  C426  1  0.71570000  0.90630000  0.91100000  1.0 -0.0589698039
C  C427  1  0.86790000  0.86620000  0.82590000  1.0 0.1372422867
C  C428  1  0.86620000  0.82590000  0.86790000  1.0 0.1372422867
C  C429  1  0.82590000  0.86790000  0.86620000  1.0 0.1372422867
C  C430  1  0.35550000  0.05450000  0.73200000  1.0 -0.0030614049
C  C431  1  0.05450000  0.73200000  0.35550000  1.0 -0.0030614049
C  C432  1  0.73200000  0.35550000  0.05450000  1.0 0.0018876425
C  C433  1  0.35630000  0.01030000  0.74630000  1.0 -0.0589698039
C  C434  1  0.01030000  0.74630000  0.35630000  1.0 -0.0589698039
C  C435  1  0.74630000  0.35630000  0.01030000  1.0 -0.0589698039
C  C436  1  0.40060000  0.99600000  0.75980000  1.0 -0.0673226247
C  C437  1  0.99600000  0.75980000  0.40060000  1.0 -0.0673226247
C  C438  1  0.75980000  0.40060000  0.99600000  1.0 -0.0673226247
C  C439  1  0.44280000  0.02620000  0.76000000  1.0 0.0395003025
C  C440  1  0.02620000  0.76000000  0.44280000  1.0 0.0451882809
C  C441  1  0.76000000  0.44280000  0.02620000  1.0 0.0451882809
C  C442  1  0.44190000  0.07090000  0.74590000  1.0 -0.0673226247
C  C443  1  0.07090000  0.74590000  0.44190000  1.0 -0.0673226247
C  C444  1  0.74590000  0.44190000  0.07090000  1.0 -0.0673226247
C  C445  1  0.39750000  0.08450000  0.73200000  1.0 -0.0297403554
C  C446  1  0.08450000  0.73200000  0.39750000  1.0 -0.0297403554
C  C447  1  0.73200000  0.39750000  0.08450000  1.0 -0.0297403554
C  C448  1  0.48700000  0.00800000  0.76100000  1.0 0.2065669253
C  C449  1  0.00800000  0.76100000  0.48700000  1.0 0.2065669253
C  C450  1  0.76100000  0.48700000  0.00800000  1.0 0.2065669253
C  C451  1  0.96280000  0.83860000  0.63710000  1.0 0.0395003025
C  C452  1  0.83860000  0.63710000  0.96280000  1.0 0.0395003025
C  C453  1  0.63710000  0.96280000  0.83860000  1.0 0.0395003025
C  C454  1  0.93460000  0.83400000  0.67890000  1.0 0.1102953669
C  C455  1  0.83400000  0.67890000  0.93460000  1.0 0.1102953669
C  C456  1  0.67890000  0.93460000  0.83400000  1.0 0.1102953669
C  C457  1  0.93440000  0.79560000  0.70370000  1.0 -0.0222061123
C  C458  1  0.79560000  0.70370000  0.93440000  1.0 -0.0222061123
C  C459  1  0.70370000  0.93440000  0.79560000  1.0 -0.0297403554
C  C460  1  0.90850000  0.79340000  0.74110000  1.0 -0.0297403554
C  C461  1  0.79340000  0.74110000  0.90850000  1.0 -0.0297403554
C  C462  1  0.74110000  0.90850000  0.79340000  1.0 -0.0297403554
C  C463  1  0.88270000  0.82970000  0.75370000  1.0 -0.0222061123
C  C464  1  0.82970000  0.75370000  0.88270000  1.0 -0.0222061123
C  C465  1  0.75370000  0.88270000  0.82970000  1.0 -0.0222061123
C  C466  1  0.88290000  0.86810000  0.72890000  1.0 0.0395003025
C  C467  1  0.86810000  0.72890000  0.88290000  1.0 0.0395003025
C  C468  1  0.72890000  0.88290000  0.86810000  1.0 0.0395003025
C  C469  1  0.90890000  0.87020000  0.69150000  1.0 -0.0404759527
C  C470  1  0.87020000  0.69150000  0.90890000  1.0 -0.0404759527
C  C471  1  0.69150000  0.90890000  0.87020000  1.0 -0.0404759527
C  C472  1  0.84960000  0.82460000  0.79130000  1.0 0.1372422867
C  C473  1  0.82460000  0.79130000  0.84960000  1.0 0.1372422867
C  C474  1  0.79130000  0.84960000  0.82460000  1.0 0.1372422867
N  N1  1  0.69150000  0.88190000  0.28190000  1.0 -0.4063457668
N  N2  1  0.88190000  0.28190000  0.69150000  1.0 -0.4063457668
N  N3  1  0.28190000  0.69150000  0.88190000  1.0 -0.4063457668
N  N4  1  0.77160000  0.90420000  0.32110000  1.0 -0.3924773107
N  N5  1  0.90420000  0.32110000  0.77160000  1.0 -0.3924773107
N  N6  1  0.32110000  0.77160000  0.90420000  1.0 -0.3924773107
N  N7  1  0.72480000  0.96330000  0.30430000  1.0 -0.4215704918
N  N8  1  0.96330000  0.30430000  0.72480000  1.0 -0.4215704918
N  N9  1  0.30430000  0.72480000  0.96330000  1.0 -0.4215704918
N  N10  1  0.58950000  0.29930000  0.12740000  1.0 -0.3820183396
N  N11  1  0.29930000  0.12740000  0.58950000  1.0 -0.3820183396
N  N12  1  0.12740000  0.58950000  0.29930000  1.0 -0.3820183396
N  N13  1  0.56610000  0.25900000  0.04770000  1.0 -0.3924773107
N  N14  1  0.25900000  0.04770000  0.56610000  1.0 -0.3924773107
N  N15  1  0.04770000  0.56610000  0.25900000  1.0 -0.3924773107
N  N16  1  0.60230000  0.34050000  0.06350000  1.0 -0.402601552
N  N17  1  0.34050000  0.06350000  0.60230000  1.0 -0.402601552
N  N18  1  0.06350000  0.60230000  0.34050000  1.0 -0.402601552
N  N19  1  0.57480000  0.51230000  0.53510000  1.0 -0.3924773107
N  N20  1  0.51230000  0.53510000  0.57480000  1.0 -0.3924773107
N  N21  1  0.53510000  0.57480000  0.51230000  1.0 -0.3924773107
N  N22  1  0.16530000  0.10680000  0.16790000  1.0 -0.1620765299
N  N23  1  0.10680000  0.16790000  0.16530000  1.0 -0.1620765299
N  N24  1  0.16790000  0.16530000  0.10680000  1.0 -0.1620765299
N  N25  1  0.18080000  0.14460000  0.20910000  1.0 -0.1401378557
N  N26  1  0.14460000  0.20910000  0.18080000  1.0 -0.1401378557
N  N27  1  0.20910000  0.18080000  0.14460000  1.0 -0.1401378557
N  N28  1  0.30850000  0.11810000  0.71810000  1.0 -0.4063457668
N  N29  1  0.11810000  0.71810000  0.30850000  1.0 -0.4063457668
N  N30  1  0.71810000  0.30850000  0.11810000  1.0 -0.4063457668
N  N31  1  0.22840000  0.09580000  0.67890000  1.0 -0.3924773107
N  N32  1  0.09580000  0.67890000  0.22840000  1.0 -0.3924773107
N  N33  1  0.67890000  0.22840000  0.09580000  1.0 -0.3924773107
N  N34  1  0.27520000  0.03670000  0.69570000  1.0 -0.4215704918
N  N35  1  0.03670000  0.69570000  0.27520000  1.0 -0.4215704918
N  N36  1  0.69570000  0.27520000  0.03670000  1.0 -0.4215704918
N  N37  1  0.41050000  0.70070000  0.87260000  1.0 -0.3820183396
N  N38  1  0.70070000  0.87260000  0.41050000  1.0 -0.3820183396
N  N39  1  0.87260000  0.41050000  0.70070000  1.0 -0.3820183396
N  N40  1  0.43390000  0.74100000  0.95230000  1.0 -0.3924773107
N  N41  1  0.74100000  0.95230000  0.43390000  1.0 -0.3924773107
N  N42  1  0.95230000  0.43390000  0.74100000  1.0 -0.3924773107
N  N43  1  0.39770000  0.65950000  0.93650000  1.0 -0.402601552
N  N44  1  0.65950000  0.93650000  0.39770000  1.0 -0.402601552
N  N45  1  0.93650000  0.39770000  0.65950000  1.0 -0.402601552
N  N46  1  0.42520000  0.48770000  0.46490000  1.0 -0.3924773107
N  N47  1  0.48770000  0.46490000  0.42520000  1.0 -0.3924773107
N  N48  1  0.46490000  0.42520000  0.48770000  1.0 -0.3924773107
N  N49  1  0.83470000  0.89320000  0.83210000  1.0 -0.1620765299
N  N50  1  0.89320000  0.83210000  0.83470000  1.0 -0.1620765299
N  N51  1  0.83210000  0.83470000  0.89320000  1.0 -0.1620765299
N  N52  1  0.81920000  0.85540000  0.79090000  1.0 -0.1401378557
N  N53  1  0.85540000  0.79090000  0.81920000  1.0 -0.1401378557
N  N54  1  0.79090000  0.81920000  0.85540000  1.0 -0.1401378557
O  O1  1  0.72220000  0.64330000  0.26780000  1.0 -0.5198650281
O  O2  1  0.64330000  0.26780000  0.72220000  1.0 -0.5198650281
O  O3  1  0.26780000  0.72220000  0.64330000  1.0 -0.5198650281
O  O4  1  0.76660000  0.65990000  0.33880000  1.0 -0.5128083627
O  O5  1  0.65990000  0.33880000  0.76660000  1.0 -0.5128083627
O  O6  1  0.33880000  0.76660000  0.65990000  1.0 -0.5128083627
O  O7  1  0.92990000  0.13620000  0.38920000  1.0 -0.5198650281
O  O8  1  0.13620000  0.38920000  0.92990000  1.0 -0.5198650281
O  O9  1  0.38920000  0.92990000  0.13620000  1.0 -0.5198650281
O  O10  1  0.96290000  0.08380000  0.42570000  1.0 -0.5198650281
O  O11  1  0.08380000  0.42570000  0.96290000  1.0 -0.5198650281
O  O12  1  0.42570000  0.96290000  0.08380000  1.0 -0.5198650281
O  O13  1  0.72610000  0.50040000  0.28260000  1.0 -0.5198650281
O  O14  1  0.50040000  0.28260000  0.72610000  1.0 -0.5198650281
O  O15  1  0.28260000  0.72610000  0.50040000  1.0 -0.5198650281
O  O16  1  0.70140000  0.54430000  0.23070000  1.0 -0.5128083627
O  O17  1  0.54430000  0.23070000  0.70140000  1.0 -0.5128083627
O  O18  1  0.23070000  0.70140000  0.54430000  1.0 -0.5128083627
O  O19  1  0.46840000  0.09500000  0.19450000  1.0 -0.5128083627
O  O20  1  0.09500000  0.19450000  0.46840000  1.0 -0.5128083627
O  O21  1  0.19450000  0.46840000  0.09500000  1.0 -0.5128083627
O  O22  1  0.48540000  0.05220000  0.13210000  1.0 -0.5128083627
O  O23  1  0.05220000  0.13210000  0.48540000  1.0 -0.5128083627
O  O24  1  0.13210000  0.48540000  0.05220000  1.0 -0.5128083627
O  O25  1  0.58670000  0.26240000  0.80650000  1.0 -0.5491025567
O  O26  1  0.26240000  0.80650000  0.58670000  1.0 -0.5491025567
O  O27  1  0.80650000  0.58670000  0.26240000  1.0 -0.5491025567
O  O28  1  0.57360000  0.33670000  0.81640000  1.0 -0.5128083627
O  O29  1  0.33670000  0.81640000  0.57360000  1.0 -0.5128083627
O  O30  1  0.81640000  0.57360000  0.33670000  1.0 -0.5128083627
O  O31  1  0.67010000  0.57980000  0.32640000  1.0 -0.5280863563
O  O32  1  0.57980000  0.32640000  0.67010000  1.0 -0.5280863563
O  O33  1  0.32640000  0.67010000  0.57980000  1.0 -0.5280863563
O  O34  1  0.73110000  0.56630000  0.37580000  1.0 -0.5280863563
O  O35  1  0.56630000  0.37580000  0.73110000  1.0 -0.5280863563
O  O36  1  0.37580000  0.73110000  0.56630000  1.0 -0.5280863563
O  O37  1  0.49800000  0.95480000  0.15680000  1.0 -0.2824335317
O  O38  1  0.95480000  0.15680000  0.49800000  1.0 -0.2824335317
O  O39  1  0.15680000  0.49800000  0.95480000  1.0 -0.2824335317
O  O40  1  0.48510000  0.99370000  0.22260000  1.0 0.0395003025
O  O41  1  0.99370000  0.22260000  0.48510000  1.0 0.0395003025
O  O42  1  0.22260000  0.48510000  0.99370000  1.0 0.0280569915
O  O43  1  0.03300000  0.15500000  0.36000000  1.0 -0.0222061123
O  O44  1  0.15500000  0.36000000  0.03300000  1.0 -0.0222061123
O  O45  1  0.36000000  0.03300000  0.15500000  1.0 -0.0222061123
O  O46  1  0.06000000  0.09100000  0.37300000  1.0 -0.1318137269
O  O47  1  0.09100000  0.37300000  0.06000000  1.0 -0.1318137269
O  O48  1  0.37300000  0.06000000  0.09100000  1.0 -0.1318137269
O  O49  1  0.48200000  0.97400000  0.19800000  1.0 0.0280569915
O  O50  1  0.97400000  0.19800000  0.48200000  1.0 0.0280569915
O  O51  1  0.19800000  0.48200000  0.97400000  1.0 0.0280569915
O  O52  1  0.49650000  0.01970000  0.27010000  1.0 -0.2856132805
O  O53  1  0.01970000  0.27010000  0.49650000  1.0 -0.2824335317
O  O54  1  0.27010000  0.49650000  0.01970000  1.0 -0.2856132805
O  O55  1  0.02310000  0.19670000  0.38400000  1.0 -0.2264208168
O  O56  1  0.19670000  0.38400000  0.02310000  1.0 -0.2264208168
O  O57  1  0.38400000  0.02310000  0.19670000  1.0 -0.2264208168
O  O58  1  0.03950000  0.12580000  0.38300000  1.0 0.0814274889
O  O59  1  0.12580000  0.38300000  0.03950000  1.0 0.0814274889
O  O60  1  0.38300000  0.03950000  0.12580000  1.0 0.0814274889
O  O61  1  0.27780000  0.35670000  0.73220000  1.0 -0.5198650281
O  O62  1  0.35670000  0.73220000  0.27780000  1.0 -0.5198650281
O  O63  1  0.73220000  0.27780000  0.35670000  1.0 -0.5198650281
O  O64  1  0.23340000  0.34010000  0.66120000  1.0 -0.5128083627
O  O65  1  0.34010000  0.66120000  0.23340000  1.0 -0.5128083627
O  O66  1  0.66120000  0.23340000  0.34010000  1.0 -0.5128083627
O  O67  1  0.07010000  0.86380000  0.61080000  1.0 -0.5198650281
O  O68  1  0.86380000  0.61080000  0.07010000  1.0 -0.5198650281
O  O69  1  0.61080000  0.07010000  0.86380000  1.0 -0.5198650281
O  O70  1  0.03710000  0.91620000  0.57430000  1.0 -0.5198650281
O  O71  1  0.91620000  0.57430000  0.03710000  1.0 -0.5198650281
O  O72  1  0.57430000  0.03710000  0.91620000  1.0 -0.5198650281
O  O73  1  0.27390000  0.49960000  0.71740000  1.0 -0.5198650281
O  O74  1  0.49960000  0.71740000  0.27390000  1.0 -0.5198650281
O  O75  1  0.71740000  0.27390000  0.49960000  1.0 -0.5198650281
O  O76  1  0.29860000  0.45570000  0.76930000  1.0 -0.5128083627
O  O77  1  0.45570000  0.76930000  0.29860000  1.0 -0.5128083627
O  O78  1  0.76930000  0.29860000  0.45570000  1.0 -0.5128083627
O  O79  1  0.53160000  0.90500000  0.80550000  1.0 -0.5128083627
O  O80  1  0.90500000  0.80550000  0.53160000  1.0 -0.5128083627
O  O81  1  0.80550000  0.53160000  0.90500000  1.0 -0.5128083627
O  O82  1  0.51460000  0.94780000  0.86790000  1.0 -0.5128083627
O  O83  1  0.94780000  0.86790000  0.51460000  1.0 -0.5128083627
O  O84  1  0.86790000  0.51460000  0.94780000  1.0 -0.5128083627
O  O85  1  0.41330000  0.73760000  0.19350000  1.0 -0.5491025567
O  O86  1  0.73760000  0.19350000  0.41330000  1.0 -0.5491025567
O  O87  1  0.19350000  0.41330000  0.73760000  1.0 -0.5491025567
O  O88  1  0.42640000  0.66330000  0.18360000  1.0 -0.5128083627
O  O89  1  0.66330000  0.18360000  0.42640000  1.0 -0.5128083627
O  O90  1  0.18360000  0.42640000  0.66330000  1.0 -0.5128083627
O  O91  1  0.32990000  0.42020000  0.67360000  1.0 -0.5280863563
O  O92  1  0.42020000  0.67360000  0.32990000  1.0 -0.5280863563
O  O93  1  0.67360000  0.32990000  0.42020000  1.0 -0.5280863563
O  O94  1  0.26890000  0.43370000  0.62420000  1.0 -0.5280863563
O  O95  1  0.43370000  0.62420000  0.26890000  1.0 -0.5280863563
O  O96  1  0.62420000  0.26890000  0.43370000  1.0 -0.5280863563
O  O97  1  0.50200000  0.04520000  0.84320000  1.0 -0.2824335317
O  O98  1  0.04520000  0.84320000  0.50200000  1.0 -0.2824335317
O  O99  1  0.84320000  0.50200000  0.04520000  1.0 -0.2824335317
O  O100  1  0.51490000  0.00630000  0.77740000  1.0 0.0395003025
O  O101  1  0.00630000  0.77740000  0.51490000  1.0 0.0280569915
O  O102  1  0.77740000  0.51490000  0.00630000  1.0 0.0395003025
O  O103  1  0.96700000  0.84500000  0.64000000  1.0 -0.0222061123
O  O104  1  0.84500000  0.64000000  0.96700000  1.0 -0.0222061123
O  O105  1  0.64000000  0.96700000  0.84500000  1.0 -0.0222061123
O  O106  1  0.94000000  0.90900000  0.62700000  1.0 -0.1318137269
O  O107  1  0.90900000  0.62700000  0.94000000  1.0 -0.1318137269
O  O108  1  0.62700000  0.94000000  0.90900000  1.0 -0.1318137269
O  O109  1  0.51800000  0.02600000  0.80200000  1.0 0.0280569915
O  O110  1  0.02600000  0.80200000  0.51800000  1.0 0.0280569915
O  O111  1  0.80200000  0.51800000  0.02600000  1.0 0.0280569915
O  O112  1  0.50350000  0.98030000  0.72990000  1.0 -0.2824335317
O  O113  1  0.98030000  0.72990000  0.50350000  1.0 -0.2856132805
O  O114  1  0.72990000  0.50350000  0.98030000  1.0 -0.2824335317
O  O115  1  0.97690000  0.80330000  0.61600000  1.0 -0.2264208168
O  O116  1  0.80330000  0.61600000  0.97690000  1.0 -0.2264208168
O  O117  1  0.61600000  0.97690000  0.80330000  1.0 -0.2264208168
O  O118  1  0.96050000  0.87420000  0.61700000  1.0 0.0814274889
O  O119  1  0.87420000  0.61700000  0.96050000  1.0 0.0814274889
O  O120  1  0.61700000  0.96050000  0.87420000  1.0 0.0814274889
