# DDEC6 charges by PACMAN v1.1 (https://github.com/mtap-research/PACMAN-charge/)
data_NOHSUA_FSR_pacman
_symmetry_space_group_name_H-M   'P 1'
_cell_length_a   16.13500000
_cell_length_b   26.79200000
_cell_length_c   18.63000000
_cell_angle_alpha   90.00000000
_cell_angle_beta   110.57000000
_cell_angle_gamma   90.00000000
_symmetry_Int_Tables_number   1
_chemical_formula_structural   Ca5H74(C18O5)6
_chemical_formula_sum   'Ca10 H148 C216 O60'
_cell_volume   7540.07794934
_cell_formula_units_Z   2
loop_
 _symmetry_equiv_pos_site_id
 _symmetry_equiv_pos_as_xyz
  1  'x, y, z'
loop_
 _atom_site_type_symbol
 _atom_site_label
 _atom_site_symmetry_multiplicity
 _atom_site_fract_x
 _atom_site_fract_y
 _atom_site_fract_z
 _atom_site_occupancy
 _atom_site_charge
Ca  Ca1  1  0.04774000  0.56795000  0.02916000  1.0 1.3186533135
Ca  Ca2  1  0.95226000  0.06795000  0.47084000  1.0 1.3186533135
Ca  Ca3  1  0.95226000  0.43205000  0.97084000  1.0 1.3186533135
Ca  Ca4  1  0.04774000  0.93205000  0.52916000  1.0 1.3186533135
Ca  Ca5  1  0.72129000  0.06301000  0.55522000  1.0 1.3186533135
Ca  Ca6  1  0.27871000  0.56301000  0.94478000  1.0 1.3186533135
Ca  Ca7  1  0.27871000  0.93699000  0.44478000  1.0 1.3186533135
Ca  Ca8  1  0.72129000  0.43699000  0.05522000  1.0 1.3186533135
Ca  Ca9  1  0.50000000  0.00000000  0.50000000  1.0 1.4135965985
Ca  Ca10  1  0.50000000  0.50000000  0.00000000  1.0 1.4135965985
H  H1  1  0.16550000  0.50170000  0.12350000  1.0 0.3402880983
H  H2  1  0.83450000  0.00170000  0.37650000  1.0 0.3402880983
H  H3  1  0.83450000  0.49830000  0.87650000  1.0 0.3402880983
H  H4  1  0.16550000  0.99830000  0.62350000  1.0 0.3402880983
H  H5  1  0.16030000  0.53830000  0.17080000  1.0 0.3295756113
H  H6  1  0.83970000  0.03830000  0.32920000  1.0 0.3295756113
H  H7  1  0.83970000  0.46170000  0.82920000  1.0 0.3295756113
H  H8  1  0.16030000  0.96170000  0.67080000  1.0 0.3295756113
H  H9  1  0.87490000  0.11530000  0.62380000  1.0 0.3402880983
H  H10  1  0.12510000  0.61530000  0.87620000  1.0 0.3402880983
H  H11  1  0.12510000  0.88470000  0.37620000  1.0 0.3402880983
H  H12  1  0.87490000  0.38470000  0.12380000  1.0 0.3402880983
H  H13  1  0.82810000  0.12290000  0.66970000  1.0 0.3295756113
H  H14  1  0.17190000  0.62290000  0.83030000  1.0 0.3295756113
H  H15  1  0.17190000  0.87710000  0.33030000  1.0 0.3295756113
H  H16  1  0.82810000  0.37710000  0.16970000  1.0 0.3295756113
H  H17  1  0.88590000  0.51830000  0.02380000  1.0 0.3526212257
H  H18  1  0.11410000  0.01830000  0.47620000  1.0 0.3526212257
H  H19  1  0.11410000  0.48170000  0.97620000  1.0 0.3526212257
H  H20  1  0.88590000  0.98170000  0.52380000  1.0 0.3526212257
H  H21  1  0.94550000  0.50270000  0.09050000  1.0 0.3402880983
H  H22  1  0.05450000  0.00270000  0.40950000  1.0 0.3402880983
H  H23  1  0.05450000  0.49730000  0.90950000  1.0 0.3402880983
H  H24  1  0.94550000  0.99730000  0.59050000  1.0 0.3402880983
H  H25  1  0.08920000  0.66666667  0.13800000  1.0 0.3621697184
H  H26  1  0.91080000  0.16660000  0.36200000  1.0 0.3621697184
H  H27  1  0.91080000  0.33340000  0.86200000  1.0 0.3621697184
H  H28  1  0.08920000  0.83340000  0.63800000  1.0 0.3621697184
H  H29  1  0.61640000  0.68030000  0.16640000  1.0 0.1118120943
H  H30  1  0.38360000  0.18030000  0.33360000  1.0 0.1118120943
H  H31  1  0.38360000  0.31970000  0.83360000  1.0 0.1118120943
H  H32  1  0.61640000  0.81970000  0.66640000  1.0 0.1118120943
H  H33  1  0.76970000  0.78790000  0.30020000  1.0 0.1118120943
H  H34  1  0.23030000  0.28790000  0.19980000  1.0 0.1118120943
H  H35  1  0.23030000  0.21210000  0.69980000  1.0 0.1118120943
H  H36  1  0.76970000  0.71210000  0.80020000  1.0 0.1118120943
H  H37  1  0.50740000  0.78340000  0.26430000  1.0 0.1118120943
H  H38  1  0.49260000  0.28340000  0.23570000  1.0 0.1118120943
H  H39  1  0.49260000  0.21660000  0.73570000  1.0 0.1118120943
H  H40  1  0.50740000  0.71660000  0.76430000  1.0 0.1118120943
H  H41  1  0.38180000  0.75620000  0.19180000  1.0 0.1118120943
H  H42  1  0.61820000  0.25620000  0.30820000  1.0 0.1118120943
H  H43  1  0.61820000  0.24380000  0.80820000  1.0 0.1118120943
H  H44  1  0.38180000  0.74380000  0.69180000  1.0 0.1118120943
H  H45  1  0.24890000  0.71260000  0.14170000  1.0 0.1206671779
H  H46  1  0.75110000  0.21260000  0.35830000  1.0 0.1206671779
H  H47  1  0.75110000  0.28740000  0.85830000  1.0 0.1206671779
H  H48  1  0.24890000  0.78740000  0.64170000  1.0 0.1206671779
H  H49  1  0.37870000  0.59550000  0.09610000  1.0 0.1206671779
H  H50  1  0.62130000  0.09550000  0.40390000  1.0 0.1206671779
H  H51  1  0.62130000  0.40450000  0.90390000  1.0 0.1206671779
H  H52  1  0.37870000  0.90450000  0.59610000  1.0 0.1206671779
H  H53  1  0.51120000  0.63720000  0.14970000  1.0 0.1118120943
H  H54  1  0.48880000  0.13720000  0.35030000  1.0 0.1118120943
H  H55  1  0.48880000  0.36280000  0.85030000  1.0 0.1118120943
H  H56  1  0.51120000  0.86280000  0.64970000  1.0 0.1118120943
H  H57  1  0.73920000  0.63780000  0.19850000  1.0 0.1118120943
H  H58  1  0.26080000  0.13780000  0.30150000  1.0 0.1118120943
H  H59  1  0.26080000  0.36220000  0.80150000  1.0 0.1118120943
H  H60  1  0.73920000  0.86220000  0.69850000  1.0 0.1118120943
H  H61  1  0.85010000  0.60680000  0.15710000  1.0 0.1206671779
H  H62  1  0.14990000  0.10680000  0.34290000  1.0 0.1206671779
H  H63  1  0.14990000  0.39320000  0.84290000  1.0 0.1206671779
H  H64  1  0.85010000  0.89320000  0.65710000  1.0 0.1206671779
H  H65  1  0.96880000  0.74320000  0.19580000  1.0 0.1206671779
H  H66  1  0.03120000  0.24320000  0.30420000  1.0 0.1206671779
H  H67  1  0.03120000  0.25680000  0.80420000  1.0 0.1206671779
H  H68  1  0.96880000  0.75680000  0.69580000  1.0 0.1206671779
H  H69  1  0.85370000  0.77430000  0.23080000  1.0 0.1118120943
H  H70  1  0.14630000  0.27430000  0.26920000  1.0 0.1118120943
H  H71  1  0.14630000  0.22570000  0.76920000  1.0 0.1118120943
H  H72  1  0.85370000  0.72570000  0.73080000  1.0 0.1118120943
H  H73  1  0.77330000  0.82410000  0.41180000  1.0 0.1206671779
H  H74  1  0.22670000  0.32410000  0.08820000  1.0 0.1206671779
H  H75  1  0.22670000  0.17590000  0.58820000  1.0 0.1206671779
H  H76  1  0.77330000  0.67590000  0.91180000  1.0 0.1206671779
H  H77  1  0.79130000  0.89740000  0.48210000  1.0 0.126459634
H  H78  1  0.20870000  0.39740000  0.01790000  1.0 0.126459634
H  H79  1  0.20870000  0.10260000  0.51790000  1.0 0.126459634
H  H80  1  0.79130000  0.60260000  0.98210000  1.0 0.126459634
H  H81  1  0.54680000  0.94290000  0.34590000  1.0 0.1206671779
H  H82  1  0.45320000  0.44290000  0.15410000  1.0 0.1206671779
H  H83  1  0.45320000  0.05710000  0.65410000  1.0 0.1206671779
H  H84  1  0.54680000  0.55710000  0.84590000  1.0 0.1206671779
H  H85  1  0.52990000  0.87030000  0.27350000  1.0 0.1118120943
H  H86  1  0.47010000  0.37030000  0.22650000  1.0 0.1118120943
H  H87  1  0.47010000  0.12970000  0.72650000  1.0 0.1118120943
H  H88  1  0.52990000  0.62970000  0.77350000  1.0 0.1118120943
H  H89  1  0.79550000  0.91580000  0.00470000  1.0 0.1118120943
H  H90  1  0.20450000  0.41580000  0.49530000  1.0 0.1118120943
H  H91  1  0.20450000  0.08420000  0.99530000  1.0 0.1118120943
H  H92  1  0.79550000  0.58420000  0.50470000  1.0 0.1118120943
H  H93  1  0.70590000  0.79870000  0.09220000  1.0 0.1118120943
H  H94  1  0.29410000  0.29870000  0.40780000  1.0 0.1118120943
H  H95  1  0.29410000  0.20130000  0.90780000  1.0 0.1118120943
H  H96  1  0.70590000  0.70130000  0.59220000  1.0 0.1118120943
H  H97  1  0.61620000  0.82090000  0.86280000  1.0 0.1118120943
H  H98  1  0.38380000  0.32090000  0.63720000  1.0 0.1118120943
H  H99  1  0.38380000  0.17910000  0.13720000  1.0 0.1118120943
H  H100  1  0.61620000  0.67910000  0.36280000  1.0 0.1118120943
H  H101  1  0.57090000  0.89680000  0.79500000  1.0 0.1118120943
H  H102  1  0.42910000  0.39680000  0.70500000  1.0 0.1118120943
H  H103  1  0.42910000  0.10320000  0.20500000  1.0 0.1118120943
H  H104  1  0.57090000  0.60320000  0.29500000  1.0 0.1118120943
H  H105  1  0.56680000  0.94650000  0.69250000  1.0 0.1206671779
H  H106  1  0.43320000  0.44650000  0.80750000  1.0 0.1206671779
H  H107  1  0.43320000  0.05350000  0.30750000  1.0 0.1206671779
H  H108  1  0.56680000  0.55350000  0.19250000  1.0 0.1206671779
H  H109  1  0.82890000  0.97550000  0.79620000  1.0 0.1206671779
H  H110  1  0.17110000  0.47550000  0.70380000  1.0 0.1206671779
H  H111  1  0.17110000  0.02450000  0.20380000  1.0 0.1206671779
H  H112  1  0.82890000  0.52450000  0.29620000  1.0 0.1206671779
H  H113  1  0.83360000  0.92450000  0.89660000  1.0 0.1118120943
H  H114  1  0.16640000  0.42450000  0.60340000  1.0 0.1118120943
H  H115  1  0.16640000  0.07550000  0.10340000  1.0 0.1118120943
H  H116  1  0.83360000  0.57550000  0.39660000  1.0 0.1118120943
H  H117  1  0.93320000  0.86020000  0.13630000  1.0 0.126459634
H  H118  1  0.06680000  0.36020000  0.36370000  1.0 0.126459634
H  H119  1  0.06680000  0.13980000  0.86370000  1.0 0.126459634
H  H120  1  0.93320000  0.63980000  0.63630000  1.0 0.126459634
H  H121  1  0.01190000  0.87450000  0.26660000  1.0 0.1039267909
H  H122  1  0.98810000  0.37450000  0.23340000  1.0 0.1039267909
H  H123  1  0.98810000  0.12550000  0.73340000  1.0 0.1039267909
H  H124  1  0.01190000  0.62550000  0.76660000  1.0 0.1039267909
H  H125  1  0.78450000  0.90870000  0.29890000  1.0 0.1118120943
H  H126  1  0.21550000  0.40870000  0.20110000  1.0 0.1118120943
H  H127  1  0.21550000  0.09130000  0.70110000  1.0 0.1118120943
H  H128  1  0.78450000  0.59130000  0.79890000  1.0 0.1118120943
H  H129  1  0.70480000  0.88910000  0.17120000  1.0 0.1206671779
H  H130  1  0.29520000  0.38910000  0.32880000  1.0 0.1206671779
H  H131  1  0.29520000  0.11090000  0.82880000  1.0 0.1206671779
H  H132  1  0.70480000  0.61090000  0.67120000  1.0 0.1206671779
H  H133  1  0.70370000  0.71550000  0.04270000  1.0 0.1118120943
H  H134  1  0.29630000  0.21550000  0.45730000  1.0 0.1118120943
H  H135  1  0.29630000  0.28450000  0.95730000  1.0 0.1118120943
H  H136  1  0.70370000  0.78450000  0.54270000  1.0 0.1118120943
H  H137  1  0.62580000  0.64230000  0.03860000  1.0 0.1206671779
H  H138  1  0.37420000  0.14230000  0.46140000  1.0 0.1206671779
H  H139  1  0.37420000  0.35770000  0.96140000  1.0 0.1206671779
H  H140  1  0.62580000  0.85770000  0.53860000  1.0 0.1206671779
H  H141  1  0.40490000  0.70710000  0.88950000  1.0 0.1206671779
H  H142  1  0.59510000  0.20710000  0.61050000  1.0 0.1206671779
H  H143  1  0.59510000  0.29290000  0.11050000  1.0 0.1206671779
H  H144  1  0.40490000  0.79290000  0.38950000  1.0 0.1206671779
H  H145  1  0.48420000  0.77930000  0.89000000  1.0 0.1206671779
H  H146  1  0.51580000  0.27930000  0.61000000  1.0 0.1206671779
H  H147  1  0.51580000  0.22070000  0.11000000  1.0 0.1206671779
H  H148  1  0.48420000  0.72070000  0.39000000  1.0 0.1206671779
C  C1  1  0.54790000  0.72760000  0.21050000  1.0 0.0804475985
C  C2  1  0.45210000  0.22760000  0.28950000  1.0 0.0804475985
C  C3  1  0.45210000  0.27240000  0.78950000  1.0 0.0804475985
C  C4  1  0.54790000  0.77240000  0.71050000  1.0 0.0804475985
C  C5  1  0.62260000  0.70874000  0.19830000  1.0 -0.1910643126
C  C6  1  0.37740000  0.20874000  0.30170000  1.0 -0.1910643126
C  C7  1  0.37740000  0.29126000  0.80170000  1.0 -0.1910643126
C  C8  1  0.62260000  0.79126000  0.69830000  1.0 -0.1910643126
C  C9  1  0.70580000  0.73052000  0.23160000  1.0 0.0804475985
C  C10  1  0.29420000  0.23052000  0.26840000  1.0 0.0804475985
C  C11  1  0.29420000  0.26948000  0.76840000  1.0 0.0804475985
C  C12  1  0.70580000  0.76948000  0.73160000  1.0 0.0804475985
C  C13  1  0.71340000  0.77283000  0.27680000  1.0 -0.1910643126
C  C14  1  0.28660000  0.27283000  0.22320000  1.0 -0.1910643126
C  C15  1  0.28660000  0.22717000  0.72320000  1.0 -0.1910643126
C  C16  1  0.71340000  0.72717000  0.77680000  1.0 -0.1910643126
C  C17  1  0.63960000  0.79349000  0.28840000  1.0 0.0804475985
C  C18  1  0.36040000  0.29349000  0.21160000  1.0 0.0804475985
C  C19  1  0.36040000  0.20651000  0.71160000  1.0 0.0804475985
C  C20  1  0.63960000  0.70651000  0.78840000  1.0 0.0804475985
C  C21  1  0.55760000  0.77007000  0.25570000  1.0 -0.1987810637
C  C22  1  0.44240000  0.27007000  0.24430000  1.0 -0.1987810637
C  C23  1  0.44240000  0.22993000  0.74430000  1.0 -0.1987810637
C  C24  1  0.55760000  0.72993000  0.75570000  1.0 -0.1987810637
C  C25  1  0.46110000  0.70090000  0.17640000  1.0 0.0804475985
C  C26  1  0.53890000  0.20090000  0.32360000  1.0 0.0804475985
C  C27  1  0.53890000  0.29910000  0.82360000  1.0 0.0804475985
C  C28  1  0.46110000  0.79910000  0.67640000  1.0 0.0804475985
C  C29  1  0.38160000  0.72326000  0.17300000  1.0 -0.1425610464
C  C30  1  0.61840000  0.22326000  0.32700000  1.0 -0.1425610464
C  C31  1  0.61840000  0.27674000  0.82700000  1.0 -0.1425610464
C  C32  1  0.38160000  0.77674000  0.67300000  1.0 -0.1425610464
C  C33  1  0.30230000  0.69741000  0.14230000  1.0 -0.0921448425
C  C34  1  0.69770000  0.19741000  0.35770000  1.0 -0.0921448425
C  C35  1  0.69770000  0.30259000  0.85770000  1.0 -0.0921448425
C  C36  1  0.30230000  0.80259000  0.64230000  1.0 -0.0921448425
C  C37  1  0.29990000  0.65001000  0.11270000  1.0 -0.0373059157
C  C38  1  0.70010000  0.15001000  0.38730000  1.0 -0.0373059157
C  C39  1  0.70010000  0.34999000  0.88730000  1.0 -0.0373059157
C  C40  1  0.29990000  0.84999000  0.61270000  1.0 -0.0373059157
C  C41  1  0.37900000  0.62813000  0.11600000  1.0 -0.0979553646
C  C42  1  0.62100000  0.12813000  0.38400000  1.0 -0.0979553646
C  C43  1  0.62100000  0.37187000  0.88400000  1.0 -0.0979553646
C  C44  1  0.37900000  0.87187000  0.61600000  1.0 -0.0979553646
C  C45  1  0.45770000  0.65315000  0.14760000  1.0 -0.1316125411
C  C46  1  0.54230000  0.15315000  0.35240000  1.0 -0.1316125411
C  C47  1  0.54230000  0.34685000  0.85240000  1.0 -0.1316125411
C  C48  1  0.45770000  0.84685000  0.64760000  1.0 -0.1316125411
C  C49  1  0.21520000  0.62165000  0.07730000  1.0 0.6000574511
C  C50  1  0.78480000  0.12165000  0.42270000  1.0 0.6000574511
C  C51  1  0.78480000  0.37835000  0.92270000  1.0 0.6000574511
C  C52  1  0.21520000  0.87835000  0.57730000  1.0 0.6000574511
C  C53  1  0.78260000  0.70985000  0.21470000  1.0 0.0733372636
C  C54  1  0.21740000  0.20985000  0.28530000  1.0 0.0733372636
C  C55  1  0.21740000  0.29015000  0.78530000  1.0 0.0733372636
C  C56  1  0.78260000  0.79015000  0.71470000  1.0 0.0733372636
C  C57  1  0.78440000  0.65953000  0.19550000  1.0 -0.1425610464
C  C58  1  0.21560000  0.15953000  0.30450000  1.0 -0.1425610464
C  C59  1  0.21560000  0.34047000  0.80450000  1.0 -0.1425610464
C  C60  1  0.78440000  0.84047000  0.69550000  1.0 -0.1425610464
C  C61  1  0.85100000  0.64078000  0.17210000  1.0 -0.0921448425
C  C62  1  0.14900000  0.14078000  0.32790000  1.0 -0.0921448425
C  C63  1  0.14900000  0.35922000  0.82790000  1.0 -0.0921448425
C  C64  1  0.85100000  0.85922000  0.67210000  1.0 -0.0921448425
C  C65  1  0.91950000  0.67226000  0.17090000  1.0 -0.0373059157
C  C66  1  0.08050000  0.17226000  0.32910000  1.0 -0.0373059157
C  C67  1  0.08050000  0.32774000  0.82910000  1.0 -0.0373059157
C  C68  1  0.91950000  0.82774000  0.67090000  1.0 -0.0373059157
C  C69  1  0.92090000  0.72205000  0.19440000  1.0 -0.1083486098
C  C70  1  0.07910000  0.22205000  0.30560000  1.0 -0.1083486098
C  C71  1  0.07910000  0.27795000  0.80560000  1.0 -0.1083486098
C  C72  1  0.92090000  0.77795000  0.69440000  1.0 -0.1083486098
C  C73  1  0.85270000  0.74042000  0.21550000  1.0 -0.1425610464
C  C74  1  0.14730000  0.24042000  0.28450000  1.0 -0.1425610464
C  C75  1  0.14730000  0.25958000  0.78450000  1.0 -0.1425610464
C  C76  1  0.85270000  0.75958000  0.71550000  1.0 -0.1425610464
C  C77  1  0.98770000  0.65253000  0.14210000  1.0 0.5737176966
C  C78  1  0.01230000  0.15253000  0.35790000  1.0 0.5737176966
C  C79  1  0.01230000  0.34747000  0.85790000  1.0 0.5737176966
C  C80  1  0.98770000  0.84747000  0.64210000  1.0 0.5737176966
C  C81  1  0.64960000  0.83942000  0.33530000  1.0 0.0733372636
C  C82  1  0.35040000  0.33942000  0.16470000  1.0 0.0804475985
C  C83  1  0.35040000  0.16058000  0.66470000  1.0 0.0733372636
C  C84  1  0.64960000  0.66058000  0.83530000  1.0 0.0733372636
C  C85  1  0.72740000  0.84833000  0.39800000  1.0 -0.1425610464
C  C86  1  0.27260000  0.34833000  0.10200000  1.0 -0.1425610464
C  C87  1  0.27260000  0.15167000  0.60200000  1.0 -0.1425610464
C  C88  1  0.72740000  0.65167000  0.89800000  1.0 -0.1425610464
C  C89  1  0.73820000  0.89187000  0.43980000  1.0 -0.0830443781
C  C90  1  0.26180000  0.39187000  0.06020000  1.0 -0.0830443781
C  C91  1  0.26180000  0.10813000  0.56020000  1.0 -0.0830443781
C  C92  1  0.73820000  0.60813000  0.93980000  1.0 -0.0830443781
C  C93  1  0.67170000  0.92779000  0.42040000  1.0 -0.0463132914
C  C94  1  0.32830000  0.42779000  0.07960000  1.0 -0.0463132914
C  C95  1  0.32830000  0.07221000  0.57960000  1.0 -0.0463132914
C  C96  1  0.67170000  0.57221000  0.92040000  1.0 -0.0463132914
C  C97  1  0.59320000  0.91900000  0.35860000  1.0 -0.0921448425
C  C98  1  0.40680000  0.41900000  0.14140000  1.0 -0.0921448425
C  C99  1  0.40680000  0.08100000  0.64140000  1.0 -0.0921448425
C  C100  1  0.59320000  0.58100000  0.85860000  1.0 -0.0921448425
C  C101  1  0.58280000  0.87562000  0.31610000  1.0 -0.1502459077
C  C102  1  0.41720000  0.37562000  0.18390000  1.0 -0.1502459077
C  C103  1  0.41720000  0.12438000  0.68390000  1.0 -0.1502459077
C  C104  1  0.58280000  0.62438000  0.81610000  1.0 -0.1502459077
C  C105  1  0.68440000  0.97415000  0.46650000  1.0 0.5849382561
C  C106  1  0.31560000  0.47415000  0.03350000  1.0 0.5849382561
C  C107  1  0.31560000  0.02585000  0.53350000  1.0 0.5849382561
C  C108  1  0.68440000  0.52585000  0.96650000  1.0 0.5849382561
C  C109  1  0.70470000  0.87390000  0.92350000  1.0 0.0733372636
C  C110  1  0.29530000  0.37390000  0.57650000  1.0 0.0804475985
C  C111  1  0.29530000  0.12610000  0.07650000  1.0 0.0804475985
C  C112  1  0.70470000  0.62610000  0.42350000  1.0 0.0733372636
C  C113  1  0.75860000  0.88721000  0.99720000  1.0 -0.1910643126
C  C114  1  0.24140000  0.38721000  0.50280000  1.0 -0.1910643126
C  C115  1  0.24140000  0.11279000  0.00280000  1.0 -0.1910643126
C  C116  1  0.75860000  0.61279000  0.49720000  1.0 -0.1910643126
C  C117  1  0.75920000  0.85909000  0.06070000  1.0 0.0733372636
C  C118  1  0.24080000  0.35909000  0.43930000  1.0 0.0733372636
C  C119  1  0.24080000  0.14091000  0.93930000  1.0 0.0733372636
C  C120  1  0.75920000  0.64091000  0.56070000  1.0 0.0733372636
C  C121  1  0.70660000  0.81741000  0.04910000  1.0 -0.1910643126
C  C122  1  0.29340000  0.31741000  0.45090000  1.0 -0.1910643126
C  C123  1  0.29340000  0.18259000  0.95090000  1.0 -0.1910643126
C  C124  1  0.70660000  0.68259000  0.54910000  1.0 -0.1910643126
C  C125  1  0.65390000  0.80173000  0.97530000  1.0 0.0804475985
C  C126  1  0.34610000  0.30173000  0.52470000  1.0 0.0804475985
C  C127  1  0.34610000  0.19827000  0.02470000  1.0 0.0804475985
C  C128  1  0.65390000  0.69827000  0.47530000  1.0 0.0804475985
C  C129  1  0.65270000  0.83060000  0.91310000  1.0 -0.1910643126
C  C130  1  0.34730000  0.33060000  0.58690000  1.0 -0.1910643126
C  C131  1  0.34730000  0.16940000  0.08690000  1.0 -0.1910643126
C  C132  1  0.65270000  0.66940000  0.41310000  1.0 -0.1910643126
C  C133  1  0.70220000  0.90523000  0.85760000  1.0 0.0733372636
C  C134  1  0.29780000  0.40523000  0.64240000  1.0 0.0733372636
C  C135  1  0.29780000  0.09477000  0.14240000  1.0 0.0733372636
C  C136  1  0.70220000  0.59477000  0.35760000  1.0 0.0733372636
C  C137  1  0.62360000  0.91279000  0.79530000  1.0 -0.1502459077
C  C138  1  0.37640000  0.41279000  0.70470000  1.0 -0.1502459077
C  C139  1  0.37640000  0.08721000  0.20470000  1.0 -0.1502459077
C  C140  1  0.62360000  0.58721000  0.29530000  1.0 -0.1502459077
C  C141  1  0.62080000  0.94270000  0.73450000  1.0 -0.1083486098
C  C142  1  0.37920000  0.44270000  0.76550000  1.0 -0.1083486098
C  C143  1  0.37920000  0.05730000  0.26550000  1.0 -0.1083486098
C  C144  1  0.62080000  0.55730000  0.23450000  1.0 -0.1083486098
C  C145  1  0.69640000  0.96739000  0.73420000  1.0 -0.0272968534
C  C146  1  0.30360000  0.46739000  0.76580000  1.0 -0.0272968534
C  C147  1  0.30360000  0.03261000  0.26580000  1.0 -0.0247645601
C  C148  1  0.69640000  0.53261000  0.23420000  1.0 -0.0272968534
C  C149  1  0.77630000  0.95954000  0.79610000  1.0 -0.0979553646
C  C150  1  0.22370000  0.45954000  0.70390000  1.0 -0.0979553646
C  C151  1  0.22370000  0.04046000  0.20390000  1.0 -0.0979553646
C  C152  1  0.77630000  0.54046000  0.29610000  1.0 -0.0979553646
C  C153  1  0.77900000  0.92937000  0.85560000  1.0 -0.1502459077
C  C154  1  0.22100000  0.42937000  0.64440000  1.0 -0.1502459077
C  C155  1  0.22100000  0.07063000  0.14440000  1.0 -0.1502459077
C  C156  1  0.77900000  0.57063000  0.35560000  1.0 -0.1502459077
C  C157  1  0.69590000  0.00121000  0.67020000  1.0 0.5940220636
C  C158  1  0.30410000  0.50121000  0.82980000  1.0 0.5940220636
C  C159  1  0.30410000  0.99879000  0.32980000  1.0 0.5940220636
C  C160  1  0.69590000  0.49879000  0.17020000  1.0 0.5940220636
C  C161  1  0.81110000  0.87392000  0.14060000  1.0 0.0804475985
C  C162  1  0.18890000  0.37392000  0.35940000  1.0 0.0804475985
C  C163  1  0.18890000  0.12608000  0.85940000  1.0 0.0804475985
C  C164  1  0.81110000  0.62608000  0.64060000  1.0 0.0804475985
C  C165  1  0.90250000  0.86931000  0.16940000  1.0 -0.1425610464
C  C166  1  0.09750000  0.36931000  0.33060000  1.0 -0.1425610464
C  C167  1  0.09750000  0.13069000  0.83060000  1.0 -0.1425610464
C  C168  1  0.90250000  0.63069000  0.66940000  1.0 -0.1425610464
C  C169  1  0.94940000  0.87804000  0.24690000  1.0 -0.1083486098
C  C170  1  0.05060000  0.37804000  0.25310000  1.0 -0.1083486098
C  C171  1  0.05060000  0.12196000  0.75310000  1.0 -0.1083486098
C  C172  1  0.94940000  0.62196000  0.74690000  1.0 -0.1083486098
C  C173  1  0.90500000  0.89185000  0.29540000  1.0 -0.0272968534
C  C174  1  0.09500000  0.39185000  0.20460000  1.0 -0.0272968534
C  C175  1  0.09500000  0.10815000  0.70460000  1.0 -0.0272968534
C  C176  1  0.90500000  0.60815000  0.79540000  1.0 -0.0272968534
C  C177  1  0.81480000  0.89754000  0.26640000  1.0 -0.0979553646
C  C178  1  0.18520000  0.39754000  0.23360000  1.0 -0.0979553646
C  C179  1  0.18520000  0.10246000  0.73360000  1.0 -0.0979553646
C  C180  1  0.81480000  0.60246000  0.76640000  1.0 -0.0979553646
C  C181  1  0.76760000  0.88713000  0.18990000  1.0 -0.1425610464
C  C182  1  0.23240000  0.38713000  0.31010000  1.0 -0.1425610464
C  C183  1  0.23240000  0.11287000  0.81010000  1.0 -0.1425610464
C  C184  1  0.76760000  0.61287000  0.68990000  1.0 -0.1425610464
C  C185  1  0.95350000  0.90083000  0.37950000  1.0 0.5523155462
C  C186  1  0.04650000  0.40083000  0.12050000  1.0 0.5523155462
C  C187  1  0.04650000  0.09917000  0.62050000  1.0 0.5523155462
C  C188  1  0.95350000  0.59917000  0.87950000  1.0 0.5523155462
C  C189  1  0.60210000  0.75505000  0.96800000  1.0 0.0733372636
C  C190  1  0.39790000  0.25505000  0.53200000  1.0 0.0733372636
C  C191  1  0.39790000  0.24495000  0.03200000  1.0 0.0804475985
C  C192  1  0.60210000  0.74495000  0.46800000  1.0 0.0733372636
C  C193  1  0.64290000  0.71370000  0.01140000  1.0 -0.1425610464
C  C194  1  0.35710000  0.21370000  0.48860000  1.0 -0.1425610464
C  C195  1  0.35710000  0.28630000  0.98860000  1.0 -0.1425610464
C  C196  1  0.64290000  0.78630000  0.51140000  1.0 -0.1425610464
C  C197  1  0.59660000  0.67043000  0.00960000  1.0 -0.0979553646
C  C198  1  0.40340000  0.17043000  0.49040000  1.0 -0.0979553646
C  C199  1  0.40340000  0.32957000  0.99040000  1.0 -0.0979553646
C  C200  1  0.59660000  0.82957000  0.50960000  1.0 -0.0979553646
C  C201  1  0.50640000  0.66767000  0.96500000  1.0 -0.0373059157
C  C202  1  0.49360000  0.16767000  0.53500000  1.0 -0.0373059157
C  C203  1  0.49360000  0.33233000  0.03500000  1.0 -0.0373059157
C  C204  1  0.50640000  0.83233000  0.46500000  1.0 -0.0373059157
C  C205  1  0.46580000  0.70882000  0.92060000  1.0 -0.1083486098
C  C206  1  0.53420000  0.20882000  0.57940000  1.0 -0.1083486098
C  C207  1  0.53420000  0.29118000  0.07940000  1.0 -0.0979553646
C  C208  1  0.46580000  0.79118000  0.42060000  1.0 -0.1083486098
C  C209  1  0.51250000  0.75182000  0.92120000  1.0 -0.1502459077
C  C210  1  0.48750000  0.25182000  0.57880000  1.0 -0.1502459077
C  C211  1  0.48750000  0.24818000  0.07880000  1.0 -0.1502459077
C  C212  1  0.51250000  0.74818000  0.42120000  1.0 -0.1502459077
C  C213  1  0.45540000  0.62180000  0.96760000  1.0 0.6000574511
C  C214  1  0.54460000  0.12180000  0.53240000  1.0 0.6000574511
C  C215  1  0.54460000  0.37820000  0.03240000  1.0 0.6000574511
C  C216  1  0.45540000  0.87820000  0.46760000  1.0 0.6000574511
O  O1  1  0.12951000  0.51965000  0.13524000  1.0 -0.6974414903
O  O2  1  0.87049000  0.01965000  0.36476000  1.0 -0.6974414903
O  O3  1  0.87049000  0.48035000  0.86476000  1.0 -0.6974414903
O  O4  1  0.12951000  0.98035000  0.63524000  1.0 -0.6974414903
O  O5  1  0.82429000  0.12287000  0.62356000  1.0 -0.6903239507
O  O6  1  0.17571000  0.62287000  0.87644000  1.0 -0.6903239507
O  O7  1  0.17571000  0.87713000  0.37644000  1.0 -0.6903239507
O  O8  1  0.82429000  0.37713000  0.12356000  1.0 -0.6903239507
O  O9  1  0.93693000  0.50613000  0.04358000  1.0 -0.7297940571
O  O10  1  0.06307000  0.00613000  0.45642000  1.0 -0.7297940571
O  O11  1  0.06307000  0.49387000  0.95642000  1.0 -0.7297940571
O  O12  1  0.93693000  0.99387000  0.54358000  1.0 -0.7297940571
O  O13  1  0.14755000  0.63516000  0.09130000  1.0 -0.6054750044
O  O14  1  0.85245000  0.13516000  0.40870000  1.0 -0.5991673846
O  O15  1  0.85245000  0.36484000  0.90870000  1.0 -0.6054750044
O  O16  1  0.14755000  0.86484000  0.59130000  1.0 -0.6054750044
O  O17  1  0.21248000  0.58532000  0.03518000  1.0 -0.6220969874
O  O18  1  0.78752000  0.08532000  0.46482000  1.0 -0.6220969874
O  O19  1  0.78752000  0.41468000  0.96482000  1.0 -0.6220969874
O  O20  1  0.21248000  0.91468000  0.53518000  1.0 -0.6220969874
O  O21  1  0.97618000  0.61519000  0.10228000  1.0 -0.5722329337
O  O22  1  0.02382000  0.11519000  0.39772000  1.0 -0.5722329337
O  O23  1  0.02382000  0.38481000  0.89772000  1.0 -0.5722329337
O  O24  1  0.97618000  0.88481000  0.60228000  1.0 -0.5722329337
O  O25  1  0.06102000  0.67927000  0.16320000  1.0 -0.4753101486
O  O26  1  0.93898000  0.17927000  0.33680000  1.0 -0.4733549971
O  O27  1  0.93898000  0.32073000  0.83680000  1.0 -0.4733549971
O  O28  1  0.06102000  0.82073000  0.66320000  1.0 -0.4733549971
O  O29  1  0.75924000  0.98306000  0.51622000  1.0 -0.5899434274
O  O30  1  0.24076000  0.48306000  0.98378000  1.0 -0.5899434274
O  O31  1  0.24076000  0.01694000  0.48378000  1.0 -0.5899434274
O  O32  1  0.75924000  0.51694000  0.01622000  1.0 -0.5899434274
O  O33  1  0.61947000  0.00475000  0.45427000  1.0 -0.6847417075
O  O34  1  0.38053000  0.50475000  0.04573000  1.0 -0.6847417075
O  O35  1  0.38053000  0.99525000  0.54573000  1.0 -0.6847417075
O  O36  1  0.61947000  0.49525000  0.95427000  1.0 -0.6847417075
O  O37  1  0.62410000  0.00615000  0.61337000  1.0 -0.6746879238
O  O38  1  0.37590000  0.50615000  0.88663000  1.0 -0.6746879238
O  O39  1  0.37590000  0.99385000  0.38663000  1.0 -0.6746879238
O  O40  1  0.62410000  0.49385000  0.11337000  1.0 -0.6746879238
O  O41  1  0.76573000  0.02322000  0.67506000  1.0 -0.5991673846
O  O42  1  0.23427000  0.52322000  0.82494000  1.0 -0.5991673846
O  O43  1  0.23427000  0.97678000  0.32494000  1.0 -0.5991673846
O  O44  1  0.76573000  0.47678000  0.17506000  1.0 -0.5991673846
O  O45  1  0.02959000  0.88262000  0.41243000  1.0 -0.5991673846
O  O46  1  0.97041000  0.38262000  0.08757000  1.0 -0.5899434274
O  O47  1  0.97041000  0.11738000  0.58757000  1.0 -0.5991673846
O  O48  1  0.02959000  0.61738000  0.91243000  1.0 -0.5991673846
O  O49  1  0.91570000  0.92601000  0.41593000  1.0 -0.5899434274
O  O50  1  0.08430000  0.42601000  0.08407000  1.0 -0.5899434274
O  O51  1  0.08430000  0.07399000  0.58407000  1.0 -0.5899434274
O  O52  1  0.91570000  0.57399000  0.91593000  1.0 -0.5899434274
O  O53  1  0.49737000  0.58481000  0.00446000  1.0 -0.649660917
O  O54  1  0.50263000  0.08481000  0.49554000  1.0 -0.649660917
O  O55  1  0.50263000  0.41519000  0.99554000  1.0 -0.649660917
O  O56  1  0.49737000  0.91519000  0.50446000  1.0 -0.649660917
O  O57  1  0.37335000  0.62321000  0.93324000  1.0 -0.5991673846
O  O58  1  0.62665000  0.12321000  0.56676000  1.0 -0.5991673846
O  O59  1  0.62665000  0.37679000  0.06676000  1.0 -0.6054750044
O  O60  1  0.37335000  0.87679000  0.43324000  1.0 -0.6054750044
