# DDEC6 charges by PACMAN v1.1 (https://github.com/mtap-research/PACMAN-charge/)
data_NOMPOW_ASR_pacman
_symmetry_space_group_name_H-M   'P 1'
_cell_length_a   18.74810000
_cell_length_b   20.07140000
_cell_length_c   32.86500000
_cell_angle_alpha   90.00000000
_cell_angle_beta   98.53500000
_cell_angle_gamma   90.00000000
_symmetry_Int_Tables_number   1
_chemical_formula_structural   Co5H48C80N4O19
_chemical_formula_sum   'Co20 H192 C320 N16 O76'
_cell_volume   12230.15862836
_cell_formula_units_Z   4
loop_
 _symmetry_equiv_pos_site_id
 _symmetry_equiv_pos_as_xyz
  1  'x, y, z'
loop_
 _atom_site_type_symbol
 _atom_site_label
 _atom_site_symmetry_multiplicity
 _atom_site_fract_x
 _atom_site_fract_y
 _atom_site_fract_z
 _atom_site_occupancy
 _atom_site_charge
Co  Co1  1  0.20888000  0.80809000  0.00082000  1.0 1.1416226337
Co  Co2  1  0.79112000  0.30809000  0.49918000  1.0 1.1416226337
Co  Co3  1  0.79112000  0.19191000  0.99918000  1.0 1.1416226337
Co  Co4  1  0.20888000  0.69191000  0.50082000  1.0 1.1416226337
Co  Co5  1  0.27583000  0.66000000  0.96161000  1.0 0.9804921755
Co  Co6  1  0.72417000  0.16000000  0.53839000  1.0 0.9804921755
Co  Co7  1  0.72417000  0.34000000  0.03839000  1.0 0.9804921755
Co  Co8  1  0.27583000  0.84000000  0.46161000  1.0 0.9804921755
Co  Co9  1  0.22668000  0.64478000  0.05357000  1.0 0.9883291433
Co  Co10  1  0.77332000  0.14478000  0.44643000  1.0 0.9883291433
Co  Co11  1  0.77332000  0.35522000  0.94643000  1.0 0.9883291433
Co  Co12  1  0.22668000  0.85522000  0.55357000  1.0 0.9883291433
Co  Co13  1  0.17653000  0.79182000  0.09271000  1.0 0.9804921755
Co  Co14  1  0.82347000  0.29182000  0.40729000  1.0 0.9804921755
Co  Co15  1  0.82347000  0.20818000  0.90729000  1.0 0.9804921755
Co  Co16  1  0.17653000  0.70818000  0.59271000  1.0 0.9804921755
Co  Co17  1  0.32239000  0.81060000  0.92407000  1.0 0.9638660858
Co  Co18  1  0.67761000  0.31060000  0.57593000  1.0 0.9638660858
Co  Co19  1  0.67761000  0.18940000  0.07593000  1.0 0.9638660858
Co  Co20  1  0.32239000  0.68940000  0.42407000  1.0 0.9638660858
H  H1  1  0.05670000  0.89650000  0.09710000  1.0 0.1100756356
H  H2  1  0.94330000  0.39650000  0.40290000  1.0 0.1100756356
H  H3  1  0.94330000  0.10350000  0.90290000  1.0 0.1100756356
H  H4  1  0.05670000  0.60350000  0.59710000  1.0 0.1100756356
H  H5  1  0.03890000  0.93990000  0.21430000  1.0 0.11927713
H  H6  1  0.96110000  0.43990000  0.28570000  1.0 0.11927713
H  H7  1  0.96110000  0.06010000  0.78570000  1.0 0.11927713
H  H8  1  0.03890000  0.56010000  0.71430000  1.0 0.11927713
H  H9  1  0.18290000  0.80820000  0.18500000  1.0 0.1006308745
H  H10  1  0.81710000  0.30820000  0.31500000  1.0 0.1006308745
H  H11  1  0.81710000  0.19180000  0.81500000  1.0 0.1006308745
H  H12  1  0.18290000  0.69180000  0.68500000  1.0 0.1006308745
H  H13  1  0.03040000  0.00400000  0.08770000  1.0 0.11927713
H  H14  1  0.96960000  0.50400000  0.41230000  1.0 0.11927713
H  H15  1  0.96960000  0.99600000  0.91230000  1.0 0.11927713
H  H16  1  0.03040000  0.49600000  0.58770000  1.0 0.11927713
H  H17  1  0.94150000  0.07520000  0.05810000  1.0 0.1275818171
H  H18  1  0.05850000  0.57520000  0.44190000  1.0 0.1275818171
H  H19  1  0.05850000  0.92480000  0.94190000  1.0 0.1275818171
H  H20  1  0.94150000  0.42480000  0.55810000  1.0 0.1275818171
H  H21  1  0.83150000  0.04480000  0.15180000  1.0 0.1275818171
H  H22  1  0.16850000  0.54480000  0.34820000  1.0 0.1275818171
H  H23  1  0.16850000  0.95520000  0.84820000  1.0 0.1275818171
H  H24  1  0.83150000  0.45520000  0.65180000  1.0 0.1275818171
H  H25  1  0.91960000  0.97240000  0.18080000  1.0 0.1100756356
H  H26  1  0.08040000  0.47240000  0.31920000  1.0 0.1100756356
H  H27  1  0.08040000  0.02760000  0.81920000  1.0 0.1100756356
H  H28  1  0.91960000  0.52760000  0.68080000  1.0 0.1100756356
H  H29  1  0.11670000  0.93580000  0.27790000  1.0 0.11927713
H  H30  1  0.88330000  0.43580000  0.22210000  1.0 0.11927713
H  H31  1  0.88330000  0.06420000  0.72210000  1.0 0.11927713
H  H32  1  0.11670000  0.56420000  0.77790000  1.0 0.11927713
H  H33  1  0.16590000  0.91000000  0.34340000  1.0 0.1275818171
H  H34  1  0.83410000  0.41000000  0.15660000  1.0 0.1275818171
H  H35  1  0.83410000  0.09000000  0.65660000  1.0 0.1275818171
H  H36  1  0.16590000  0.59000000  0.84340000  1.0 0.1275818171
H  H37  1  0.20390000  0.72780000  0.30790000  1.0 0.11927713
H  H38  1  0.79610000  0.22780000  0.19210000  1.0 0.11927713
H  H39  1  0.79610000  0.27220000  0.69210000  1.0 0.11927713
H  H40  1  0.20390000  0.77220000  0.80790000  1.0 0.11927713
H  H41  1  0.15560000  0.75450000  0.24210000  1.0 0.11927713
H  H42  1  0.84440000  0.25450000  0.25790000  1.0 0.11927713
H  H43  1  0.84440000  0.24550000  0.75790000  1.0 0.11927713
H  H44  1  0.15560000  0.74550000  0.74210000  1.0 0.11927713
H  H45  1  0.62370000  0.45930000  0.04870000  1.0 0.1006308745
H  H46  1  0.37630000  0.95930000  0.45130000  1.0 0.1006308745
H  H47  1  0.37630000  0.54070000  0.95130000  1.0 0.1006308745
H  H48  1  0.62370000  0.04070000  0.54870000  1.0 0.1006308745
H  H49  1  0.73010000  0.63170000  0.06860000  1.0 0.11927713
H  H50  1  0.26990000  0.13170000  0.43140000  1.0 0.11927713
H  H51  1  0.26990000  0.36830000  0.93140000  1.0 0.11927713
H  H52  1  0.73010000  0.86830000  0.56860000  1.0 0.11927713
H  H53  1  0.83190000  0.45970000  0.05430000  1.0 0.1006308745
H  H54  1  0.16810000  0.95970000  0.44570000  1.0 0.1006308745
H  H55  1  0.16810000  0.54030000  0.94570000  1.0 0.1006308745
H  H56  1  0.83190000  0.04030000  0.55430000  1.0 0.1006308745
H  H57  1  0.53560000  0.51210000  0.02560000  1.0 0.1006308745
H  H58  1  0.46440000  0.01210000  0.47440000  1.0 0.1006308745
H  H59  1  0.46440000  0.48790000  0.97440000  1.0 0.1006308745
H  H60  1  0.53560000  0.98790000  0.52560000  1.0 0.1006308745
H  H61  1  0.42350000  0.56150000  0.02070000  1.0 0.1006308745
H  H62  1  0.57650000  0.06150000  0.47930000  1.0 0.1006308745
H  H63  1  0.57650000  0.43850000  0.97930000  1.0 0.1006308745
H  H64  1  0.42350000  0.93850000  0.52070000  1.0 0.1006308745
H  H65  1  0.51140000  0.72020000  0.08060000  1.0 0.11927713
H  H66  1  0.48860000  0.22020000  0.41940000  1.0 0.11927713
H  H67  1  0.48860000  0.27980000  0.91940000  1.0 0.11927713
H  H68  1  0.51140000  0.77980000  0.58060000  1.0 0.11927713
H  H69  1  0.62310000  0.67090000  0.08620000  1.0 0.1100756356
H  H70  1  0.37690000  0.17090000  0.41380000  1.0 0.1100756356
H  H71  1  0.37690000  0.32910000  0.91380000  1.0 0.1100756356
H  H72  1  0.62310000  0.82910000  0.58620000  1.0 0.1100756356
H  H73  1  0.83070000  0.67490000  0.04400000  1.0 0.1100756356
H  H74  1  0.16930000  0.17490000  0.45600000  1.0 0.1100756356
H  H75  1  0.16930000  0.32510000  0.95600000  1.0 0.1100756356
H  H76  1  0.83070000  0.82510000  0.54400000  1.0 0.1100756356
H  H77  1  0.94240000  0.72560000  0.04980000  1.0 0.11927713
H  H78  1  0.05760000  0.22560000  0.45020000  1.0 0.11927713
H  H79  1  0.05760000  0.27440000  0.95020000  1.0 0.11927713
H  H80  1  0.94240000  0.77440000  0.54980000  1.0 0.11927713
H  H81  1  0.03450000  0.55960000  0.10010000  1.0 0.11927713
H  H82  1  0.96550000  0.05960000  0.39990000  1.0 0.11927713
H  H83  1  0.96550000  0.44040000  0.89990000  1.0 0.11927713
H  H84  1  0.03450000  0.94040000  0.60010000  1.0 0.11927713
H  H85  1  0.92340000  0.50970000  0.09540000  1.0 0.11927713
H  H86  1  0.07660000  0.00970000  0.40460000  1.0 0.11927713
H  H87  1  0.07660000  0.49030000  0.90460000  1.0 0.11927713
H  H88  1  0.92340000  0.99030000  0.59540000  1.0 0.11927713
H  H89  1  0.33410000  0.52450000  0.05660000  1.0 0.1100756356
H  H90  1  0.66590000  0.02450000  0.44340000  1.0 0.1100756356
H  H91  1  0.66590000  0.47550000  0.94340000  1.0 0.1100756356
H  H92  1  0.33410000  0.97550000  0.55660000  1.0 0.1100756356
H  H93  1  0.22760000  0.35160000  0.05170000  1.0 0.11927713
H  H94  1  0.77240000  0.85160000  0.44830000  1.0 0.11927713
H  H95  1  0.77240000  0.64840000  0.94830000  1.0 0.11927713
H  H96  1  0.22760000  0.14840000  0.55170000  1.0 0.11927713
H  H97  1  0.12590000  0.52650000  0.05220000  1.0 0.1006308745
H  H98  1  0.87410000  0.02650000  0.44780000  1.0 0.1006308745
H  H99  1  0.87410000  0.47350000  0.94780000  1.0 0.1006308745
H  H100  1  0.12590000  0.97350000  0.55220000  1.0 0.1006308745
H  H101  1  0.03440000  0.48350000  0.02950000  1.0 0.1100756356
H  H102  1  0.96560000  0.98350000  0.47050000  1.0 0.1100756356
H  H103  1  0.96560000  0.51650000  0.97050000  1.0 0.1100756356
H  H104  1  0.03440000  0.01650000  0.52950000  1.0 0.1100756356
H  H105  1  0.92220000  0.43660000  0.01800000  1.0 0.1100756356
H  H106  1  0.07780000  0.93660000  0.48200000  1.0 0.1100756356
H  H107  1  0.07780000  0.56340000  0.98200000  1.0 0.1100756356
H  H108  1  0.92220000  0.06340000  0.51800000  1.0 0.1100756356
H  H109  1  0.00730000  0.25970000  0.05170000  1.0 0.11927713
H  H110  1  0.99270000  0.75970000  0.44830000  1.0 0.11927713
H  H111  1  0.99270000  0.74030000  0.94830000  1.0 0.11927713
H  H112  1  0.00730000  0.24030000  0.55170000  1.0 0.11927713
H  H113  1  0.12020000  0.30560000  0.06150000  1.0 0.1100756356
H  H114  1  0.87980000  0.80560000  0.43850000  1.0 0.1100756356
H  H115  1  0.87980000  0.69440000  0.93850000  1.0 0.1100756356
H  H116  1  0.12020000  0.19440000  0.56150000  1.0 0.1100756356
H  H117  1  0.42400000  0.46550000  0.09210000  1.0 0.11927713
H  H118  1  0.57600000  0.96550000  0.40790000  1.0 0.11927713
H  H119  1  0.57600000  0.53450000  0.90790000  1.0 0.11927713
H  H120  1  0.42400000  0.03450000  0.59210000  1.0 0.11927713
H  H121  1  0.53470000  0.41370000  0.09300000  1.0 0.11927713
H  H122  1  0.46530000  0.91370000  0.40700000  1.0 0.11927713
H  H123  1  0.46530000  0.58630000  0.90700000  1.0 0.11927713
H  H124  1  0.53470000  0.08630000  0.59300000  1.0 0.11927713
H  H125  1  0.43800000  0.26310000  0.02650000  1.0 0.11927713
H  H126  1  0.56200000  0.76310000  0.47350000  1.0 0.11927713
H  H127  1  0.56200000  0.73690000  0.97350000  1.0 0.11927713
H  H128  1  0.43800000  0.23690000  0.52650000  1.0 0.11927713
H  H129  1  0.32880000  0.31700000  0.02340000  1.0 0.1100756356
H  H130  1  0.67120000  0.81700000  0.47660000  1.0 0.1100756356
H  H131  1  0.67120000  0.68300000  0.97660000  1.0 0.1100756356
H  H132  1  0.32880000  0.18300000  0.52340000  1.0 0.1100756356
H  H133  1  0.31370000  0.67070000  0.33170000  1.0 0.1100756356
H  H134  1  0.68630000  0.17070000  0.16830000  1.0 0.1100756356
H  H135  1  0.68630000  0.32930000  0.66830000  1.0 0.1100756356
H  H136  1  0.31370000  0.82930000  0.83170000  1.0 0.1100756356
H  H137  1  0.47050000  0.55370000  0.30240000  1.0 0.11927713
H  H138  1  0.52950000  0.05370000  0.19760000  1.0 0.11927713
H  H139  1  0.52950000  0.44630000  0.69760000  1.0 0.11927713
H  H140  1  0.47050000  0.94630000  0.80240000  1.0 0.11927713
H  H141  1  0.45190000  0.59530000  0.41940000  1.0 0.1006308745
H  H142  1  0.54810000  0.09530000  0.08060000  1.0 0.1006308745
H  H143  1  0.54810000  0.40470000  0.58060000  1.0 0.1006308745
H  H144  1  0.45190000  0.90470000  0.91940000  1.0 0.1006308745
H  H145  1  0.34340000  0.72960000  0.27560000  1.0 0.11927713
H  H146  1  0.65660000  0.22960000  0.22440000  1.0 0.11927713
H  H147  1  0.65660000  0.27040000  0.72440000  1.0 0.11927713
H  H148  1  0.34340000  0.77040000  0.77560000  1.0 0.11927713
H  H149  1  0.29520000  0.75650000  0.20830000  1.0 0.11927713
H  H150  1  0.70480000  0.25650000  0.29170000  1.0 0.11927713
H  H151  1  0.70480000  0.24350000  0.79170000  1.0 0.11927713
H  H152  1  0.29520000  0.74350000  0.70830000  1.0 0.11927713
H  H153  1  0.34280000  0.57450000  0.17330000  1.0 0.1275818171
H  H154  1  0.65720000  0.07450000  0.32670000  1.0 0.1275818171
H  H155  1  0.65720000  0.42550000  0.82670000  1.0 0.1275818171
H  H156  1  0.34280000  0.92550000  0.67330000  1.0 0.1275818171
H  H157  1  0.39160000  0.54960000  0.23960000  1.0 0.1100756356
H  H158  1  0.60840000  0.04960000  0.26040000  1.0 0.1100756356
H  H159  1  0.60840000  0.45040000  0.76040000  1.0 0.1100756356
H  H160  1  0.39160000  0.95040000  0.73960000  1.0 0.1100756356
H  H161  1  0.55660000  0.56120000  0.43670000  1.0 0.1006308745
H  H162  1  0.44340000  0.06120000  0.06330000  1.0 0.1006308745
H  H163  1  0.44340000  0.43880000  0.56330000  1.0 0.1006308745
H  H164  1  0.55660000  0.93880000  0.93670000  1.0 0.1006308745
H  H165  1  0.64830000  0.48970000  0.46270000  1.0 0.1100756356
H  H166  1  0.35170000  0.98970000  0.03730000  1.0 0.1100756356
H  H167  1  0.35170000  0.51030000  0.53730000  1.0 0.1100756356
H  H168  1  0.64830000  0.01030000  0.96270000  1.0 0.1100756356
H  H169  1  0.63150000  0.40150000  0.35260000  1.0 0.1100756356
H  H170  1  0.36850000  0.90150000  0.14740000  1.0 0.1100756356
H  H171  1  0.36850000  0.59850000  0.64740000  1.0 0.1100756356
H  H172  1  0.63150000  0.09850000  0.85260000  1.0 0.1100756356
H  H173  1  0.53760000  0.47100000  0.32830000  1.0 0.0873317411
H  H174  1  0.46240000  0.97100000  0.17170000  1.0 0.0873317411
H  H175  1  0.46240000  0.52900000  0.67170000  1.0 0.0873317411
H  H176  1  0.53760000  0.02900000  0.82830000  1.0 0.0873317411
H  H177  1  0.49220000  0.49310000  0.43070000  1.0 0.1006308745
H  H178  1  0.50780000  0.99310000  0.06930000  1.0 0.1006308745
H  H179  1  0.50780000  0.50690000  0.56930000  1.0 0.1006308745
H  H180  1  0.49220000  0.00690000  0.93070000  1.0 0.1006308745
H  H181  1  0.58860000  0.42310000  0.45820000  1.0 0.11927713
H  H182  1  0.41140000  0.92310000  0.04180000  1.0 0.11927713
H  H183  1  0.41140000  0.57690000  0.54180000  1.0 0.11927713
H  H184  1  0.58860000  0.07690000  0.95820000  1.0 0.11927713
H  H185  1  0.68160000  0.45950000  0.35630000  1.0 0.1100756356
H  H186  1  0.31840000  0.95950000  0.14370000  1.0 0.1100756356
H  H187  1  0.31840000  0.54050000  0.64370000  1.0 0.1100756356
H  H188  1  0.68160000  0.04050000  0.85630000  1.0 0.1100756356
H  H189  1  0.58810000  0.53040000  0.33160000  1.0 0.0873317411
H  H190  1  0.41190000  0.03040000  0.16840000  1.0 0.0873317411
H  H191  1  0.41190000  0.46960000  0.66840000  1.0 0.0873317411
H  H192  1  0.58810000  0.96960000  0.83160000  1.0 0.0873317411
C  C1  1  0.07230000  0.89080000  0.12507000  1.0 0.0386893807
C  C2  1  0.92770000  0.39080000  0.37493000  1.0 0.0386893807
C  C3  1  0.92770000  0.10920000  0.87493000  1.0 0.0386893807
C  C4  1  0.07230000  0.60920000  0.62507000  1.0 0.0386893807
C  C5  1  0.03890000  0.92850000  0.15270000  1.0 0.0316928276
C  C6  1  0.96110000  0.42850000  0.34730000  1.0 0.0316928276
C  C7  1  0.96110000  0.07150000  0.84730000  1.0 0.0316928276
C  C8  1  0.03890000  0.57150000  0.65270000  1.0 0.0316928276
C  C9  1  0.06050000  0.91670000  0.19490000  1.0 -0.1591451014
C  C10  1  0.93950000  0.41670000  0.30510000  1.0 -0.1591451014
C  C11  1  0.93950000  0.08330000  0.80510000  1.0 -0.1591451014
C  C12  1  0.06050000  0.58330000  0.69490000  1.0 -0.1591451014
C  C13  1  0.11430000  0.87010000  0.20770000  1.0 0.0316928276
C  C14  1  0.88570000  0.37010000  0.29230000  1.0 0.0316928276
C  C15  1  0.88570000  0.12990000  0.79230000  1.0 0.0316928276
C  C16  1  0.11430000  0.62990000  0.70770000  1.0 0.0316928276
C  C17  1  0.14540000  0.83800000  0.17685000  1.0 0.0386893807
C  C18  1  0.85460000  0.33800000  0.32315000  1.0 0.0386893807
C  C19  1  0.85460000  0.16200000  0.82315000  1.0 0.0386893807
C  C20  1  0.14540000  0.66200000  0.67685000  1.0 0.0386893807
C  C21  1  0.98230000  0.97730000  0.13620000  1.0 0.0694400113
C  C22  1  0.01770000  0.47730000  0.36380000  1.0 0.0694400113
C  C23  1  0.01770000  0.02270000  0.86380000  1.0 0.0694400113
C  C24  1  0.98230000  0.52270000  0.63620000  1.0 0.0694400113
C  C25  1  0.98950000  0.01060000  0.10010000  1.0 -0.1489826894
C  C26  1  0.01050000  0.51060000  0.39990000  1.0 -0.1489826894
C  C27  1  0.01050000  0.98940000  0.89990000  1.0 -0.1489826894
C  C28  1  0.98950000  0.48940000  0.60010000  1.0 -0.1489826894
C  C29  1  0.93610000  0.05360000  0.08250000  1.0 -0.0916351726
C  C30  1  0.06390000  0.55360000  0.41750000  1.0 -0.0916351726
C  C31  1  0.06390000  0.94640000  0.91750000  1.0 -0.0916351726
C  C32  1  0.93610000  0.44640000  0.58250000  1.0 -0.0916351726
C  C33  1  0.87470000  0.06520000  0.10042000  1.0 -0.0190231094
C  C34  1  0.12530000  0.56520000  0.39958000  1.0 -0.0190231094
C  C35  1  0.12530000  0.93480000  0.89958000  1.0 -0.0190231094
C  C36  1  0.87470000  0.43480000  0.60042000  1.0 -0.0190231094
C  C37  1  0.87040000  0.03540000  0.13820000  1.0 -0.1078573999
C  C38  1  0.12960000  0.53540000  0.36180000  1.0 -0.1078573999
C  C39  1  0.12960000  0.96460000  0.86180000  1.0 -0.1078573999
C  C40  1  0.87040000  0.46460000  0.63820000  1.0 -0.1078573999
C  C41  1  0.92340000  0.99210000  0.15560000  1.0 -0.1489826894
C  C42  1  0.07660000  0.49210000  0.34440000  1.0 -0.1489826894
C  C43  1  0.07660000  0.00790000  0.84440000  1.0 -0.1489826894
C  C44  1  0.92340000  0.50790000  0.65560000  1.0 -0.1489826894
C  C45  1  0.81580000  0.10990000  0.07882000  1.0 0.5792968431
C  C46  1  0.18420000  0.60990000  0.42118000  1.0 0.5792968431
C  C47  1  0.18420000  0.89010000  0.92118000  1.0 0.5792968431
C  C48  1  0.81580000  0.39010000  0.57882000  1.0 0.5792968431
C  C49  1  0.14020000  0.85350000  0.25130000  1.0 0.0694400113
C  C50  1  0.85980000  0.35350000  0.24870000  1.0 0.0694400113
C  C51  1  0.85980000  0.14650000  0.74870000  1.0 0.0694400113
C  C52  1  0.14020000  0.64650000  0.75130000  1.0 0.0694400113
C  C53  1  0.13870000  0.89450000  0.28290000  1.0 -0.1489826894
C  C54  1  0.86130000  0.39450000  0.21710000  1.0 -0.1489826894
C  C55  1  0.86130000  0.10550000  0.71710000  1.0 -0.1489826894
C  C56  1  0.13870000  0.60550000  0.78290000  1.0 -0.1489826894
C  C57  1  0.16820000  0.87890000  0.32260000  1.0 -0.1009937009
C  C58  1  0.83180000  0.37890000  0.17740000  1.0 -0.1009937009
C  C59  1  0.83180000  0.12110000  0.67740000  1.0 -0.1009937009
C  C60  1  0.16820000  0.62110000  0.82260000  1.0 -0.1009937009
C  C61  1  0.20010000  0.82020000  0.33227000  1.0 -0.0105133494
C  C62  1  0.79990000  0.32020000  0.16773000  1.0 -0.0105133494
C  C63  1  0.79990000  0.17980000  0.66773000  1.0 -0.0105133494
C  C64  1  0.20010000  0.67980000  0.83227000  1.0 -0.0105133494
C  C65  1  0.19040000  0.77160000  0.30150000  1.0 -0.1078573999
C  C66  1  0.80960000  0.27160000  0.19850000  1.0 -0.1078573999
C  C67  1  0.80960000  0.22840000  0.69850000  1.0 -0.1078573999
C  C68  1  0.19040000  0.72840000  0.80150000  1.0 -0.1078573999
C  C69  1  0.16140000  0.78760000  0.26210000  1.0 -0.1489826894
C  C70  1  0.83860000  0.28760000  0.23790000  1.0 -0.1489826894
C  C71  1  0.83860000  0.21240000  0.73790000  1.0 -0.1489826894
C  C72  1  0.16140000  0.71240000  0.76210000  1.0 -0.1489826894
C  C73  1  0.23550000  0.80170000  0.37496000  1.0 0.5891029993
C  C74  1  0.76450000  0.30170000  0.12504000  1.0 0.5891029993
C  C75  1  0.76450000  0.19830000  0.62504000  1.0 0.5891029993
C  C76  1  0.23550000  0.69830000  0.87496000  1.0 0.5891029993
C  C77  1  0.66680000  0.48300000  0.05173000  1.0 0.0316928276
C  C78  1  0.33320000  0.98300000  0.44827000  1.0 0.0316928276
C  C79  1  0.33320000  0.51700000  0.94827000  1.0 0.0316928276
C  C80  1  0.66680000  0.01700000  0.55173000  1.0 0.0316928276
C  C81  1  0.66390000  0.55150000  0.05800000  1.0 0.0386893807
C  C82  1  0.33610000  0.05150000  0.44200000  1.0 0.0386893807
C  C83  1  0.33610000  0.44850000  0.94200000  1.0 0.0386893807
C  C84  1  0.66390000  0.94850000  0.55800000  1.0 0.0386893807
C  C85  1  0.72940000  0.58600000  0.06390000  1.0 -0.1684552595
C  C86  1  0.27060000  0.08600000  0.43610000  1.0 -0.1684552595
C  C87  1  0.27060000  0.41400000  0.93610000  1.0 -0.1684552595
C  C88  1  0.72940000  0.91400000  0.56390000  1.0 -0.1684552595
C  C89  1  0.79380000  0.55170000  0.06274000  1.0 0.0316928276
C  C90  1  0.20620000  0.05170000  0.43726000  1.0 0.0316928276
C  C91  1  0.20620000  0.44830000  0.93726000  1.0 0.0316928276
C  C92  1  0.79380000  0.94830000  0.56274000  1.0 0.0316928276
C  C93  1  0.78930000  0.48310000  0.05537000  1.0 0.0316928276
C  C94  1  0.21070000  0.98310000  0.44463000  1.0 0.0316928276
C  C95  1  0.21070000  0.51690000  0.94463000  1.0 0.0316928276
C  C96  1  0.78930000  0.01690000  0.55537000  1.0 0.0316928276
C  C97  1  0.59230000  0.58530000  0.05710000  1.0 0.0694400113
C  C98  1  0.40770000  0.08530000  0.44290000  1.0 0.0694400113
C  C99  1  0.40770000  0.41470000  0.94290000  1.0 0.0694400113
C  C100  1  0.59230000  0.91470000  0.55710000  1.0 0.0694400113
C  C101  1  0.53140000  0.55400000  0.03710000  1.0 -0.1591451014
C  C102  1  0.46860000  0.05400000  0.46290000  1.0 -0.1591451014
C  C103  1  0.46860000  0.44600000  0.96290000  1.0 -0.1591451014
C  C104  1  0.53140000  0.94600000  0.53710000  1.0 -0.1591451014
C  C105  1  0.46370000  0.58400000  0.03390000  1.0 -0.1078573999
C  C106  1  0.53630000  0.08400000  0.46610000  1.0 -0.1078573999
C  C107  1  0.53630000  0.41600000  0.96610000  1.0 -0.1078573999
C  C108  1  0.46370000  0.91600000  0.53390000  1.0 -0.1078573999
C  C109  1  0.45530000  0.64630000  0.05007000  1.0 -0.0190231094
C  C110  1  0.54470000  0.14630000  0.44993000  1.0 -0.0190231094
C  C111  1  0.54470000  0.35370000  0.94993000  1.0 -0.0190231094
C  C112  1  0.45530000  0.85370000  0.55007000  1.0 -0.0190231094
C  C113  1  0.51560000  0.67800000  0.06950000  1.0 -0.0916351726
C  C114  1  0.48440000  0.17800000  0.43050000  1.0 -0.0916351726
C  C115  1  0.48440000  0.32200000  0.93050000  1.0 -0.0916351726
C  C116  1  0.51560000  0.82200000  0.56950000  1.0 -0.0916351726
C  C117  1  0.58310000  0.64810000  0.07290000  1.0 -0.1489826894
C  C118  1  0.41690000  0.14810000  0.42710000  1.0 -0.1489826894
C  C119  1  0.41690000  0.35190000  0.92710000  1.0 -0.1489826894
C  C120  1  0.58310000  0.85190000  0.57290000  1.0 -0.1489826894
C  C121  1  0.38270000  0.67920000  0.04398000  1.0 0.5792968431
C  C122  1  0.61730000  0.17920000  0.45602000  1.0 0.5792968431
C  C123  1  0.61730000  0.32080000  0.95602000  1.0 0.5792968431
C  C124  1  0.38270000  0.82080000  0.54398000  1.0 0.5792968431
C  C125  1  0.86480000  0.58610000  0.06790000  1.0 0.0694400113
C  C126  1  0.13520000  0.08610000  0.43210000  1.0 0.0694400113
C  C127  1  0.13520000  0.41390000  0.93210000  1.0 0.0694400113
C  C128  1  0.86480000  0.91390000  0.56790000  1.0 0.0694400113
C  C129  1  0.87170000  0.65120000  0.05500000  1.0 -0.1591451014
C  C130  1  0.12830000  0.15120000  0.44500000  1.0 -0.1591451014
C  C131  1  0.12830000  0.34880000  0.94500000  1.0 -0.1591451014
C  C132  1  0.87170000  0.84880000  0.55500000  1.0 -0.1591451014
C  C133  1  0.93890000  0.68170000  0.05830000  1.0 -0.0916351726
C  C134  1  0.06110000  0.18170000  0.44170000  1.0 -0.0916351726
C  C135  1  0.06110000  0.31830000  0.94170000  1.0 -0.0916351726
C  C136  1  0.93890000  0.81830000  0.55830000  1.0 -0.0916351726
C  C137  1  0.00080000  0.64730000  0.07425000  1.0 -0.0190231094
C  C138  1  0.99920000  0.14730000  0.42575000  1.0 -0.0190231094
C  C139  1  0.99920000  0.35270000  0.92575000  1.0 -0.0190231094
C  C140  1  0.00080000  0.85270000  0.57425000  1.0 -0.0190231094
C  C141  1  0.99370000  0.58290000  0.08840000  1.0 -0.1009937009
C  C142  1  0.00630000  0.08290000  0.41160000  1.0 -0.1009937009
C  C143  1  0.00630000  0.41710000  0.91160000  1.0 -0.1009937009
C  C144  1  0.99370000  0.91710000  0.58840000  1.0 -0.1009937009
C  C145  1  0.92690000  0.55280000  0.08550000  1.0 -0.1591451014
C  C146  1  0.07310000  0.05280000  0.41450000  1.0 -0.1591451014
C  C147  1  0.07310000  0.44720000  0.91450000  1.0 -0.1591451014
C  C148  1  0.92690000  0.94720000  0.58550000  1.0 -0.1591451014
C  C149  1  0.07420000  0.67760000  0.07430000  1.0 0.5734093497
C  C150  1  0.92580000  0.17760000  0.42570000  1.0 0.5734093497
C  C151  1  0.92580000  0.32240000  0.92570000  1.0 0.5734093497
C  C152  1  0.07420000  0.82240000  0.57430000  1.0 0.5734093497
C  C153  1  0.29110000  0.50110000  0.05536000  1.0 0.0386893807
C  C154  1  0.70890000  0.00110000  0.44464000  1.0 0.0386893807
C  C155  1  0.70890000  0.49890000  0.94464000  1.0 0.0386893807
C  C156  1  0.29110000  0.99890000  0.55536000  1.0 0.0386893807
C  C157  1  0.29410000  0.43270000  0.05550000  1.0 0.0316928276
C  C158  1  0.70590000  0.93270000  0.44450000  1.0 0.0316928276
C  C159  1  0.70590000  0.56730000  0.94450000  1.0 0.0316928276
C  C160  1  0.29410000  0.06730000  0.55550000  1.0 0.0316928276
C  C161  1  0.22800000  0.39800000  0.05240000  1.0 -0.1684552595
C  C162  1  0.77200000  0.89800000  0.44760000  1.0 -0.1684552595
C  C163  1  0.77200000  0.60200000  0.94760000  1.0 -0.1684552595
C  C164  1  0.22800000  0.10200000  0.55240000  1.0 -0.1684552595
C  C165  1  0.16350000  0.43300000  0.05055000  1.0 0.0386893807
C  C166  1  0.83650000  0.93300000  0.44945000  1.0 0.0386893807
C  C167  1  0.83650000  0.56700000  0.94945000  1.0 0.0386893807
C  C168  1  0.16350000  0.06700000  0.55055000  1.0 0.0386893807
C  C169  1  0.16820000  0.50230000  0.05216000  1.0 0.0233139938
C  C170  1  0.83180000  0.00230000  0.44784000  1.0 0.0233139938
C  C171  1  0.83180000  0.49770000  0.94784000  1.0 0.0233139938
C  C172  1  0.16820000  0.99770000  0.55216000  1.0 0.0233139938
C  C173  1  0.09120000  0.39990000  0.04620000  1.0 0.0694400113
C  C174  1  0.90880000  0.89990000  0.45380000  1.0 0.0694400113
C  C175  1  0.90880000  0.60010000  0.95380000  1.0 0.0694400113
C  C176  1  0.09120000  0.10010000  0.54620000  1.0 0.0694400113
C  C177  1  0.02960000  0.43800000  0.03350000  1.0 -0.1591451014
C  C178  1  0.97040000  0.93800000  0.46650000  1.0 -0.1591451014
C  C179  1  0.97040000  0.56200000  0.96650000  1.0 -0.1591451014
C  C180  1  0.02960000  0.06200000  0.53350000  1.0 -0.1591451014
C  C181  1  0.96210000  0.41000000  0.02690000  1.0 -0.1078573999
C  C182  1  0.03790000  0.91000000  0.47310000  1.0 -0.1078573999
C  C183  1  0.03790000  0.59000000  0.97310000  1.0 -0.1078573999
C  C184  1  0.96210000  0.09000000  0.52690000  1.0 -0.1078573999
C  C185  1  0.95270000  0.34330000  0.03327000  1.0 -0.0190231094
C  C186  1  0.04730000  0.84330000  0.46673000  1.0 -0.0190231094
C  C187  1  0.04730000  0.65670000  0.96673000  1.0 -0.0190231094
C  C188  1  0.95270000  0.15670000  0.53327000  1.0 -0.0190231094
C  C189  1  0.01280000  0.30490000  0.04670000  1.0 -0.0916351726
C  C190  1  0.98720000  0.80490000  0.45330000  1.0 -0.0916351726
C  C191  1  0.98720000  0.69510000  0.95330000  1.0 -0.0916351726
C  C192  1  0.01280000  0.19510000  0.54670000  1.0 -0.0916351726
C  C193  1  0.08050000  0.33260000  0.05280000  1.0 -0.1591451014
C  C194  1  0.91950000  0.83260000  0.44720000  1.0 -0.1591451014
C  C195  1  0.91950000  0.66740000  0.94720000  1.0 -0.1591451014
C  C196  1  0.08050000  0.16740000  0.55280000  1.0 -0.1591451014
C  C197  1  0.87930000  0.31250000  0.02466000  1.0 0.5891029993
C  C198  1  0.12070000  0.81250000  0.47534000  1.0 0.5891029993
C  C199  1  0.12070000  0.68750000  0.97534000  1.0 0.5891029993
C  C200  1  0.87930000  0.18750000  0.52466000  1.0 0.5891029993
C  C201  1  0.36420000  0.39690000  0.05780000  1.0 0.0637678737
C  C202  1  0.63580000  0.89690000  0.44220000  1.0 0.0637678737
C  C203  1  0.63580000  0.60310000  0.94220000  1.0 0.0637678737
C  C204  1  0.36420000  0.10310000  0.55780000  1.0 0.0637678737
C  C205  1  0.42650000  0.42520000  0.07850000  1.0 -0.1489826894
C  C206  1  0.57350000  0.92520000  0.42150000  1.0 -0.1489826894
C  C207  1  0.57350000  0.57480000  0.92150000  1.0 -0.1489826894
C  C208  1  0.42650000  0.07480000  0.57850000  1.0 -0.1489826894
C  C209  1  0.49340000  0.39370000  0.07910000  1.0 -0.1009937009
C  C210  1  0.50660000  0.89370000  0.42090000  1.0 -0.1009937009
C  C211  1  0.50660000  0.60630000  0.92090000  1.0 -0.1009937009
C  C212  1  0.49340000  0.10630000  0.57910000  1.0 -0.1009937009
C  C213  1  0.49910000  0.33320000  0.05956000  1.0 -0.0190231094
C  C214  1  0.50090000  0.83320000  0.44044000  1.0 -0.0190231094
C  C215  1  0.50090000  0.66680000  0.94044000  1.0 -0.0190231094
C  C216  1  0.49910000  0.16680000  0.55956000  1.0 -0.0190231094
C  C217  1  0.43590000  0.30430000  0.03930000  1.0 -0.1009937009
C  C218  1  0.56410000  0.80430000  0.46070000  1.0 -0.1009937009
C  C219  1  0.56410000  0.69570000  0.96070000  1.0 -0.1009937009
C  C220  1  0.43590000  0.19570000  0.53930000  1.0 -0.1009937009
C  C221  1  0.37000000  0.33640000  0.03790000  1.0 -0.1591451014
C  C222  1  0.63000000  0.83640000  0.46210000  1.0 -0.1591451014
C  C223  1  0.63000000  0.66360000  0.96210000  1.0 -0.1591451014
C  C224  1  0.37000000  0.16360000  0.53790000  1.0 -0.1591451014
C  C225  1  0.57200000  0.30260000  0.05842000  1.0 0.5891029993
C  C226  1  0.42800000  0.80260000  0.44158000  1.0 0.5891029993
C  C227  1  0.42800000  0.69740000  0.94158000  1.0 0.5891029993
C  C228  1  0.57200000  0.19740000  0.55842000  1.0 0.5891029993
C  C229  1  0.35470000  0.64500000  0.33990000  1.0 0.0386893807
C  C230  1  0.64530000  0.14500000  0.16010000  1.0 0.0386893807
C  C231  1  0.64530000  0.35500000  0.66010000  1.0 0.0386893807
C  C232  1  0.35470000  0.85500000  0.83990000  1.0 0.0386893807
C  C233  1  0.38940000  0.61620000  0.30970000  1.0 0.0386893807
C  C234  1  0.61060000  0.11620000  0.19030000  1.0 0.0386893807
C  C235  1  0.61060000  0.38380000  0.69030000  1.0 0.0386893807
C  C236  1  0.38940000  0.88380000  0.80970000  1.0 0.0386893807
C  C237  1  0.44750000  0.57500000  0.32200000  1.0 -0.1684552595
C  C238  1  0.55250000  0.07500000  0.17800000  1.0 -0.1684552595
C  C239  1  0.55250000  0.42500000  0.67800000  1.0 -0.1684552595
C  C240  1  0.44750000  0.92500000  0.82200000  1.0 -0.1684552595
C  C241  1  0.47210000  0.56490000  0.36430000  1.0 0.0011876402
C  C242  1  0.52790000  0.06490000  0.13570000  1.0 0.0011876402
C  C243  1  0.52790000  0.43510000  0.63570000  1.0 0.0011876402
C  C244  1  0.47210000  0.93510000  0.86430000  1.0 0.0011876402
C  C245  1  0.43520000  0.59920000  0.39137000  1.0 0.0146100531
C  C246  1  0.56480000  0.09920000  0.10863000  1.0 0.0146100531
C  C247  1  0.56480000  0.40080000  0.60863000  1.0 0.0146100531
C  C248  1  0.43520000  0.90080000  0.89137000  1.0 0.0233139938
C  C249  1  0.36190000  0.63060000  0.26580000  1.0 0.0694400113
C  C250  1  0.63810000  0.13060000  0.23420000  1.0 0.0694400113
C  C251  1  0.63810000  0.36940000  0.73420000  1.0 0.0694400113
C  C252  1  0.36190000  0.86940000  0.76580000  1.0 0.0694400113
C  C253  1  0.33900000  0.69690000  0.25540000  1.0 -0.1591451014
C  C254  1  0.66100000  0.19690000  0.24460000  1.0 -0.1591451014
C  C255  1  0.66100000  0.30310000  0.74460000  1.0 -0.1591451014
C  C256  1  0.33900000  0.80310000  0.75540000  1.0 -0.1591451014
C  C257  1  0.31020000  0.71320000  0.21500000  1.0 -0.1078573999
C  C258  1  0.68980000  0.21320000  0.28500000  1.0 -0.1078573999
C  C259  1  0.68980000  0.28680000  0.78500000  1.0 -0.1078573999
C  C260  1  0.31020000  0.78680000  0.71500000  1.0 -0.1078573999
C  C261  1  0.30400000  0.66330000  0.18425000  1.0 -0.0190231094
C  C262  1  0.69600000  0.16330000  0.31575000  1.0 -0.0190231094
C  C263  1  0.69600000  0.33670000  0.81575000  1.0 -0.0190231094
C  C264  1  0.30400000  0.83670000  0.68425000  1.0 -0.0190231094
C  C265  1  0.33840000  0.60510000  0.19400000  1.0 -0.1009937009
C  C266  1  0.66160000  0.10510000  0.30600000  1.0 -0.1009937009
C  C267  1  0.66160000  0.39490000  0.80600000  1.0 -0.1009937009
C  C268  1  0.33840000  0.89490000  0.69400000  1.0 -0.1009937009
C  C269  1  0.36740000  0.58980000  0.23430000  1.0 -0.1489826894
C  C270  1  0.63260000  0.08980000  0.26570000  1.0 -0.1489826894
C  C271  1  0.63260000  0.41020000  0.76570000  1.0 -0.1489826894
C  C272  1  0.36740000  0.91020000  0.73430000  1.0 -0.1489826894
C  C273  1  0.26820000  0.68170000  0.14184000  1.0 0.5891029993
C  C274  1  0.73180000  0.18170000  0.35816000  1.0 0.5891029993
C  C275  1  0.73180000  0.31830000  0.85816000  1.0 0.5891029993
C  C276  1  0.26820000  0.81830000  0.64184000  1.0 0.5891029993
C  C277  1  0.53330000  0.52110000  0.37969000  1.0 0.0233139938
C  C278  1  0.46670000  0.02110000  0.12031000  1.0 0.0233139938
C  C279  1  0.46670000  0.47890000  0.62031000  1.0 0.0316928276
C  C280  1  0.53330000  0.97890000  0.87969000  1.0 0.0316928276
C  C281  1  0.57000000  0.52740000  0.42010000  1.0 -0.077295295
C  C282  1  0.43000000  0.02740000  0.07990000  1.0 -0.077295295
C  C283  1  0.43000000  0.47260000  0.57990000  1.0 -0.077295295
C  C284  1  0.57000000  0.97260000  0.92010000  1.0 -0.077295295
C  C285  1  0.62550000  0.48490000  0.43570000  1.0 -0.077295295
C  C286  1  0.37450000  0.98490000  0.06430000  1.0 -0.077295295
C  C287  1  0.37450000  0.51510000  0.56430000  1.0 -0.077295295
C  C288  1  0.62550000  0.01510000  0.93570000  1.0 -0.077295295
C  C289  1  0.61510000  0.43200000  0.37040000  1.0 -0.0710201068
C  C290  1  0.38490000  0.93200000  0.12960000  1.0 -0.0710201068
C  C291  1  0.38490000  0.56800000  0.62960000  1.0 -0.0710201068
C  C292  1  0.61510000  0.06800000  0.87040000  1.0 -0.0710201068
C  C293  1  0.55870000  0.47460000  0.35560000  1.0 -0.0465332376
C  C294  1  0.44130000  0.97460000  0.14440000  1.0 -0.0465332376
C  C295  1  0.44130000  0.52540000  0.64440000  1.0 -0.0465332376
C  C296  1  0.55870000  0.02540000  0.85560000  1.0 -0.0465332376
C  C297  1  0.64700000  0.43450000  0.41070000  1.0 -0.0105133494
C  C298  1  0.35300000  0.93450000  0.08930000  1.0 -0.0105133494
C  C299  1  0.35300000  0.56550000  0.58930000  1.0 -0.0105133494
C  C300  1  0.64700000  0.06550000  0.91070000  1.0 -0.0105133494
C  C301  1  0.70750000  0.38850000  0.42686000  1.0 0.5373663614
C  C302  1  0.29250000  0.88850000  0.07314000  1.0 0.5373663614
C  C303  1  0.29250000  0.61150000  0.57314000  1.0 0.5373663614
C  C304  1  0.70750000  0.11150000  0.92686000  1.0 0.5373663614
C  C305  1  0.53130000  0.48740000  0.41670000  1.0 -0.0916351726
C  C306  1  0.46870000  0.98740000  0.08330000  1.0 -0.0916351726
C  C307  1  0.46870000  0.51260000  0.58330000  1.0 -0.0916351726
C  C308  1  0.53130000  0.01260000  0.91670000  1.0 -0.0916351726
C  C309  1  0.58910000  0.44440000  0.43310000  1.0 -0.0710201068
C  C310  1  0.41090000  0.94440000  0.06690000  1.0 -0.0710201068
C  C311  1  0.41090000  0.55560000  0.56690000  1.0 -0.0710201068
C  C312  1  0.58910000  0.05560000  0.93310000  1.0 -0.0710201068
C  C313  1  0.64470000  0.46700000  0.37190000  1.0 -0.0610200232
C  C314  1  0.35530000  0.96700000  0.12810000  1.0 -0.0610200232
C  C315  1  0.35530000  0.53300000  0.62810000  1.0 -0.0610200232
C  C316  1  0.64470000  0.03300000  0.87190000  1.0 -0.0610200232
C  C317  1  0.58860000  0.50960000  0.35690000  1.0 -0.0465332376
C  C318  1  0.41140000  0.00960000  0.14310000  1.0 -0.0465332376
C  C319  1  0.41140000  0.49040000  0.64310000  1.0 -0.0465332376
C  C320  1  0.58860000  0.99040000  0.85690000  1.0 -0.0465332376
N  N1  1  0.12520000  0.84710000  0.13652000  1.0 -0.2262782743
N  N2  1  0.87480000  0.34710000  0.36348000  1.0 -0.2262782743
N  N3  1  0.87480000  0.15290000  0.86348000  1.0 -0.2262782743
N  N4  1  0.12520000  0.65290000  0.63652000  1.0 -0.2262782743
N  N5  1  0.72730000  0.44930000  0.04977000  1.0 -0.2110907314
N  N6  1  0.27270000  0.94930000  0.45023000  1.0 -0.2110907314
N  N7  1  0.27270000  0.55070000  0.95023000  1.0 -0.2110907314
N  N8  1  0.72730000  0.05070000  0.54977000  1.0 -0.2110907314
N  N9  1  0.23010000  0.53610000  0.05364000  1.0 -0.2155758468
N  N10  1  0.76990000  0.03610000  0.44636000  1.0 -0.2155758468
N  N11  1  0.76990000  0.46390000  0.94636000  1.0 -0.2155758468
N  N12  1  0.23010000  0.96390000  0.55364000  1.0 -0.2155758468
N  N13  1  0.37740000  0.63750000  0.38004000  1.0 -0.2110907314
N  N14  1  0.62260000  0.13750000  0.11996000  1.0 -0.2110907314
N  N15  1  0.62260000  0.36250000  0.61996000  1.0 -0.2110907314
N  N16  1  0.37740000  0.86250000  0.88004000  1.0 -0.2110907314
O  O1  1  0.28130000  0.75630000  0.37751000  1.0 -0.5301924388
O  O2  1  0.71870000  0.25630000  0.12249000  1.0 -0.5301924388
O  O3  1  0.71870000  0.24370000  0.62249000  1.0 -0.5301924388
O  O4  1  0.28130000  0.74370000  0.87751000  1.0 -0.5301924388
O  O5  1  0.21620000  0.83410000  0.40439000  1.0 -0.5301924388
O  O6  1  0.78380000  0.33410000  0.09561000  1.0 -0.5301924388
O  O7  1  0.78380000  0.16590000  0.59561000  1.0 -0.5301924388
O  O8  1  0.21620000  0.66590000  0.90439000  1.0 -0.5301924388
O  O9  1  0.81870000  0.11960000  0.04133000  1.0 -0.5170269077
O  O10  1  0.18130000  0.61960000  0.45867000  1.0 -0.5170269077
O  O11  1  0.18130000  0.88040000  0.95867000  1.0 -0.5170269077
O  O12  1  0.81870000  0.38040000  0.54133000  1.0 -0.5170269077
O  O13  1  0.76890000  0.13180000  0.09824000  1.0 -0.5524860313
O  O14  1  0.23110000  0.63180000  0.40176000  1.0 -0.5524860313
O  O15  1  0.23110000  0.86820000  0.90176000  1.0 -0.5524860313
O  O16  1  0.76890000  0.36820000  0.59824000  1.0 -0.5524860313
O  O17  1  0.12470000  0.63753000  0.07142000  1.0 -0.5524860313
O  O18  1  0.87530000  0.13753000  0.42858000  1.0 -0.5524860313
O  O19  1  0.87530000  0.36247000  0.92858000  1.0 -0.5524860313
O  O20  1  0.12470000  0.86247000  0.57142000  1.0 -0.5524860313
O  O21  1  0.07940000  0.74040000  0.07787000  1.0 -0.5170269077
O  O22  1  0.92060000  0.24040000  0.42213000  1.0 -0.5170269077
O  O23  1  0.92060000  0.25960000  0.92213000  1.0 -0.5170269077
O  O24  1  0.07940000  0.75960000  0.57787000  1.0 -0.5170269077
O  O25  1  0.37830000  0.73860000  0.05358000  1.0 -0.4225567719
O  O26  1  0.62170000  0.23860000  0.44642000  1.0 -0.4225567719
O  O27  1  0.62170000  0.26140000  0.94642000  1.0 -0.4225567719
O  O28  1  0.37830000  0.76140000  0.55358000  1.0 -0.4225567719
O  O29  1  0.32842000  0.64342000  0.02760000  1.0 -0.5929932883
O  O30  1  0.67158000  0.14342000  0.47240000  1.0 -0.5929932883
O  O31  1  0.67158000  0.35658000  0.97240000  1.0 -0.5929932883
O  O32  1  0.32842000  0.85658000  0.52760000  1.0 -0.5929932883
O  O33  1  0.87540000  0.25060000  0.02763000  1.0 -0.483329243
O  O34  1  0.12460000  0.75060000  0.47237000  1.0 -0.483329243
O  O35  1  0.12460000  0.74940000  0.97237000  1.0 -0.483329243
O  O36  1  0.87540000  0.24940000  0.52763000  1.0 -0.483329243
O  O37  1  0.82477000  0.35118000  0.01319000  1.0 -0.5969931176
O  O38  1  0.17523000  0.85118000  0.48681000  1.0 -0.5969931176
O  O39  1  0.17523000  0.64882000  0.98681000  1.0 -0.5969931176
O  O40  1  0.82477000  0.14882000  0.51319000  1.0 -0.5969931176
O  O41  1  0.57670000  0.23970000  0.05850000  1.0 -0.5413421383
O  O42  1  0.42330000  0.73970000  0.44150000  1.0 -0.5413421383
O  O43  1  0.42330000  0.76030000  0.94150000  1.0 -0.5413421383
O  O44  1  0.57670000  0.26030000  0.55850000  1.0 -0.5413421383
O  O45  1  0.62250000  0.34320000  0.05680000  1.0 -0.5524860313
O  O46  1  0.37750000  0.84320000  0.44320000  1.0 -0.5524860313
O  O47  1  0.37750000  0.65680000  0.94320000  1.0 -0.5524860313
O  O48  1  0.62250000  0.15680000  0.55680000  1.0 -0.5524860313
O  O49  1  0.28150000  0.64380000  0.11280000  1.0 -0.5301924388
O  O50  1  0.71850000  0.14380000  0.38720000  1.0 -0.5301924388
O  O51  1  0.71850000  0.35620000  0.88720000  1.0 -0.5301924388
O  O52  1  0.28150000  0.85620000  0.61280000  1.0 -0.5301924388
O  O53  1  0.22780000  0.73150000  0.13929000  1.0 -0.5413421383
O  O54  1  0.77220000  0.23150000  0.36071000  1.0 -0.5413421383
O  O55  1  0.77220000  0.26850000  0.86071000  1.0 -0.5413421383
O  O56  1  0.22780000  0.76850000  0.63929000  1.0 -0.5413421383
O  O57  1  0.74250000  0.36400000  0.40065000  1.0 -0.4928251868
O  O58  1  0.25750000  0.86400000  0.09935000  1.0 -0.4928251868
O  O59  1  0.25750000  0.63600000  0.59935000  1.0 -0.4928251868
O  O60  1  0.74250000  0.13600000  0.90065000  1.0 -0.4928251868
O  O61  1  0.71750000  0.37750000  0.46510000  1.0 -0.4606656572
O  O62  1  0.28250000  0.87750000  0.03490000  1.0 -0.4606656572
O  O63  1  0.28250000  0.62250000  0.53490000  1.0 -0.4606656572
O  O64  1  0.71750000  0.12250000  0.96510000  1.0 -0.4606656572
O  O65  1  0.22944000  0.74572000  0.05059000  1.0 -0.757977604
O  O66  1  0.77056000  0.24572000  0.44941000  1.0 -0.757977604
O  O67  1  0.77056000  0.25428000  0.94941000  1.0 -0.757977604
O  O68  1  0.22944000  0.75428000  0.55059000  1.0 -0.757977604
O  O69  1  0.12530000  0.85100000  0.03680000  1.0 -0.3718693098
O  O70  1  0.87470000  0.35100000  0.46320000  1.0 -0.3718693098
O  O71  1  0.87470000  0.14900000  0.96320000  1.0 -0.3718693098
O  O72  1  0.12530000  0.64900000  0.53680000  1.0 -0.3718693098
O  O73  1  0.28699000  0.76176000  0.97281000  1.0 -0.7710195472
O  O74  1  0.71301000  0.26176000  0.52719000  1.0 -0.7710195472
O  O75  1  0.71301000  0.23824000  0.02719000  1.0 -0.7710195472
O  O76  1  0.28699000  0.73824000  0.47281000  1.0 -0.7710195472
