# DDEC6 charges by PACMAN v1.1 (https://github.com/mtap-research/PACMAN-charge/)
data_NONPUE_FSR_pacman
_symmetry_space_group_name_H-M   'P 1'
_cell_length_a   8.98480000
_cell_length_b   11.59200000
_cell_length_c   26.18100000
_cell_angle_alpha   90.00000000
_cell_angle_beta   101.22000000
_cell_angle_gamma   90.00000000
_symmetry_Int_Tables_number   1
_chemical_formula_structural   ZnH14C18N6(OF2)2
_chemical_formula_sum   'Zn4 H56 C72 N24 O8 F16'
_cell_volume   2674.68182587
_cell_formula_units_Z   4
loop_
 _symmetry_equiv_pos_site_id
 _symmetry_equiv_pos_as_xyz
  1  'x, y, z'
loop_
 _atom_site_type_symbol
 _atom_site_label
 _atom_site_symmetry_multiplicity
 _atom_site_fract_x
 _atom_site_fract_y
 _atom_site_fract_z
 _atom_site_occupancy
 _atom_site_charge
Zn  Zn1  1  0.26223000  0.00063000  0.87185000  1.0 0.9109384804
Zn  Zn2  1  0.73777000  0.00063000  0.62815000  1.0 0.9109384804
Zn  Zn3  1  0.73777000  0.99937000  0.12815000  1.0 0.9109384804
Zn  Zn4  1  0.26223000  0.99937000  0.37185000  1.0 0.9109384804
H  H1  1  0.70350000  0.07560000  0.76270000  1.0 0.1315168948
H  H2  1  0.82180000  0.08740000  0.81660000  1.0 0.1198714464
H  H3  1  0.68300000  0.99890000  0.81160000  1.0 0.1475058286
H  H4  1  0.59240000  0.33530000  0.82340000  1.0 0.1400372921
H  H5  1  0.76670000  0.29660000  0.83540000  1.0 0.1315168948
H  H6  1  0.67440000  0.30050000  0.77660000  1.0 0.1315168948
H  H7  1  0.87240000  0.85240000  0.92180000  1.0 0.1475058286
H  H8  1  0.81170000  0.88080000  0.97400000  1.0 0.1315168948
H  H9  1  0.70560000  0.90410000  0.91840000  1.0 0.1400372921
H  H10  1  0.83430000  0.18700000  0.95280000  1.0 0.1400372921
H  H11  1  0.68210000  0.11190000  0.94020000  1.0 0.1400372921
H  H12  1  0.79350000  0.10050000  0.99570000  1.0 0.1400372921
H  H13  1  0.44100000  0.20400000  0.84480000  1.0 0.078958915
H  H14  1  0.02400000  0.12100000  0.92100000  1.0 0.0936119645
H  H15  1  0.29650000  0.07560000  0.73730000  1.0 0.1315168948
H  H16  1  0.17820000  0.08740000  0.68340000  1.0 0.1198714464
H  H17  1  0.31700000  0.99890000  0.68840000  1.0 0.1475058286
H  H18  1  0.40760000  0.33530000  0.67660000  1.0 0.1400372921
H  H19  1  0.23330000  0.29660000  0.66460000  1.0 0.1315168948
H  H20  1  0.32560000  0.30050000  0.72340000  1.0 0.1315168948
H  H21  1  0.12760000  0.85240000  0.57820000  1.0 0.1475058286
H  H22  1  0.18830000  0.88080000  0.52600000  1.0 0.1315168948
H  H23  1  0.29440000  0.90410000  0.58160000  1.0 0.1400372921
H  H24  1  0.16570000  0.18700000  0.54720000  1.0 0.1400372921
H  H25  1  0.31790000  0.11190000  0.55980000  1.0 0.1400372921
H  H26  1  0.20650000  0.10050000  0.50430000  1.0 0.1400372921
H  H27  1  0.55900000  0.20400000  0.65520000  1.0 0.078958915
H  H28  1  0.97600000  0.12100000  0.57900000  1.0 0.0936119645
H  H29  1  0.29650000  0.92440000  0.23730000  1.0 0.1315168948
H  H30  1  0.17820000  0.91260000  0.18340000  1.0 0.1198714464
H  H31  1  0.31700000  0.00110000  0.18840000  1.0 0.1475058286
H  H32  1  0.40760000  0.66470000  0.17660000  1.0 0.1400372921
H  H33  1  0.23330000  0.70340000  0.16460000  1.0 0.1315168948
H  H34  1  0.32560000  0.69950000  0.22340000  1.0 0.1315168948
H  H35  1  0.12760000  0.14760000  0.07820000  1.0 0.1475058286
H  H36  1  0.18830000  0.11920000  0.02600000  1.0 0.1315168948
H  H37  1  0.29440000  0.09590000  0.08160000  1.0 0.1400372921
H  H38  1  0.16570000  0.81300000  0.04720000  1.0 0.1400372921
H  H39  1  0.31790000  0.88810000  0.05980000  1.0 0.1400372921
H  H40  1  0.20650000  0.89950000  0.00430000  1.0 0.1400372921
H  H41  1  0.55900000  0.79600000  0.15520000  1.0 0.078958915
H  H42  1  0.97600000  0.87900000  0.07900000  1.0 0.0936119645
H  H43  1  0.70350000  0.92440000  0.26270000  1.0 0.1315168948
H  H44  1  0.82180000  0.91260000  0.31660000  1.0 0.1198714464
H  H45  1  0.68300000  0.00110000  0.31160000  1.0 0.1475058286
H  H46  1  0.59240000  0.66470000  0.32340000  1.0 0.1400372921
H  H47  1  0.76670000  0.70340000  0.33540000  1.0 0.1315168948
H  H48  1  0.67440000  0.69950000  0.27660000  1.0 0.1315168948
H  H49  1  0.87240000  0.14760000  0.42180000  1.0 0.1475058286
H  H50  1  0.81170000  0.11920000  0.47400000  1.0 0.1315168948
H  H51  1  0.70560000  0.09590000  0.41840000  1.0 0.1400372921
H  H52  1  0.83430000  0.81300000  0.45280000  1.0 0.1400372921
H  H53  1  0.68210000  0.88810000  0.44020000  1.0 0.1400372921
H  H54  1  0.79350000  0.89950000  0.49570000  1.0 0.1400372921
H  H55  1  0.44100000  0.79600000  0.34480000  1.0 0.078958915
H  H56  1  0.02400000  0.87900000  0.42100000  1.0 0.0936119645
C  C1  1  0.49950000  0.13760000  0.83556000  1.0 0.2693970888
C  C2  1  0.71520000  0.07420000  0.80066000  1.0 -0.351556948
C  C3  1  0.66750000  0.28400000  0.81278000  1.0 -0.3607958765
C  C4  1  0.99560000  0.04180000  0.92020000  1.0 0.257456453
C  C5  1  0.81020000  0.90520000  0.93803000  1.0 -0.3377301903
C  C6  1  0.78840000  0.11250000  0.95834000  1.0 -0.3607958765
C  C7  1  0.40200000  0.18390000  0.96428000  1.0 0.2895204016
C  C8  1  0.55680000  0.18570000  0.04762000  1.0 0.2895204016
C  C9  1  0.48220000  0.25020000  0.00495000  1.0 -0.1575858169
C  C10  1  0.49200000  0.37590000  0.00259000  1.0 -0.0909297775
C  C11  1  0.51280000  0.44550000  0.04649000  1.0 0.1126149261
C  C12  1  0.52070000  0.56360000  0.04410000  1.0 0.1198714464
C  C13  1  0.07900000  0.19240000  0.79163000  1.0 0.2895204016
C  C14  1  0.88260000  0.44930000  0.72189000  1.0 0.1126149261
C  C15  1  0.88290000  0.56710000  0.72158000  1.0 0.1126149261
C  C16  1  0.89630000  0.82540000  0.71522000  1.0 0.3005772619
C  C17  1  0.50050000  0.13760000  0.66444000  1.0 0.2693970888
C  C18  1  0.28480000  0.07420000  0.69934000  1.0 -0.351556948
C  C19  1  0.33250000  0.28400000  0.68722000  1.0 -0.3607958765
C  C20  1  0.00440000  0.04180000  0.57980000  1.0 0.257456453
C  C21  1  0.18980000  0.90520000  0.56197000  1.0 -0.3377301903
C  C22  1  0.21160000  0.11250000  0.54166000  1.0 -0.3607958765
C  C23  1  0.59800000  0.18390000  0.53572000  1.0 0.2895204016
C  C24  1  0.44320000  0.18570000  0.45238000  1.0 0.2895204016
C  C25  1  0.51780000  0.25020000  0.49505000  1.0 -0.1575858169
C  C26  1  0.50800000  0.37590000  0.49741000  1.0 -0.0909297775
C  C27  1  0.48720000  0.44550000  0.45351000  1.0 0.1126149261
C  C28  1  0.47930000  0.56360000  0.45590000  1.0 0.1198714464
C  C29  1  0.92100000  0.19240000  0.70837000  1.0 0.2895204016
C  C30  1  0.11740000  0.44930000  0.77811000  1.0 0.1126149261
C  C31  1  0.11710000  0.56710000  0.77842000  1.0 0.1126149261
C  C32  1  0.10370000  0.82540000  0.78478000  1.0 0.3005772619
C  C33  1  0.50050000  0.86240000  0.16444000  1.0 0.2693970888
C  C34  1  0.28480000  0.92580000  0.19934000  1.0 -0.351556948
C  C35  1  0.33250000  0.71600000  0.18722000  1.0 -0.3607958765
C  C36  1  0.00440000  0.95820000  0.07980000  1.0 0.257456453
C  C37  1  0.18980000  0.09480000  0.06197000  1.0 -0.3377301903
C  C38  1  0.21160000  0.88750000  0.04166000  1.0 -0.3607958765
C  C39  1  0.59800000  0.81610000  0.03572000  1.0 0.2895204016
C  C40  1  0.44320000  0.81430000  0.95238000  1.0 0.2895204016
C  C41  1  0.51780000  0.74980000  0.99505000  1.0 -0.1575858169
C  C42  1  0.50800000  0.62410000  0.99741000  1.0 -0.0909297775
C  C43  1  0.48720000  0.55450000  0.95351000  1.0 0.1126149261
C  C44  1  0.47930000  0.43640000  0.95590000  1.0 0.1198714464
C  C45  1  0.92100000  0.80760000  0.20837000  1.0 0.2895204016
C  C46  1  0.11740000  0.55070000  0.27811000  1.0 0.1126149261
C  C47  1  0.11710000  0.43290000  0.27842000  1.0 0.1126149261
C  C48  1  0.10370000  0.17460000  0.28478000  1.0 0.3005772619
C  C49  1  0.49950000  0.86240000  0.33556000  1.0 0.2693970888
C  C50  1  0.71520000  0.92580000  0.30066000  1.0 -0.351556948
C  C51  1  0.66750000  0.71600000  0.31278000  1.0 -0.3607958765
C  C52  1  0.99560000  0.95820000  0.42020000  1.0 0.257456453
C  C53  1  0.81020000  0.09480000  0.43803000  1.0 -0.3377301903
C  C54  1  0.78840000  0.88750000  0.45834000  1.0 -0.3607958765
C  C55  1  0.40200000  0.81610000  0.46428000  1.0 0.2895204016
C  C56  1  0.55680000  0.81430000  0.54762000  1.0 0.2895204016
C  C57  1  0.48220000  0.74980000  0.50495000  1.0 -0.1575858169
C  C58  1  0.49200000  0.62410000  0.50259000  1.0 -0.0909297775
C  C59  1  0.51280000  0.55450000  0.54649000  1.0 0.1126149261
C  C60  1  0.52070000  0.43640000  0.54410000  1.0 0.1198714464
C  C61  1  0.07900000  0.80760000  0.29163000  1.0 0.2895204016
C  C62  1  0.88260000  0.55070000  0.22189000  1.0 0.1126149261
C  C63  1  0.88290000  0.43290000  0.22158000  1.0 0.1126149261
C  C64  1  0.89630000  0.17460000  0.21522000  1.0 0.3005772619
C  C65  1  0.00000000  0.25730000  0.75000000  1.0 -0.1544688554
C  C66  1  0.00000000  0.38340000  0.75000000  1.0 -0.0909297775
C  C67  1  0.00000000  0.63300000  0.75000000  1.0 -0.0784359263
C  C68  1  0.00000000  0.75900000  0.75000000  1.0 -0.1751874895
C  C69  1  0.00000000  0.74270000  0.25000000  1.0 -0.1544688554
C  C70  1  0.00000000  0.61660000  0.25000000  1.0 -0.0909297775
C  C71  1  0.00000000  0.36700000  0.25000000  1.0 -0.0784359263
C  C72  1  0.00000000  0.24100000  0.25000000  1.0 -0.1751874895
N  N1  1  0.62160000  0.16460000  0.81712000  1.0 0.0318426168
N  N2  1  0.87040000  0.02060000  0.93798000  1.0 0.0366246788
N  N3  1  0.33590000  0.12472000  0.93210000  1.0 -0.4484668882
N  N4  1  0.61560000  0.12720000  0.08108000  1.0 -0.4025559486
N  N5  1  0.14100000  0.13502000  0.82513000  1.0 -0.4322677092
N  N6  1  0.81470000  0.88558000  0.68834000  1.0 -0.4025559486
N  N7  1  0.37840000  0.16460000  0.68288000  1.0 0.0318426168
N  N8  1  0.12960000  0.02060000  0.56202000  1.0 0.0366246788
N  N9  1  0.66410000  0.12472000  0.56790000  1.0 -0.4484668882
N  N10  1  0.38440000  0.12720000  0.41892000  1.0 -0.4025559486
N  N11  1  0.85900000  0.13502000  0.67487000  1.0 -0.4322677092
N  N12  1  0.18530000  0.88558000  0.81166000  1.0 -0.4025559486
N  N13  1  0.37840000  0.83540000  0.18288000  1.0 0.0318426168
N  N14  1  0.12960000  0.97940000  0.06202000  1.0 0.0366246788
N  N15  1  0.66410000  0.87528000  0.06790000  1.0 -0.4484668882
N  N16  1  0.38440000  0.87280000  0.91892000  1.0 -0.4025559486
N  N17  1  0.85900000  0.86498000  0.17487000  1.0 -0.4322677092
N  N18  1  0.18530000  0.11442000  0.31166000  1.0 -0.4025559486
N  N19  1  0.62160000  0.83540000  0.31712000  1.0 0.0318426168
N  N20  1  0.87040000  0.97940000  0.43798000  1.0 0.0366246788
N  N21  1  0.33590000  0.87528000  0.43210000  1.0 -0.4484668882
N  N22  1  0.61560000  0.87280000  0.58108000  1.0 -0.4025559486
N  N23  1  0.14100000  0.86498000  0.32513000  1.0 -0.4322677092
N  N24  1  0.81470000  0.11442000  0.18834000  1.0 -0.4025559486
O  O1  1  0.45640000  0.03805000  0.84075000  1.0 -0.4484668882
O  O2  1  0.06990000  0.96506000  0.90359000  1.0 -0.4484668882
O  O3  1  0.54360000  0.03805000  0.65925000  1.0 -0.4484668882
O  O4  1  0.93010000  0.96506000  0.59641000  1.0 -0.4484668882
O  O5  1  0.54360000  0.96195000  0.15925000  1.0 -0.4484668882
O  O6  1  0.93010000  0.03494000  0.09641000  1.0 -0.4484668882
O  O7  1  0.45640000  0.96195000  0.34075000  1.0 -0.4484668882
O  O8  1  0.06990000  0.03494000  0.40359000  1.0 -0.4484668882
F  F1  1  0.52255000  0.39606000  0.09366000  1.0 -0.1095535266
F  F2  1  0.53670000  0.62306000  0.08933000  1.0 -0.1180145987
F  F3  1  0.76039000  0.39473000  0.69358000  1.0 -0.1180145987
F  F4  1  0.76093000  0.62110000  0.69312000  1.0 -0.1095535266
F  F5  1  0.47745000  0.39606000  0.40634000  1.0 -0.1095535266
F  F6  1  0.46330000  0.62306000  0.41067000  1.0 -0.1180145987
F  F7  1  0.23961000  0.39473000  0.80642000  1.0 -0.1180145987
F  F8  1  0.23907000  0.62110000  0.80688000  1.0 -0.1095535266
F  F9  1  0.47745000  0.60394000  0.90634000  1.0 -0.1095535266
F  F10  1  0.46330000  0.37694000  0.91067000  1.0 -0.1180145987
F  F11  1  0.23961000  0.60527000  0.30642000  1.0 -0.1180145987
F  F12  1  0.23907000  0.37890000  0.30688000  1.0 -0.1095535266
F  F13  1  0.52255000  0.60394000  0.59366000  1.0 -0.1095535266
F  F14  1  0.53670000  0.37694000  0.58933000  1.0 -0.1180145987
F  F15  1  0.76039000  0.60527000  0.19358000  1.0 -0.1180145987
F  F16  1  0.76093000  0.37890000  0.19312000  1.0 -0.1095535266
