# DDEC6 charges by PACMAN v1.1 (https://github.com/mtap-research/PACMAN-charge/)
data_NOQGIL_FSR_pacman
_symmetry_space_group_name_H-M   'P 1'
_cell_length_a   15.01400000
_cell_length_b   19.84300000
_cell_length_c   20.22300000
_cell_angle_alpha   90.00000000
_cell_angle_beta   90.00000000
_cell_angle_gamma   90.00000000
_symmetry_Int_Tables_number   1
_chemical_formula_structural   Zn4H48C59N16
_chemical_formula_sum   'Zn16 H192 C236 N64'
_cell_volume   6024.89282485
_cell_formula_units_Z   4
loop_
 _symmetry_equiv_pos_site_id
 _symmetry_equiv_pos_as_xyz
  1  'x, y, z'
loop_
 _atom_site_type_symbol
 _atom_site_label
 _atom_site_symmetry_multiplicity
 _atom_site_fract_x
 _atom_site_fract_y
 _atom_site_fract_z
 _atom_site_occupancy
 _atom_site_charge
Zn  Zn1  1  0.32141000  0.62661000  0.39760000  1.0 0.6663477188
Zn  Zn2  1  0.17859000  0.12661000  0.60240000  1.0 0.6663477188
Zn  Zn3  1  0.67859000  0.37339000  0.89760000  1.0 0.6663477188
Zn  Zn4  1  0.82141000  0.87339000  0.10240000  1.0 0.6663477188
Zn  Zn5  1  0.67859000  0.37339000  0.60240000  1.0 0.6663477188
Zn  Zn6  1  0.82141000  0.87339000  0.39760000  1.0 0.6663477188
Zn  Zn7  1  0.32141000  0.62661000  0.10240000  1.0 0.6663477188
Zn  Zn8  1  0.17859000  0.12661000  0.89760000  1.0 0.6663477188
Zn  Zn9  1  0.27549000  0.41876000  0.60370000  1.0 0.6663477188
Zn  Zn10  1  0.22451000  0.91876000  0.39630000  1.0 0.6663477188
Zn  Zn11  1  0.72451000  0.58124000  0.10370000  1.0 0.6663477188
Zn  Zn12  1  0.77549000  0.08124000  0.89630000  1.0 0.6663477188
Zn  Zn13  1  0.72451000  0.58124000  0.39630000  1.0 0.6663477188
Zn  Zn14  1  0.77549000  0.08124000  0.60370000  1.0 0.6663477188
Zn  Zn15  1  0.27549000  0.41876000  0.89630000  1.0 0.6663477188
Zn  Zn16  1  0.22451000  0.91876000  0.10370000  1.0 0.6663477188
H  H1  1  0.38170000  0.71700000  0.28180000  1.0 0.0766101815
H  H2  1  0.11830000  0.21700000  0.71820000  1.0 0.0766101815
H  H3  1  0.61830000  0.28300000  0.78180000  1.0 0.0766101815
H  H4  1  0.88170000  0.78300000  0.21820000  1.0 0.0766101815
H  H5  1  0.61830000  0.28300000  0.71820000  1.0 0.0766101815
H  H6  1  0.88170000  0.78300000  0.28180000  1.0 0.0766101815
H  H7  1  0.38170000  0.71700000  0.21820000  1.0 0.0766101815
H  H8  1  0.11830000  0.21700000  0.78180000  1.0 0.0766101815
H  H9  1  0.15450000  0.52190000  0.36640000  1.0 0.1218171861
H  H10  1  0.34550000  0.02190000  0.63360000  1.0 0.1218171861
H  H11  1  0.84550000  0.47810000  0.86640000  1.0 0.1218171861
H  H12  1  0.65450000  0.97810000  0.13360000  1.0 0.1218171861
H  H13  1  0.84550000  0.47810000  0.63360000  1.0 0.1218171861
H  H14  1  0.65450000  0.97810000  0.36640000  1.0 0.1218171861
H  H15  1  0.15450000  0.52190000  0.13360000  1.0 0.1218171861
H  H16  1  0.34550000  0.02190000  0.86640000  1.0 0.1218171861
H  H17  1  0.05800000  0.45480000  0.30540000  1.0 0.1107834429
H  H18  1  0.44200000  0.95480000  0.69460000  1.0 0.1107834429
H  H19  1  0.94200000  0.54520000  0.80540000  1.0 0.1107834429
H  H20  1  0.55800000  0.04520000  0.19460000  1.0 0.1107834429
H  H21  1  0.94200000  0.54520000  0.69460000  1.0 0.1107834429
H  H22  1  0.55800000  0.04520000  0.30540000  1.0 0.1107834429
H  H23  1  0.05800000  0.45480000  0.19460000  1.0 0.1107834429
H  H24  1  0.44200000  0.95480000  0.80540000  1.0 0.1107834429
H  H25  1  0.34980000  0.50610000  0.49210000  1.0 0.1040667671
H  H26  1  0.15020000  0.00610000  0.50790000  1.0 0.1040667671
H  H27  1  0.65020000  0.49390000  0.99210000  1.0 0.1040667671
H  H28  1  0.84980000  0.99390000  0.00790000  1.0 0.1040667671
H  H29  1  0.65020000  0.49390000  0.50790000  1.0 0.1040667671
H  H30  1  0.84980000  0.99390000  0.49210000  1.0 0.1040667671
H  H31  1  0.34980000  0.50610000  0.00790000  1.0 0.1040667671
H  H32  1  0.15020000  0.00610000  0.99210000  1.0 0.1040667671
H  H33  1  0.11960000  0.66240000  0.44640000  1.0 0.1297600856
H  H34  1  0.38040000  0.16240000  0.55360000  1.0 0.1297600856
H  H35  1  0.88040000  0.33760000  0.94640000  1.0 0.1297600856
H  H36  1  0.61960000  0.83760000  0.05360000  1.0 0.1297600856
H  H37  1  0.88040000  0.33760000  0.55360000  1.0 0.1297600856
H  H38  1  0.61960000  0.83760000  0.44640000  1.0 0.1297600856
H  H39  1  0.11960000  0.66240000  0.05360000  1.0 0.1297600856
H  H40  1  0.38040000  0.16240000  0.94640000  1.0 0.1297600856
H  H41  1  0.98270000  0.65190000  0.49620000  1.0 0.1107834429
H  H42  1  0.51730000  0.15190000  0.50380000  1.0 0.1107834429
H  H43  1  0.01730000  0.34810000  0.99620000  1.0 0.1107834429
H  H44  1  0.48270000  0.84810000  0.00380000  1.0 0.1107834429
H  H45  1  0.01730000  0.34810000  0.50380000  1.0 0.1107834429
H  H46  1  0.48270000  0.84810000  0.49620000  1.0 0.1107834429
H  H47  1  0.98270000  0.65190000  0.00380000  1.0 0.1107834429
H  H48  1  0.51730000  0.15190000  0.99620000  1.0 0.1107834429
H  H49  1  0.95870000  0.57270000  0.57840000  1.0 0.1040667671
H  H50  1  0.54130000  0.07270000  0.42160000  1.0 0.1040667671
H  H51  1  0.04130000  0.42730000  0.07840000  1.0 0.1040667671
H  H52  1  0.45870000  0.92730000  0.92160000  1.0 0.1040667671
H  H53  1  0.04130000  0.42730000  0.42160000  1.0 0.1040667671
H  H54  1  0.45870000  0.92730000  0.57840000  1.0 0.1040667671
H  H55  1  0.95870000  0.57270000  0.92160000  1.0 0.1040667671
H  H56  1  0.54130000  0.07270000  0.07840000  1.0 0.1040667671
H  H57  1  0.07010000  0.49800000  0.60760000  1.0 0.1297600856
H  H58  1  0.42990000  0.99800000  0.39240000  1.0 0.1297600856
H  H59  1  0.92990000  0.50200000  0.10760000  1.0 0.1297600856
H  H60  1  0.57010000  0.00200000  0.89240000  1.0 0.1297600856
H  H61  1  0.92990000  0.50200000  0.39240000  1.0 0.1297600856
H  H62  1  0.57010000  0.00200000  0.60760000  1.0 0.1297600856
H  H63  1  0.07010000  0.49800000  0.89240000  1.0 0.1297600856
H  H64  1  0.42990000  0.99800000  0.10760000  1.0 0.1297600856
H  H65  1  0.51590000  0.29420000  0.57760000  1.0 0.1596498741
H  H66  1  0.98410000  0.79420000  0.42240000  1.0 0.1596498741
H  H67  1  0.48410000  0.70580000  0.07760000  1.0 0.1596498741
H  H68  1  0.01590000  0.20580000  0.92240000  1.0 0.1596498741
H  H69  1  0.48410000  0.70580000  0.42240000  1.0 0.1596498741
H  H70  1  0.01590000  0.20580000  0.57760000  1.0 0.1596498741
H  H71  1  0.51590000  0.29420000  0.92240000  1.0 0.1596498741
H  H72  1  0.98410000  0.79420000  0.07760000  1.0 0.1596498741
H  H73  1  0.41710000  0.29910000  0.60220000  1.0 0.1596498741
H  H74  1  0.08290000  0.79910000  0.39780000  1.0 0.1596498741
H  H75  1  0.58290000  0.70090000  0.10220000  1.0 0.1596498741
H  H76  1  0.91710000  0.20090000  0.89780000  1.0 0.1596498741
H  H77  1  0.58290000  0.70090000  0.39780000  1.0 0.1596498741
H  H78  1  0.91710000  0.20090000  0.60220000  1.0 0.1596498741
H  H79  1  0.41710000  0.29910000  0.89780000  1.0 0.1596498741
H  H80  1  0.08290000  0.79910000  0.10220000  1.0 0.1596498741
H  H81  1  0.44140000  0.32050000  0.52980000  1.0 0.1596498741
H  H82  1  0.05860000  0.82050000  0.47020000  1.0 0.1596498741
H  H83  1  0.55860000  0.67950000  0.02980000  1.0 0.1596498741
H  H84  1  0.94140000  0.17950000  0.97020000  1.0 0.1596498741
H  H85  1  0.55860000  0.67950000  0.47020000  1.0 0.1596498741
H  H86  1  0.94140000  0.17950000  0.52980000  1.0 0.1596498741
H  H87  1  0.44140000  0.32050000  0.97020000  1.0 0.1596498741
H  H88  1  0.05860000  0.82050000  0.02980000  1.0 0.1596498741
H  H89  1  0.35320000  0.55650000  0.64600000  1.0 0.1297600856
H  H90  1  0.14680000  0.05650000  0.35400000  1.0 0.1297600856
H  H91  1  0.64680000  0.44350000  0.14600000  1.0 0.1297600856
H  H92  1  0.85320000  0.94350000  0.85400000  1.0 0.1297600856
H  H93  1  0.64680000  0.44350000  0.35400000  1.0 0.1297600856
H  H94  1  0.85320000  0.94350000  0.64600000  1.0 0.1297600856
H  H95  1  0.35320000  0.55650000  0.85400000  1.0 0.1297600856
H  H96  1  0.14680000  0.05650000  0.14600000  1.0 0.1297600856
H  H97  1  0.44730000  0.64080000  0.68010000  1.0 0.1040667671
H  H98  1  0.05270000  0.14080000  0.31990000  1.0 0.1040667671
H  H99  1  0.55270000  0.35920000  0.18010000  1.0 0.1040667671
H  H100  1  0.94730000  0.85920000  0.81990000  1.0 0.1040667671
H  H101  1  0.55270000  0.35920000  0.31990000  1.0 0.1040667671
H  H102  1  0.94730000  0.85920000  0.68010000  1.0 0.1040667671
H  H103  1  0.44730000  0.64080000  0.81990000  1.0 0.1040667671
H  H104  1  0.05270000  0.14080000  0.18010000  1.0 0.1040667671
H  H105  1  0.60190000  0.62470000  0.67700000  1.0 0.1107834429
H  H106  1  0.89810000  0.12470000  0.32300000  1.0 0.1107834429
H  H107  1  0.39810000  0.37530000  0.17700000  1.0 0.1107834429
H  H108  1  0.10190000  0.87530000  0.82300000  1.0 0.1107834429
H  H109  1  0.39810000  0.37530000  0.32300000  1.0 0.1107834429
H  H110  1  0.10190000  0.87530000  0.67700000  1.0 0.1107834429
H  H111  1  0.60190000  0.62470000  0.82300000  1.0 0.1107834429
H  H112  1  0.89810000  0.12470000  0.17700000  1.0 0.1107834429
H  H113  1  0.66040000  0.52220000  0.64050000  1.0 0.1297600856
H  H114  1  0.83960000  0.02220000  0.35950000  1.0 0.1297600856
H  H115  1  0.33960000  0.47780000  0.14050000  1.0 0.1297600856
H  H116  1  0.16040000  0.97780000  0.85950000  1.0 0.1297600856
H  H117  1  0.33960000  0.47780000  0.35950000  1.0 0.1297600856
H  H118  1  0.16040000  0.97780000  0.64050000  1.0 0.1297600856
H  H119  1  0.66040000  0.52220000  0.85950000  1.0 0.1297600856
H  H120  1  0.83960000  0.02220000  0.14050000  1.0 0.1297600856
H  H121  1  0.24170000  0.27080000  0.64950000  1.0 0.1107834429
H  H122  1  0.25830000  0.77080000  0.35050000  1.0 0.1107834429
H  H123  1  0.75830000  0.72920000  0.14950000  1.0 0.1107834429
H  H124  1  0.74170000  0.22920000  0.85050000  1.0 0.1107834429
H  H125  1  0.75830000  0.72920000  0.35050000  1.0 0.1107834429
H  H126  1  0.74170000  0.22920000  0.64950000  1.0 0.1107834429
H  H127  1  0.24170000  0.27080000  0.85050000  1.0 0.1107834429
H  H128  1  0.25830000  0.77080000  0.14950000  1.0 0.1107834429
H  H129  1  0.23480000  0.39090000  0.44280000  1.0 0.1297600856
H  H130  1  0.26520000  0.89090000  0.55720000  1.0 0.1297600856
H  H131  1  0.76520000  0.60910000  0.94280000  1.0 0.1297600856
H  H132  1  0.73480000  0.10910000  0.05720000  1.0 0.1297600856
H  H133  1  0.76520000  0.60910000  0.55720000  1.0 0.1297600856
H  H134  1  0.73480000  0.10910000  0.44280000  1.0 0.1297600856
H  H135  1  0.23480000  0.39090000  0.05720000  1.0 0.1297600856
H  H136  1  0.26520000  0.89090000  0.94280000  1.0 0.1297600856
H  H137  1  0.17950000  0.33990000  0.35060000  1.0 0.1218171861
H  H138  1  0.32050000  0.83990000  0.64940000  1.0 0.1218171861
H  H139  1  0.82050000  0.66010000  0.85060000  1.0 0.1218171861
H  H140  1  0.67950000  0.16010000  0.14940000  1.0 0.1218171861
H  H141  1  0.82050000  0.66010000  0.64940000  1.0 0.1218171861
H  H142  1  0.67950000  0.16010000  0.35060000  1.0 0.1218171861
H  H143  1  0.17950000  0.33990000  0.14940000  1.0 0.1218171861
H  H144  1  0.32050000  0.83990000  0.85060000  1.0 0.1218171861
H  H145  1  0.13320000  0.23100000  0.35400000  1.0 0.1107834429
H  H146  1  0.36680000  0.73100000  0.64600000  1.0 0.1107834429
H  H147  1  0.86680000  0.76900000  0.85400000  1.0 0.1107834429
H  H148  1  0.63320000  0.26900000  0.14600000  1.0 0.1107834429
H  H149  1  0.86680000  0.76900000  0.64600000  1.0 0.1107834429
H  H150  1  0.63320000  0.26900000  0.35400000  1.0 0.1107834429
H  H151  1  0.13320000  0.23100000  0.14600000  1.0 0.1107834429
H  H152  1  0.36680000  0.73100000  0.85400000  1.0 0.1107834429
H  H153  1  0.13500000  0.16900000  0.44910000  1.0 0.1297600856
H  H154  1  0.36500000  0.66900000  0.55090000  1.0 0.1297600856
H  H155  1  0.86500000  0.83100000  0.94910000  1.0 0.1297600856
H  H156  1  0.63500000  0.33100000  0.05090000  1.0 0.1297600856
H  H157  1  0.86500000  0.83100000  0.55090000  1.0 0.1297600856
H  H158  1  0.63500000  0.33100000  0.44910000  1.0 0.1297600856
H  H159  1  0.13500000  0.16900000  0.05090000  1.0 0.1297600856
H  H160  1  0.36500000  0.66900000  0.94910000  1.0 0.1297600856
H  H161  1  0.07320000  0.37050000  0.63310000  1.0 0.1218171861
H  H162  1  0.42680000  0.87050000  0.36690000  1.0 0.1218171861
H  H163  1  0.92680000  0.62950000  0.13310000  1.0 0.1218171861
H  H164  1  0.57320000  0.12950000  0.86690000  1.0 0.1218171861
H  H165  1  0.92680000  0.62950000  0.36690000  1.0 0.1218171861
H  H166  1  0.57320000  0.12950000  0.63310000  1.0 0.1218171861
H  H167  1  0.07320000  0.37050000  0.86690000  1.0 0.1218171861
H  H168  1  0.42680000  0.87050000  0.13310000  1.0 0.1218171861
H  H169  1  0.94960000  0.32990000  0.69340000  1.0 0.1218171861
H  H170  1  0.55040000  0.82990000  0.30660000  1.0 0.1218171861
H  H171  1  0.05040000  0.67010000  0.19340000  1.0 0.1218171861
H  H172  1  0.44960000  0.17010000  0.80660000  1.0 0.1218171861
H  H173  1  0.05040000  0.67010000  0.30660000  1.0 0.1218171861
H  H174  1  0.44960000  0.17010000  0.69340000  1.0 0.1218171861
H  H175  1  0.94960000  0.32990000  0.80660000  1.0 0.1218171861
H  H176  1  0.55040000  0.82990000  0.19340000  1.0 0.1218171861
H  H177  1  0.39800000  0.70110000  0.20680000  1.0 0.0766101815
H  H178  1  0.10200000  0.20110000  0.79320000  1.0 0.0766101815
H  H179  1  0.60200000  0.29890000  0.70680000  1.0 0.0766101815
H  H180  1  0.89800000  0.79890000  0.29320000  1.0 0.0766101815
H  H181  1  0.60200000  0.29890000  0.79320000  1.0 0.0766101815
H  H182  1  0.89800000  0.79890000  0.20680000  1.0 0.0766101815
H  H183  1  0.39800000  0.70110000  0.29320000  1.0 0.0766101815
H  H184  1  0.10200000  0.20110000  0.70680000  1.0 0.0766101815
H  H185  1  0.44330000  0.65660000  0.26140000  1.0 0.0919138333
H  H186  1  0.05670000  0.15660000  0.73860000  1.0 0.0919138333
H  H187  1  0.55670000  0.34340000  0.76140000  1.0 0.0919138333
H  H188  1  0.94330000  0.84340000  0.23860000  1.0 0.0919138333
H  H189  1  0.55670000  0.34340000  0.73860000  1.0 0.0919138333
H  H190  1  0.94330000  0.84340000  0.26140000  1.0 0.0919138333
H  H191  1  0.44330000  0.65660000  0.23860000  1.0 0.0919138333
H  H192  1  0.05670000  0.15660000  0.76140000  1.0 0.0919138333
C  C1  1  0.39080000  0.68170000  0.25000000  1.0 -0.3643433187
C  C2  1  0.10920000  0.18170000  0.75000000  1.0 -0.3643433187
C  C3  1  0.60920000  0.31830000  0.75000000  1.0 -0.3643433187
C  C4  1  0.89080000  0.81830000  0.25000000  1.0 -0.3643433187
C  C5  1  0.31090000  0.63500000  0.25000000  1.0 0.3253455227
C  C6  1  0.18910000  0.13500000  0.75000000  1.0 0.3253455227
C  C7  1  0.68910000  0.36500000  0.75000000  1.0 0.3253455227
C  C8  1  0.81090000  0.86500000  0.25000000  1.0 0.3253455227
C  C9  1  0.21090000  0.56830000  0.28390000  1.0 0.1218171861
C  C10  1  0.28910000  0.06830000  0.71610000  1.0 0.1218171861
C  C11  1  0.78910000  0.43170000  0.78390000  1.0 0.1218171861
C  C12  1  0.71090000  0.93170000  0.21610000  1.0 0.1218171861
C  C13  1  0.78910000  0.43170000  0.71610000  1.0 0.1218171861
C  C14  1  0.71090000  0.93170000  0.28390000  1.0 0.1218171861
C  C15  1  0.21090000  0.56830000  0.21610000  1.0 0.1218171861
C  C16  1  0.28910000  0.06830000  0.78390000  1.0 0.1218171861
C  C17  1  0.15370000  0.52360000  0.32040000  1.0 -0.1765894499
C  C18  1  0.34630000  0.02360000  0.67960000  1.0 -0.1765894499
C  C19  1  0.84630000  0.47640000  0.82040000  1.0 -0.1765894499
C  C20  1  0.65370000  0.97640000  0.17960000  1.0 -0.1765894499
C  C21  1  0.84630000  0.47640000  0.67960000  1.0 -0.1765894499
C  C22  1  0.65370000  0.97640000  0.32040000  1.0 -0.1765894499
C  C23  1  0.15370000  0.52360000  0.17960000  1.0 -0.1765894499
C  C24  1  0.34630000  0.02360000  0.82040000  1.0 -0.1765894499
C  C25  1  0.09740000  0.48320000  0.28340000  1.0 -0.1091646083
C  C26  1  0.40260000  0.98320000  0.71660000  1.0 -0.1091646083
C  C27  1  0.90260000  0.51680000  0.78340000  1.0 -0.1091646083
C  C28  1  0.59740000  0.01680000  0.21660000  1.0 -0.1091646083
C  C29  1  0.90260000  0.51680000  0.71660000  1.0 -0.1091646083
C  C30  1  0.59740000  0.01680000  0.28340000  1.0 -0.1091646083
C  C31  1  0.09740000  0.48320000  0.21660000  1.0 -0.1091646083
C  C32  1  0.40260000  0.98320000  0.78340000  1.0 -0.1091646083
C  C33  1  0.29270000  0.52240000  0.50020000  1.0 0.1498855716
C  C34  1  0.20730000  0.02240000  0.49980000  1.0 0.1498855716
C  C35  1  0.70730000  0.47760000  0.00020000  1.0 0.1498855716
C  C36  1  0.79270000  0.97760000  0.99980000  1.0 0.1498855716
C  C37  1  0.70730000  0.47760000  0.49980000  1.0 0.1498855716
C  C38  1  0.79270000  0.97760000  0.50020000  1.0 0.1498855716
C  C39  1  0.29270000  0.52240000  0.99980000  1.0 0.1498855716
C  C40  1  0.20730000  0.02240000  0.00020000  1.0 0.1498855716
C  C41  1  0.17470000  0.57950000  0.49210000  1.0 0.1391380029
C  C42  1  0.32530000  0.07950000  0.50790000  1.0 0.1391380029
C  C43  1  0.82530000  0.42050000  0.99210000  1.0 0.1391380029
C  C44  1  0.67470000  0.92050000  0.00790000  1.0 0.1391380029
C  C45  1  0.82530000  0.42050000  0.50790000  1.0 0.1391380029
C  C46  1  0.67470000  0.92050000  0.49210000  1.0 0.1391380029
C  C47  1  0.17470000  0.57950000  0.00790000  1.0 0.1391380029
C  C48  1  0.32530000  0.07950000  0.99210000  1.0 0.1391380029
C  C49  1  0.10860000  0.62810000  0.47670000  1.0 -0.1698351586
C  C50  1  0.39140000  0.12810000  0.52330000  1.0 -0.1698351586
C  C51  1  0.89140000  0.37190000  0.97670000  1.0 -0.1698351586
C  C52  1  0.60860000  0.87190000  0.02330000  1.0 -0.1698351586
C  C53  1  0.89140000  0.37190000  0.52330000  1.0 -0.1698351586
C  C54  1  0.60860000  0.87190000  0.47670000  1.0 -0.1698351586
C  C55  1  0.10860000  0.62810000  0.02330000  1.0 -0.1698351586
C  C56  1  0.39140000  0.12810000  0.97670000  1.0 -0.1698351586
C  C57  1  0.02860000  0.62270000  0.50790000  1.0 -0.1091646083
C  C58  1  0.47140000  0.12270000  0.49210000  1.0 -0.1091646083
C  C59  1  0.97140000  0.37730000  0.00790000  1.0 -0.1091646083
C  C60  1  0.52860000  0.87730000  0.99210000  1.0 -0.1091646083
C  C61  1  0.97140000  0.37730000  0.49210000  1.0 -0.1091646083
C  C62  1  0.52860000  0.87730000  0.50790000  1.0 -0.1091646083
C  C63  1  0.02860000  0.62270000  0.99210000  1.0 -0.1091646083
C  C64  1  0.47140000  0.12270000  0.00790000  1.0 -0.1091646083
C  C65  1  0.01360000  0.57450000  0.55720000  1.0 -0.1091646083
C  C66  1  0.48640000  0.07450000  0.44280000  1.0 -0.1091646083
C  C67  1  0.98640000  0.42550000  0.05720000  1.0 -0.1091646083
C  C68  1  0.51360000  0.92550000  0.94280000  1.0 -0.1091646083
C  C69  1  0.98640000  0.42550000  0.44280000  1.0 -0.1091646083
C  C70  1  0.51360000  0.92550000  0.55720000  1.0 -0.1091646083
C  C71  1  0.01360000  0.57450000  0.94280000  1.0 -0.1091646083
C  C72  1  0.48640000  0.07450000  0.05720000  1.0 -0.1091646083
C  C73  1  0.07980000  0.52950000  0.57440000  1.0 -0.1765894499
C  C74  1  0.42020000  0.02950000  0.42560000  1.0 -0.1765894499
C  C75  1  0.92020000  0.47050000  0.07440000  1.0 -0.1765894499
C  C76  1  0.57980000  0.97050000  0.92560000  1.0 -0.1765894499
C  C77  1  0.92020000  0.47050000  0.42560000  1.0 -0.1765894499
C  C78  1  0.57980000  0.97050000  0.57440000  1.0 -0.1765894499
C  C79  1  0.07980000  0.52950000  0.92560000  1.0 -0.1765894499
C  C80  1  0.42020000  0.02950000  0.07440000  1.0 -0.1765894499
C  C81  1  0.16180000  0.53190000  0.54140000  1.0 0.1391380029
C  C82  1  0.33820000  0.03190000  0.45860000  1.0 0.1391380029
C  C83  1  0.83820000  0.46810000  0.04140000  1.0 0.1391380029
C  C84  1  0.66180000  0.96810000  0.95860000  1.0 0.1391380029
C  C85  1  0.83820000  0.46810000  0.45860000  1.0 0.1391380029
C  C86  1  0.66180000  0.96810000  0.54140000  1.0 0.1391380029
C  C87  1  0.16180000  0.53190000  0.95860000  1.0 0.1391380029
C  C88  1  0.33820000  0.03190000  0.04140000  1.0 0.1391380029
C  C89  1  0.46170000  0.31970000  0.57480000  1.0 -0.5319673503
C  C90  1  0.03830000  0.81970000  0.42520000  1.0 -0.5319673503
C  C91  1  0.53830000  0.68030000  0.07480000  1.0 -0.5319673503
C  C92  1  0.96170000  0.18030000  0.92520000  1.0 -0.5319673503
C  C93  1  0.53830000  0.68030000  0.42520000  1.0 -0.5319673503
C  C94  1  0.96170000  0.18030000  0.57480000  1.0 -0.5319673503
C  C95  1  0.46170000  0.31970000  0.92520000  1.0 -0.5319673503
C  C96  1  0.03830000  0.81970000  0.07480000  1.0 -0.5319673503
C  C97  1  0.47770000  0.38820000  0.59720000  1.0 0.3962128899
C  C98  1  0.02230000  0.88820000  0.40280000  1.0 0.3962128899
C  C99  1  0.52230000  0.61180000  0.09720000  1.0 0.3962128899
C  C100  1  0.97770000  0.11180000  0.90280000  1.0 0.3962128899
C  C101  1  0.52230000  0.61180000  0.40280000  1.0 0.3962128899
C  C102  1  0.97770000  0.11180000  0.59720000  1.0 0.3962128899
C  C103  1  0.47770000  0.38820000  0.90280000  1.0 0.3962128899
C  C104  1  0.02230000  0.88820000  0.09720000  1.0 0.3962128899
C  C105  1  0.44890000  0.48810000  0.62850000  1.0 0.1297600856
C  C106  1  0.05110000  0.98810000  0.37150000  1.0 0.1297600856
C  C107  1  0.55110000  0.51190000  0.12850000  1.0 0.1297600856
C  C108  1  0.94890000  0.01190000  0.87150000  1.0 0.1297600856
C  C109  1  0.55110000  0.51190000  0.37150000  1.0 0.1297600856
C  C110  1  0.94890000  0.01190000  0.62850000  1.0 0.1297600856
C  C111  1  0.44890000  0.48810000  0.87150000  1.0 0.1297600856
C  C112  1  0.05110000  0.98810000  0.12850000  1.0 0.1297600856
C  C113  1  0.41440000  0.54940000  0.64670000  1.0 -0.1765894499
C  C114  1  0.08560000  0.04940000  0.35330000  1.0 -0.1765894499
C  C115  1  0.58560000  0.45060000  0.14670000  1.0 -0.1765894499
C  C116  1  0.91440000  0.95060000  0.85330000  1.0 -0.1765894499
C  C117  1  0.58560000  0.45060000  0.35330000  1.0 -0.1765894499
C  C118  1  0.91440000  0.95060000  0.64670000  1.0 -0.1765894499
C  C119  1  0.41440000  0.54940000  0.85330000  1.0 -0.1765894499
C  C120  1  0.08560000  0.04940000  0.14670000  1.0 -0.1765894499
C  C121  1  0.47050000  0.59980000  0.66590000  1.0 -0.1091646083
C  C122  1  0.02950000  0.09980000  0.33410000  1.0 -0.1091646083
C  C123  1  0.52950000  0.40020000  0.16590000  1.0 -0.1091646083
C  C124  1  0.97050000  0.90020000  0.83410000  1.0 -0.1091646083
C  C125  1  0.52950000  0.40020000  0.33410000  1.0 -0.1091646083
C  C126  1  0.97050000  0.90020000  0.66590000  1.0 -0.1091646083
C  C127  1  0.47050000  0.59980000  0.83410000  1.0 -0.1091646083
C  C128  1  0.02950000  0.09980000  0.16590000  1.0 -0.1091646083
C  C129  1  0.56390000  0.59000000  0.66430000  1.0 -0.1039054701
C  C130  1  0.93610000  0.09000000  0.33570000  1.0 -0.1039054701
C  C131  1  0.43610000  0.41000000  0.16430000  1.0 -0.1039054701
C  C132  1  0.06390000  0.91000000  0.83570000  1.0 -0.1039054701
C  C133  1  0.43610000  0.41000000  0.33570000  1.0 -0.1039054701
C  C134  1  0.06390000  0.91000000  0.66430000  1.0 -0.1039054701
C  C135  1  0.56390000  0.59000000  0.83570000  1.0 -0.1039054701
C  C136  1  0.93610000  0.09000000  0.16430000  1.0 -0.1039054701
C  C137  1  0.59910000  0.52840000  0.64350000  1.0 -0.1884730318
C  C138  1  0.90090000  0.02840000  0.35650000  1.0 -0.1884730318
C  C139  1  0.40090000  0.47160000  0.14350000  1.0 -0.1884730318
C  C140  1  0.09910000  0.97160000  0.85650000  1.0 -0.1884730318
C  C141  1  0.40090000  0.47160000  0.35650000  1.0 -0.1884730318
C  C142  1  0.09910000  0.97160000  0.64350000  1.0 -0.1884730318
C  C143  1  0.59910000  0.52840000  0.85650000  1.0 -0.1884730318
C  C144  1  0.90090000  0.02840000  0.14350000  1.0 -0.1884730318
C  C145  1  0.54060000  0.47650000  0.62760000  1.0 0.1218171861
C  C146  1  0.95940000  0.97650000  0.37240000  1.0 0.1218171861
C  C147  1  0.45940000  0.52350000  0.12760000  1.0 0.1218171861
C  C148  1  0.04060000  0.02350000  0.87240000  1.0 0.1218171861
C  C149  1  0.45940000  0.52350000  0.37240000  1.0 0.1218171861
C  C150  1  0.04060000  0.02350000  0.62760000  1.0 0.1218171861
C  C151  1  0.54060000  0.47650000  0.87240000  1.0 0.1218171861
C  C152  1  0.95940000  0.97650000  0.12760000  1.0 0.1218171861
C  C153  1  0.22770000  0.27330000  0.60480000  1.0 0.1391380029
C  C154  1  0.27230000  0.77330000  0.39520000  1.0 0.1391380029
C  C155  1  0.77230000  0.72670000  0.10480000  1.0 0.1391380029
C  C156  1  0.72770000  0.22670000  0.89520000  1.0 0.1391380029
C  C157  1  0.77230000  0.72670000  0.39520000  1.0 0.1391380029
C  C158  1  0.72770000  0.22670000  0.60480000  1.0 0.1391380029
C  C159  1  0.22770000  0.27330000  0.89520000  1.0 0.1391380029
C  C160  1  0.27230000  0.77330000  0.10480000  1.0 0.1391380029
C  C161  1  0.21470000  0.31190000  0.50590000  1.0 0.1297600856
C  C162  1  0.28530000  0.81190000  0.49410000  1.0 0.1297600856
C  C163  1  0.78530000  0.68810000  0.00590000  1.0 0.1297600856
C  C164  1  0.71470000  0.18810000  0.99410000  1.0 0.1297600856
C  C165  1  0.78530000  0.68810000  0.49410000  1.0 0.1297600856
C  C166  1  0.71470000  0.18810000  0.50590000  1.0 0.1297600856
C  C167  1  0.21470000  0.31190000  0.99410000  1.0 0.1297600856
C  C168  1  0.28530000  0.81190000  0.00590000  1.0 0.1297600856
C  C169  1  0.21370000  0.34690000  0.44510000  1.0 -0.1765894499
C  C170  1  0.28630000  0.84690000  0.55490000  1.0 -0.1765894499
C  C171  1  0.78630000  0.65310000  0.94510000  1.0 -0.1765894499
C  C172  1  0.71370000  0.15310000  0.05490000  1.0 -0.1765894499
C  C173  1  0.78630000  0.65310000  0.55490000  1.0 -0.1765894499
C  C174  1  0.71370000  0.15310000  0.44510000  1.0 -0.1765894499
C  C175  1  0.21370000  0.34690000  0.05490000  1.0 -0.1765894499
C  C176  1  0.28630000  0.84690000  0.94510000  1.0 -0.1765894499
C  C177  1  0.18200000  0.31630000  0.39030000  1.0 -0.1091646083
C  C178  1  0.31800000  0.81630000  0.60970000  1.0 -0.1091646083
C  C179  1  0.81800000  0.68370000  0.89030000  1.0 -0.1091646083
C  C180  1  0.68200000  0.18370000  0.10970000  1.0 -0.1091646083
C  C181  1  0.81800000  0.68370000  0.60970000  1.0 -0.1091646083
C  C182  1  0.68200000  0.18370000  0.39030000  1.0 -0.1091646083
C  C183  1  0.18200000  0.31630000  0.10970000  1.0 -0.1091646083
C  C184  1  0.31800000  0.81630000  0.89030000  1.0 -0.1091646083
C  C185  1  0.15370000  0.25090000  0.39280000  1.0 -0.1091646083
C  C186  1  0.34630000  0.75090000  0.60720000  1.0 -0.1091646083
C  C187  1  0.84630000  0.74910000  0.89280000  1.0 -0.1091646083
C  C188  1  0.65370000  0.24910000  0.10720000  1.0 -0.1091646083
C  C189  1  0.84630000  0.74910000  0.60720000  1.0 -0.1091646083
C  C190  1  0.65370000  0.24910000  0.39280000  1.0 -0.1091646083
C  C191  1  0.15370000  0.25090000  0.10720000  1.0 -0.1091646083
C  C192  1  0.34630000  0.75090000  0.89280000  1.0 -0.1091646083
C  C193  1  0.15380000  0.21360000  0.44870000  1.0 -0.1543335383
C  C194  1  0.34620000  0.71360000  0.55130000  1.0 -0.1543335383
C  C195  1  0.84620000  0.78640000  0.94870000  1.0 -0.1543335383
C  C196  1  0.65380000  0.28640000  0.05130000  1.0 -0.1543335383
C  C197  1  0.84620000  0.78640000  0.55130000  1.0 -0.1543335383
C  C198  1  0.65380000  0.28640000  0.44870000  1.0 -0.1543335383
C  C199  1  0.15380000  0.21360000  0.05130000  1.0 -0.1543335383
C  C200  1  0.34620000  0.71360000  0.94870000  1.0 -0.1543335383
C  C201  1  0.18390000  0.24600000  0.50550000  1.0 0.1218171861
C  C202  1  0.31610000  0.74600000  0.49450000  1.0 0.1218171861
C  C203  1  0.81610000  0.75400000  0.00550000  1.0 0.1218171861
C  C204  1  0.68390000  0.25400000  0.99450000  1.0 0.1218171861
C  C205  1  0.81610000  0.75400000  0.49450000  1.0 0.1218171861
C  C206  1  0.68390000  0.25400000  0.50550000  1.0 0.1218171861
C  C207  1  0.18390000  0.24600000  0.99450000  1.0 0.1218171861
C  C208  1  0.31610000  0.74600000  0.00550000  1.0 0.1218171861
C  C209  1  0.26700000  0.43290000  0.75000000  1.0 0.1687847367
C  C210  1  0.23300000  0.93290000  0.25000000  1.0 0.1687847367
C  C211  1  0.73300000  0.56710000  0.25000000  1.0 0.1687847367
C  C212  1  0.76700000  0.06710000  0.75000000  1.0 0.1687847367
C  C213  1  0.14380000  0.39260000  0.71640000  1.0 0.1107834429
C  C214  1  0.35620000  0.89260000  0.28360000  1.0 0.1107834429
C  C215  1  0.85620000  0.60740000  0.21640000  1.0 0.1107834429
C  C216  1  0.64380000  0.10740000  0.78360000  1.0 0.1107834429
C  C217  1  0.85620000  0.60740000  0.28360000  1.0 0.1107834429
C  C218  1  0.64380000  0.10740000  0.71640000  1.0 0.1107834429
C  C219  1  0.14380000  0.39260000  0.78360000  1.0 0.1107834429
C  C220  1  0.35620000  0.89260000  0.21640000  1.0 0.1107834429
C  C221  1  0.07270000  0.37000000  0.67910000  1.0 -0.1983299059
C  C222  1  0.42730000  0.87000000  0.32090000  1.0 -0.1983299059
C  C223  1  0.92730000  0.63000000  0.17910000  1.0 -0.1983299059
C  C224  1  0.57270000  0.13000000  0.82090000  1.0 -0.1983299059
C  C225  1  0.92730000  0.63000000  0.32090000  1.0 -0.1983299059
C  C226  1  0.57270000  0.13000000  0.67910000  1.0 -0.1983299059
C  C227  1  0.07270000  0.37000000  0.82090000  1.0 -0.1983299059
C  C228  1  0.42730000  0.87000000  0.17910000  1.0 -0.1983299059
C  C229  1  0.99930000  0.34610000  0.71580000  1.0 -0.1169739151
C  C230  1  0.50070000  0.84610000  0.28420000  1.0 -0.1169739151
C  C231  1  0.00070000  0.65390000  0.21580000  1.0 -0.1169739151
C  C232  1  0.49930000  0.15390000  0.78420000  1.0 -0.1169739151
C  C233  1  0.00070000  0.65390000  0.28420000  1.0 -0.1169739151
C  C234  1  0.49930000  0.15390000  0.71580000  1.0 -0.1169739151
C  C235  1  0.99930000  0.34610000  0.78420000  1.0 -0.1169739151
C  C236  1  0.50070000  0.84610000  0.21580000  1.0 -0.1169739151
N  N1  1  0.27290000  0.61400000  0.30670000  1.0 -0.429026776
N  N2  1  0.22710000  0.11400000  0.69330000  1.0 -0.429026776
N  N3  1  0.72710000  0.38600000  0.80670000  1.0 -0.429026776
N  N4  1  0.77290000  0.88600000  0.19330000  1.0 -0.429026776
N  N5  1  0.72710000  0.38600000  0.69330000  1.0 -0.429026776
N  N6  1  0.77290000  0.88600000  0.30670000  1.0 -0.429026776
N  N7  1  0.27290000  0.61400000  0.19330000  1.0 -0.429026776
N  N8  1  0.22710000  0.11400000  0.80670000  1.0 -0.429026776
N  N9  1  0.25840000  0.57450000  0.46590000  1.0 -0.3720730031
N  N10  1  0.24160000  0.07450000  0.53410000  1.0 -0.3720730031
N  N11  1  0.74160000  0.42550000  0.96590000  1.0 -0.3720730031
N  N12  1  0.75840000  0.92550000  0.03410000  1.0 -0.3720730031
N  N13  1  0.74160000  0.42550000  0.53410000  1.0 -0.3720730031
N  N14  1  0.75840000  0.92550000  0.46590000  1.0 -0.3720730031
N  N15  1  0.25840000  0.57450000  0.03410000  1.0 -0.3720730031
N  N16  1  0.24160000  0.07450000  0.96590000  1.0 -0.3720730031
N  N17  1  0.23920000  0.49510000  0.54720000  1.0 -0.3720730031
N  N18  1  0.26080000  0.99510000  0.45280000  1.0 -0.3720730031
N  N19  1  0.76080000  0.50490000  0.04720000  1.0 -0.3720730031
N  N20  1  0.73920000  0.00490000  0.95280000  1.0 -0.3720730031
N  N21  1  0.76080000  0.50490000  0.45280000  1.0 -0.3720730031
N  N22  1  0.73920000  0.00490000  0.54720000  1.0 -0.3720730031
N  N23  1  0.23920000  0.49510000  0.95280000  1.0 -0.3720730031
N  N24  1  0.26080000  0.99510000  0.04720000  1.0 -0.3720730031
N  N25  1  0.40810000  0.42890000  0.60900000  1.0 -0.4059599573
N  N26  1  0.09190000  0.92890000  0.39100000  1.0 -0.4059599573
N  N27  1  0.59190000  0.57110000  0.10900000  1.0 -0.4004060918
N  N28  1  0.90810000  0.07110000  0.89100000  1.0 -0.4004060918
N  N29  1  0.59190000  0.57110000  0.39100000  1.0 -0.4004060918
N  N30  1  0.90810000  0.07110000  0.60900000  1.0 -0.4004060918
N  N31  1  0.40810000  0.42890000  0.89100000  1.0 -0.4059599573
N  N32  1  0.09190000  0.92890000  0.10900000  1.0 -0.4059599573
N  N33  1  0.55650000  0.41250000  0.60510000  1.0 -0.3862120146
N  N34  1  0.94350000  0.91250000  0.39490000  1.0 -0.3862120146
N  N35  1  0.44350000  0.58750000  0.10510000  1.0 -0.3862120146
N  N36  1  0.05650000  0.08750000  0.89490000  1.0 -0.3862120146
N  N37  1  0.44350000  0.58750000  0.39490000  1.0 -0.3862120146
N  N38  1  0.05650000  0.08750000  0.60510000  1.0 -0.3862120146
N  N39  1  0.55650000  0.41250000  0.89490000  1.0 -0.3862120146
N  N40  1  0.94350000  0.91250000  0.10510000  1.0 -0.3862120146
N  N41  1  0.23930000  0.32960000  0.56900000  1.0 -0.3643433187
N  N42  1  0.26070000  0.82960000  0.43100000  1.0 -0.3643433187
N  N43  1  0.76070000  0.67040000  0.06900000  1.0 -0.3643433187
N  N44  1  0.73930000  0.17040000  0.93100000  1.0 -0.3643433187
N  N45  1  0.76070000  0.67040000  0.43100000  1.0 -0.3643433187
N  N46  1  0.73930000  0.17040000  0.56900000  1.0 -0.3643433187
N  N47  1  0.23930000  0.32960000  0.93100000  1.0 -0.3643433187
N  N48  1  0.26070000  0.82960000  0.06900000  1.0 -0.3643433187
N  N49  1  0.19430000  0.22060000  0.57080000  1.0 -0.4004060918
N  N50  1  0.30570000  0.72060000  0.42920000  1.0 -0.4004060918
N  N51  1  0.80570000  0.77940000  0.07080000  1.0 -0.4004060918
N  N52  1  0.69430000  0.27940000  0.92920000  1.0 -0.4004060918
N  N53  1  0.80570000  0.77940000  0.42920000  1.0 -0.4004060918
N  N54  1  0.69430000  0.27940000  0.57080000  1.0 -0.4004060918
N  N55  1  0.19430000  0.22060000  0.92920000  1.0 -0.4004060918
N  N56  1  0.30570000  0.72060000  0.07080000  1.0 -0.4004060918
N  N57  1  0.22350000  0.42080000  0.69290000  1.0 -0.4004060918
N  N58  1  0.27650000  0.92080000  0.30710000  1.0 -0.4004060918
N  N59  1  0.77650000  0.57920000  0.19290000  1.0 -0.4004060918
N  N60  1  0.72350000  0.07920000  0.80710000  1.0 -0.4004060918
N  N61  1  0.77650000  0.57920000  0.30710000  1.0 -0.4004060918
N  N62  1  0.72350000  0.07920000  0.69290000  1.0 -0.4004060918
N  N63  1  0.22350000  0.42080000  0.80710000  1.0 -0.4004060918
N  N64  1  0.27650000  0.92080000  0.19290000  1.0 -0.4004060918
