# DDEC6 charges by PACMAN v1.1 (https://github.com/mtap-research/PACMAN-charge/)
data_NOQGIL_ASR_pacman
_symmetry_space_group_name_H-M   'P 1'
_cell_length_a   15.01400000
_cell_length_b   20.22300000
_cell_length_c   19.84300000
_cell_angle_alpha   90.00000000
_cell_angle_beta   90.00000000
_cell_angle_gamma   90.00000000
_symmetry_Int_Tables_number   1
_chemical_formula_structural   Zn4H45C59N16
_chemical_formula_sum   'Zn16 H180 C236 N64'
_cell_volume   6024.89282485
_cell_formula_units_Z   4
loop_
 _symmetry_equiv_pos_site_id
 _symmetry_equiv_pos_as_xyz
  1  'x, y, z'
loop_
 _atom_site_type_symbol
 _atom_site_label
 _atom_site_symmetry_multiplicity
 _atom_site_fract_x
 _atom_site_fract_y
 _atom_site_fract_z
 _atom_site_occupancy
 _atom_site_charge
Zn  Zn1  1  0.32164000  0.39727000  0.62711000  1.0 0.6746221167
Zn  Zn2  1  0.67836000  0.60273000  0.37289000  1.0 0.6746221167
Zn  Zn3  1  0.17836000  0.60273000  0.12711000  1.0 0.6746221167
Zn  Zn4  1  0.82164000  0.39727000  0.87289000  1.0 0.6746221167
Zn  Zn5  1  0.67836000  0.89727000  0.37289000  1.0 0.6746221167
Zn  Zn6  1  0.32164000  0.10273000  0.62711000  1.0 0.6746221167
Zn  Zn7  1  0.82164000  0.10273000  0.87289000  1.0 0.6746221167
Zn  Zn8  1  0.17836000  0.89727000  0.12711000  1.0 0.6746221167
Zn  Zn9  1  0.27684000  0.60334000  0.41939000  1.0 0.6757363064
Zn  Zn10  1  0.72316000  0.39666000  0.58061000  1.0 0.6757363064
Zn  Zn11  1  0.22316000  0.39666000  0.91939000  1.0 0.6757363064
Zn  Zn12  1  0.77684000  0.60334000  0.08061000  1.0 0.6757363064
Zn  Zn13  1  0.72316000  0.10334000  0.58061000  1.0 0.6746221167
Zn  Zn14  1  0.27684000  0.89666000  0.41939000  1.0 0.6757363064
Zn  Zn15  1  0.77684000  0.89666000  0.08061000  1.0 0.6757363064
Zn  Zn16  1  0.22316000  0.10334000  0.91939000  1.0 0.6746221167
H  H1  1  0.39772000  0.20568000  0.71298000  1.0 0.1401924869
H  H2  1  0.60228000  0.79432000  0.28702000  1.0 0.1401924869
H  H3  1  0.10228000  0.79432000  0.21298000  1.0 0.1401924869
H  H4  1  0.89772000  0.20568000  0.78702000  1.0 0.1401924869
H  H5  1  0.60228000  0.70568000  0.28702000  1.0 0.1401924869
H  H6  1  0.39772000  0.29432000  0.71298000  1.0 0.1401924869
H  H7  1  0.89772000  0.29432000  0.78702000  1.0 0.1401924869
H  H8  1  0.10228000  0.70568000  0.21298000  1.0 0.1401924869
H  H9  1  0.45355000  0.25000000  0.64805000  1.0 0.1578068343
H  H10  1  0.54645000  0.75000000  0.35195000  1.0 0.1578068343
H  H11  1  0.04645000  0.75000000  0.14805000  1.0 0.1578068343
H  H12  1  0.95355000  0.25000000  0.85195000  1.0 0.1578068343
H  H13  1  0.15275000  0.37498000  0.52398000  1.0 0.1100257236
H  H14  1  0.84725000  0.62502000  0.47602000  1.0 0.1100257236
H  H15  1  0.34725000  0.62502000  0.02398000  1.0 0.1100257236
H  H16  1  0.65275000  0.37498000  0.97602000  1.0 0.1100257236
H  H17  1  0.84725000  0.87498000  0.47602000  1.0 0.1100257236
H  H18  1  0.15275000  0.12502000  0.52398000  1.0 0.1100257236
H  H19  1  0.65275000  0.12502000  0.97602000  1.0 0.1100257236
H  H20  1  0.34725000  0.87498000  0.02398000  1.0 0.1100257236
H  H21  1  0.05028000  0.31112000  0.44784000  1.0 0.0891290086
H  H22  1  0.94972000  0.68888000  0.55216000  1.0 0.0891290086
H  H23  1  0.44972000  0.68888000  0.94784000  1.0 0.0891290086
H  H24  1  0.55028000  0.31112000  0.05216000  1.0 0.0891290086
H  H25  1  0.94972000  0.81112000  0.55216000  1.0 0.0891290086
H  H26  1  0.05028000  0.18888000  0.44784000  1.0 0.0891290086
H  H27  1  0.55028000  0.18888000  0.05216000  1.0 0.0891290086
H  H28  1  0.44972000  0.81112000  0.94784000  1.0 0.0891290086
H  H29  1  0.36131000  0.49275000  0.50185000  1.0 0.0891290086
H  H30  1  0.63869000  0.50725000  0.49815000  1.0 0.0891290086
H  H31  1  0.13869000  0.50725000  0.00185000  1.0 0.0891290086
H  H32  1  0.86131000  0.49275000  0.99815000  1.0 0.0891290086
H  H33  1  0.63869000  0.99275000  0.49815000  1.0 0.0891290086
H  H34  1  0.36131000  0.00725000  0.50185000  1.0 0.0891290086
H  H35  1  0.86131000  0.00725000  0.99815000  1.0 0.0891290086
H  H36  1  0.13869000  0.99275000  0.00185000  1.0 0.0891290086
H  H37  1  0.11974000  0.43750000  0.66784000  1.0 0.1100257236
H  H38  1  0.88026000  0.56250000  0.33216000  1.0 0.1100257236
H  H39  1  0.38026000  0.56250000  0.16784000  1.0 0.1100257236
H  H40  1  0.61974000  0.43750000  0.83216000  1.0 0.1100257236
H  H41  1  0.88026000  0.93750000  0.33216000  1.0 0.1100257236
H  H42  1  0.11974000  0.06250000  0.66784000  1.0 0.1100257236
H  H43  1  0.61974000  0.06250000  0.83216000  1.0 0.1100257236
H  H44  1  0.38026000  0.93750000  0.16784000  1.0 0.1100257236
H  H45  1  0.97269000  0.49766000  0.65915000  1.0 0.0891290086
H  H46  1  0.02731000  0.50234000  0.34085000  1.0 0.0891290086
H  H47  1  0.52731000  0.50234000  0.15915000  1.0 0.0891290086
H  H48  1  0.47269000  0.49766000  0.84085000  1.0 0.0891290086
H  H49  1  0.02731000  0.99766000  0.34085000  1.0 0.0891290086
H  H50  1  0.97269000  0.00234000  0.65915000  1.0 0.0891290086
H  H51  1  0.47269000  0.00234000  0.84085000  1.0 0.0891290086
H  H52  1  0.52731000  0.99766000  0.15915000  1.0 0.0891290086
H  H53  1  0.94782000  0.58173000  0.57246000  1.0 0.0891290086
H  H54  1  0.05218000  0.41827000  0.42754000  1.0 0.0891290086
H  H55  1  0.55218000  0.41827000  0.07246000  1.0 0.0891290086
H  H56  1  0.44782000  0.58173000  0.92754000  1.0 0.0891290086
H  H57  1  0.05218000  0.08173000  0.42754000  1.0 0.0891290086
H  H58  1  0.94782000  0.91827000  0.57246000  1.0 0.0891290086
H  H59  1  0.44782000  0.91827000  0.92754000  1.0 0.0891290086
H  H60  1  0.55218000  0.08173000  0.07246000  1.0 0.0891290086
H  H61  1  0.06814000  0.61452000  0.49118000  1.0 0.1100257236
H  H62  1  0.93186000  0.38548000  0.50882000  1.0 0.1100257236
H  H63  1  0.43186000  0.38548000  0.99118000  1.0 0.1100257236
H  H64  1  0.56814000  0.61452000  0.00882000  1.0 0.1100257236
H  H65  1  0.93186000  0.11452000  0.50882000  1.0 0.1100257236
H  H66  1  0.06814000  0.88548000  0.49118000  1.0 0.1100257236
H  H67  1  0.56814000  0.88548000  0.00882000  1.0 0.1100257236
H  H68  1  0.43186000  0.11452000  0.99118000  1.0 0.1100257236
H  H69  1  0.52303000  0.57569000  0.28535000  1.0 0.1401924869
H  H70  1  0.47697000  0.42431000  0.71465000  1.0 0.1401924869
H  H71  1  0.97697000  0.42431000  0.78535000  1.0 0.1401924869
H  H72  1  0.02303000  0.57569000  0.21465000  1.0 0.1401924869
H  H73  1  0.47697000  0.07569000  0.71465000  1.0 0.1401924869
H  H74  1  0.52303000  0.92431000  0.28535000  1.0 0.1401924869
H  H75  1  0.02303000  0.92431000  0.21465000  1.0 0.1401924869
H  H76  1  0.97697000  0.07569000  0.78535000  1.0 0.1401924869
H  H77  1  0.40951000  0.60353000  0.28940000  1.0 0.1401924869
H  H78  1  0.59049000  0.39647000  0.71060000  1.0 0.1401924869
H  H79  1  0.09049000  0.39647000  0.78940000  1.0 0.1401924869
H  H80  1  0.90951000  0.60353000  0.21060000  1.0 0.1401924869
H  H81  1  0.59049000  0.10353000  0.71060000  1.0 0.1401924869
H  H82  1  0.40951000  0.89647000  0.28940000  1.0 0.1401924869
H  H83  1  0.90951000  0.89647000  0.21060000  1.0 0.1401924869
H  H84  1  0.09049000  0.10353000  0.78940000  1.0 0.1401924869
H  H85  1  0.43661000  0.52124000  0.31330000  1.0 0.1496542097
H  H86  1  0.56339000  0.47876000  0.68670000  1.0 0.1496542097
H  H87  1  0.06339000  0.47876000  0.81330000  1.0 0.1496542097
H  H88  1  0.93661000  0.52124000  0.18670000  1.0 0.1496542097
H  H89  1  0.56339000  0.02124000  0.68670000  1.0 0.1496542097
H  H90  1  0.43661000  0.97876000  0.31330000  1.0 0.1496542097
H  H91  1  0.93661000  0.97876000  0.18670000  1.0 0.1496542097
H  H92  1  0.06339000  0.02124000  0.81330000  1.0 0.1496542097
H  H93  1  0.33968000  0.64967000  0.55934000  1.0 0.1100257236
H  H94  1  0.66032000  0.35033000  0.44066000  1.0 0.1100257236
H  H95  1  0.16032000  0.35033000  0.05934000  1.0 0.1100257236
H  H96  1  0.83968000  0.64967000  0.94066000  1.0 0.1100257236
H  H97  1  0.66032000  0.14967000  0.44066000  1.0 0.1100257236
H  H98  1  0.33968000  0.85033000  0.55934000  1.0 0.1100257236
H  H99  1  0.83968000  0.85033000  0.94066000  1.0 0.1100257236
H  H100  1  0.16032000  0.14967000  0.05934000  1.0 0.1100257236
H  H101  1  0.44599000  0.68317000  0.65111000  1.0 0.0831201581
H  H102  1  0.55401000  0.31683000  0.34889000  1.0 0.0831201581
H  H103  1  0.05401000  0.31683000  0.15111000  1.0 0.0831201581
H  H104  1  0.94599000  0.68317000  0.84889000  1.0 0.0831201581
H  H105  1  0.55401000  0.18317000  0.34889000  1.0 0.0831201581
H  H106  1  0.44599000  0.81683000  0.65111000  1.0 0.0831201581
H  H107  1  0.94599000  0.81683000  0.84889000  1.0 0.0831201581
H  H108  1  0.05401000  0.18317000  0.15111000  1.0 0.0831201581
H  H109  1  0.60849000  0.67872000  0.63406000  1.0 0.0891290086
H  H110  1  0.39151000  0.32128000  0.36594000  1.0 0.0891290086
H  H111  1  0.89151000  0.32128000  0.13406000  1.0 0.0891290086
H  H112  1  0.10849000  0.67872000  0.86594000  1.0 0.0891290086
H  H113  1  0.39151000  0.17872000  0.36594000  1.0 0.0891290086
H  H114  1  0.60849000  0.82128000  0.63406000  1.0 0.0891290086
H  H115  1  0.10849000  0.82128000  0.86594000  1.0 0.0891290086
H  H116  1  0.89151000  0.17872000  0.13406000  1.0 0.0891290086
H  H117  1  0.67370000  0.64375000  0.52374000  1.0 0.1100257236
H  H118  1  0.32630000  0.35625000  0.47626000  1.0 0.1100257236
H  H119  1  0.82630000  0.35625000  0.02374000  1.0 0.1100257236
H  H120  1  0.17370000  0.64375000  0.97626000  1.0 0.1100257236
H  H121  1  0.32630000  0.14375000  0.47626000  1.0 0.1100257236
H  H122  1  0.67370000  0.85625000  0.52374000  1.0 0.1100257236
H  H123  1  0.17370000  0.85625000  0.97626000  1.0 0.1100257236
H  H124  1  0.82630000  0.14375000  0.02374000  1.0 0.1100257236
H  H125  1  0.24144000  0.65824000  0.27218000  1.0 0.0891290086
H  H126  1  0.75856000  0.34176000  0.72782000  1.0 0.0891290086
H  H127  1  0.25856000  0.34176000  0.77218000  1.0 0.0891290086
H  H128  1  0.74144000  0.65824000  0.22782000  1.0 0.0891290086
H  H129  1  0.75856000  0.15824000  0.72782000  1.0 0.0891290086
H  H130  1  0.24144000  0.84176000  0.27218000  1.0 0.0891290086
H  H131  1  0.74144000  0.84176000  0.22782000  1.0 0.0891290086
H  H132  1  0.25856000  0.15824000  0.77218000  1.0 0.0891290086
H  H133  1  0.23872000  0.44449000  0.40156000  1.0 0.1100257236
H  H134  1  0.76128000  0.55551000  0.59844000  1.0 0.1100257236
H  H135  1  0.26128000  0.55551000  0.90156000  1.0 0.1100257236
H  H136  1  0.73872000  0.44449000  0.09844000  1.0 0.1100257236
H  H137  1  0.76128000  0.94449000  0.59844000  1.0 0.1100257236
H  H138  1  0.23872000  0.05551000  0.40156000  1.0 0.1100257236
H  H139  1  0.73872000  0.05551000  0.09844000  1.0 0.1100257236
H  H140  1  0.26128000  0.94449000  0.90156000  1.0 0.1100257236
H  H141  1  0.18155000  0.34194000  0.34494000  1.0 0.0951478506
H  H142  1  0.81845000  0.65806000  0.65506000  1.0 0.0951478506
H  H143  1  0.31845000  0.65806000  0.84494000  1.0 0.0951478506
H  H144  1  0.68155000  0.34194000  0.15506000  1.0 0.0951478506
H  H145  1  0.81845000  0.84194000  0.65506000  1.0 0.0951478506
H  H146  1  0.18155000  0.15806000  0.34494000  1.0 0.0951478506
H  H147  1  0.68155000  0.15806000  0.15506000  1.0 0.0951478506
H  H148  1  0.31845000  0.84194000  0.84494000  1.0 0.0951478506
H  H149  1  0.12901000  0.34503000  0.22697000  1.0 0.0891290086
H  H150  1  0.87099000  0.65497000  0.77303000  1.0 0.0891290086
H  H151  1  0.37099000  0.65497000  0.72697000  1.0 0.0891290086
H  H152  1  0.62901000  0.34503000  0.27303000  1.0 0.0891290086
H  H153  1  0.87099000  0.84503000  0.77303000  1.0 0.0891290086
H  H154  1  0.12901000  0.15497000  0.22697000  1.0 0.0891290086
H  H155  1  0.62901000  0.15497000  0.27303000  1.0 0.0891290086
H  H156  1  0.37099000  0.84503000  0.72697000  1.0 0.0891290086
H  H157  1  0.13024000  0.44987000  0.15997000  1.0 0.1100257236
H  H158  1  0.86976000  0.55013000  0.84003000  1.0 0.1100257236
H  H159  1  0.36976000  0.55013000  0.65997000  1.0 0.1100257236
H  H160  1  0.63024000  0.44987000  0.34003000  1.0 0.1100257236
H  H161  1  0.86976000  0.94987000  0.84003000  1.0 0.1100257236
H  H162  1  0.13024000  0.05013000  0.15997000  1.0 0.1100257236
H  H163  1  0.63024000  0.05013000  0.34003000  1.0 0.1100257236
H  H164  1  0.36976000  0.94987000  0.65997000  1.0 0.1100257236
H  H165  1  0.07056000  0.62458000  0.36977000  1.0 0.1100257236
H  H166  1  0.92944000  0.37542000  0.63023000  1.0 0.1100257236
H  H167  1  0.42944000  0.37542000  0.86977000  1.0 0.1100257236
H  H168  1  0.57056000  0.62458000  0.13023000  1.0 0.1100257236
H  H169  1  0.92944000  0.12458000  0.63023000  1.0 0.1100257236
H  H170  1  0.07056000  0.87542000  0.36977000  1.0 0.1100257236
H  H171  1  0.57056000  0.87542000  0.13023000  1.0 0.1100257236
H  H172  1  0.42944000  0.12458000  0.86977000  1.0 0.1100257236
H  H173  1  0.93986000  0.68858000  0.32675000  1.0 0.0951478506
H  H174  1  0.06014000  0.31142000  0.67325000  1.0 0.0951478506
H  H175  1  0.56014000  0.31142000  0.82675000  1.0 0.0951478506
H  H176  1  0.43986000  0.68858000  0.17325000  1.0 0.0951478506
H  H177  1  0.06014000  0.18858000  0.67325000  1.0 0.0951478506
H  H178  1  0.93986000  0.81142000  0.32675000  1.0 0.0951478506
H  H179  1  0.43986000  0.81142000  0.17325000  1.0 0.0951478506
H  H180  1  0.56014000  0.18858000  0.82675000  1.0 0.0951478506
C  C1  1  0.39349000  0.25000000  0.68064000  1.0 -0.466091724
C  C2  1  0.60651000  0.75000000  0.31936000  1.0 -0.466091724
C  C3  1  0.10651000  0.75000000  0.18064000  1.0 -0.466091724
C  C4  1  0.89349000  0.25000000  0.81936000  1.0 -0.466091724
C  C5  1  0.31246000  0.25000000  0.63708000  1.0 0.41371247
C  C6  1  0.68754000  0.75000000  0.36292000  1.0 0.41371247
C  C7  1  0.18754000  0.75000000  0.13708000  1.0 0.41371247
C  C8  1  0.81246000  0.25000000  0.86292000  1.0 0.41371247
C  C9  1  0.20888000  0.28511000  0.56726000  1.0 0.1401924869
C  C10  1  0.79112000  0.71489000  0.43274000  1.0 0.1401924869
C  C11  1  0.29112000  0.71489000  0.06726000  1.0 0.1401924869
C  C12  1  0.70888000  0.28511000  0.93274000  1.0 0.1401924869
C  C13  1  0.79112000  0.78511000  0.43274000  1.0 0.1401924869
C  C14  1  0.20888000  0.21489000  0.56726000  1.0 0.1401924869
C  C15  1  0.70888000  0.21489000  0.93274000  1.0 0.1401924869
C  C16  1  0.29112000  0.78511000  0.06726000  1.0 0.1401924869
C  C17  1  0.15232000  0.32084000  0.52435000  1.0 -0.16841665
C  C18  1  0.84768000  0.67916000  0.47565000  1.0 -0.16841665
C  C19  1  0.34768000  0.67916000  0.02435000  1.0 -0.16841665
C  C20  1  0.65232000  0.32084000  0.97565000  1.0 -0.16841665
C  C21  1  0.84768000  0.82084000  0.47565000  1.0 -0.16841665
C  C22  1  0.15232000  0.17916000  0.52435000  1.0 -0.16841665
C  C23  1  0.65232000  0.17916000  0.97565000  1.0 -0.16841665
C  C24  1  0.34768000  0.82084000  0.02435000  1.0 -0.16841665
C  C25  1  0.09563000  0.28484000  0.48189000  1.0 -0.09820733
C  C26  1  0.90437000  0.71516000  0.51811000  1.0 -0.09820733
C  C27  1  0.40437000  0.71516000  0.98189000  1.0 -0.09820733
C  C28  1  0.59563000  0.28484000  0.01811000  1.0 -0.09820733
C  C29  1  0.90437000  0.78484000  0.51811000  1.0 -0.09820733
C  C30  1  0.09563000  0.21516000  0.48189000  1.0 -0.09820733
C  C31  1  0.59563000  0.21516000  0.01811000  1.0 -0.09820733
C  C32  1  0.40437000  0.78484000  0.98189000  1.0 -0.09820733
C  C33  1  0.29417000  0.50094000  0.52139000  1.0 0.1665806008
C  C34  1  0.70583000  0.49906000  0.47861000  1.0 0.1665806008
C  C35  1  0.20583000  0.49906000  0.02139000  1.0 0.1665806008
C  C36  1  0.79417000  0.50094000  0.97861000  1.0 0.1665806008
C  C37  1  0.70583000  0.00094000  0.47861000  1.0 0.1665806008
C  C38  1  0.29417000  0.99906000  0.52139000  1.0 0.1665806008
C  C39  1  0.79417000  0.99906000  0.97861000  1.0 0.1665806008
C  C40  1  0.20583000  0.00094000  0.02139000  1.0 0.1665806008
C  C41  1  0.17426000  0.49187000  0.58246000  1.0 0.1401924869
C  C42  1  0.82574000  0.50813000  0.41754000  1.0 0.1401924869
C  C43  1  0.32574000  0.50813000  0.08246000  1.0 0.1401924869
C  C44  1  0.67426000  0.49187000  0.91754000  1.0 0.1401924869
C  C45  1  0.82574000  0.99187000  0.41754000  1.0 0.1401924869
C  C46  1  0.17426000  0.00813000  0.58246000  1.0 0.1401924869
C  C47  1  0.67426000  0.00813000  0.91754000  1.0 0.1401924869
C  C48  1  0.32574000  0.99187000  0.08246000  1.0 0.1401924869
C  C49  1  0.10799000  0.47525000  0.62925000  1.0 -0.16841665
C  C50  1  0.89201000  0.52475000  0.37075000  1.0 -0.16841665
C  C51  1  0.39201000  0.52475000  0.12925000  1.0 -0.16841665
C  C52  1  0.60799000  0.47525000  0.87075000  1.0 -0.16841665
C  C53  1  0.89201000  0.97525000  0.37075000  1.0 -0.16841665
C  C54  1  0.10799000  0.02475000  0.62925000  1.0 -0.16841665
C  C55  1  0.60799000  0.02475000  0.87075000  1.0 -0.16841665
C  C56  1  0.39201000  0.97525000  0.12925000  1.0 -0.16841665
C  C57  1  0.02718000  0.50880000  0.62419000  1.0 -0.0913361254
C  C58  1  0.97282000  0.49120000  0.37581000  1.0 -0.0913361254
C  C59  1  0.47282000  0.49120000  0.12419000  1.0 -0.0913361254
C  C60  1  0.52718000  0.50880000  0.87581000  1.0 -0.0913361254
C  C61  1  0.97282000  0.00880000  0.37581000  1.0 -0.0913361254
C  C62  1  0.02718000  0.99120000  0.62419000  1.0 -0.0913361254
C  C63  1  0.52718000  0.99120000  0.87581000  1.0 -0.0913361254
C  C64  1  0.47282000  0.00880000  0.12419000  1.0 -0.0913361254
C  C65  1  0.01307000  0.55783000  0.57454000  1.0 -0.0913361254
C  C66  1  0.98693000  0.44217000  0.42546000  1.0 -0.0913361254
C  C67  1  0.48693000  0.44217000  0.07454000  1.0 -0.0913361254
C  C68  1  0.51307000  0.55783000  0.92546000  1.0 -0.0913361254
C  C69  1  0.98693000  0.05783000  0.42546000  1.0 -0.0913361254
C  C70  1  0.01307000  0.94217000  0.57454000  1.0 -0.0913361254
C  C71  1  0.51307000  0.94217000  0.92546000  1.0 -0.0913361254
C  C72  1  0.48693000  0.05783000  0.07454000  1.0 -0.0913361254
C  C73  1  0.07924000  0.57577000  0.52880000  1.0 -0.1593905002
C  C74  1  0.92076000  0.42423000  0.47120000  1.0 -0.1593905002
C  C75  1  0.42076000  0.42423000  0.02880000  1.0 -0.1593905002
C  C76  1  0.57924000  0.57577000  0.97120000  1.0 -0.1593905002
C  C77  1  0.92076000  0.07577000  0.47120000  1.0 -0.1593905002
C  C78  1  0.07924000  0.92423000  0.52880000  1.0 -0.1593905002
C  C79  1  0.57924000  0.92423000  0.97120000  1.0 -0.1593905002
C  C80  1  0.42076000  0.07577000  0.02880000  1.0 -0.1593905002
C  C81  1  0.16033000  0.54181000  0.53319000  1.0 0.1496542097
C  C82  1  0.83967000  0.45819000  0.46681000  1.0 0.1496542097
C  C83  1  0.33967000  0.45819000  0.03319000  1.0 0.1496542097
C  C84  1  0.66033000  0.54181000  0.96681000  1.0 0.1496542097
C  C85  1  0.83967000  0.04181000  0.46681000  1.0 0.1496542097
C  C86  1  0.16033000  0.95819000  0.53319000  1.0 0.1496542097
C  C87  1  0.66033000  0.95819000  0.96681000  1.0 0.1496542097
C  C88  1  0.33967000  0.04181000  0.03319000  1.0 0.1496542097
C  C89  1  0.46070000  0.57303000  0.31459000  1.0 -0.4570746886
C  C90  1  0.53930000  0.42697000  0.68541000  1.0 -0.4570746886
C  C91  1  0.03930000  0.42697000  0.81459000  1.0 -0.4570746886
C  C92  1  0.96070000  0.57303000  0.18541000  1.0 -0.4570746886
C  C93  1  0.53930000  0.07303000  0.68541000  1.0 -0.4570746886
C  C94  1  0.46070000  0.92697000  0.31459000  1.0 -0.4570746886
C  C95  1  0.96070000  0.92697000  0.18541000  1.0 -0.4570746886
C  C96  1  0.03930000  0.07303000  0.81459000  1.0 -0.4570746886
C  C97  1  0.47535000  0.59601000  0.38524000  1.0 0.4244498146
C  C98  1  0.52465000  0.40399000  0.61476000  1.0 0.4244498146
C  C99  1  0.02465000  0.40399000  0.88524000  1.0 0.4244498146
C  C100  1  0.97535000  0.59601000  0.11476000  1.0 0.4244498146
C  C101  1  0.52465000  0.09601000  0.61476000  1.0 0.4244498146
C  C102  1  0.47535000  0.90399000  0.38524000  1.0 0.4244498146
C  C103  1  0.97535000  0.90399000  0.11476000  1.0 0.4244498146
C  C104  1  0.02465000  0.09601000  0.88524000  1.0 0.4244498146
C  C105  1  0.44863000  0.62892000  0.48909000  1.0 0.1401924869
C  C106  1  0.55137000  0.37108000  0.51091000  1.0 0.1401924869
C  C107  1  0.05137000  0.37108000  0.98909000  1.0 0.1401924869
C  C108  1  0.94863000  0.62892000  0.01091000  1.0 0.1401924869
C  C109  1  0.55137000  0.12892000  0.51091000  1.0 0.1401924869
C  C110  1  0.44863000  0.87108000  0.48909000  1.0 0.1401924869
C  C111  1  0.94863000  0.87108000  0.01091000  1.0 0.1401924869
C  C112  1  0.05137000  0.12892000  0.98909000  1.0 0.1401924869
C  C113  1  0.41186000  0.64854000  0.55126000  1.0 -0.1756173818
C  C114  1  0.58814000  0.35146000  0.44874000  1.0 -0.1756173818
C  C115  1  0.08814000  0.35146000  0.05126000  1.0 -0.1756173818
C  C116  1  0.91186000  0.64854000  0.94874000  1.0 -0.1756173818
C  C117  1  0.58814000  0.14854000  0.44874000  1.0 -0.1756173818
C  C118  1  0.41186000  0.85146000  0.55126000  1.0 -0.1756173818
C  C119  1  0.91186000  0.85146000  0.94874000  1.0 -0.1756173818
C  C120  1  0.08814000  0.14854000  0.05126000  1.0 -0.1756173818
C  C121  1  0.47130000  0.66627000  0.60229000  1.0 -0.09820733
C  C122  1  0.52870000  0.33373000  0.39771000  1.0 -0.09820733
C  C123  1  0.02870000  0.33373000  0.10229000  1.0 -0.09820733
C  C124  1  0.97130000  0.66627000  0.89771000  1.0 -0.09820733
C  C125  1  0.52870000  0.16627000  0.39771000  1.0 -0.09820733
C  C126  1  0.47130000  0.83373000  0.60229000  1.0 -0.09820733
C  C127  1  0.97130000  0.83373000  0.89771000  1.0 -0.09820733
C  C128  1  0.02870000  0.16627000  0.10229000  1.0 -0.09820733
C  C129  1  0.56433000  0.66413000  0.59255000  1.0 -0.0913361254
C  C130  1  0.43567000  0.33587000  0.40745000  1.0 -0.0913361254
C  C131  1  0.93567000  0.33587000  0.09255000  1.0 -0.0913361254
C  C132  1  0.06433000  0.66413000  0.90745000  1.0 -0.0913361254
C  C133  1  0.43567000  0.16413000  0.40745000  1.0 -0.0913361254
C  C134  1  0.56433000  0.83587000  0.59255000  1.0 -0.0913361254
C  C135  1  0.06433000  0.83587000  0.90745000  1.0 -0.0913361254
C  C136  1  0.93567000  0.16413000  0.09255000  1.0 -0.0913361254
C  C137  1  0.60132000  0.64456000  0.53084000  1.0 -0.16841665
C  C138  1  0.39868000  0.35544000  0.46916000  1.0 -0.16841665
C  C139  1  0.89868000  0.35544000  0.03084000  1.0 -0.16841665
C  C140  1  0.10132000  0.64456000  0.96916000  1.0 -0.16841665
C  C141  1  0.39868000  0.14456000  0.46916000  1.0 -0.16841665
C  C142  1  0.60132000  0.85544000  0.53084000  1.0 -0.16841665
C  C143  1  0.10132000  0.85544000  0.96916000  1.0 -0.16841665
C  C144  1  0.89868000  0.14456000  0.03084000  1.0 -0.16841665
C  C145  1  0.54223000  0.62723000  0.47889000  1.0 0.1401924869
C  C146  1  0.45777000  0.37277000  0.52111000  1.0 0.1401924869
C  C147  1  0.95777000  0.37277000  0.97889000  1.0 0.1401924869
C  C148  1  0.04223000  0.62723000  0.02111000  1.0 0.1401924869
C  C149  1  0.45777000  0.12723000  0.52111000  1.0 0.1401924869
C  C150  1  0.54223000  0.87277000  0.47889000  1.0 0.1401924869
C  C151  1  0.04223000  0.87277000  0.02111000  1.0 0.1401924869
C  C152  1  0.95777000  0.12723000  0.97889000  1.0 0.1401924869
C  C153  1  0.22644000  0.60536000  0.27442000  1.0 0.1578068343
C  C154  1  0.77356000  0.39464000  0.72558000  1.0 0.1578068343
C  C155  1  0.27356000  0.39464000  0.77442000  1.0 0.1578068343
C  C156  1  0.72644000  0.60536000  0.22558000  1.0 0.1578068343
C  C157  1  0.77356000  0.10536000  0.72558000  1.0 0.1578068343
C  C158  1  0.22644000  0.89464000  0.27442000  1.0 0.1578068343
C  C159  1  0.72644000  0.89464000  0.22558000  1.0 0.1578068343
C  C160  1  0.27356000  0.10536000  0.77442000  1.0 0.1578068343
C  C161  1  0.21522000  0.50438000  0.31201000  1.0 0.1401924869
C  C162  1  0.78478000  0.49562000  0.68799000  1.0 0.1401924869
C  C163  1  0.28478000  0.49562000  0.81201000  1.0 0.1401924869
C  C164  1  0.71522000  0.50438000  0.18799000  1.0 0.1401924869
C  C165  1  0.78478000  0.00438000  0.68799000  1.0 0.1401924869
C  C166  1  0.21522000  0.99562000  0.31201000  1.0 0.1401924869
C  C167  1  0.71522000  0.99562000  0.18799000  1.0 0.1401924869
C  C168  1  0.28478000  0.00438000  0.81201000  1.0 0.1401924869
C  C169  1  0.21573000  0.44545000  0.34931000  1.0 -0.1593905002
C  C170  1  0.78427000  0.55455000  0.65069000  1.0 -0.1593905002
C  C171  1  0.28427000  0.55455000  0.84931000  1.0 -0.16841665
C  C172  1  0.71573000  0.44545000  0.15069000  1.0 -0.1593905002
C  C173  1  0.78427000  0.94545000  0.65069000  1.0 -0.1593905002
C  C174  1  0.21573000  0.05455000  0.34931000  1.0 -0.16841665
C  C175  1  0.71573000  0.05455000  0.15069000  1.0 -0.1593905002
C  C176  1  0.28427000  0.94545000  0.84931000  1.0 -0.16841665
C  C177  1  0.18418000  0.38874000  0.31726000  1.0 -0.09820733
C  C178  1  0.81582000  0.61126000  0.68274000  1.0 -0.09820733
C  C179  1  0.31582000  0.61126000  0.81726000  1.0 -0.09820733
C  C180  1  0.68418000  0.38874000  0.18274000  1.0 -0.09820733
C  C181  1  0.81582000  0.88874000  0.68274000  1.0 -0.09820733
C  C182  1  0.18418000  0.11126000  0.31726000  1.0 -0.09820733
C  C183  1  0.68418000  0.11126000  0.18274000  1.0 -0.09820733
C  C184  1  0.31582000  0.88874000  0.81726000  1.0 -0.09820733
C  C185  1  0.15361000  0.39070000  0.24989000  1.0 -0.09820733
C  C186  1  0.84639000  0.60930000  0.75011000  1.0 -0.09820733
C  C187  1  0.34639000  0.60930000  0.74989000  1.0 -0.09820733
C  C188  1  0.65361000  0.39070000  0.25011000  1.0 -0.09820733
C  C189  1  0.84639000  0.89070000  0.75011000  1.0 -0.09820733
C  C190  1  0.15361000  0.10930000  0.24989000  1.0 -0.09820733
C  C191  1  0.65361000  0.10930000  0.25011000  1.0 -0.09820733
C  C192  1  0.34639000  0.89070000  0.74989000  1.0 -0.09820733
C  C193  1  0.15363000  0.44894000  0.21223000  1.0 -0.1593905002
C  C194  1  0.84637000  0.55106000  0.78777000  1.0 -0.1593905002
C  C195  1  0.34637000  0.55106000  0.71223000  1.0 -0.1593905002
C  C196  1  0.65363000  0.44894000  0.28777000  1.0 -0.1593905002
C  C197  1  0.84637000  0.94894000  0.78777000  1.0 -0.1593905002
C  C198  1  0.15363000  0.05106000  0.21223000  1.0 -0.1593905002
C  C199  1  0.65363000  0.05106000  0.28777000  1.0 -0.1593905002
C  C200  1  0.34637000  0.94894000  0.71223000  1.0 -0.1593905002
C  C201  1  0.18502000  0.50620000  0.24431000  1.0 0.1401924869
C  C202  1  0.81498000  0.49380000  0.75569000  1.0 0.1401924869
C  C203  1  0.31498000  0.49380000  0.74431000  1.0 0.1401924869
C  C204  1  0.68502000  0.50620000  0.25569000  1.0 0.1401924869
C  C205  1  0.81498000  0.00620000  0.75569000  1.0 0.1401924869
C  C206  1  0.18502000  0.99380000  0.24431000  1.0 0.1401924869
C  C207  1  0.68502000  0.99380000  0.25569000  1.0 0.1401924869
C  C208  1  0.31498000  0.00620000  0.74431000  1.0 0.1401924869
C  C209  1  0.26908000  0.75000000  0.43572000  1.0 0.2174479398
C  C210  1  0.73092000  0.25000000  0.56428000  1.0 0.2174479398
C  C211  1  0.23092000  0.25000000  0.93572000  1.0 0.2174479398
C  C212  1  0.76908000  0.75000000  0.06428000  1.0 0.2145606858
C  C213  1  0.14430000  0.71487000  0.39324000  1.0 0.132768035
C  C214  1  0.85570000  0.28513000  0.60676000  1.0 0.132768035
C  C215  1  0.35570000  0.28513000  0.89324000  1.0 0.132768035
C  C216  1  0.64430000  0.71487000  0.10676000  1.0 0.132768035
C  C217  1  0.85570000  0.21487000  0.60676000  1.0 0.132768035
C  C218  1  0.14430000  0.78513000  0.39324000  1.0 0.132768035
C  C219  1  0.64430000  0.78513000  0.10676000  1.0 0.132768035
C  C220  1  0.35570000  0.21487000  0.89324000  1.0 0.132768035
C  C221  1  0.07134000  0.67877000  0.36922000  1.0 -0.16841665
C  C222  1  0.92866000  0.32123000  0.63078000  1.0 -0.16841665
C  C223  1  0.42866000  0.32123000  0.86922000  1.0 -0.16841665
C  C224  1  0.57134000  0.67877000  0.13078000  1.0 -0.16841665
C  C225  1  0.92866000  0.17877000  0.63078000  1.0 -0.16841665
C  C226  1  0.07134000  0.82123000  0.36922000  1.0 -0.16841665
C  C227  1  0.57134000  0.82123000  0.13078000  1.0 -0.16841665
C  C228  1  0.42866000  0.17877000  0.86922000  1.0 -0.16841665
C  C229  1  0.99868000  0.71516000  0.34509000  1.0 -0.0782826337
C  C230  1  0.00132000  0.28484000  0.65491000  1.0 -0.0782826337
C  C231  1  0.50132000  0.28484000  0.84509000  1.0 -0.0782826337
C  C232  1  0.49868000  0.71516000  0.15491000  1.0 -0.0782826337
C  C233  1  0.00132000  0.21516000  0.65491000  1.0 -0.0782826337
C  C234  1  0.99868000  0.78484000  0.34509000  1.0 -0.0782826337
C  C235  1  0.49868000  0.78484000  0.15491000  1.0 -0.0782826337
C  C236  1  0.50132000  0.21516000  0.84509000  1.0 -0.0782826337
N  N1  1  0.27444000  0.30638000  0.61266000  1.0 -0.4387897866
N  N2  1  0.72556000  0.69362000  0.38734000  1.0 -0.4387897866
N  N3  1  0.22556000  0.69362000  0.11266000  1.0 -0.4387897866
N  N4  1  0.77444000  0.30638000  0.88734000  1.0 -0.4387897866
N  N5  1  0.72556000  0.80638000  0.38734000  1.0 -0.4387897866
N  N6  1  0.27444000  0.19362000  0.61266000  1.0 -0.4387897866
N  N7  1  0.77444000  0.19362000  0.88734000  1.0 -0.4387897866
N  N8  1  0.22556000  0.80638000  0.11266000  1.0 -0.4387897866
N  N9  1  0.25976000  0.46627000  0.57341000  1.0 -0.3785104992
N  N10  1  0.74024000  0.53373000  0.42659000  1.0 -0.3785104992
N  N11  1  0.24024000  0.53373000  0.07341000  1.0 -0.3785104992
N  N12  1  0.75976000  0.46627000  0.92659000  1.0 -0.3785104992
N  N13  1  0.74024000  0.96627000  0.42659000  1.0 -0.3785104992
N  N14  1  0.25976000  0.03373000  0.57341000  1.0 -0.3785104992
N  N15  1  0.75976000  0.03373000  0.92659000  1.0 -0.3785104992
N  N16  1  0.24024000  0.96627000  0.07341000  1.0 -0.3785104992
N  N17  1  0.23804000  0.54667000  0.49487000  1.0 -0.3785104992
N  N18  1  0.76196000  0.45333000  0.50513000  1.0 -0.3785104992
N  N19  1  0.26196000  0.45333000  0.99487000  1.0 -0.3785104992
N  N20  1  0.73804000  0.54667000  0.00513000  1.0 -0.3785104992
N  N21  1  0.76196000  0.04667000  0.50513000  1.0 -0.3785104992
N  N22  1  0.23804000  0.95333000  0.49487000  1.0 -0.3785104992
N  N23  1  0.73804000  0.95333000  0.00513000  1.0 -0.3785104992
N  N24  1  0.26196000  0.04667000  0.99487000  1.0 -0.3785104992
N  N25  1  0.40766000  0.60882000  0.42940000  1.0 -0.4320538918
N  N26  1  0.59234000  0.39118000  0.57060000  1.0 -0.4320538918
N  N27  1  0.09234000  0.39118000  0.92940000  1.0 -0.4320538918
N  N28  1  0.90766000  0.60882000  0.07060000  1.0 -0.4320538918
N  N29  1  0.59234000  0.10882000  0.57060000  1.0 -0.4320538918
N  N30  1  0.40766000  0.89118000  0.42940000  1.0 -0.4320538918
N  N31  1  0.90766000  0.89118000  0.07060000  1.0 -0.4320538918
N  N32  1  0.09234000  0.10882000  0.92940000  1.0 -0.4320538918
N  N33  1  0.55732000  0.60604000  0.41254000  1.0 -0.4320538918
N  N34  1  0.44268000  0.39396000  0.58746000  1.0 -0.4320538918
N  N35  1  0.94268000  0.39396000  0.91254000  1.0 -0.4320538918
N  N36  1  0.05732000  0.60604000  0.08746000  1.0 -0.4320538918
N  N37  1  0.44268000  0.10604000  0.58746000  1.0 -0.4320538918
N  N38  1  0.55732000  0.89396000  0.41254000  1.0 -0.4320538918
N  N39  1  0.05732000  0.89396000  0.08746000  1.0 -0.4320538918
N  N40  1  0.94268000  0.10604000  0.91254000  1.0 -0.4320538918
N  N41  1  0.24074000  0.56831000  0.33025000  1.0 -0.3736094626
N  N42  1  0.75926000  0.43169000  0.66975000  1.0 -0.3736094626
N  N43  1  0.25926000  0.43169000  0.83025000  1.0 -0.3736094626
N  N44  1  0.74074000  0.56831000  0.16975000  1.0 -0.3736094626
N  N45  1  0.75926000  0.06831000  0.66975000  1.0 -0.3736094626
N  N46  1  0.24074000  0.93169000  0.33025000  1.0 -0.3736094626
N  N47  1  0.74074000  0.93169000  0.16975000  1.0 -0.3736094626
N  N48  1  0.25926000  0.06831000  0.83025000  1.0 -0.3736094626
N  N49  1  0.19252000  0.57150000  0.22137000  1.0 -0.3785104992
N  N50  1  0.80748000  0.42850000  0.77863000  1.0 -0.3785104992
N  N51  1  0.30748000  0.42850000  0.72137000  1.0 -0.3785104992
N  N52  1  0.69252000  0.57150000  0.27863000  1.0 -0.3785104992
N  N53  1  0.80748000  0.07150000  0.77863000  1.0 -0.3785104992
N  N54  1  0.19252000  0.92850000  0.22137000  1.0 -0.3785104992
N  N55  1  0.69252000  0.92850000  0.27863000  1.0 -0.3785104992
N  N56  1  0.30748000  0.07150000  0.72137000  1.0 -0.3785104992
N  N57  1  0.22686000  0.69384000  0.42050000  1.0 -0.3862536865
N  N58  1  0.77314000  0.30616000  0.57950000  1.0 -0.3862536865
N  N59  1  0.27314000  0.30616000  0.92050000  1.0 -0.3862536865
N  N60  1  0.72686000  0.69384000  0.07950000  1.0 -0.3862536865
N  N61  1  0.77314000  0.19384000  0.57950000  1.0 -0.3862536865
N  N62  1  0.22686000  0.80616000  0.42050000  1.0 -0.3862536865
N  N63  1  0.72686000  0.80616000  0.07950000  1.0 -0.3862536865
N  N64  1  0.27314000  0.19384000  0.92050000  1.0 -0.3862536865
