# DDEC6 charges by PACMAN v1.1 (https://github.com/mtap-research/PACMAN-charge/)
data_NORGOS_ASR_pacman
_symmetry_space_group_name_H-M   'P 1'
_cell_length_a   16.55830000
_cell_length_b   16.55830000
_cell_length_c   16.55830000
_cell_angle_alpha   113.77700000
_cell_angle_beta   113.77700000
_cell_angle_gamma   113.77700000
_symmetry_Int_Tables_number   1
_chemical_formula_structural   BaCoH28(CO)10
_chemical_formula_sum   'Ba6 Co6 H168 C60 O60'
_cell_volume   2803.25159008
_cell_formula_units_Z   6
loop_
 _symmetry_equiv_pos_site_id
 _symmetry_equiv_pos_as_xyz
  1  'x, y, z'
loop_
 _atom_site_type_symbol
 _atom_site_label
 _atom_site_symmetry_multiplicity
 _atom_site_fract_x
 _atom_site_fract_y
 _atom_site_fract_z
 _atom_site_occupancy
 _atom_site_charge
Ba  Ba1  1  0.29397000  0.70603000  0.00000000  1.0 1.4636689537
Ba  Ba2  1  0.70603000  0.00000000  0.29397000  1.0 1.4636689537
Ba  Ba3  1  0.00000000  0.29397000  0.70603000  1.0 1.4636689537
Ba  Ba4  1  0.70603000  0.29397000  0.00000000  1.0 1.4636689537
Ba  Ba5  1  0.29397000  0.00000000  0.70603000  1.0 1.4636689537
Ba  Ba6  1  0.00000000  0.70603000  0.29397000  1.0 1.4636689537
Co  Co1  1  0.26836000  0.88669000  0.26836000  1.0 1.0131528888
Co  Co2  1  0.88669000  0.26836000  0.26836000  1.0 1.0131528888
Co  Co3  1  0.26836000  0.26836000  0.88669000  1.0 1.0131528888
Co  Co4  1  0.73164000  0.73164000  0.11331000  1.0 1.0131528888
Co  Co5  1  0.11331000  0.73164000  0.73164000  1.0 1.0131528888
Co  Co6  1  0.73164000  0.11331000  0.73164000  1.0 1.0131528888
H  H1  1  0.60750000  0.35770000  0.55840000  1.0 0.0730288117
H  H2  1  0.35770000  0.55840000  0.60750000  1.0 0.0730288117
H  H3  1  0.55840000  0.60750000  0.35770000  1.0 0.0730288117
H  H4  1  0.39250000  0.44160000  0.64230000  1.0 0.0730288117
H  H5  1  0.64230000  0.39250000  0.44160000  1.0 0.0730288117
H  H6  1  0.44160000  0.64230000  0.39250000  1.0 0.0730288117
H  H7  1  0.39250000  0.64230000  0.44160000  1.0 0.0730288117
H  H8  1  0.64230000  0.44160000  0.39250000  1.0 0.0730288117
H  H9  1  0.44160000  0.39250000  0.64230000  1.0 0.0730288117
H  H10  1  0.60750000  0.55840000  0.35770000  1.0 0.0730288117
H  H11  1  0.35770000  0.60750000  0.55840000  1.0 0.0730288117
H  H12  1  0.55840000  0.35770000  0.60750000  1.0 0.0730288117
H  H13  1  0.36470000  0.21550000  0.41660000  1.0 0.1022986828
H  H14  1  0.21550000  0.41660000  0.36470000  1.0 0.1022986828
H  H15  1  0.41660000  0.36470000  0.21550000  1.0 0.1022986828
H  H16  1  0.63530000  0.58340000  0.78450000  1.0 0.1022986828
H  H17  1  0.78450000  0.63530000  0.58340000  1.0 0.1022986828
H  H18  1  0.58340000  0.78450000  0.63530000  1.0 0.1022986828
H  H19  1  0.63530000  0.78450000  0.58340000  1.0 0.1022986828
H  H20  1  0.78450000  0.58340000  0.63530000  1.0 0.1022986828
H  H21  1  0.58340000  0.63530000  0.78450000  1.0 0.1022986828
H  H22  1  0.36470000  0.41660000  0.21550000  1.0 0.1022986828
H  H23  1  0.21550000  0.36470000  0.41660000  1.0 0.1022986828
H  H24  1  0.41660000  0.21550000  0.36470000  1.0 0.1022986828
H  H25  1  0.02430000  0.79910000  0.96410000  1.0 0.1022986828
H  H26  1  0.79910000  0.96410000  0.02430000  1.0 0.1022986828
H  H27  1  0.96410000  0.02430000  0.79910000  1.0 0.1022986828
H  H28  1  0.97570000  0.03590000  0.20090000  1.0 0.1022986828
H  H29  1  0.20090000  0.97570000  0.03590000  1.0 0.1022986828
H  H30  1  0.03590000  0.20090000  0.97570000  1.0 0.1022986828
H  H31  1  0.97570000  0.20090000  0.03590000  1.0 0.1022986828
H  H32  1  0.20090000  0.03590000  0.97570000  1.0 0.1022986828
H  H33  1  0.03590000  0.97570000  0.20090000  1.0 0.1022986828
H  H34  1  0.02430000  0.96410000  0.79910000  1.0 0.1022986828
H  H35  1  0.79910000  0.02430000  0.96410000  1.0 0.1022986828
H  H36  1  0.96410000  0.79910000  0.02430000  1.0 0.1022986828
H  H37  1  0.50030000  0.86970000  0.28900000  1.0 0.3010340582
H  H38  1  0.86970000  0.28900000  0.50030000  1.0 0.3010340582
H  H39  1  0.28900000  0.50030000  0.86970000  1.0 0.3010340582
H  H40  1  0.49970000  0.71100000  0.13030000  1.0 0.3010340582
H  H41  1  0.13030000  0.49970000  0.71100000  1.0 0.3010340582
H  H42  1  0.71100000  0.13030000  0.49970000  1.0 0.3010340582
H  H43  1  0.49970000  0.13030000  0.71100000  1.0 0.3010340582
H  H44  1  0.13030000  0.71100000  0.49970000  1.0 0.3010340582
H  H45  1  0.71100000  0.49970000  0.13030000  1.0 0.3010340582
H  H46  1  0.50030000  0.28900000  0.86970000  1.0 0.3010340582
H  H47  1  0.86970000  0.50030000  0.28900000  1.0 0.3010340582
H  H48  1  0.28900000  0.86970000  0.50030000  1.0 0.3010340582
H  H49  1  0.47600000  0.93000000  0.28000000  1.0 0.3010340582
H  H50  1  0.93000000  0.28000000  0.47600000  1.0 0.3010340582
H  H51  1  0.28000000  0.47600000  0.93000000  1.0 0.3010340582
H  H52  1  0.52400000  0.72000000  0.07000000  1.0 0.3010340582
H  H53  1  0.07000000  0.52400000  0.72000000  1.0 0.3010340582
H  H54  1  0.72000000  0.07000000  0.52400000  1.0 0.3010340582
H  H55  1  0.52400000  0.07000000  0.72000000  1.0 0.3010340582
H  H56  1  0.07000000  0.72000000  0.52400000  1.0 0.3010340582
H  H57  1  0.72000000  0.52400000  0.07000000  1.0 0.3010340582
H  H58  1  0.47600000  0.28000000  0.93000000  1.0 0.3010340582
H  H59  1  0.93000000  0.47600000  0.28000000  1.0 0.3010340582
H  H60  1  0.28000000  0.93000000  0.47600000  1.0 0.3010340582
H  H61  1  0.56510000  0.35050000  0.62870000  1.0 0.0816373764
H  H62  1  0.35050000  0.62870000  0.56510000  1.0 0.0816373764
H  H63  1  0.62870000  0.56510000  0.35050000  1.0 0.0816373764
H  H64  1  0.43490000  0.37130000  0.64950000  1.0 0.0816373764
H  H65  1  0.64950000  0.43490000  0.37130000  1.0 0.0816373764
H  H66  1  0.37130000  0.64950000  0.43490000  1.0 0.0816373764
H  H67  1  0.43490000  0.64950000  0.37130000  1.0 0.0816373764
H  H68  1  0.64950000  0.37130000  0.43490000  1.0 0.0816373764
H  H69  1  0.37130000  0.43490000  0.64950000  1.0 0.0816373764
H  H70  1  0.56510000  0.62870000  0.35050000  1.0 0.0816373764
H  H71  1  0.35050000  0.56510000  0.62870000  1.0 0.0816373764
H  H72  1  0.62870000  0.35050000  0.56510000  1.0 0.0816373764
H  H73  1  0.40840000  0.19330000  0.34620000  1.0 0.1022986828
H  H74  1  0.19330000  0.34620000  0.40840000  1.0 0.1022986828
H  H75  1  0.34620000  0.40840000  0.19330000  1.0 0.1022986828
H  H76  1  0.59160000  0.65380000  0.80670000  1.0 0.1022986828
H  H77  1  0.80670000  0.59160000  0.65380000  1.0 0.1022986828
H  H78  1  0.65380000  0.80670000  0.59160000  1.0 0.1022986828
H  H79  1  0.59160000  0.80670000  0.65380000  1.0 0.1022986828
H  H80  1  0.80670000  0.65380000  0.59160000  1.0 0.1022986828
H  H81  1  0.65380000  0.59160000  0.80670000  1.0 0.1022986828
H  H82  1  0.40840000  0.34620000  0.19330000  1.0 0.1022986828
H  H83  1  0.19330000  0.40840000  0.34620000  1.0 0.1022986828
H  H84  1  0.34620000  0.19330000  0.40840000  1.0 0.1022986828
H  H85  1  0.30570000  0.08280000  0.31610000  1.0 0.0816373764
H  H86  1  0.08280000  0.31610000  0.30570000  1.0 0.0816373764
H  H87  1  0.31610000  0.30570000  0.08280000  1.0 0.0816373764
H  H88  1  0.69430000  0.68390000  0.91720000  1.0 0.0816373764
H  H89  1  0.91720000  0.69430000  0.68390000  1.0 0.0816373764
H  H90  1  0.68390000  0.91720000  0.69430000  1.0 0.0816373764
H  H91  1  0.69430000  0.91720000  0.68390000  1.0 0.0816373764
H  H92  1  0.91720000  0.68390000  0.69430000  1.0 0.0816373764
H  H93  1  0.68390000  0.69430000  0.91720000  1.0 0.0816373764
H  H94  1  0.30570000  0.31610000  0.08280000  1.0 0.0816373764
H  H95  1  0.08280000  0.30570000  0.31610000  1.0 0.0816373764
H  H96  1  0.31610000  0.08280000  0.30570000  1.0 0.0816373764
H  H97  1  0.84970000  0.50140000  0.86070000  1.0 0.1076210676
H  H98  1  0.50140000  0.86070000  0.84970000  1.0 0.1076210676
H  H99  1  0.86070000  0.84970000  0.50140000  1.0 0.1076210676
H  H100  1  0.15030000  0.13930000  0.49860000  1.0 0.1076210676
H  H101  1  0.49860000  0.15030000  0.13930000  1.0 0.1076210676
H  H102  1  0.13930000  0.49860000  0.15030000  1.0 0.1076210676
H  H103  1  0.15030000  0.49860000  0.13930000  1.0 0.1076210676
H  H104  1  0.49860000  0.13930000  0.15030000  1.0 0.1076210676
H  H105  1  0.13930000  0.15030000  0.49860000  1.0 0.1076210676
H  H106  1  0.84970000  0.86070000  0.50140000  1.0 0.1076210676
H  H107  1  0.50140000  0.84970000  0.86070000  1.0 0.1076210676
H  H108  1  0.86070000  0.50140000  0.84970000  1.0 0.1076210676
H  H109  1  0.09730000  0.86860000  0.10270000  1.0 0.0903218048
H  H110  1  0.86860000  0.10270000  0.09730000  1.0 0.0903218048
H  H111  1  0.10270000  0.09730000  0.86860000  1.0 0.0903218048
H  H112  1  0.90270000  0.89730000  0.13140000  1.0 0.0903218048
H  H113  1  0.13140000  0.90270000  0.89730000  1.0 0.0903218048
H  H114  1  0.89730000  0.13140000  0.90270000  1.0 0.0903218048
H  H115  1  0.90270000  0.13140000  0.89730000  1.0 0.0903218048
H  H116  1  0.13140000  0.89730000  0.90270000  1.0 0.0903218048
H  H117  1  0.89730000  0.90270000  0.13140000  1.0 0.0903218048
H  H118  1  0.09730000  0.10270000  0.86860000  1.0 0.0903218048
H  H119  1  0.86860000  0.09730000  0.10270000  1.0 0.0903218048
H  H120  1  0.10270000  0.86860000  0.09730000  1.0 0.0903218048
H  H121  1  0.95650000  0.79220000  0.01120000  1.0 0.1022986828
H  H122  1  0.79220000  0.01120000  0.95650000  1.0 0.1022986828
H  H123  1  0.01120000  0.95650000  0.79220000  1.0 0.1022986828
H  H124  1  0.04350000  0.98880000  0.20780000  1.0 0.1022986828
H  H125  1  0.20780000  0.04350000  0.98880000  1.0 0.1022986828
H  H126  1  0.98880000  0.20780000  0.04350000  1.0 0.1022986828
H  H127  1  0.04350000  0.20780000  0.98880000  1.0 0.1022986828
H  H128  1  0.20780000  0.98880000  0.04350000  1.0 0.1022986828
H  H129  1  0.98880000  0.04350000  0.20780000  1.0 0.1022986828
H  H130  1  0.95650000  0.01120000  0.79220000  1.0 0.1022986828
H  H131  1  0.79220000  0.95650000  0.01120000  1.0 0.1022986828
H  H132  1  0.01120000  0.79220000  0.95650000  1.0 0.1022986828
H  H133  1  0.65100000  0.32600000  0.63630000  1.0 0.0730288117
H  H134  1  0.32600000  0.63630000  0.65100000  1.0 0.0730288117
H  H135  1  0.63630000  0.65100000  0.32600000  1.0 0.0730288117
H  H136  1  0.34900000  0.36370000  0.67400000  1.0 0.0730288117
H  H137  1  0.67400000  0.34900000  0.36370000  1.0 0.0730288117
H  H138  1  0.36370000  0.67400000  0.34900000  1.0 0.0730288117
H  H139  1  0.34900000  0.67400000  0.36370000  1.0 0.0730288117
H  H140  1  0.67400000  0.36370000  0.34900000  1.0 0.0730288117
H  H141  1  0.36370000  0.34900000  0.67400000  1.0 0.0730288117
H  H142  1  0.65100000  0.63630000  0.32600000  1.0 0.0730288117
H  H143  1  0.32600000  0.65100000  0.63630000  1.0 0.0730288117
H  H144  1  0.63630000  0.32600000  0.65100000  1.0 0.0730288117
H  H145  1  0.81250000  0.57740000  0.86390000  1.0 0.0903218048
H  H146  1  0.57740000  0.86390000  0.81250000  1.0 0.0903218048
H  H147  1  0.86390000  0.81250000  0.57740000  1.0 0.0903218048
H  H148  1  0.18750000  0.13610000  0.42260000  1.0 0.0903218048
H  H149  1  0.42260000  0.18750000  0.13610000  1.0 0.0903218048
H  H150  1  0.13610000  0.42260000  0.18750000  1.0 0.0903218048
H  H151  1  0.18750000  0.42260000  0.13610000  1.0 0.0903218048
H  H152  1  0.42260000  0.13610000  0.18750000  1.0 0.0903218048
H  H153  1  0.13610000  0.18750000  0.42260000  1.0 0.0903218048
H  H154  1  0.81250000  0.86390000  0.57740000  1.0 0.0903218048
H  H155  1  0.57740000  0.81250000  0.86390000  1.0 0.0903218048
H  H156  1  0.86390000  0.57740000  0.81250000  1.0 0.0903218048
H  H157  1  0.87230000  0.56400000  0.81000000  1.0 0.1022986828
H  H158  1  0.56400000  0.81000000  0.87230000  1.0 0.1022986828
H  H159  1  0.81000000  0.87230000  0.56400000  1.0 0.1022986828
H  H160  1  0.12770000  0.19000000  0.43600000  1.0 0.1022986828
H  H161  1  0.43600000  0.12770000  0.19000000  1.0 0.1022986828
H  H162  1  0.19000000  0.43600000  0.12770000  1.0 0.1022986828
H  H163  1  0.12770000  0.43600000  0.19000000  1.0 0.1022986828
H  H164  1  0.43600000  0.19000000  0.12770000  1.0 0.1022986828
H  H165  1  0.19000000  0.12770000  0.43600000  1.0 0.1022986828
H  H166  1  0.87230000  0.81000000  0.56400000  1.0 0.1022986828
H  H167  1  0.56400000  0.87230000  0.81000000  1.0 0.1022986828
H  H168  1  0.81000000  0.56400000  0.87230000  1.0 0.1022986828
C  C1  1  0.47545000  0.18390000  0.47545000  1.0 0.0577394753
C  C2  1  0.18390000  0.47545000  0.47545000  1.0 0.0577394753
C  C3  1  0.47545000  0.47545000  0.18390000  1.0 0.0577394753
C  C4  1  0.52455000  0.52455000  0.81610000  1.0 0.0577394753
C  C5  1  0.81610000  0.52455000  0.52455000  1.0 0.0577394753
C  C6  1  0.52455000  0.81610000  0.52455000  1.0 0.0577394753
C  C7  1  0.51120000  0.11996000  0.41904000  1.0 0.5481442723
C  C8  1  0.11996000  0.41904000  0.51120000  1.0 0.5481442723
C  C9  1  0.41904000  0.51120000  0.11996000  1.0 0.5481442723
C  C10  1  0.48880000  0.58096000  0.88004000  1.0 0.5481442723
C  C11  1  0.88004000  0.48880000  0.58096000  1.0 0.5481442723
C  C12  1  0.58096000  0.88004000  0.48880000  1.0 0.5481442723
C  C13  1  0.48880000  0.88004000  0.58096000  1.0 0.5481442723
C  C14  1  0.88004000  0.58096000  0.48880000  1.0 0.5481442723
C  C15  1  0.58096000  0.48880000  0.88004000  1.0 0.5481442723
C  C16  1  0.51120000  0.41904000  0.11996000  1.0 0.5481442723
C  C17  1  0.11996000  0.51120000  0.41904000  1.0 0.5481442723
C  C18  1  0.41904000  0.11996000  0.51120000  1.0 0.5481442723
C  C19  1  0.58445000  0.31630000  0.58445000  1.0 -0.4988751696
C  C20  1  0.31630000  0.58445000  0.58445000  1.0 -0.4988751696
C  C21  1  0.58445000  0.58445000  0.31630000  1.0 -0.4988751696
C  C22  1  0.41555000  0.41555000  0.68370000  1.0 -0.4988751696
C  C23  1  0.68370000  0.41555000  0.41555000  1.0 -0.4988751696
C  C24  1  0.41555000  0.68370000  0.41555000  1.0 -0.4988751696
C  C25  1  0.37990000  0.16740000  0.37990000  1.0 -0.5172581063
C  C26  1  0.16740000  0.37990000  0.37990000  1.0 -0.5172581063
C  C27  1  0.37990000  0.37990000  0.16740000  1.0 -0.5172581063
C  C28  1  0.62010000  0.62010000  0.83260000  1.0 -0.5172581063
C  C29  1  0.83260000  0.62010000  0.62010000  1.0 -0.5172581063
C  C30  1  0.62010000  0.83260000  0.62010000  1.0 -0.5172581063
C  C31  1  0.09434000  0.68905000  0.00381000  1.0 0.5481442723
C  C32  1  0.68905000  0.00381000  0.09434000  1.0 0.5481442723
C  C33  1  0.00381000  0.09434000  0.68905000  1.0 0.5481442723
C  C34  1  0.90566000  0.99619000  0.31095000  1.0 0.5481442723
C  C35  1  0.31095000  0.90566000  0.99619000  1.0 0.5481442723
C  C36  1  0.99619000  0.31095000  0.90566000  1.0 0.5481442723
C  C37  1  0.90566000  0.31095000  0.99619000  1.0 0.5481442723
C  C38  1  0.31095000  0.99619000  0.90566000  1.0 0.5481442723
C  C39  1  0.99619000  0.90566000  0.31095000  1.0 0.5481442723
C  C40  1  0.09434000  0.00381000  0.68905000  1.0 0.5481442723
C  C41  1  0.68905000  0.09434000  0.00381000  1.0 0.5481442723
C  C42  1  0.00381000  0.68905000  0.09434000  1.0 0.5481442723
C  C43  1  0.99580000  0.68490000  0.99580000  1.0 0.0442353426
C  C44  1  0.68490000  0.99580000  0.99580000  1.0 0.0442353426
C  C45  1  0.99580000  0.99580000  0.68490000  1.0 0.0442353426
C  C46  1  0.00420000  0.00420000  0.31510000  1.0 0.0442353426
C  C47  1  0.31510000  0.00420000  0.00420000  1.0 0.0442353426
C  C48  1  0.00420000  0.31510000  0.00420000  1.0 0.0442353426
C  C49  1  0.87135000  0.57170000  0.87135000  1.0 -0.5172581063
C  C50  1  0.57170000  0.87135000  0.87135000  1.0 -0.5172581063
C  C51  1  0.87135000  0.87135000  0.57170000  1.0 -0.5172581063
C  C52  1  0.12865000  0.12865000  0.42830000  1.0 -0.5172581063
C  C53  1  0.42830000  0.12865000  0.12865000  1.0 -0.5172581063
C  C54  1  0.12865000  0.42830000  0.12865000  1.0 -0.5172581063
C  C55  1  0.02075000  0.79640000  0.02075000  1.0 -0.5290264374
C  C56  1  0.79640000  0.02075000  0.02075000  1.0 -0.5290264374
C  C57  1  0.02075000  0.02075000  0.79640000  1.0 -0.5290264374
C  C58  1  0.97925000  0.97925000  0.20360000  1.0 -0.5290264374
C  C59  1  0.20360000  0.97925000  0.97925000  1.0 -0.5290264374
C  C60  1  0.97925000  0.20360000  0.97925000  1.0 -0.5290264374
O  O1  1  0.49045000  0.89078000  0.25197000  1.0 -0.7317669726
O  O2  1  0.89078000  0.25197000  0.49045000  1.0 -0.7317669726
O  O3  1  0.25197000  0.49045000  0.89078000  1.0 -0.7317669726
O  O4  1  0.50955000  0.74803000  0.10922000  1.0 -0.7317669726
O  O5  1  0.10922000  0.50955000  0.74803000  1.0 -0.7317669726
O  O6  1  0.74803000  0.10922000  0.50955000  1.0 -0.7317669726
O  O7  1  0.50955000  0.10922000  0.74803000  1.0 -0.7317669726
O  O8  1  0.10922000  0.74803000  0.50955000  1.0 -0.7317669726
O  O9  1  0.74803000  0.50955000  0.10922000  1.0 -0.7317669726
O  O10  1  0.49045000  0.25197000  0.89078000  1.0 -0.7317669726
O  O11  1  0.89078000  0.49045000  0.25197000  1.0 -0.7317669726
O  O12  1  0.25197000  0.89078000  0.49045000  1.0 -0.7317669726
O  O13  1  0.42629000  0.00849000  0.32502000  1.0 -0.5919984914
O  O14  1  0.00849000  0.32502000  0.42629000  1.0 -0.5919984914
O  O15  1  0.32502000  0.42629000  0.00849000  1.0 -0.5919984914
O  O16  1  0.57371000  0.67498000  0.99151000  1.0 -0.5919984914
O  O17  1  0.99151000  0.57371000  0.67498000  1.0 -0.5919984914
O  O18  1  0.67498000  0.99151000  0.57371000  1.0 -0.5919984914
O  O19  1  0.57371000  0.99151000  0.67498000  1.0 -0.5919984914
O  O20  1  0.99151000  0.67498000  0.57371000  1.0 -0.5919984914
O  O21  1  0.67498000  0.57371000  0.99151000  1.0 -0.5919984914
O  O22  1  0.42629000  0.32502000  0.00849000  1.0 -0.5919984914
O  O23  1  0.00849000  0.42629000  0.32502000  1.0 -0.5919984914
O  O24  1  0.32502000  0.00849000  0.42629000  1.0 -0.5919984914
O  O25  1  0.61536000  0.17956000  0.46588000  1.0 -0.5172581063
O  O26  1  0.17956000  0.46588000  0.61536000  1.0 -0.5172581063
O  O27  1  0.46588000  0.61536000  0.17956000  1.0 -0.5172581063
O  O28  1  0.38464000  0.53412000  0.82044000  1.0 -0.5172581063
O  O29  1  0.82044000  0.38464000  0.53412000  1.0 -0.5172581063
O  O30  1  0.53412000  0.82044000  0.38464000  1.0 -0.5172581063
O  O31  1  0.38464000  0.82044000  0.53412000  1.0 -0.5172581063
O  O32  1  0.82044000  0.53412000  0.38464000  1.0 -0.5172581063
O  O33  1  0.53412000  0.38464000  0.82044000  1.0 -0.5172581063
O  O34  1  0.61536000  0.46588000  0.17956000  1.0 -0.5172581063
O  O35  1  0.17956000  0.61536000  0.46588000  1.0 -0.5172581063
O  O36  1  0.46588000  0.17956000  0.61536000  1.0 -0.5172581063
O  O37  1  0.20242000  0.78362000  0.09876000  1.0 -0.653755142
O  O38  1  0.78362000  0.09876000  0.20242000  1.0 -0.653755142
O  O39  1  0.09876000  0.20242000  0.78362000  1.0 -0.653755142
O  O40  1  0.79758000  0.90124000  0.21638000  1.0 -0.653755142
O  O41  1  0.21638000  0.79758000  0.90124000  1.0 -0.653755142
O  O42  1  0.90124000  0.21638000  0.79758000  1.0 -0.653755142
O  O43  1  0.79758000  0.21638000  0.90124000  1.0 -0.653755142
O  O44  1  0.21638000  0.90124000  0.79758000  1.0 -0.653755142
O  O45  1  0.90124000  0.79758000  0.21638000  1.0 -0.653755142
O  O46  1  0.20242000  0.09876000  0.78362000  1.0 -0.653755142
O  O47  1  0.78362000  0.20242000  0.09876000  1.0 -0.653755142
O  O48  1  0.09876000  0.78362000  0.20242000  1.0 -0.653755142
O  O49  1  0.06558000  0.60189000  0.92053000  1.0 -0.5708578364
O  O50  1  0.60189000  0.92053000  0.06558000  1.0 -0.5708578364
O  O51  1  0.92053000  0.06558000  0.60189000  1.0 -0.5708578364
O  O52  1  0.93442000  0.07947000  0.39811000  1.0 -0.5708578364
O  O53  1  0.39811000  0.93442000  0.07947000  1.0 -0.5708578364
O  O54  1  0.07947000  0.39811000  0.93442000  1.0 -0.5708578364
O  O55  1  0.93442000  0.39811000  0.07947000  1.0 -0.5708578364
O  O56  1  0.39811000  0.07947000  0.93442000  1.0 -0.5708578364
O  O57  1  0.07947000  0.93442000  0.39811000  1.0 -0.5708578364
O  O58  1  0.06558000  0.92053000  0.60189000  1.0 -0.5708578364
O  O59  1  0.60189000  0.06558000  0.92053000  1.0 -0.5708578364
O  O60  1  0.92053000  0.60189000  0.06558000  1.0 -0.5708578364
