# DDEC6 charges by PACMAN v1.1 (https://github.com/mtap-research/PACMAN-charge/)
data_NOSJIQ_ion_pacman
_symmetry_space_group_name_H-M   'P 1'
_cell_length_a   24.45300000
_cell_length_b   24.45300000
_cell_length_c   24.42400000
_cell_angle_alpha   87.08020000
_cell_angle_beta   92.91980000
_cell_angle_gamma   94.02520000
_symmetry_Int_Tables_number   1
_chemical_formula_structural   Dy26Cu3H114C168N24ClO134
_chemical_formula_sum   'Dy52 Cu6 H228 C336 N48 Cl2 O268'
_cell_volume   14532.92292107
_cell_formula_units_Z   2
loop_
 _symmetry_equiv_pos_site_id
 _symmetry_equiv_pos_as_xyz
  1  'x, y, z'
loop_
 _atom_site_type_symbol
 _atom_site_label
 _atom_site_symmetry_multiplicity
 _atom_site_fract_x
 _atom_site_fract_y
 _atom_site_fract_z
 _atom_site_occupancy
 _atom_site_charge
Dy  Dy1  1  0.29706000  0.43570000  0.49178000  1.0 2.1165717823
Dy  Dy2  1  0.56430000  0.70294000  0.99178000  1.0 2.1165717823
Dy  Dy3  1  0.21798000  0.52080000  0.58483000  1.0 2.1391175174
Dy  Dy4  1  0.47920000  0.78202000  0.08483000  1.0 2.1391175174
Dy  Dy5  1  0.28498000  0.51432000  0.34927000  1.0 2.0387369775
Dy  Dy6  1  0.48568000  0.71502000  0.84927000  1.0 2.0387369775
Dy  Dy7  1  0.16387000  0.23557000  0.37673000  1.0 2.161894884
Dy  Dy8  1  0.76443000  0.83613000  0.87673000  1.0 2.161894884
Dy  Dy9  1  0.14434000  0.34052000  0.26098000  1.0 2.1778546555
Dy  Dy10  1  0.65948000  0.85566000  0.76098000  1.0 2.1778546555
Dy  Dy11  1  0.98508000  0.55678000  0.34117000  1.0 2.1453285598
Dy  Dy12  1  0.44322000  0.01492000  0.84117000  1.0 2.1453285598
Dy  Dy13  1  0.06307000  0.47137000  0.24907000  1.0 2.1717337353
Dy  Dy14  1  0.52863000  0.93693000  0.74907000  1.0 2.1717337353
Dy  Dy15  1  0.26864000  0.35604000  0.36005000  1.0 2.1301872714
Dy  Dy16  1  0.64396000  0.73136000  0.86005000  1.0 2.1301872714
Dy  Dy17  1  0.95549000  0.30431000  0.56014000  1.0 2.1097115829
Dy  Dy18  1  0.69569000  0.04451000  0.06014000  1.0 2.1165717823
Dy  Dy19  1  0.03478000  0.22034000  0.46649000  1.0 2.1097115829
Dy  Dy20  1  0.77966000  0.96522000  0.96649000  1.0 2.1097115829
Dy  Dy21  1  0.13505000  0.58723000  0.32355000  1.0 2.1778546555
Dy  Dy22  1  0.41277000  0.86495000  0.82355000  1.0 2.1778546555
Dy  Dy23  1  0.94651000  0.55615000  0.49264000  1.0 2.1097115829
Dy  Dy24  1  0.44385000  0.05349000  0.99264000  1.0 2.1097115829
Dy  Dy25  1  0.07178000  0.57136000  0.59023000  1.0 2.1301872714
Dy  Dy26  1  0.42864000  0.92822000  0.09023000  1.0 2.1301872714
Dy  Dy27  1  0.25976000  0.24438000  0.26015000  1.0 2.1301872714
Dy  Dy28  1  0.75562000  0.74024000  0.76015000  1.0 2.1301872714
Dy  Dy29  1  0.91724000  0.29818000  0.41132000  1.0 2.161894884
Dy  Dy30  1  0.70182000  0.08276000  0.91132000  1.0 2.161894884
Dy  Dy31  1  0.06858000  0.34842000  0.67025000  1.0 2.0798459433
Dy  Dy32  1  0.65158000  0.93142000  0.17025000  1.0 2.0798459433
Dy  Dy33  1  0.17086000  0.63676000  0.48029000  1.0 2.0140698337
Dy  Dy34  1  0.36324000  0.82914000  0.98029000  1.0 2.0140698337
Dy  Dy35  1  0.96623000  0.45431000  0.61437000  1.0 2.1391175174
Dy  Dy36  1  0.54569000  0.03377000  0.11437000  1.0 2.1391175174
Dy  Dy37  1  0.35188000  0.47348000  0.63128000  1.0 2.0618550562
Dy  Dy38  1  0.52652000  0.64812000  0.13128000  1.0 2.0618550562
Dy  Dy39  1  0.22469000  0.36957000  0.61071000  1.0 2.1778546555
Dy  Dy40  1  0.63043000  0.77531000  0.11071000  1.0 2.1778546555
Dy  Dy41  1  0.87171000  0.45283000  0.39252000  1.0 2.0208239936
Dy  Dy42  1  0.54717000  0.12829000  0.89252000  1.0 2.0208239936
Dy  Dy43  1  0.18181000  0.22337000  0.53502000  1.0 2.0326532506
Dy  Dy44  1  0.77663000  0.81819000  0.03502000  1.0 2.0326532506
Dy  Dy45  1  0.02720000  0.61266000  0.20338000  1.0 2.161894884
Dy  Dy46  1  0.38734000  0.97280000  0.70338000  1.0 2.1717337353
Dy  Dy47  1  0.93204000  0.60402000  0.63224000  1.0 2.0618550562
Dy  Dy48  1  0.39598000  0.06796000  0.13224000  1.0 2.0618550562
Dy  Dy49  1  0.89506000  0.16946000  0.50956000  1.0 2.1097115829
Dy  Dy50  1  0.83054000  0.10494000  0.00956000  1.0 2.1097115829
Dy  Dy51  1  0.98485000  0.32519000  0.25532000  1.0 2.0899607324
Dy  Dy52  1  0.67481000  0.01515000  0.75532000  1.0 2.0899607324
Cu  Cu1  1  0.57570000  0.41696000  0.36408000  1.0 0.2271944069
Cu  Cu2  1  0.58304000  0.42430000  0.86408000  1.0 0.2271944069
Cu  Cu3  1  0.34737000  0.43353000  0.04635000  1.0 0.2271944069
Cu  Cu4  1  0.56647000  0.65263000  0.54635000  1.0 0.2271944069
Cu  Cu5  1  0.46183000  0.13629000  0.44329000  1.0 0.2096923821
Cu  Cu6  1  0.86371000  0.53817000  0.94329000  1.0 0.2096923821
H  H1  1  0.58060000  0.31220000  0.41950000  1.0 0.100778981
H  H2  1  0.68780000  0.41940000  0.91950000  1.0 0.100778981
H  H3  1  0.63910000  0.24010000  0.45470000  1.0 0.1295906946
H  H4  1  0.75990000  0.36090000  0.95470000  1.0 0.1295906946
H  H5  1  0.73370000  0.25570000  0.44550000  1.0 0.1495805232
H  H6  1  0.74430000  0.26630000  0.94550000  1.0 0.1495805232
H  H7  1  0.70680000  0.40460000  0.36420000  1.0 0.1295906946
H  H8  1  0.59540000  0.29320000  0.86420000  1.0 0.1295906946
H  H9  1  0.66666667  0.49990000  0.39320000  1.0 0.1097116563
H  H10  1  0.50010000  0.33333333  0.89320000  1.0 0.1097116563
H  H11  1  0.71440000  0.57320000  0.34610000  1.0 0.1600439267
H  H12  1  0.42680000  0.28560000  0.84610000  1.0 0.1600439267
H  H13  1  0.66780000  0.62780000  0.28290000  1.0 0.1295906946
H  H14  1  0.37220000  0.33220000  0.78290000  1.0 0.1295906946
H  H15  1  0.55560000  0.49580000  0.26970000  1.0 0.1097116563
H  H16  1  0.50420000  0.44440000  0.76970000  1.0 0.1097116563
H  H17  1  0.58070000  0.36010000  0.26780000  1.0 0.1097116563
H  H18  1  0.63990000  0.41930000  0.76780000  1.0 0.1097116563
H  H19  1  0.52770000  0.29470000  0.21370000  1.0 0.1295906946
H  H20  1  0.70530000  0.47230000  0.71370000  1.0 0.1295906946
H  H21  1  0.43490000  0.26830000  0.23150000  1.0 0.14021822
H  H22  1  0.73170000  0.56510000  0.73150000  1.0 0.14021822
H  H23  1  0.45220000  0.37760000  0.34800000  1.0 0.1295906946
H  H24  1  0.62240000  0.54780000  0.84800000  1.0 0.1295906946
H  H25  1  0.62760000  0.44460000  0.46680000  1.0 0.1190894659
H  H26  1  0.55540000  0.37240000  0.96680000  1.0 0.1190894659
H  H27  1  0.61190000  0.44630000  0.55670000  1.0 0.1295906946
H  H28  1  0.55370000  0.38810000  0.05670000  1.0 0.1295906946
H  H29  1  0.52320000  0.46400000  0.58170000  1.0 0.1295906946
H  H30  1  0.53600000  0.47680000  0.08170000  1.0 0.1295906946
H  H31  1  0.47170000  0.45090000  0.42400000  1.0 0.1295906946
H  H32  1  0.54910000  0.52830000  0.92400000  1.0 0.1295906946
H  H33  1  0.39370000  0.41590000  0.93610000  1.0 0.1097116563
H  H34  1  0.58410000  0.60630000  0.43610000  1.0 0.1097116563
H  H35  1  0.43400000  0.46420000  0.86900000  1.0 0.1295906946
H  H36  1  0.53580000  0.56600000  0.36900000  1.0 0.1295906946
H  H37  1  0.43550000  0.55990000  0.86230000  1.0 0.1495805232
H  H38  1  0.44010000  0.56450000  0.36230000  1.0 0.1495805232
H  H39  1  0.38740000  0.54940000  0.01660000  1.0 0.1190894659
H  H40  1  0.45060000  0.61260000  0.51660000  1.0 0.1190894659
H  H41  1  0.43780000  0.33560000  0.00430000  1.0 0.1190894659
H  H42  1  0.66440000  0.56220000  0.50430000  1.0 0.1190894659
H  H43  1  0.46110000  0.26630000  0.05840000  1.0 0.1495805232
H  H44  1  0.73370000  0.53890000  0.55840000  1.0 0.1495805232
H  H45  1  0.41170000  0.23030000  0.13160000  1.0 0.1295906946
H  H46  1  0.76970000  0.58830000  0.63160000  1.0 0.1295906946
H  H47  1  0.30190000  0.33570000  0.09310000  1.0 0.1190894659
H  H48  1  0.66430000  0.69810000  0.59310000  1.0 0.1190894659
H  H49  1  0.45860000  0.42440000  0.10850000  1.0 0.1097116563
H  H50  1  0.57560000  0.54140000  0.60850000  1.0 0.1097116563
H  H51  1  0.50380000  0.44640000  0.18630000  1.0 0.1295906946
H  H52  1  0.55360000  0.49620000  0.68630000  1.0 0.1295906946
H  H53  1  0.45840000  0.48100000  0.25540000  1.0 0.1295906946
H  H54  1  0.51900000  0.54160000  0.75540000  1.0 0.1295906946
H  H55  1  0.31770000  0.45710000  0.16560000  1.0 0.1190894659
H  H56  1  0.54290000  0.68230000  0.66560000  1.0 0.1190894659
H  H57  1  0.27070000  0.50090000  0.99360000  1.0 0.1097116563
H  H58  1  0.49910000  0.72930000  0.49360000  1.0 0.1097116563
H  H59  1  0.19700000  0.55100000  0.01370000  1.0 0.14021822
H  H60  1  0.44900000  0.80300000  0.51370000  1.0 0.14021822
H  H61  1  0.15480000  0.53020000  0.09790000  1.0 0.1600439267
H  H62  1  0.46980000  0.84520000  0.59790000  1.0 0.1600439267
H  H63  1  0.25170000  0.40330000  0.12060000  1.0 0.1295906946
H  H64  1  0.59670000  0.74830000  0.62060000  1.0 0.1295906946
H  H65  1  0.57390000  0.10150000  0.45520000  1.0 0.100778981
H  H66  1  0.89850000  0.42610000  0.95520000  1.0 0.100778981
H  H67  1  0.62270000  0.03130000  0.50580000  1.0 0.14021822
H  H68  1  0.96870000  0.37730000  0.00580000  1.0 0.14021822
H  H69  1  0.58790000  0.00310000  0.58730000  1.0 0.1495805232
H  H70  1  0.99690000  0.41210000  0.08730000  1.0 0.1495805232
H  H71  1  0.45240000  0.06820000  0.55330000  1.0 0.1295906946
H  H72  1  0.93180000  0.54760000  0.05330000  1.0 0.1295906946
H  H73  1  0.52540000  0.21420000  0.52770000  1.0 0.1190894659
H  H74  1  0.78580000  0.47460000  0.02770000  1.0 0.1190894659
H  H75  1  0.51800000  0.29000000  0.57070000  1.0 0.14021822
H  H76  1  0.71000000  0.48200000  0.07070000  1.0 0.14021822
H  H77  1  0.44050000  0.33690000  0.55010000  1.0 0.14021822
H  H78  1  0.66310000  0.55950000  0.05010000  1.0 0.14021822
H  H79  1  0.40190000  0.24010000  0.42260000  1.0 0.1295906946
H  H80  1  0.75990000  0.59810000  0.92260000  1.0 0.1295906946
H  H81  1  0.55650000  0.19650000  0.39000000  1.0 0.090661651
H  H82  1  0.80350000  0.44350000  0.89000000  1.0 0.090661651
H  H83  1  0.59270000  0.19590000  0.30580000  1.0 0.14021822
H  H84  1  0.80410000  0.40730000  0.80580000  1.0 0.14021822
H  H85  1  0.53540000  0.19540000  0.22650000  1.0 0.1295906946
H  H86  1  0.80460000  0.46460000  0.72650000  1.0 0.1295906946
H  H87  1  0.42870000  0.11110000  0.32490000  1.0 0.1190894659
H  H88  1  0.88890000  0.57130000  0.82490000  1.0 0.1190894659
H  H89  1  0.39760000  0.02640000  0.44520000  1.0 0.100778981
H  H90  1  0.97360000  0.60240000  0.94520000  1.0 0.100778981
H  H91  1  0.32350000  0.99090000  0.48510000  1.0 0.1495805232
H  H92  1  0.00910000  0.67650000  0.98510000  1.0 0.1495805232
H  H93  1  0.25680000  0.04200000  0.51730000  1.0 0.14021822
H  H94  1  0.95800000  0.74320000  0.01730000  1.0 0.14021822
H  H95  1  0.34940000  0.16960000  0.45850000  1.0 0.1190894659
H  H96  1  0.83040000  0.65060000  0.95850000  1.0 0.1190894659
H  H97  1  0.87500000  0.10320000  0.82850000  1.0 0.1295906946
H  H98  1  0.89680000  0.12500000  0.32850000  1.0 0.1295906946
H  H99  1  0.93300000  0.18360000  0.82510000  1.0 0.14021822
H  H100  1  0.81640000  0.06700000  0.32510000  1.0 0.14021822
H  H101  1  0.94110000  0.23010000  0.73940000  1.0 0.14021822
H  H102  1  0.76990000  0.05890000  0.23940000  1.0 0.1495805232
H  H103  1  0.83090000  0.12290000  0.66890000  1.0 0.1190894659
H  H104  1  0.87710000  0.16910000  0.16890000  1.0 0.1190894659
H  H105  1  0.64160000  0.37640000  0.59690000  1.0 0.1190894659
H  H106  1  0.62360000  0.35840000  0.09690000  1.0 0.1190894659
H  H107  1  0.68580000  0.44380000  0.63720000  1.0 0.1190894659
H  H108  1  0.55620000  0.31420000  0.13720000  1.0 0.1190894659
H  H109  1  0.78250000  0.45010000  0.63070000  1.0 0.1295906946
H  H110  1  0.54990000  0.21750000  0.13070000  1.0 0.1295906946
H  H111  1  0.77870000  0.31250000  0.55590000  1.0 0.1295906946
H  H112  1  0.68750000  0.22130000  0.05590000  1.0 0.1295906946
H  H113  1  0.76260000  0.44420000  0.29210000  1.0 0.1678087179
H  H114  1  0.55580000  0.23740000  0.79210000  1.0 0.1678087179
H  H115  1  0.75550000  0.45510000  0.22840000  1.0 0.1495805232
H  H116  1  0.54490000  0.24450000  0.72840000  1.0 0.1495805232
H  H117  1  0.77520000  0.39880000  0.25240000  1.0 0.1755496992
H  H118  1  0.60120000  0.22480000  0.75240000  1.0 0.1755496992
H  H119  1  0.03290000  0.50130000  0.93650000  1.0 0.1295906946
H  H120  1  0.49870000  0.96710000  0.43650000  1.0 0.1295906946
H  H121  1  0.99140000  0.55540000  0.87070000  1.0 0.1295906946
H  H122  1  0.44460000  0.00860000  0.37070000  1.0 0.1295906946
H  H123  1  0.97710000  0.52530000  0.78320000  1.0 0.14021822
H  H124  1  0.47470000  0.02290000  0.28320000  1.0 0.14021822
H  H125  1  0.05410000  0.39070000  0.84480000  1.0 0.1295906946
H  H126  1  0.60930000  0.94590000  0.34480000  1.0 0.1295906946
H  H127  1  0.28080000  0.40080000  0.93190000  1.0 0.1097116563
H  H128  1  0.59920000  0.71920000  0.43190000  1.0 0.1097116563
H  H129  1  0.18560000  0.37540000  0.92620000  1.0 0.14021822
H  H130  1  0.62460000  0.81440000  0.42620000  1.0 0.14021822
H  H131  1  0.14340000  0.36020000  0.83980000  1.0 0.1295906946
H  H132  1  0.63980000  0.85660000  0.33980000  1.0 0.1295906946
H  H133  1  0.29190000  0.38350000  0.76970000  1.0 0.14021822
H  H134  1  0.61650000  0.70810000  0.26970000  1.0 0.14021822
H  H135  1  0.45840000  0.15560000  0.65660000  1.0 0.1295906946
H  H136  1  0.84440000  0.54160000  0.15660000  1.0 0.1295906946
H  H137  1  0.46170000  0.24130000  0.69070000  1.0 0.1295906946
H  H138  1  0.75870000  0.53830000  0.19070000  1.0 0.1295906946
H  H139  1  0.38050000  0.28650000  0.66460000  1.0 0.1495805232
H  H140  1  0.71350000  0.61950000  0.16460000  1.0 0.1495805232
H  H141  1  0.30580000  0.14400000  0.60520000  1.0 0.1190894659
H  H142  1  0.85600000  0.69420000  0.10520000  1.0 0.1190894659
H  H143  1  0.28050000  0.92950000  0.36080000  1.0 0.1295906946
H  H144  1  0.07050000  0.71950000  0.86080000  1.0 0.1295906946
H  H145  1  0.33470000  0.97970000  0.30750000  1.0 0.14021822
H  H146  1  0.02030000  0.66530000  0.80750000  1.0 0.14021822
H  H147  1  0.32090000  0.07930000  0.29680000  1.0 0.1295906946
H  H148  1  0.92070000  0.67910000  0.79680000  1.0 0.1295906946
H  H149  1  0.18990000  0.05090000  0.39150000  1.0 0.1190894659
H  H150  1  0.94910000  0.81010000  0.89150000  1.0 0.1190894659
H  H151  1  0.01770000  0.94510000  0.29840000  1.0 0.1190894659
H  H152  1  0.05490000  0.98230000  0.79840000  1.0 0.1190894659
H  H153  1  0.96050000  0.98050000  0.35840000  1.0 0.14021822
H  H154  1  0.01950000  0.03950000  0.85840000  1.0 0.14021822
H  H155  1  0.96820000  0.07580000  0.36360000  1.0 0.1295906946
H  H156  1  0.92420000  0.03180000  0.86360000  1.0 0.1295906946
H  H157  1  0.11830000  0.08210000  0.30490000  1.0 0.1190894659
H  H158  1  0.91790000  0.88170000  0.80490000  1.0 0.1190894659
H  H159  1  0.32780000  0.63400000  0.06210000  1.0 0.1295906946
H  H160  1  0.36600000  0.67220000  0.56210000  1.0 0.1295906946
H  H161  1  0.37610000  0.59230000  0.13010000  1.0 0.301774361
H  H162  1  0.40770000  0.62390000  0.63010000  1.0 0.301774361
H  H163  1  0.34340000  0.58060000  0.21240000  1.0 0.1190894659
H  H164  1  0.41940000  0.65660000  0.71240000  1.0 0.1190894659
H  H165  1  0.19690000  0.63730000  0.16270000  1.0 0.1295906946
H  H166  1  0.36270000  0.80310000  0.66270000  1.0 0.1295906946
H  H167  1  0.75110000  0.75690000  0.27510000  1.0 0.100778981
H  H168  1  0.24310000  0.24890000  0.77510000  1.0 0.100778981
H  H169  1  0.82400000  0.79000000  0.22020000  1.0 0.1495805232
H  H170  1  0.21000000  0.17600000  0.72020000  1.0 0.1495805232
H  H171  1  0.89830000  0.73870000  0.22130000  1.0 0.1295906946
H  H172  1  0.26130000  0.10170000  0.72130000  1.0 0.1295906946
H  H173  1  0.82120000  0.61900000  0.31150000  1.0 0.14021822
H  H174  1  0.38100000  0.17880000  0.81150000  1.0 0.14021822
H  H175  1  0.12200000  0.91300000  0.36880000  1.0 0.1190894659
H  H176  1  0.08700000  0.87800000  0.86880000  1.0 0.1190894659
H  H177  1  0.08160000  0.86380000  0.29900000  1.0 0.1295906946
H  H178  1  0.13620000  0.91840000  0.79900000  1.0 0.1295906946
H  H179  1  0.08060000  0.76560000  0.30820000  1.0 0.1495805232
H  H180  1  0.23440000  0.91940000  0.80820000  1.0 0.1495805232
H  H181  1  0.19440000  0.78580000  0.43360000  1.0 0.1097116563
H  H182  1  0.21420000  0.80560000  0.93360000  1.0 0.1097116563
H  H183  1  0.18610000  0.56670000  0.91280000  1.0 0.100778981
H  H184  1  0.43330000  0.81390000  0.41280000  1.0 0.100778981
H  H185  1  0.23090000  0.50250000  0.87260000  1.0 0.1190894659
H  H186  1  0.49750000  0.76910000  0.37260000  1.0 0.1190894659
H  H187  1  0.21440000  0.49180000  0.78040000  1.0 0.1295906946
H  H188  1  0.50820000  0.78560000  0.28040000  1.0 0.1295906946
H  H189  1  0.09870000  0.58710000  0.77840000  1.0 0.1295906946
H  H190  1  0.41290000  0.90130000  0.27840000  1.0 0.1295906946
H  H191  1  0.26860000  0.70120000  0.82470000  1.0 0.1190894659
H  H192  1  0.29880000  0.73140000  0.32470000  1.0 0.1190894659
H  H193  1  0.30520000  0.62860000  0.86020000  1.0 0.1097116563
H  H194  1  0.37140000  0.69480000  0.36020000  1.0 0.1097116563
H  H195  1  0.33840000  0.57580000  0.78690000  1.0 0.1190894659
H  H196  1  0.42420000  0.66160000  0.28690000  1.0 0.1190894659
H  H197  1  0.22030000  0.64790000  0.69540000  1.0 0.1190894659
H  H198  1  0.35210000  0.77970000  0.19540000  1.0 0.1190894659
H  H199  1  0.95220000  0.75000000  0.43530000  1.0 0.1755496992
H  H200  1  0.25000000  0.04780000  0.93530000  1.0 0.1755496992
H  H201  1  0.99870000  0.74850000  0.39370000  1.0 0.1678087179
H  H202  1  0.25150000  0.00130000  0.89370000  1.0 0.1678087179
H  H203  1  0.93710000  0.74350000  0.37280000  1.0 0.1495805232
H  H204  1  0.25650000  0.06290000  0.87280000  1.0 0.1495805232
H  H205  1  0.11020000  0.73800000  0.67750000  1.0 0.1600439267
H  H206  1  0.26200000  0.88980000  0.17750000  1.0 0.1600439267
H  H207  1  0.05220000  0.76200000  0.67130000  1.0 0.1600439267
H  H208  1  0.23800000  0.94780000  0.17130000  1.0 0.1600439267
H  H209  1  0.06820000  0.72620000  0.72390000  1.0 0.14021822
H  H210  1  0.27380000  0.93180000  0.22390000  1.0 0.14021822
H  H211  1  0.78170000  0.23430000  0.31160000  1.0 0.1600439267
H  H212  1  0.76570000  0.21830000  0.81160000  1.0 0.1600439267
H  H213  1  0.77890000  0.28830000  0.27430000  1.0 0.1600439267
H  H214  1  0.71170000  0.22110000  0.77430000  1.0 0.1600439267
H  H215  1  0.79030000  0.23290000  0.24850000  1.0 0.1600439267
H  H216  1  0.76710000  0.20970000  0.74850000  1.0 0.1600439267
H  H217  1  0.99360000  0.01000000  0.48170000  1.0 0.1600439267
H  H218  1  0.99000000  0.00640000  0.98170000  1.0 0.1600439267
H  H219  1  0.04250000  0.04150000  0.45160000  1.0 0.1495805232
H  H220  1  0.95850000  0.95750000  0.95160000  1.0 0.1495805232
H  H221  1  0.04970000  0.02350000  0.51400000  1.0 0.1755496992
H  H222  1  0.97650000  0.95030000  0.01400000  1.0 0.1755496992
H  H223  1  0.81010000  0.69770000  0.51810000  1.0 0.1678087179
H  H224  1  0.30230000  0.18990000  0.01810000  1.0 0.1678087179
H  H225  1  0.82700000  0.68340000  0.45960000  1.0 0.1678087179
H  H226  1  0.31660000  0.17300000  0.95960000  1.0 0.1678087179
H  H227  1  0.77750000  0.65010000  0.48700000  1.0 0.1600439267
H  H228  1  0.34990000  0.22250000  0.98700000  1.0 0.1600439267
C  C1  1  0.61820000  0.31760000  0.41460000  1.0 0.1097116563
C  C2  1  0.68240000  0.38180000  0.91460000  1.0 0.1097116563
C  C3  1  0.65410000  0.27210000  0.43750000  1.0 -0.1485966639
C  C4  1  0.72790000  0.34590000  0.93750000  1.0 -0.1485966639
C  C5  1  0.70960000  0.28100000  0.43120000  1.0 -0.0473493585
C  C6  1  0.71900000  0.29040000  0.93120000  1.0 -0.0473493585
C  C7  1  0.72890000  0.32930000  0.40260000  1.0 -0.0192876387
C  C8  1  0.67070000  0.27110000  0.90260000  1.0 -0.0192876387
C  C9  1  0.69270000  0.37230000  0.38160000  1.0 0.0034294811
C  C10  1  0.62770000  0.30730000  0.88160000  1.0 0.0034294811
C  C11  1  0.78930000  0.34370000  0.39490000  1.0 0.5886816167
C  C12  1  0.65630000  0.21070000  0.89490000  1.0 0.5886816167
C  C13  1  0.65450000  0.51310000  0.35880000  1.0 0.0790852391
C  C14  1  0.48690000  0.34550000  0.85880000  1.0 0.0790852391
C  C15  1  0.67920000  0.56140000  0.33333333  1.0 -0.1291408352
C  C16  1  0.43860000  0.32080000  0.83333000  1.0 -0.1291408352
C  C17  1  0.65560000  0.59180000  0.29220000  1.0 -0.0473493585
C  C18  1  0.40820000  0.34440000  0.79220000  1.0 -0.0473493585
C  C19  1  0.61050000  0.56410000  0.26450000  1.0 -0.0613801732
C  C20  1  0.43590000  0.38950000  0.76450000  1.0 -0.0613801732
C  C21  1  0.58730000  0.51230000  0.28600000  1.0 0.0179132106
C  C22  1  0.48770000  0.41270000  0.78600000  1.0 0.0179132106
C  C23  1  0.57900000  0.58920000  0.21820000  1.0 0.5406962537
C  C24  1  0.41080000  0.42100000  0.71820000  1.0 0.5406962537
C  C25  1  0.54420000  0.35080000  0.27520000  1.0 0.0577769971
C  C26  1  0.64920000  0.45580000  0.77520000  1.0 0.0577769971
C  C27  1  0.51080000  0.31080000  0.24140000  1.0 -0.1665987029
C  C28  1  0.68920000  0.48920000  0.74140000  1.0 -0.1665987029
C  C29  1  0.45570000  0.29610000  0.24900000  1.0 -0.0326060808
C  C30  1  0.70390000  0.54430000  0.74900000  1.0 -0.0326060808
C  C31  1  0.43620000  0.33080000  0.28840000  1.0 -0.0613801732
C  C32  1  0.66920000  0.56380000  0.78840000  1.0 -0.0613801732
C  C33  1  0.46850000  0.36170000  0.31970000  1.0 0.0518247888
C  C34  1  0.63830000  0.53150000  0.81970000  1.0 0.0518247888
C  C35  1  0.37520000  0.32380000  0.29720000  1.0 0.6359775447
C  C36  1  0.67620000  0.62480000  0.79720000  1.0 0.6359775447
C  C37  1  0.59150000  0.44350000  0.47750000  1.0 0.0704676256
C  C38  1  0.55650000  0.40850000  0.97750000  1.0 0.0704676256
C  C39  1  0.58310000  0.44830000  0.53050000  1.0 -0.1485966639
C  C40  1  0.55170000  0.41690000  0.03050000  1.0 -0.1485966639
C  C41  1  0.52980000  0.45620000  0.54580000  1.0 -0.0473493585
C  C42  1  0.54380000  0.47020000  0.04580000  1.0 -0.0473493585
C  C43  1  0.48530000  0.45190000  0.50420000  1.0 -0.0473493585
C  C44  1  0.54810000  0.51470000  0.00420000  1.0 -0.0473493585
C  C45  1  0.49860000  0.44720000  0.45200000  1.0 0.0426916868
C  C46  1  0.55280000  0.50140000  0.95200000  1.0 0.0426916868
C  C47  1  0.42720000  0.45940000  0.51980000  1.0 0.6008394543
C  C48  1  0.54060000  0.57280000  0.01980000  1.0 0.6008394543
C  C49  1  0.39890000  0.45370000  0.93810000  1.0 0.0304220498
C  C50  1  0.54630000  0.60110000  0.43810000  1.0 0.0304220498
C  C51  1  0.42060000  0.48280000  0.89730000  1.0 -0.1485966639
C  C52  1  0.51720000  0.57940000  0.39730000  1.0 -0.1485966639
C  C53  1  0.42480000  0.53980000  0.89380000  1.0 -0.0192876387
C  C54  1  0.46020000  0.57520000  0.39380000  1.0 -0.0192876387
C  C55  1  0.41180000  0.56460000  0.94050000  1.0 -0.0473493585
C  C56  1  0.43540000  0.58820000  0.44050000  1.0 -0.0473493585
C  C57  1  0.39340000  0.53240000  0.98450000  1.0 0.0518247888
C  C58  1  0.46760000  0.60660000  0.48450000  1.0 0.0518247888
C  C59  1  0.41680000  0.62740000  0.94550000  1.0 0.6008394543
C  C60  1  0.37260000  0.58320000  0.44550000  1.0 0.6008394543
C  C61  1  0.41510000  0.32230000  0.03210000  1.0 0.0304220498
C  C62  1  0.67770000  0.58490000  0.53210000  1.0 0.0304220498
C  C63  1  0.42840000  0.28160000  0.06460000  1.0 -0.1291408352
C  C64  1  0.71840000  0.57160000  0.56460000  1.0 -0.1291408352
C  C65  1  0.39850000  0.25830000  0.10840000  1.0 -0.0391932981
C  C66  1  0.74170000  0.60150000  0.60840000  1.0 -0.0391932981
C  C67  1  0.34820000  0.27900000  0.11530000  1.0 -0.0813536069
C  C68  1  0.72100000  0.65180000  0.61530000  1.0 -0.0813536069
C  C69  1  0.33440000  0.32100000  0.08470000  1.0 0.0304220498
C  C70  1  0.67900000  0.66560000  0.58470000  1.0 0.0304220498
C  C71  1  0.31530000  0.26010000  0.15930000  1.0 0.5406962537
C  C72  1  0.73990000  0.68470000  0.65930000  1.0 0.5406962537
C  C73  1  0.43870000  0.43750000  0.13600000  1.0 0.0518247888
C  C74  1  0.56250000  0.56130000  0.63600000  1.0 0.0518247888
C  C75  1  0.46620000  0.45020000  0.18240000  1.0 -0.1291408352
C  C76  1  0.54980000  0.53380000  0.68240000  1.0 -0.1291408352
C  C77  1  0.43900000  0.46860000  0.22420000  1.0 -0.0391932981
C  C78  1  0.53140000  0.56100000  0.72420000  1.0 -0.0391932981
C  C79  1  0.38120000  0.46880000  0.22030000  1.0 -0.0114728811
C  C80  1  0.53120000  0.61880000  0.72030000  1.0 -0.0192876387
C  C81  1  0.35570000  0.45610000  0.16960000  1.0 0.0577769971
C  C82  1  0.54390000  0.64430000  0.66960000  1.0 0.0577769971
C  C83  1  0.34740000  0.48340000  0.26700000  1.0 0.5406962537
C  C84  1  0.51660000  0.65260000  0.76700000  1.0 0.5406962537
C  C85  1  0.25240000  0.49120000  0.02560000  1.0 0.090661651
C  C86  1  0.50880000  0.74760000  0.52560000  1.0 0.090661651
C  C87  1  0.20790000  0.52250000  0.03740000  1.0 -0.1485966639
C  C88  1  0.47750000  0.79210000  0.53740000  1.0 -0.1485966639
C  C89  1  0.18130000  0.50870000  0.08590000  1.0 -0.0192876387
C  C90  1  0.49130000  0.81870000  0.58590000  1.0 -0.0192876387
C  C91  1  0.19610000  0.46130000  0.11570000  1.0 -0.0391932981
C  C92  1  0.53870000  0.80390000  0.61570000  1.0 -0.0391932981
C  C93  1  0.24080000  0.43400000  0.10000000  1.0 0.0179132106
C  C94  1  0.56600000  0.75920000  0.60000000  1.0 0.0179132106
C  C95  1  0.16820000  0.44260000  0.16800000  1.0 0.6215586671
C  C96  1  0.55740000  0.83180000  0.66800000  1.0 0.6215586671
C  C97  1  0.55830000  0.08130000  0.48450000  1.0 0.1097116563
C  C98  1  0.91870000  0.44170000  0.98450000  1.0 0.1097116563
C  C99  1  0.58950000  0.04250000  0.51650000  1.0 -0.1485966639
C  C100  1  0.95750000  0.41050000  0.01650000  1.0 -0.1485966639
C  C101  1  0.56680000  0.02400000  0.56280000  1.0 -0.0613801732
C  C102  1  0.97600000  0.43320000  0.06280000  1.0 -0.0613801732
C  C103  1  0.51730000  0.03270000  0.57680000  1.0 -0.0391932981
C  C104  1  0.96730000  0.48270000  0.07680000  1.0 -0.0391932981
C  C105  1  0.48830000  0.06270000  0.54480000  1.0 -0.0114728811
C  C106  1  0.93730000  0.51170000  0.04480000  1.0 -0.0114728811
C  C107  1  0.49490000  0.00250000  0.62890000  1.0 0.6291485065
C  C108  1  0.99750000  0.50510000  0.12890000  1.0 0.6291485065
C  C109  1  0.49700000  0.23580000  0.51520000  1.0 0.0518247888
C  C110  1  0.76420000  0.50300000  0.01520000  1.0 0.0518247888
C  C111  1  0.49250000  0.27950000  0.54310000  1.0 -0.1485966639
C  C112  1  0.72050000  0.50750000  0.04310000  1.0 -0.1485966639
C  C113  1  0.44850000  0.30790000  0.52930000  1.0 -0.0391932981
C  C114  1  0.69210000  0.55150000  0.02930000  1.0 -0.0391932981
C  C115  1  0.41290000  0.29310000  0.48080000  1.0 -0.0813536069
C  C116  1  0.70690000  0.58710000  0.98080000  1.0 -0.0813536069
C  C117  1  0.42340000  0.24960000  0.45360000  1.0 0.0179132106
C  C118  1  0.75040000  0.57660000  0.95360000  1.0 0.0179132106
C  C119  1  0.36500000  0.32180000  0.46290000  1.0 0.6215586671
C  C120  1  0.67820000  0.63500000  0.96290000  1.0 0.6215586671
C  C121  1  0.53660000  0.18060000  0.36070000  1.0 0.0304220498
C  C122  1  0.81940000  0.46340000  0.86070000  1.0 0.0304220498
C  C123  1  0.55550000  0.18610000  0.30840000  1.0 -0.1665987029
C  C124  1  0.81390000  0.44450000  0.80840000  1.0 -0.1665987029
C  C125  1  0.52630000  0.17890000  0.26030000  1.0 -0.0473493585
C  C126  1  0.82110000  0.47370000  0.76030000  1.0 -0.0473493585
C  C127  1  0.48100000  0.14300000  0.26900000  1.0 -0.0391932981
C  C128  1  0.85700000  0.51900000  0.76900000  1.0 -0.0391932981
C  C129  1  0.46170000  0.13230000  0.32150000  1.0 0.0426916868
C  C130  1  0.86770000  0.53830000  0.82150000  1.0 0.0426916868
C  C131  1  0.45070000  0.11390000  0.22250000  1.0 0.5406962537
C  C132  1  0.88610000  0.54930000  0.72250000  1.0 0.5406962537
C  C133  1  0.37280000  0.04920000  0.45820000  1.0 0.0304220498
C  C134  1  0.95080000  0.62720000  0.95820000  1.0 0.0304220498
C  C135  1  0.32800000  0.02900000  0.48090000  1.0 -0.1485966639
C  C136  1  0.97100000  0.67200000  0.98090000  1.0 -0.1485966639
C  C137  1  0.28670000  0.05810000  0.49920000  1.0 0.0090478461
C  C138  1  0.94190000  0.71330000  0.99920000  1.0 0.0090478461
C  C139  1  0.29470000  0.11430000  0.48760000  1.0 -0.0905783429
C  C140  1  0.88570000  0.70530000  0.98760000  1.0 -0.0813536069
C  C141  1  0.34380000  0.13200000  0.46580000  1.0 0.090661651
C  C142  1  0.86800000  0.65620000  0.96580000  1.0 0.090661651
C  C143  1  0.25200000  0.14880000  0.50120000  1.0 0.5406962537
C  C144  1  0.85120000  0.74800000  0.00120000  1.0 0.5406962537
C  C145  1  0.87780000  0.12400000  0.79570000  1.0 0.0704676256
C  C146  1  0.87600000  0.12220000  0.29570000  1.0 0.0704676256
C  C147  1  0.91400000  0.17080000  0.79390000  1.0 -0.1377779573
C  C148  1  0.82920000  0.08600000  0.29390000  1.0 -0.1377779573
C  C149  1  0.91980000  0.19720000  0.74240000  1.0 -0.0473493585
C  C150  1  0.80280000  0.08020000  0.24240000  1.0 -0.0473493585
C  C151  1  0.89420000  0.17500000  0.69520000  1.0 -0.0613801732
C  C152  1  0.82500000  0.10580000  0.19520000  1.0 -0.0613801732
C  C153  1  0.85310000  0.13330000  0.69920000  1.0 0.0034294811
C  C154  1  0.86670000  0.14690000  0.19920000  1.0 0.0090478461
C  C155  1  0.90130000  0.20210000  0.63880000  1.0 0.6359775447
C  C156  1  0.79790000  0.09870000  0.13880000  1.0 0.6359775447
C  C157  1  0.67970000  0.37710000  0.59770000  1.0 -0.0114728811
C  C158  1  0.62290000  0.32030000  0.09770000  1.0 -0.0114728811
C  C159  1  0.70400000  0.41780000  0.62000000  1.0 -0.1485966639
C  C160  1  0.58220000  0.29600000  0.12000000  1.0 -0.1485966639
C  C161  1  0.76220000  0.42020000  0.61650000  1.0 -0.0114728811
C  C162  1  0.57980000  0.23780000  0.11650000  1.0 -0.0114728811
C  C163  1  0.79150000  0.37950000  0.59260000  1.0 -0.0813536069
C  C164  1  0.62050000  0.20850000  0.09260000  1.0 -0.0813536069
C  C165  1  0.75970000  0.33850000  0.57220000  1.0 0.0704676256
C  C166  1  0.66150000  0.24030000  0.07220000  1.0 0.0704676256
C  C167  1  0.85000000  0.37580000  0.59580000  1.0 0.6291485065
C  C168  1  0.62420000  0.15000000  0.09580000  1.0 0.6291485065
C  C169  1  0.83610000  0.46050000  0.25600000  1.0 0.7228099488
C  C170  1  0.53950000  0.16390000  0.75600000  1.0 0.7228099488
C  C171  1  0.77690000  0.43750000  0.25730000  1.0 -0.5886509974
C  C172  1  0.56250000  0.22310000  0.75730000  1.0 -0.5886509974
C  C173  1  0.02700000  0.48640000  0.90230000  1.0 0.1190894659
C  C174  1  0.51360000  0.97300000  0.40230000  1.0 0.1190894659
C  C175  1  0.00200000  0.52120000  0.86190000  1.0 -0.2030309237
C  C176  1  0.47880000  0.99800000  0.36190000  1.0 -0.2030309237
C  C177  1  0.99390000  0.50450000  0.81140000  1.0 -0.0192876387
C  C178  1  0.49550000  0.00610000  0.31140000  1.0 -0.0192876387
C  C179  1  0.01420000  0.44940000  0.80330000  1.0 -0.0391932981
C  C180  1  0.55060000  0.98580000  0.30330000  1.0 -0.0391932981
C  C181  1  0.03850000  0.42370000  0.84860000  1.0 -0.0192876387
C  C182  1  0.57630000  0.96150000  0.34860000  1.0 -0.0192876387
C  C183  1  0.00150000  0.42670000  0.74730000  1.0 0.6291485065
C  C184  1  0.57330000  0.99850000  0.24730000  1.0 0.6291485065
C  C185  1  0.26140000  0.39260000  0.89930000  1.0 0.0426916868
C  C186  1  0.60740000  0.73860000  0.39930000  1.0 0.0426916868
C  C187  1  0.20610000  0.37810000  0.89500000  1.0 -0.177827648
C  C188  1  0.62190000  0.79390000  0.39500000  1.0 -0.177827648
C  C189  1  0.18110000  0.36770000  0.84420000  1.0 -0.067780777
C  C190  1  0.63230000  0.81890000  0.34420000  1.0 -0.067780777
C  C191  1  0.21487000  0.36907000  0.80010000  1.0 -0.0905783429
C  C192  1  0.63093000  0.78513000  0.30010000  1.0 -0.0905783429
C  C193  1  0.26960000  0.38240000  0.79950000  1.0 0.090661651
C  C194  1  0.61760000  0.73040000  0.29950000  1.0 0.090661651
C  C195  1  0.18620000  0.35500000  0.74550000  1.0 0.6736978375
C  C196  1  0.64500000  0.81380000  0.24550000  1.0 0.6736978375
C  C197  1  0.42600000  0.17360000  0.65270000  1.0 0.0790852391
C  C198  1  0.82640000  0.57400000  0.15270000  1.0 0.0790852391
C  C199  1  0.43130000  0.22550000  0.67160000  1.0 -0.1595279491
C  C200  1  0.77450000  0.56870000  0.17160000  1.0 -0.1595279491
C  C201  1  0.38310000  0.24990000  0.65680000  1.0 -0.0905783429
C  C202  1  0.75010000  0.61690000  0.15680000  1.0 -0.0905783429
C  C203  1  0.33880000  0.22220000  0.63110000  1.0 -0.067780777
C  C204  1  0.77780000  0.66120000  0.13110000  1.0 -0.067780777
C  C205  1  0.33640000  0.16460000  0.61900000  1.0 0.0577769971
C  C206  1  0.83540000  0.66360000  0.11900000  1.0 0.0577769971
C  C207  1  0.28610000  0.25070000  0.62430000  1.0 0.6291485065
C  C208  1  0.74930000  0.71390000  0.12430000  1.0 0.6291485065
C  C209  1  0.27340000  0.96620000  0.35550000  1.0 0.0090478461
C  C210  1  0.03380000  0.72660000  0.85550000  1.0 0.0090478461
C  C211  1  0.30690000  0.99510000  0.32470000  1.0 -0.1595279491
C  C212  1  0.00490000  0.69310000  0.82470000  1.0 -0.1595279491
C  C213  1  0.29780000  0.05640000  0.31830000  1.0 -0.0114728811
C  C214  1  0.94360000  0.70220000  0.81830000  1.0 -0.0114728811
C  C215  1  0.25550000  0.07830000  0.34440000  1.0 -0.0905783429
C  C216  1  0.92170000  0.74450000  0.84440000  1.0 -0.0905783429
C  C217  1  0.21990000  0.03810000  0.37530000  1.0 0.0790852391
C  C218  1  0.96190000  0.78010000  0.87530000  1.0 0.0790852391
C  C219  1  0.24470000  0.13570000  0.34330000  1.0 0.6008394543
C  C220  1  0.86430000  0.75530000  0.84330000  1.0 0.6008394543
C  C221  1  0.02560000  0.98080000  0.30940000  1.0 0.0426916868
C  C222  1  0.01920000  0.97440000  0.80940000  1.0 0.0426916868
C  C223  1  0.98870000  0.00210000  0.34220000  1.0 -0.1485966639
C  C224  1  0.99790000  0.01130000  0.84220000  1.0 -0.1485966639
C  C225  1  0.99650000  0.05830000  0.34930000  1.0 -0.0326060808
C  C226  1  0.94170000  0.00350000  0.84930000  1.0 -0.0326060808
C  C227  1  0.04140000  0.08780000  0.33690000  1.0 -0.0905783429
C  C228  1  0.91220000  0.95860000  0.83690000  1.0 -0.1012177285
C  C229  1  0.08480000  0.06240000  0.30940000  1.0 0.100778981
C  C230  1  0.93760000  0.91520000  0.80940000  1.0 0.100778981
C  C231  1  0.05550000  0.14050000  0.35920000  1.0 0.6215586671
C  C232  1  0.85950000  0.94450000  0.85920000  1.0 0.6215586671
C  C233  1  0.31380000  0.63260000  0.09690000  1.0 0.0179132106
C  C234  1  0.36740000  0.68620000  0.59690000  1.0 0.0179132106
C  C235  1  0.34260000  0.60560000  0.13690000  1.0 -0.1149683884
C  C236  1  0.39440000  0.65740000  0.63690000  1.0 -0.1154973126
C  C237  1  0.32230000  0.59870000  0.18530000  1.0 -0.0613801732
C  C238  1  0.40130000  0.67770000  0.68530000  1.0 -0.0613801732
C  C239  1  0.26990000  0.61630000  0.20130000  1.0 -0.1012177285
C  C240  1  0.38370000  0.73010000  0.70130000  1.0 -0.1012177285
C  C241  1  0.23440000  0.63760000  0.15800000  1.0 0.0426916868
C  C242  1  0.36240000  0.76560000  0.65800000  1.0 0.0426916868
C  C243  1  0.25000000  0.61020000  0.25420000  1.0 0.6215586671
C  C244  1  0.38980000  0.75000000  0.75420000  1.0 0.6215586671
C  C245  1  0.77860000  0.73340000  0.26990000  1.0 0.1097116563
C  C246  1  0.26660000  0.22140000  0.76990000  1.0 0.1097116563
C  C247  1  0.82440000  0.75580000  0.23870000  1.0 -0.1291408352
C  C248  1  0.24420000  0.17560000  0.73870000  1.0 -0.1291408352
C  C249  1  0.86640000  0.72520000  0.23780000  1.0 -0.0391932981
C  C250  1  0.27480000  0.13360000  0.73780000  1.0 -0.0326060808
C  C251  1  0.86220000  0.67020000  0.26280000  1.0 -0.1012177285
C  C252  1  0.32980000  0.13780000  0.76280000  1.0 -0.1012177285
C  C253  1  0.82000000  0.65220000  0.29130000  1.0 0.0518247888
C  C254  1  0.34780000  0.18000000  0.79130000  1.0 0.0518247888
C  C255  1  0.90390000  0.63190000  0.26140000  1.0 0.6093327287
C  C256  1  0.36810000  0.09610000  0.76140000  1.0 0.6093327287
C  C257  1  0.13030000  0.87650000  0.36800000  1.0 0.0704676256
C  C258  1  0.12350000  0.86970000  0.86800000  1.0 0.0704676256
C  C259  1  0.10180000  0.84600000  0.32700000  1.0 -0.1485966639
C  C260  1  0.15400000  0.89820000  0.82700000  1.0 -0.1485966639
C  C261  1  0.10410000  0.78950000  0.32810000  1.0 -0.0613801732
C  C262  1  0.21050000  0.89590000  0.82810000  1.0 -0.0613801732
C  C263  1  0.14710000  0.77430000  0.36380000  1.0 -0.0473493585
C  C264  1  0.22570000  0.85290000  0.86380000  1.0 -0.0473493585
C  C265  1  0.17360000  0.80360000  0.40620000  1.0 0.0179132106
C  C266  1  0.19640000  0.82640000  0.90620000  1.0 0.0179132106
C  C267  1  0.15850000  0.71250000  0.36580000  1.0 0.6093327287
C  C268  1  0.28750000  0.84150000  0.86580000  1.0 0.6093327287
C  C269  1  0.17380000  0.55900000  0.87720000  1.0 0.090661651
C  C270  1  0.44100000  0.82620000  0.37720000  1.0 0.090661651
C  C271  1  0.20480000  0.52220000  0.85280000  1.0 -0.1595279491
C  C272  1  0.47780000  0.79520000  0.35280000  1.0 -0.1595279491
C  C273  1  0.19420000  0.51660000  0.79700000  1.0 -0.0613801732
C  C274  1  0.48340000  0.80580000  0.29700000  1.0 -0.0613801732
C  C275  1  0.15730000  0.54390000  0.76370000  1.0 -0.0391932981
C  C276  1  0.45610000  0.84270000  0.26370000  1.0 -0.0391932981
C  C277  1  0.12820000  0.57140000  0.79700000  1.0 -0.0114728811
C  C278  1  0.42860000  0.87180000  0.29700000  1.0 -0.0114728811
C  C279  1  0.15260000  0.54160000  0.70390000  1.0 0.6093327287
C  C280  1  0.45840000  0.84740000  0.20390000  1.0 0.6093327287
C  C281  1  0.27300000  0.67780000  0.79680000  1.0 0.0304220498
C  C282  1  0.32220000  0.72700000  0.29680000  1.0 0.0304220498
C  C283  1  0.29860000  0.63500000  0.82270000  1.0 -0.1377779573
C  C284  1  0.36500000  0.70140000  0.32270000  1.0 -0.1377779573
C  C285  1  0.31290000  0.60210000  0.77920000  1.0 -0.0813536069
C  C286  1  0.39790000  0.68710000  0.27920000  1.0 -0.0813536069
C  C287  1  0.28910000  0.60850000  0.72330000  1.0 0.0179132106
C  C288  1  0.39150000  0.71090000  0.22330000  1.0 0.0179132106
C  C289  1  0.24990000  0.65310000  0.72050000  1.0 0.0090478461
C  C290  1  0.34690000  0.75010000  0.22050000  1.0 0.0090478461
C  C291  1  0.29960000  0.56940000  0.67940000  1.0 0.5886816167
C  C292  1  0.43060000  0.70040000  0.17940000  1.0 0.5886816167
C  C293  1  0.96250000  0.73430000  0.40240000  1.0 -0.5607308329
C  C294  1  0.26570000  0.03750000  0.90240000  1.0 -0.5607308329
C  C295  1  0.96160000  0.67000000  0.41150000  1.0 0.7331518911
C  C296  1  0.33000000  0.03840000  0.91150000  1.0 0.7331518911
C  C297  1  0.13660000  0.73020000  0.52520000  1.0 0.678986498
C  C298  1  0.26980000  0.86340000  0.02520000  1.0 0.678986498
C  C299  1  0.07200000  0.73120000  0.68500000  1.0 -0.5306357261
C  C300  1  0.26880000  0.92800000  0.18500000  1.0 -0.5306357261
C  C301  1  0.04890000  0.67990000  0.65700000  1.0 0.7663115644
C  C302  1  0.32010000  0.95110000  0.15700000  1.0 0.7663115644
C  C303  1  0.18480000  0.45840000  0.31760000  1.0 0.9481027805
C  C304  1  0.54160000  0.81520000  0.81760000  1.0 0.9481027805
C  C305  1  0.22160000  0.53960000  0.44210000  1.0 0.9142772191
C  C306  1  0.46040000  0.77840000  0.94210000  1.0 0.9142772191
C  C307  1  0.10780000  0.44520000  0.61250000  1.0 0.9313327455
C  C308  1  0.55480000  0.89220000  0.11250000  1.0 0.9313327455
C  C309  1  0.09610000  0.29350000  0.57470000  1.0 0.8958466732
C  C310  1  0.70650000  0.90390000  0.07470000  1.0 0.8958466732
C  C311  1  0.06890000  0.57510000  0.44740000  1.0 0.938855845
C  C312  1  0.42490000  0.93110000  0.94740000  1.0 0.938855845
C  C313  1  0.96180000  0.41700000  0.33320000  1.0 0.938855845
C  C314  1  0.58300000  0.03820000  0.83320000  1.0 0.938855845
C  C315  1  0.93150000  0.41270000  0.48910000  1.0 0.9481027805
C  C316  1  0.58730000  0.06850000  0.98910000  1.0 0.9481027805
C  C317  1  0.22180000  0.32460000  0.48070000  1.0 0.9142772191
C  C318  1  0.67540000  0.77820000  0.98070000  1.0 0.9142772191
C  C319  1  0.04560000  0.28960000  0.35240000  1.0 0.938855845
C  C320  1  0.71040000  0.95440000  0.85240000  1.0 0.938855845
C  C321  1  0.80220000  0.14900000  0.43510000  1.0 0.7100671314
C  C322  1  0.85100000  0.19780000  0.93510000  1.0 0.7100671314
C  C323  1  0.85790000  0.26690000  0.29070000  1.0 0.7437069797
C  C324  1  0.73310000  0.14210000  0.79070000  1.0 0.7437069797
C  C325  1  0.79660000  0.25440000  0.28030000  1.0 -0.5507447476
C  C326  1  0.74560000  0.20340000  0.78030000  1.0 -0.5507447476
C  C327  1  0.00300000  0.09420000  0.50190000  1.0 0.7663115644
C  C328  1  0.90580000  0.99700000  0.00190000  1.0 0.7663115644
C  C329  1  0.02440000  0.03640000  0.48570000  1.0 -0.5205070711
C  C330  1  0.96360000  0.97560000  0.98570000  1.0 -0.5205070711
C  C331  1  0.85040000  0.62940000  0.51870000  1.0 0.7100671314
C  C332  1  0.37060000  0.14960000  0.01870000  1.0 0.7100671314
C  C333  1  0.81310000  0.66850000  0.49370000  1.0 -0.5507447476
C  C334  1  0.33150000  0.18690000  0.99370000  1.0 -0.5507447476
C  C335  1  0.77960000  0.48800000  0.44220000  1.0 0.7331518911
C  C336  1  0.51200000  0.22040000  0.94220000  1.0 0.7331518911
N  N1  1  0.63490000  0.36270000  0.38920000  1.0 -0.2030309237
N  N2  1  0.63730000  0.36510000  0.88920000  1.0 -0.2030309237
N  N3  1  0.61290000  0.48770000  0.33100000  1.0 -0.2098101345
N  N4  1  0.51230000  0.38710000  0.83100000  1.0 -0.2098101345
N  N5  1  0.52150000  0.37290000  0.31560000  1.0 -0.1895430825
N  N6  1  0.62710000  0.47850000  0.81560000  1.0 -0.1895430825
N  N7  1  0.55110000  0.43730000  0.43880000  1.0 -0.2030309237
N  N8  1  0.56270000  0.44890000  0.93880000  1.0 -0.2030309237
N  N9  1  0.38390000  0.47790000  0.98350000  1.0 -0.2098101345
N  N10  1  0.52210000  0.61610000  0.48350000  1.0 -0.2098101345
N  N11  1  0.36210000  0.34770000  0.04000000  1.0 -0.2925094979
N  N12  1  0.65230000  0.63790000  0.54000000  1.0 -0.2925094979
N  N13  1  0.38380000  0.44220000  0.12510000  1.0 -0.1895430825
N  N14  1  0.55780000  0.61620000  0.62510000  1.0 -0.1895430825
N  N15  1  0.26880000  0.45200000  0.05470000  1.0 -0.1291408352
N  N16  1  0.54800000  0.73120000  0.55470000  1.0 -0.1291408352
N  N17  1  0.50990000  0.08790000  0.49620000  1.0 -0.2030309237
N  N18  1  0.91210000  0.49010000  0.99620000  1.0 -0.2030309237
N  N19  1  0.46800000  0.21760000  0.47250000  1.0 -0.2098101345
N  N20  1  0.78240000  0.53200000  0.97250000  1.0 -0.2098101345
N  N21  1  0.48820000  0.15120000  0.36820000  1.0 -0.2030309237
N  N22  1  0.84880000  0.51180000  0.86820000  1.0 -0.2030309237
N  N23  1  0.38170000  0.10370000  0.45450000  1.0 -0.1595279491
N  N24  1  0.89630000  0.61830000  0.95450000  1.0 -0.1595279491
N  N25  1  0.84670000  0.10770000  0.75090000  1.0 -0.1012177285
N  N26  1  0.89230000  0.15330000  0.25090000  1.0 -0.1012177285
N  N27  1  0.70340000  0.32740000  0.57090000  1.0 -0.3009717605
N  N28  1  0.67260000  0.29660000  0.07090000  1.0 -0.3009717605
N  N29  1  0.04010000  0.44610000  0.90030000  1.0 -0.1485966639
N  N30  1  0.55390000  0.95990000  0.40030000  1.0 -0.1485966639
N  N31  1  0.28380000  0.39320000  0.85000000  1.0 -0.067780777
N  N32  1  0.60680000  0.71620000  0.35000000  1.0 -0.0813536069
N  N33  1  0.38800000  0.14600000  0.63190000  1.0 -0.1012177285
N  N34  1  0.85400000  0.61200000  0.13190000  1.0 -0.1012177285
N  N35  1  0.22800000  0.98180000  0.38210000  1.0 -0.2498496688
N  N36  1  0.01820000  0.77200000  0.88210000  1.0 -0.2498496688
N  N37  1  0.07700000  0.01020000  0.29020000  1.0 -0.2805265488
N  N38  1  0.98980000  0.92300000  0.79020000  1.0 -0.2805265488
N  N39  1  0.25920000  0.66200000  0.10180000  1.0 -0.2388809514
N  N40  1  0.33800000  0.74080000  0.60180000  1.0 -0.2388809514
N  N41  1  0.77160000  0.68320000  0.29190000  1.0 -0.2805265488
N  N42  1  0.31680000  0.22840000  0.79190000  1.0 -0.2805265488
N  N43  1  0.16850000  0.85950000  0.40700000  1.0 -0.2388809514
N  N44  1  0.14050000  0.83150000  0.90700000  1.0 -0.2388809514
N  N45  1  0.13180000  0.58400000  0.86020000  1.0 -0.2805265488
N  N46  1  0.41600000  0.86820000  0.36020000  1.0 -0.2805265488
N  N47  1  0.25050000  0.70390000  0.75100000  1.0 -0.3009717605
N  N48  1  0.29610000  0.74950000  0.25100000  1.0 -0.3009717605
Cl  Cl1  1  0.13324000  0.02690000  0.00827000  1.0 -0.3458096004
Cl  Cl2  1  0.97310000  0.86676000  0.50827000  1.0 -0.3458096004
O  O1  1  0.80070000  0.38710000  0.37420000  1.0 -0.5607308329
O  O2  1  0.61290000  0.19930000  0.87420000  1.0 -0.5607308329
O  O3  1  0.21440000  0.43500000  0.54000000  1.0 -1.0202435272
O  O4  1  0.56500000  0.78560000  0.04000000  1.0 -1.0202435272
O  O5  1  0.23990000  0.33690000  0.26710000  1.0 -1.0808682061
O  O6  1  0.66310000  0.76010000  0.76710000  1.0 -1.0808682061
O  O7  1  0.16770000  0.24770000  0.28210000  1.0 -1.0808682061
O  O8  1  0.75230000  0.83230000  0.78210000  1.0 -1.0873320318
O  O9  1  0.12820000  0.19200000  0.45850000  1.0 -1.0491255737
O  O10  1  0.80800000  0.87180000  0.95850000  1.0 -1.0491255737
O  O11  1  0.23960000  0.36420000  0.45320000  1.0 -0.5812658457
O  O12  1  0.63580000  0.76040000  0.95320000  1.0 -0.5886509974
O  O13  1  0.07330000  0.27190000  0.39370000  1.0 -0.6587244339
O  O14  1  0.72810000  0.92670000  0.89370000  1.0 -0.6587244339
O  O15  1  0.99100000  0.61140000  0.55880000  1.0 -1.0491255737
O  O16  1  0.38860000  0.00900000  0.05880000  1.0 -1.0409190572
O  O17  1  0.99990000  0.54170000  0.64930000  1.0 -0.979444128
O  O18  1  0.45830000  0.00010000  0.14930000  1.0 -0.973827324
O  O19  1  0.91050000  0.54310000  0.40140000  1.0 -0.9888686753
O  O20  1  0.45690000  0.08950000  0.90140000  1.0 -0.9888686753
O  O21  1  0.10120000  0.56020000  0.23400000  1.0 -1.0409190572
O  O22  1  0.43980000  0.89880000  0.73400000  1.0 -1.0491255737
O  O23  1  0.12330000  0.49050000  0.58750000  1.0 -0.6587244339
O  O24  1  0.50950000  0.87670000  0.08750000  1.0 -0.6587244339
O  O25  1  0.99360000  0.30560000  0.47310000  1.0 -0.9888686753
O  O26  1  0.69440000  0.00640000  0.97310000  1.0 -0.9888686753
O  O27  1  0.95860000  0.40120000  0.53240000  1.0 -0.6191579617
O  O28  1  0.59880000  0.04140000  0.03240000  1.0 -0.6191579617
O  O29  1  0.06310000  0.37990000  0.22250000  1.0 -1.1965433575
O  O30  1  0.62010000  0.93690000  0.72250000  1.0 -1.1965433575
O  O31  1  0.31690000  0.43470000  0.39670000  1.0 -1.0640639878
O  O32  1  0.56530000  0.68310000  0.89670000  1.0 -1.0640639878
O  O33  1  0.06960000  0.51420000  0.33490000  1.0 -1.0102156616
O  O34  1  0.48580000  0.93040000  0.83490000  1.0 -1.0102156616
O  O35  1  0.31230000  0.39830000  0.58210000  1.0 -0.979444128
O  O36  1  0.60170000  0.68770000  0.08210000  1.0 -0.979444128
O  O37  1  0.02350000  0.55490000  0.43310000  1.0 -0.6023521266
O  O38  1  0.44510000  0.97650000  0.93310000  1.0 -0.6023521266
O  O39  1  0.25890000  0.45550000  0.64490000  1.0 -1.0284491396
O  O40  1  0.54450000  0.74110000  0.14490000  1.0 -1.0202435272
O  O41  1  0.99400000  0.53080000  0.25150000  1.0 -1.0873320318
O  O42  1  0.46920000  0.00600000  0.75150000  1.0 -1.0991603351
O  O43  1  0.25500000  0.26080000  0.35620000  1.0 -1.0409190572
O  O44  1  0.73920000  0.74500000  0.85620000  1.0 -1.0409190572
O  O45  1  0.20490000  0.54990000  0.49340000  1.0 -0.7227813717
O  O46  1  0.45010000  0.79510000  0.99340000  1.0 -0.7227813717
O  O47  1  0.22390000  0.31810000  0.53080000  1.0 -0.6459278978
O  O48  1  0.68190000  0.77610000  0.03080000  1.0 -0.6459278978
O  O49  1  0.30490000  0.50830000  0.55230000  1.0 -1.0102156616
O  O50  1  0.49170000  0.69510000  0.05230000  1.0 -1.0102156616
O  O51  1  0.97790000  0.35730000  0.63890000  1.0 -1.1059602118
O  O52  1  0.64270000  0.02210000  0.13890000  1.0 -1.0991603351
O  O53  1  0.21110000  0.57350000  0.40370000  1.0 -0.699617318
O  O54  1  0.42650000  0.78890000  0.90370000  1.0 -0.699617318
O  O55  1  0.91160000  0.52360000  0.57930000  1.0 -0.9364809312
O  O56  1  0.47640000  0.08840000  0.07930000  1.0 -0.9364809312
O  O57  1  0.35230000  0.36250000  0.31620000  1.0 -0.5507447476
O  O58  1  0.63750000  0.64770000  0.81620000  1.0 -0.5507447476
O  O59  1  0.16810000  0.59910000  0.57360000  1.0 -1.0491255737
O  O60  1  0.40090000  0.83190000  0.07360000  1.0 -1.0491255737
O  O61  1  0.97700000  0.21400000  0.54290000  1.0 -1.0991603351
O  O62  1  0.78600000  0.02300000  0.04290000  1.0 -1.0991603351
O  O63  1  0.06830000  0.30550000  0.30650000  1.0 -0.745668254
O  O64  1  0.69450000  0.93170000  0.80650000  1.0 -0.745668254
O  O65  1  0.13760000  0.29960000  0.60500000  1.0 -0.668428234
O  O66  1  0.70040000  0.86240000  0.10500000  1.0 -0.668428234
O  O67  1  0.92360000  0.37880000  0.34460000  1.0 -0.7871502555
O  O68  1  0.62120000  0.07640000  0.84460000  1.0 -0.7871502555
O  O69  1  0.88790000  0.26670000  0.49960000  1.0 -0.9888686753
O  O70  1  0.73330000  0.11210000  0.99960000  1.0 -0.9966048814
O  O71  1  0.09820000  0.26240000  0.53000000  1.0 -0.7227813717
O  O72  1  0.73760000  0.90180000  0.03000000  1.0 -0.7227813717
O  O73  1  0.13960000  0.43020000  0.29740000  1.0 -0.7227813717
O  O74  1  0.56980000  0.86040000  0.79740000  1.0 -0.7227813717
O  O75  1  0.24820000  0.49820000  0.43580000  1.0 -0.6787783197
O  O76  1  0.50180000  0.75180000  0.93580000  1.0 -0.6787783197
O  O77  1  0.95850000  0.46370000  0.35580000  1.0 -0.7095946189
O  O78  1  0.53630000  0.04150000  0.85580000  1.0 -0.7095946189
O  O79  1  0.01300000  0.50720000  0.54680000  1.0 -0.9888686753
O  O80  1  0.49280000  0.98700000  0.04680000  1.0 -0.9966048814
O  O81  1  0.04770000  0.61830000  0.29880000  1.0 -1.0284491396
O  O82  1  0.38170000  0.95230000  0.79880000  1.0 -1.0284491396
O  O83  1  0.59910000  0.63570000  0.19940000  1.0 -0.541273906
O  O84  1  0.36430000  0.40090000  0.69940000  1.0 -0.541273906
O  O85  1  0.10210000  0.60030000  0.41070000  1.0 -0.7742022491
O  O86  1  0.39970000  0.89790000  0.91070000  1.0 -0.7742022491
O  O87  1  0.94220000  0.20760000  0.43250000  1.0 -0.9888686753
O  O88  1  0.79240000  0.05780000  0.93250000  1.0 -0.9888686753
O  O89  1  0.19150000  0.28350000  0.45690000  1.0 -0.7095946189
O  O90  1  0.71650000  0.80850000  0.95690000  1.0 -0.7095946189
O  O91  1  0.43480000  0.65220000  0.90340000  1.0 -0.5886509974
O  O92  1  0.34780000  0.56520000  0.40340000  1.0 -0.5886509974
O  O93  1  0.14010000  0.40910000  0.62910000  1.0 -0.699617318
O  O94  1  0.59090000  0.85990000  0.12910000  1.0 -0.699617318
O  O95  1  0.85110000  0.47870000  0.30210000  1.0 -0.6023521266
O  O96  1  0.52130000  0.14890000  0.80210000  1.0 -0.6023521266
O  O97  1  0.17390000  0.33010000  0.35360000  1.0 -1.0102156616
O  O98  1  0.66990000  0.82610000  0.85360000  1.0 -1.0102156616
O  O99  1  0.13480000  0.34320000  0.73890000  1.0 -0.6191579617
O  O100  1  0.65680000  0.86520000  0.23890000  1.0 -0.6191579617
O  O101  1  0.99810000  0.41050000  0.29980000  1.0 -0.6587244339
O  O102  1  0.58950000  0.00190000  0.79980000  1.0 -0.6587244339
O  O103  1  0.39230000  0.46790000  0.48440000  1.0 -0.4887530423
O  O104  1  0.53210000  0.60770000  0.98440000  1.0 -0.4887530423
O  O105  1  0.09760000  0.17240000  0.34030000  1.0 -0.5812658457
O  O106  1  0.82760000  0.90240000  0.84030000  1.0 -0.5812658457
O  O107  1  0.18940000  0.52360000  0.68060000  1.0 -0.4810383773
O  O108  1  0.47640000  0.81060000  0.18060000  1.0 -0.4810383773
O  O109  1  0.97490000  0.64610000  0.36960000  1.0 -0.568397913
O  O110  1  0.35390000  0.02510000  0.86960000  1.0 -0.568397913
O  O111  1  0.18020000  0.39560000  0.18750000  1.0 -0.5607308329
O  O112  1  0.60440000  0.81980000  0.68750000  1.0 -0.5607308329
O  O113  1  0.18740000  0.51140000  0.31340000  1.0 -0.7396083689
O  O114  1  0.48860000  0.81260000  0.81340000  1.0 -0.7396083689
O  O115  1  0.20970000  0.15210000  0.36940000  1.0 -0.4887530423
O  O116  1  0.84790000  0.79030000  0.86940000  1.0 -0.4887530423
O  O117  1  0.32360000  0.21700000  0.18880000  1.0 -0.4715781601
O  O118  1  0.78300000  0.67640000  0.68880000  1.0 -0.4715781601
O  O119  1  0.08180000  0.65860000  0.62880000  1.0 -0.568397913
O  O120  1  0.34140000  0.91820000  0.12880000  1.0 -0.568397913
O  O121  1  0.99510000  0.29490000  0.35300000  1.0 -0.6787783197
O  O122  1  0.70510000  0.00490000  0.85300000  1.0 -0.6787783197
O  O123  1  0.95350000  0.64750000  0.45700000  1.0 -0.5507447476
O  O124  1  0.35250000  0.04650000  0.95700000  1.0 -0.5507447476
O  O125  1  0.02460000  0.15840000  0.39280000  1.0 -0.4887530423
O  O126  1  0.84160000  0.97540000  0.89280000  1.0 -0.4887530423
O  O127  1  0.90790000  0.37930000  0.45560000  1.0 -0.7332806803
O  O128  1  0.62070000  0.09210000  0.95560000  1.0 -0.7332806803
O  O129  1  0.21800000  0.35500000  0.70390000  1.0 -0.6394302613
O  O130  1  0.64500000  0.78200000  0.20390000  1.0 -0.6394302613
O  O131  1  0.33930000  0.31090000  0.41850000  1.0 -0.5306357261
O  O132  1  0.68910000  0.66070000  0.91850000  1.0 -0.5306357261
O  O133  1  0.82070000  0.30650000  0.41280000  1.0 -0.5607308329
O  O134  1  0.69350000  0.17930000  0.91280000  1.0 -0.5607308329
O  O135  1  0.22310000  0.43450000  0.33900000  1.0 -0.6323668576
O  O136  1  0.56550000  0.77690000  0.83900000  1.0 -0.6323668576
O  O137  1  0.14120000  0.68560000  0.32690000  1.0 -0.4715781601
O  O138  1  0.31440000  0.85880000  0.82690000  1.0 -0.4715781601
O  O139  1  0.85880000  0.58920000  0.49180000  1.0 -0.5306357261
O  O140  1  0.41080000  0.14120000  0.99180000  1.0 -0.5306357261
O  O141  1  0.29770000  0.47590000  0.26140000  1.0 -0.4997530497
O  O142  1  0.52410000  0.70230000  0.76140000  1.0 -0.4997530497
O  O143  1  0.27800000  0.58040000  0.63140000  1.0 -0.5507447476
O  O144  1  0.41960000  0.72200000  0.13140000  1.0 -0.5507447476
O  O145  1  0.40080000  0.64680000  0.98710000  1.0 -0.3707048364
O  O146  1  0.35320000  0.59920000  0.48710000  1.0 -0.3798491475
O  O147  1  0.45030000  0.14190000  0.17550000  1.0 -0.5607308329
O  O148  1  0.85810000  0.54970000  0.67550000  1.0 -0.5607308329
O  O149  1  0.05340000  0.31480000  0.58400000  1.0 -0.6122942931
O  O150  1  0.68520000  0.94660000  0.08400000  1.0 -0.6122942931
O  O151  1  0.73640000  0.49420000  0.46870000  1.0 -0.541273906
O  O152  1  0.50580000  0.26360000  0.96870000  1.0 -0.541273906
O  O153  1  0.08870000  0.57890000  0.49640000  1.0 -0.6787783197
O  O154  1  0.42110000  0.91130000  0.99640000  1.0 -0.6787783197
O  O155  1  0.28130000  0.29750000  0.63360000  1.0 -0.5092023826
O  O156  1  0.70250000  0.71870000  0.13360000  1.0 -0.5092023826
O  O157  1  0.86840000  0.33640000  0.57800000  1.0 -0.4810383773
O  O158  1  0.66360000  0.13160000  0.07800000  1.0 -0.4810383773
O  O159  1  0.20370000  0.62150000  0.26480000  1.0 -0.5306357261
O  O160  1  0.37850000  0.79630000  0.76480000  1.0 -0.5306357261
O  O161  1  0.37240000  0.50200000  0.30810000  1.0 -0.541273906
O  O162  1  0.49800000  0.62760000  0.80810000  1.0 -0.541273906
O  O163  1  0.26070000  0.19730000  0.48730000  1.0 -0.5205070711
O  O164  1  0.80270000  0.73930000  0.98730000  1.0 -0.5205070711
O  O165  1  0.35080000  0.35940000  0.49410000  1.0 -0.568397913
O  O166  1  0.64060000  0.64920000  0.99410000  1.0 -0.568397913
O  O167  1  0.41980000  0.45280000  0.57230000  1.0 -0.5812658457
O  O168  1  0.54720000  0.58020000  0.07230000  1.0 -0.5812658457
O  O169  1  0.28300000  0.58900000  0.29340000  1.0 -0.7095946189
O  O170  1  0.41100000  0.71700000  0.79340000  1.0 -0.7095946189
O  O171  1  0.13510000  0.47390000  0.18520000  1.0 -0.5205070711
O  O172  1  0.52610000  0.86490000  0.68520000  1.0 -0.5205070711
O  O173  1  0.90560000  0.59060000  0.29340000  1.0 -0.5092023826
O  O174  1  0.40940000  0.09440000  0.79340000  1.0 -0.4997530497
O  O175  1  0.97330000  0.44870000  0.71340000  1.0 -0.4810383773
O  O176  1  0.55130000  0.02670000  0.21340000  1.0 -0.4810383773
O  O177  1  0.87630000  0.41750000  0.61500000  1.0 -0.5507447476
O  O178  1  0.58250000  0.12370000  0.11500000  1.0 -0.5507447476
O  O179  1  0.89180000  0.47000000  0.22020000  1.0 -0.3882279165
O  O180  1  0.53000000  0.10820000  0.72020000  1.0 -0.3882279165
O  O181  1  0.86870000  0.63650000  0.56510000  1.0 -0.5607308329
O  O182  1  0.36350000  0.13130000  0.06510000  1.0 -0.5607308329
O  O183  1  0.94580000  0.64760000  0.23230000  1.0 -0.5607308329
O  O184  1  0.35240000  0.05420000  0.73230000  1.0 -0.5607308329
O  O185  1  0.79020000  0.50440000  0.39870000  1.0 -0.4810383773
O  O186  1  0.49560000  0.20980000  0.89870000  1.0 -0.4810383773
O  O187  1  0.10810000  0.55770000  0.68190000  1.0 -0.541273906
O  O188  1  0.44230000  0.89190000  0.18190000  1.0 -0.541273906
O  O189  1  0.87370000  0.25570000  0.33770000  1.0 -0.5812658457
O  O190  1  0.74430000  0.12630000  0.83770000  1.0 -0.5812658457
O  O191  1  0.41990000  0.07230000  0.23150000  1.0 -0.5306357261
O  O192  1  0.92770000  0.58010000  0.73150000  1.0 -0.5306357261
O  O193  1  0.81280000  0.46020000  0.47100000  1.0 -0.4887530423
O  O194  1  0.53980000  0.18720000  0.97100000  1.0 -0.4887530423
O  O195  1  0.21110000  0.12990000  0.52440000  1.0 -0.4810383773
O  O196  1  0.87010000  0.78890000  0.02440000  1.0 -0.4810383773
O  O197  1  0.05950000  0.43790000  0.62880000  1.0 -0.6787783197
O  O198  1  0.56210000  0.94050000  0.12880000  1.0 -0.6787783197
O  O199  1  0.53860000  0.56720000  0.19740000  1.0 -0.4887530423
O  O200  1  0.43280000  0.46140000  0.69740000  1.0 -0.4997530497
O  O201  1  0.34970000  0.27730000  0.28330000  1.0 -0.6191579617
O  O202  1  0.72270000  0.65030000  0.78330000  1.0 -0.6191579617
O  O203  1  0.92780000  0.46640000  0.47540000  1.0 -0.7332806803
O  O204  1  0.53360000  0.07220000  0.97540000  1.0 -0.7332806803
O  O205  1  0.89490000  0.29270000  0.25910000  1.0 -0.6394302613
O  O206  1  0.70730000  0.10510000  0.75910000  1.0 -0.6394302613
O  O207  1  0.27660000  0.29220000  0.17320000  1.0 -0.568397913
O  O208  1  0.70780000  0.72340000  0.67320000  1.0 -0.568397913
O  O209  1  0.44370000  0.01010000  0.63680000  1.0 -0.568397913
O  O210  1  0.98990000  0.55630000  0.13680000  1.0 -0.568397913
O  O211  1  0.52450000  0.97650000  0.65750000  1.0 -0.4715781601
O  O212  1  0.02350000  0.47550000  0.15750000  1.0 -0.4715781601
O  O213  1  0.04180000  0.12940000  0.50650000  1.0 -0.5205070711
O  O214  1  0.87060000  0.95820000  0.00650000  1.0 -0.5205070711
O  O215  1  0.95140000  0.09780000  0.49640000  1.0 -0.6323668576
O  O216  1  0.90220000  0.04860000  0.99640000  1.0 -0.6323668576
O  O217  1  0.87310000  0.18810000  0.59630000  1.0 -0.5886509974
O  O218  1  0.81190000  0.12690000  0.09630000  1.0 -0.5886509974
O  O219  1  0.92450000  0.25010000  0.63670000  1.0 -0.4887530423
O  O220  1  0.74990000  0.07550000  0.13670000  1.0 -0.4887530423
O  O221  1  0.03120000  0.38520000  0.74050000  1.0 -0.6323668576
O  O222  1  0.61480000  0.96880000  0.24050000  1.0 -0.6323668576
O  O223  1  0.24540000  0.21980000  0.60400000  1.0 -0.6587244339
O  O224  1  0.78020000  0.75460000  0.10400000  1.0 -0.6587244339
O  O225  1  0.27590000  0.16510000  0.30700000  1.0 -0.6191579617
O  O226  1  0.83490000  0.72410000  0.80700000  1.0 -0.6191579617
O  O227  1  0.18530000  0.69530000  0.40430000  1.0 -0.5607308329
O  O228  1  0.30470000  0.81470000  0.90430000  1.0 -0.5607308329
O  O229  1  0.32890000  0.53590000  0.69690000  1.0 -0.4715781601
O  O230  1  0.46410000  0.67110000  0.19690000  1.0 -0.4715781601
O  O231  1  0.10210000  0.69790000  0.49760000  1.0 -0.6023521266
O  O232  1  0.30210000  0.89790000  0.99760000  1.0 -0.6023521266
O  O233  1  0.18470000  0.72070000  0.53080000  1.0 -0.4489826478
O  O234  1  0.27930000  0.81530000  0.03080000  1.0 -0.4489826478
O  O235  1  0.84700000  0.12060000  0.43470000  1.0 -0.6023521266
O  O236  1  0.87940000  0.15300000  0.93470000  1.0 -0.6023521266
O  O237  1  0.80160000  0.17940000  0.47850000  1.0 -0.6122942931
O  O238  1  0.82060000  0.19840000  0.97850000  1.0 -0.6122942931
O  O239  1  0.99830000  0.66570000  0.66220000  1.0 -0.6191579617
O  O240  1  0.33430000  0.00170000  0.16220000  1.0 -0.6191579617
O  O241  1  0.41010000  0.55790000  0.61630000  1.0 -0.5507447476
O  O242  1  0.44210000  0.58990000  0.11630000  1.0 -0.5607308329
O  O243  1  0.93750000  0.38510000  0.20120000  1.0 -0.4406033374
O  O244  1  0.61490000  0.06250000  0.70120000  1.0 -0.4406033374
O  O245  1  0.26530000  0.65690000  0.49280000  1.0 -0.2925094979
O  O246  1  0.34310000  0.73470000  0.99280000  1.0 -0.2805265488
O  O247  1  0.11520000  0.28840000  0.18440000  1.0 -0.3707048364
O  O248  1  0.71160000  0.88480000  0.68440000  1.0 -0.3607314742
O  O249  1  0.98840000  0.22440000  0.25750000  1.0 -0.4715781601
O  O250  1  0.77560000  0.01160000  0.75750000  1.0 -0.4715781601
O  O251  1  0.20620000  0.18440000  0.20610000  1.0 -0.5205070711
O  O252  1  0.81560000  0.79380000  0.70610000  1.0 -0.5205070711
O  O253  1  0.05240000  0.25800000  0.70040000  1.0 -0.6459278978
O  O254  1  0.74200000  0.94760000  0.20040000  1.0 -0.6459278978
O  O255  1  0.12990000  0.16630000  0.59810000  1.0 -0.3798491475
O  O256  1  0.83370000  0.87010000  0.09810000  1.0 -0.3798491475
O  O257  1  0.07020000  0.70380000  0.21330000  1.0 -0.4070264615
O  O258  1  0.29620000  0.92980000  0.71330000  1.0 -0.4070264615
O  O259  1  0.98280000  0.66960000  0.13220000  1.0 -0.4715781601
O  O260  1  0.33040000  0.01720000  0.63220000  1.0 -0.4715781601
O  O261  1  0.09170000  0.62270000  0.12880000  1.0 -0.5306357261
O  O262  1  0.37730000  0.90830000  0.62880000  1.0 -0.5306357261
O  O263  1  0.84020000  0.08060000  0.53860000  1.0 -0.3366102792
O  O264  1  0.91940000  0.15980000  0.03860000  1.0 -0.3366102792
O  O265  1  0.99410000  0.29150000  0.16530000  1.0 -0.4004093177
O  O266  1  0.70850000  0.00590000  0.66530000  1.0 -0.4004093177
O  O267  1  0.88820000  0.67560000  0.66870000  1.0 -0.2388809514
O  O268  1  0.32440000  0.11180000  0.16870000  1.0 -0.2388809514
