# DDEC6 charges by PACMAN v1.1 (https://github.com/mtap-research/PACMAN-charge/)
data_NOSTIB_ASR_pacman
_symmetry_space_group_name_H-M   'P 1'
_cell_length_a   25.47400000
_cell_length_b   25.47400000
_cell_length_c   27.31000000
_cell_angle_alpha   90.00000000
_cell_angle_beta   90.00000000
_cell_angle_gamma   90.00000000
_symmetry_Int_Tables_number   1
_chemical_formula_structural   NaCd2Cu6H172C132(N2O9)4
_chemical_formula_sum   'Na4 Cd8 Cu24 H688 C528 N32 O144'
_cell_volume   17722.13290156
_cell_formula_units_Z   4
loop_
 _symmetry_equiv_pos_site_id
 _symmetry_equiv_pos_as_xyz
  1  'x, y, z'
loop_
 _atom_site_type_symbol
 _atom_site_label
 _atom_site_symmetry_multiplicity
 _atom_site_fract_x
 _atom_site_fract_y
 _atom_site_fract_z
 _atom_site_occupancy
 _atom_site_charge
Na  Na1  1  0.50000000  0.50000000  0.50000000  1.0 0.8765428836
Na  Na2  1  0.00000000  0.00000000  0.50000000  1.0 0.8765428836
Na  Na3  1  0.00000000  0.00000000  0.00000000  1.0 0.8765428836
Na  Na4  1  0.50000000  0.50000000  0.00000000  1.0 0.8765428836
Cd  Cd1  1  0.50000000  0.50000000  0.62753000  1.0 0.7975128765
Cd  Cd2  1  0.00000000  0.00000000  0.62753000  1.0 0.7975128765
Cd  Cd3  1  0.00000000  0.00000000  0.87247000  1.0 0.7975128765
Cd  Cd4  1  0.50000000  0.50000000  0.87247000  1.0 0.7975128765
Cd  Cd5  1  0.00000000  0.00000000  0.37247000  1.0 0.7975128765
Cd  Cd6  1  0.50000000  0.50000000  0.37247000  1.0 0.7975128765
Cd  Cd7  1  0.50000000  0.50000000  0.12753000  1.0 0.7975128765
Cd  Cd8  1  0.00000000  0.00000000  0.12753000  1.0 0.7975128765
Cu  Cu1  1  0.22464000  0.24713000  0.54076000  1.0 0.7309121663
Cu  Cu2  1  0.77536000  0.75287000  0.54076000  1.0 0.7309121663
Cu  Cu3  1  0.25287000  0.72464000  0.54076000  1.0 0.7309121663
Cu  Cu4  1  0.74713000  0.27536000  0.54076000  1.0 0.7309121663
Cu  Cu5  1  0.27536000  0.74713000  0.95924000  1.0 0.7309121663
Cu  Cu6  1  0.72464000  0.25287000  0.95924000  1.0 0.7309121663
Cu  Cu7  1  0.24713000  0.22464000  0.95924000  1.0 0.7309121663
Cu  Cu8  1  0.75287000  0.77536000  0.95924000  1.0 0.7309121663
Cu  Cu9  1  0.27536000  0.25287000  0.45924000  1.0 0.7309121663
Cu  Cu10  1  0.72464000  0.74713000  0.45924000  1.0 0.7309121663
Cu  Cu11  1  0.24713000  0.77536000  0.45924000  1.0 0.7309121663
Cu  Cu12  1  0.75287000  0.22464000  0.45924000  1.0 0.7309121663
Cu  Cu13  1  0.22464000  0.75287000  0.04076000  1.0 0.7309121663
Cu  Cu14  1  0.77536000  0.24713000  0.04076000  1.0 0.7309121663
Cu  Cu15  1  0.25287000  0.27536000  0.04076000  1.0 0.7309121663
Cu  Cu16  1  0.74713000  0.72464000  0.04076000  1.0 0.7309121663
Cu  Cu17  1  0.50000000  0.00000000  0.54054000  1.0 0.8224269624
Cu  Cu18  1  0.50000000  0.00000000  0.63473000  1.0 0.7773407574
Cu  Cu19  1  0.00000000  0.50000000  0.95946000  1.0 0.8224269624
Cu  Cu20  1  0.00000000  0.50000000  0.86527000  1.0 0.7773407574
Cu  Cu21  1  0.00000000  0.50000000  0.45946000  1.0 0.8224269624
Cu  Cu22  1  0.00000000  0.50000000  0.36527000  1.0 0.7773407574
Cu  Cu23  1  0.50000000  0.00000000  0.04054000  1.0 0.8224269624
Cu  Cu24  1  0.50000000  0.00000000  0.13473000  1.0 0.7773407574
H  H1  1  0.41658000  0.23433000  0.64169000  1.0 0.1099667168
H  H2  1  0.37992000  0.28025000  0.62096000  1.0 0.1304920057
H  H3  1  0.35410000  0.22783000  0.64248000  1.0 0.1200854544
H  H4  1  0.43150000  0.23142000  0.50878000  1.0 0.1099667168
H  H5  1  0.45092000  0.26457000  0.55542000  1.0 0.1099667168
H  H6  1  0.48548000  0.16474000  0.52747000  1.0 0.1099667168
H  H7  1  0.51157000  0.20221000  0.56819000  1.0 0.0888958127
H  H8  1  0.46020000  0.16782000  0.63045000  1.0 0.100436509
H  H9  1  0.32383000  0.15510000  0.62228000  1.0 0.1200854544
H  H10  1  0.37521000  0.15080000  0.65577000  1.0 0.1200854544
H  H11  1  0.35561000  0.10099000  0.62509000  1.0 0.1304920057
H  H12  1  0.37715000  0.14014000  0.50846000  1.0 0.1413339799
H  H13  1  0.33216000  0.11919000  0.54440000  1.0 0.1304920057
H  H14  1  0.38669000  0.08830000  0.54034000  1.0 0.1493968206
H  H15  1  0.31056000  0.48518000  0.62459000  1.0 0.1099667168
H  H16  1  0.30867000  0.52958000  0.58318000  1.0 0.1099667168
H  H17  1  0.27293000  0.47821000  0.57813000  1.0 0.100436509
H  H18  1  0.38245000  0.46460000  0.49237000  1.0 0.100436509
H  H19  1  0.33856000  0.50908000  0.50051000  1.0 0.100436509
H  H20  1  0.27680000  0.45439000  0.47156000  1.0 0.0888958127
H  H21  1  0.32069000  0.41021000  0.46291000  1.0 0.0888958127
H  H22  1  0.25164000  0.41890000  0.54674000  1.0 0.100436509
H  H23  1  0.36099000  0.33231000  0.55348000  1.0 0.1200854544
H  H24  1  0.40380000  0.37291000  0.57362000  1.0 0.1200854544
H  H25  1  0.38990000  0.37153000  0.51649000  1.0 0.1304920057
H  H26  1  0.28081000  0.40904000  0.61804000  1.0 0.1099667168
H  H27  1  0.34078000  0.40791000  0.63545000  1.0 0.1099667168
H  H28  1  0.31340000  0.35538000  0.61594000  1.0 0.1304920057
H  H29  1  0.11026000  0.22885000  0.58370000  1.0 0.1200854544
H  H30  1  0.06820000  0.23247000  0.65980000  1.0 0.1413339799
H  H31  1  0.20642000  0.26935000  0.72475000  1.0 0.1304920057
H  H32  1  0.24848000  0.26573000  0.64865000  1.0 0.1200854544
H  H33  1  0.12314000  0.29917000  0.76523000  1.0 0.1304920057
H  H34  1  0.06740000  0.28086000  0.74268000  1.0 0.1200854544
H  H35  1  0.14320000  0.21336000  0.77916000  1.0 0.100436509
H  H36  1  0.08585000  0.19711000  0.75975000  1.0 0.1099667168
H  H37  1  0.11050000  0.25013000  0.84966000  1.0 0.1200854544
H  H38  1  0.05586000  0.26635000  0.82397000  1.0 0.1200854544
H  H39  1  0.98259000  0.19522000  0.82066000  1.0 0.1413339799
H  H40  1  0.95472000  0.11055000  0.84136000  1.0 0.100436509
H  H41  1  0.10100000  0.07608000  0.89006000  1.0 0.100436509
H  H42  1  0.12887000  0.16075000  0.86936000  1.0 0.1304920057
H  H43  1  0.46143000  0.51091000  0.72371000  1.0 0.3064654048
H  H44  1  0.58342000  0.76567000  0.64169000  1.0 0.1099667168
H  H45  1  0.62008000  0.71975000  0.62096000  1.0 0.1304920057
H  H46  1  0.64590000  0.77217000  0.64248000  1.0 0.1200854544
H  H47  1  0.56850000  0.76858000  0.50878000  1.0 0.1099667168
H  H48  1  0.54908000  0.73543000  0.55542000  1.0 0.1099667168
H  H49  1  0.51452000  0.83526000  0.52747000  1.0 0.1099667168
H  H50  1  0.48843000  0.79779000  0.56819000  1.0 0.0888958127
H  H51  1  0.53980000  0.83218000  0.63045000  1.0 0.100436509
H  H52  1  0.67617000  0.84490000  0.62228000  1.0 0.1200854544
H  H53  1  0.62479000  0.84920000  0.65577000  1.0 0.1200854544
H  H54  1  0.64439000  0.89901000  0.62509000  1.0 0.1304920057
H  H55  1  0.62285000  0.85986000  0.50846000  1.0 0.1413339799
H  H56  1  0.66784000  0.88081000  0.54440000  1.0 0.1304920057
H  H57  1  0.61331000  0.91170000  0.54034000  1.0 0.1493968206
H  H58  1  0.68944000  0.51482000  0.62459000  1.0 0.1099667168
H  H59  1  0.69133000  0.47042000  0.58318000  1.0 0.1099667168
H  H60  1  0.72707000  0.52179000  0.57813000  1.0 0.100436509
H  H61  1  0.61755000  0.53540000  0.49237000  1.0 0.100436509
H  H62  1  0.66144000  0.49092000  0.50051000  1.0 0.100436509
H  H63  1  0.72320000  0.54561000  0.47156000  1.0 0.0888958127
H  H64  1  0.67931000  0.58979000  0.46291000  1.0 0.0888958127
H  H65  1  0.74836000  0.58110000  0.54674000  1.0 0.100436509
H  H66  1  0.63901000  0.66769000  0.55348000  1.0 0.1200854544
H  H67  1  0.59620000  0.62709000  0.57362000  1.0 0.1200854544
H  H68  1  0.61010000  0.62847000  0.51649000  1.0 0.1304920057
H  H69  1  0.71919000  0.59096000  0.61804000  1.0 0.1099667168
H  H70  1  0.65922000  0.59209000  0.63545000  1.0 0.1099667168
H  H71  1  0.68660000  0.64462000  0.61594000  1.0 0.1304920057
H  H72  1  0.88974000  0.77115000  0.58370000  1.0 0.1200854544
H  H73  1  0.93180000  0.76753000  0.65980000  1.0 0.1413339799
H  H74  1  0.79358000  0.73065000  0.72475000  1.0 0.1304920057
H  H75  1  0.75152000  0.73427000  0.64865000  1.0 0.1200854544
H  H76  1  0.87686000  0.70083000  0.76523000  1.0 0.1304920057
H  H77  1  0.93260000  0.71914000  0.74268000  1.0 0.1200854544
H  H78  1  0.85680000  0.78664000  0.77916000  1.0 0.100436509
H  H79  1  0.91415000  0.80289000  0.75975000  1.0 0.1099667168
H  H80  1  0.88950000  0.74987000  0.84966000  1.0 0.1200854544
H  H81  1  0.94414000  0.73365000  0.82397000  1.0 0.1200854544
H  H82  1  0.01741000  0.80478000  0.82066000  1.0 0.1413339799
H  H83  1  0.04528000  0.88945000  0.84136000  1.0 0.100436509
H  H84  1  0.89900000  0.92392000  0.89006000  1.0 0.100436509
H  H85  1  0.87113000  0.83925000  0.86936000  1.0 0.1304920057
H  H86  1  0.53857000  0.48909000  0.72371000  1.0 0.3064654048
H  H87  1  0.26567000  0.91658000  0.64169000  1.0 0.1099667168
H  H88  1  0.21975000  0.87992000  0.62096000  1.0 0.1304920057
H  H89  1  0.27217000  0.85410000  0.64248000  1.0 0.1200854544
H  H90  1  0.26858000  0.93150000  0.50878000  1.0 0.1099667168
H  H91  1  0.23543000  0.95092000  0.55542000  1.0 0.1099667168
H  H92  1  0.33526000  0.98548000  0.52747000  1.0 0.1099667168
H  H93  1  0.29779000  0.01157000  0.56819000  1.0 0.0888958127
H  H94  1  0.33218000  0.96020000  0.63045000  1.0 0.100436509
H  H95  1  0.34490000  0.82383000  0.62228000  1.0 0.1200854544
H  H96  1  0.34920000  0.87521000  0.65577000  1.0 0.1200854544
H  H97  1  0.39901000  0.85561000  0.62509000  1.0 0.1304920057
H  H98  1  0.35986000  0.87715000  0.50846000  1.0 0.1413339799
H  H99  1  0.38081000  0.83216000  0.54440000  1.0 0.1304920057
H  H100  1  0.41170000  0.88669000  0.54034000  1.0 0.1493968206
H  H101  1  0.01482000  0.81056000  0.62459000  1.0 0.1099667168
H  H102  1  0.97042000  0.80867000  0.58318000  1.0 0.1099667168
H  H103  1  0.02179000  0.77293000  0.57813000  1.0 0.100436509
H  H104  1  0.03540000  0.88245000  0.49237000  1.0 0.100436509
H  H105  1  0.99092000  0.83856000  0.50051000  1.0 0.100436509
H  H106  1  0.04561000  0.77680000  0.47156000  1.0 0.0888958127
H  H107  1  0.08979000  0.82069000  0.46291000  1.0 0.0888958127
H  H108  1  0.08110000  0.75164000  0.54674000  1.0 0.100436509
H  H109  1  0.16769000  0.86099000  0.55348000  1.0 0.1200854544
H  H110  1  0.12709000  0.90380000  0.57362000  1.0 0.1200854544
H  H111  1  0.12847000  0.88990000  0.51649000  1.0 0.1304920057
H  H112  1  0.09096000  0.78081000  0.61804000  1.0 0.1099667168
H  H113  1  0.09209000  0.84078000  0.63545000  1.0 0.1099667168
H  H114  1  0.14462000  0.81340000  0.61594000  1.0 0.1304920057
H  H115  1  0.27115000  0.61026000  0.58370000  1.0 0.1200854544
H  H116  1  0.26753000  0.56820000  0.65980000  1.0 0.1413339799
H  H117  1  0.23065000  0.70642000  0.72475000  1.0 0.1304920057
H  H118  1  0.23427000  0.74848000  0.64865000  1.0 0.1200854544
H  H119  1  0.20083000  0.62314000  0.76523000  1.0 0.1304920057
H  H120  1  0.21914000  0.56740000  0.74268000  1.0 0.1200854544
H  H121  1  0.28664000  0.64320000  0.77916000  1.0 0.100436509
H  H122  1  0.30289000  0.58585000  0.75975000  1.0 0.1099667168
H  H123  1  0.24987000  0.61050000  0.84966000  1.0 0.1200854544
H  H124  1  0.23365000  0.55586000  0.82397000  1.0 0.1200854544
H  H125  1  0.30478000  0.48259000  0.82066000  1.0 0.1413339799
H  H126  1  0.38945000  0.45472000  0.84136000  1.0 0.100436509
H  H127  1  0.42392000  0.60100000  0.89006000  1.0 0.100436509
H  H128  1  0.33925000  0.62887000  0.86936000  1.0 0.1304920057
H  H129  1  0.98909000  0.96143000  0.72371000  1.0 0.3064654048
H  H130  1  0.73433000  0.08342000  0.64169000  1.0 0.1099667168
H  H131  1  0.78025000  0.12008000  0.62096000  1.0 0.1304920057
H  H132  1  0.72783000  0.14590000  0.64248000  1.0 0.1200854544
H  H133  1  0.73142000  0.06850000  0.50878000  1.0 0.1099667168
H  H134  1  0.76457000  0.04908000  0.55542000  1.0 0.1099667168
H  H135  1  0.66474000  0.01452000  0.52747000  1.0 0.1099667168
H  H136  1  0.70221000  0.98843000  0.56819000  1.0 0.0888958127
H  H137  1  0.66782000  0.03980000  0.63045000  1.0 0.100436509
H  H138  1  0.65510000  0.17617000  0.62228000  1.0 0.1200854544
H  H139  1  0.65080000  0.12479000  0.65577000  1.0 0.1200854544
H  H140  1  0.60099000  0.14439000  0.62509000  1.0 0.1304920057
H  H141  1  0.64014000  0.12285000  0.50846000  1.0 0.1413339799
H  H142  1  0.61919000  0.16784000  0.54440000  1.0 0.1304920057
H  H143  1  0.58830000  0.11331000  0.54034000  1.0 0.1493968206
H  H144  1  0.98518000  0.18944000  0.62459000  1.0 0.1099667168
H  H145  1  0.02958000  0.19133000  0.58318000  1.0 0.1099667168
H  H146  1  0.97821000  0.22707000  0.57813000  1.0 0.100436509
H  H147  1  0.96460000  0.11755000  0.49237000  1.0 0.100436509
H  H148  1  0.00908000  0.16144000  0.50051000  1.0 0.100436509
H  H149  1  0.95439000  0.22320000  0.47156000  1.0 0.0888958127
H  H150  1  0.91021000  0.17931000  0.46291000  1.0 0.0888958127
H  H151  1  0.91890000  0.24836000  0.54674000  1.0 0.100436509
H  H152  1  0.83231000  0.13901000  0.55348000  1.0 0.1200854544
H  H153  1  0.87291000  0.09620000  0.57362000  1.0 0.1200854544
H  H154  1  0.87153000  0.11010000  0.51649000  1.0 0.1304920057
H  H155  1  0.90904000  0.21919000  0.61804000  1.0 0.1099667168
H  H156  1  0.90791000  0.15922000  0.63545000  1.0 0.1099667168
H  H157  1  0.85538000  0.18660000  0.61594000  1.0 0.1304920057
H  H158  1  0.72885000  0.38974000  0.58370000  1.0 0.1200854544
H  H159  1  0.73247000  0.43180000  0.65980000  1.0 0.1413339799
H  H160  1  0.76935000  0.29358000  0.72475000  1.0 0.1304920057
H  H161  1  0.76573000  0.25152000  0.64865000  1.0 0.1200854544
H  H162  1  0.79917000  0.37686000  0.76523000  1.0 0.1304920057
H  H163  1  0.78086000  0.43260000  0.74268000  1.0 0.1200854544
H  H164  1  0.71336000  0.35680000  0.77916000  1.0 0.100436509
H  H165  1  0.69711000  0.41415000  0.75975000  1.0 0.1099667168
H  H166  1  0.75013000  0.38950000  0.84966000  1.0 0.1200854544
H  H167  1  0.76635000  0.44414000  0.82397000  1.0 0.1200854544
H  H168  1  0.69522000  0.51741000  0.82066000  1.0 0.1413339799
H  H169  1  0.61055000  0.54528000  0.84136000  1.0 0.100436509
H  H170  1  0.57608000  0.39900000  0.89006000  1.0 0.100436509
H  H171  1  0.66075000  0.37113000  0.86936000  1.0 0.1304920057
H  H172  1  0.01091000  0.03857000  0.72371000  1.0 0.3064654048
H  H173  1  0.08342000  0.73433000  0.85831000  1.0 0.1099667168
H  H174  1  0.12008000  0.78025000  0.87904000  1.0 0.1304920057
H  H175  1  0.14590000  0.72783000  0.85752000  1.0 0.1200854544
H  H176  1  0.06850000  0.73142000  0.99122000  1.0 0.1099667168
H  H177  1  0.04908000  0.76457000  0.94458000  1.0 0.1099667168
H  H178  1  0.01452000  0.66474000  0.97253000  1.0 0.1099667168
H  H179  1  0.98843000  0.70221000  0.93181000  1.0 0.0888958127
H  H180  1  0.03980000  0.66782000  0.86955000  1.0 0.100436509
H  H181  1  0.17617000  0.65510000  0.87772000  1.0 0.1200854544
H  H182  1  0.12479000  0.65080000  0.84423000  1.0 0.1200854544
H  H183  1  0.14439000  0.60099000  0.87491000  1.0 0.1304920057
H  H184  1  0.12285000  0.64014000  0.99154000  1.0 0.1413339799
H  H185  1  0.16784000  0.61919000  0.95560000  1.0 0.1304920057
H  H186  1  0.11331000  0.58830000  0.95966000  1.0 0.1493968206
H  H187  1  0.18944000  0.98518000  0.87541000  1.0 0.1099667168
H  H188  1  0.19133000  0.02958000  0.91682000  1.0 0.1099667168
H  H189  1  0.22707000  0.97821000  0.92187000  1.0 0.100436509
H  H190  1  0.11755000  0.96460000  0.00763000  1.0 0.100436509
H  H191  1  0.16144000  0.00908000  0.99949000  1.0 0.100436509
H  H192  1  0.22320000  0.95439000  0.02844000  1.0 0.0888958127
H  H193  1  0.17931000  0.91021000  0.03709000  1.0 0.0888958127
H  H194  1  0.24836000  0.91890000  0.95326000  1.0 0.100436509
H  H195  1  0.13901000  0.83231000  0.94652000  1.0 0.1200854544
H  H196  1  0.09620000  0.87291000  0.92638000  1.0 0.1200854544
H  H197  1  0.11010000  0.87153000  0.98351000  1.0 0.1304920057
H  H198  1  0.21919000  0.90904000  0.88196000  1.0 0.1099667168
H  H199  1  0.15922000  0.90791000  0.86455000  1.0 0.1099667168
H  H200  1  0.18660000  0.85538000  0.88406000  1.0 0.1304920057
H  H201  1  0.38974000  0.72885000  0.91630000  1.0 0.1200854544
H  H202  1  0.43180000  0.73247000  0.84020000  1.0 0.1413339799
H  H203  1  0.29358000  0.76935000  0.77525000  1.0 0.1304920057
H  H204  1  0.25152000  0.76573000  0.85135000  1.0 0.1200854544
H  H205  1  0.37686000  0.79917000  0.73477000  1.0 0.1304920057
H  H206  1  0.43260000  0.78086000  0.75732000  1.0 0.1200854544
H  H207  1  0.35680000  0.71336000  0.72084000  1.0 0.100436509
H  H208  1  0.41415000  0.69711000  0.74025000  1.0 0.1099667168
H  H209  1  0.38950000  0.75013000  0.65034000  1.0 0.1200854544
H  H210  1  0.44414000  0.76635000  0.67603000  1.0 0.1200854544
H  H211  1  0.51741000  0.69522000  0.67934000  1.0 0.1413339799
H  H212  1  0.54528000  0.61055000  0.65864000  1.0 0.100436509
H  H213  1  0.39900000  0.57608000  0.60994000  1.0 0.100436509
H  H214  1  0.37113000  0.66075000  0.63064000  1.0 0.1304920057
H  H215  1  0.03857000  0.01091000  0.77629000  1.0 0.3064654048
H  H216  1  0.91658000  0.26567000  0.85831000  1.0 0.1099667168
H  H217  1  0.87992000  0.21975000  0.87904000  1.0 0.1304920057
H  H218  1  0.85410000  0.27217000  0.85752000  1.0 0.1200854544
H  H219  1  0.93150000  0.26858000  0.99122000  1.0 0.1099667168
H  H220  1  0.95092000  0.23543000  0.94458000  1.0 0.1099667168
H  H221  1  0.98548000  0.33526000  0.97253000  1.0 0.1099667168
H  H222  1  0.01157000  0.29779000  0.93181000  1.0 0.0888958127
H  H223  1  0.96020000  0.33218000  0.86955000  1.0 0.100436509
H  H224  1  0.82383000  0.34490000  0.87772000  1.0 0.1200854544
H  H225  1  0.87521000  0.34920000  0.84423000  1.0 0.1200854544
H  H226  1  0.85561000  0.39901000  0.87491000  1.0 0.1304920057
H  H227  1  0.87715000  0.35986000  0.99154000  1.0 0.1413339799
H  H228  1  0.83216000  0.38081000  0.95560000  1.0 0.1304920057
H  H229  1  0.88669000  0.41170000  0.95966000  1.0 0.1493968206
H  H230  1  0.81056000  0.01482000  0.87541000  1.0 0.1099667168
H  H231  1  0.80867000  0.97042000  0.91682000  1.0 0.1099667168
H  H232  1  0.77293000  0.02179000  0.92187000  1.0 0.100436509
H  H233  1  0.88245000  0.03540000  0.00763000  1.0 0.100436509
H  H234  1  0.83856000  0.99092000  0.99949000  1.0 0.100436509
H  H235  1  0.77680000  0.04561000  0.02844000  1.0 0.0888958127
H  H236  1  0.82069000  0.08979000  0.03709000  1.0 0.0888958127
H  H237  1  0.75164000  0.08110000  0.95326000  1.0 0.100436509
H  H238  1  0.86099000  0.16769000  0.94652000  1.0 0.1200854544
H  H239  1  0.90380000  0.12709000  0.92638000  1.0 0.1200854544
H  H240  1  0.88990000  0.12847000  0.98351000  1.0 0.1304920057
H  H241  1  0.78081000  0.09096000  0.88196000  1.0 0.1099667168
H  H242  1  0.84078000  0.09209000  0.86455000  1.0 0.1099667168
H  H243  1  0.81340000  0.14462000  0.88406000  1.0 0.1304920057
H  H244  1  0.61026000  0.27115000  0.91630000  1.0 0.1200854544
H  H245  1  0.56820000  0.26753000  0.84020000  1.0 0.1413339799
H  H246  1  0.70642000  0.23065000  0.77525000  1.0 0.1304920057
H  H247  1  0.74848000  0.23427000  0.85135000  1.0 0.1200854544
H  H248  1  0.62314000  0.20083000  0.73477000  1.0 0.1304920057
H  H249  1  0.56740000  0.21914000  0.75732000  1.0 0.1200854544
H  H250  1  0.64320000  0.28664000  0.72084000  1.0 0.100436509
H  H251  1  0.58585000  0.30289000  0.74025000  1.0 0.1099667168
H  H252  1  0.61050000  0.24987000  0.65034000  1.0 0.1200854544
H  H253  1  0.55586000  0.23365000  0.67603000  1.0 0.1200854544
H  H254  1  0.48259000  0.30478000  0.67934000  1.0 0.1413339799
H  H255  1  0.45472000  0.38945000  0.65864000  1.0 0.100436509
H  H256  1  0.60100000  0.42392000  0.60994000  1.0 0.100436509
H  H257  1  0.62887000  0.33925000  0.63064000  1.0 0.1304920057
H  H258  1  0.96143000  0.98909000  0.77629000  1.0 0.3064654048
H  H259  1  0.23433000  0.41658000  0.85831000  1.0 0.1099667168
H  H260  1  0.28025000  0.37992000  0.87904000  1.0 0.1304920057
H  H261  1  0.22783000  0.35410000  0.85752000  1.0 0.1200854544
H  H262  1  0.23142000  0.43150000  0.99122000  1.0 0.1099667168
H  H263  1  0.26457000  0.45092000  0.94458000  1.0 0.1099667168
H  H264  1  0.16474000  0.48548000  0.97253000  1.0 0.1099667168
H  H265  1  0.20221000  0.51157000  0.93181000  1.0 0.0888958127
H  H266  1  0.16782000  0.46020000  0.86955000  1.0 0.100436509
H  H267  1  0.15510000  0.32383000  0.87772000  1.0 0.1200854544
H  H268  1  0.15080000  0.37521000  0.84423000  1.0 0.1200854544
H  H269  1  0.10099000  0.35561000  0.87491000  1.0 0.1304920057
H  H270  1  0.14014000  0.37715000  0.99154000  1.0 0.1413339799
H  H271  1  0.11919000  0.33216000  0.95560000  1.0 0.1304920057
H  H272  1  0.08830000  0.38669000  0.95966000  1.0 0.1493968206
H  H273  1  0.48518000  0.31056000  0.87541000  1.0 0.1099667168
H  H274  1  0.52958000  0.30867000  0.91682000  1.0 0.1099667168
H  H275  1  0.47821000  0.27293000  0.92187000  1.0 0.100436509
H  H276  1  0.46460000  0.38245000  0.00763000  1.0 0.100436509
H  H277  1  0.50908000  0.33856000  0.99949000  1.0 0.100436509
H  H278  1  0.45439000  0.27680000  0.02844000  1.0 0.0888958127
H  H279  1  0.41021000  0.32069000  0.03709000  1.0 0.0888958127
H  H280  1  0.41890000  0.25164000  0.95326000  1.0 0.100436509
H  H281  1  0.33231000  0.36099000  0.94652000  1.0 0.1200854544
H  H282  1  0.37291000  0.40380000  0.92638000  1.0 0.1200854544
H  H283  1  0.37153000  0.38990000  0.98351000  1.0 0.1304920057
H  H284  1  0.40904000  0.28081000  0.88196000  1.0 0.1099667168
H  H285  1  0.40791000  0.34078000  0.86455000  1.0 0.1099667168
H  H286  1  0.35538000  0.31340000  0.88406000  1.0 0.1304920057
H  H287  1  0.22885000  0.11026000  0.91630000  1.0 0.1200854544
H  H288  1  0.23247000  0.06820000  0.84020000  1.0 0.1413339799
H  H289  1  0.26935000  0.20642000  0.77525000  1.0 0.1304920057
H  H290  1  0.26573000  0.24848000  0.85135000  1.0 0.1200854544
H  H291  1  0.29917000  0.12314000  0.73477000  1.0 0.1304920057
H  H292  1  0.28086000  0.06740000  0.75732000  1.0 0.1200854544
H  H293  1  0.21336000  0.14320000  0.72084000  1.0 0.100436509
H  H294  1  0.19711000  0.08585000  0.74025000  1.0 0.1099667168
H  H295  1  0.25013000  0.11050000  0.65034000  1.0 0.1200854544
H  H296  1  0.26635000  0.05586000  0.67603000  1.0 0.1200854544
H  H297  1  0.19522000  0.98259000  0.67934000  1.0 0.1413339799
H  H298  1  0.11055000  0.95472000  0.65864000  1.0 0.100436509
H  H299  1  0.07608000  0.10100000  0.60994000  1.0 0.100436509
H  H300  1  0.16075000  0.12887000  0.63064000  1.0 0.1304920057
H  H301  1  0.51091000  0.46143000  0.77629000  1.0 0.3064654048
H  H302  1  0.76567000  0.58342000  0.85831000  1.0 0.1099667168
H  H303  1  0.71975000  0.62008000  0.87904000  1.0 0.1304920057
H  H304  1  0.77217000  0.64590000  0.85752000  1.0 0.1200854544
H  H305  1  0.76858000  0.56850000  0.99122000  1.0 0.1099667168
H  H306  1  0.73543000  0.54908000  0.94458000  1.0 0.1099667168
H  H307  1  0.83526000  0.51452000  0.97253000  1.0 0.1099667168
H  H308  1  0.79779000  0.48843000  0.93181000  1.0 0.0888958127
H  H309  1  0.83218000  0.53980000  0.86955000  1.0 0.100436509
H  H310  1  0.84490000  0.67617000  0.87772000  1.0 0.1200854544
H  H311  1  0.84920000  0.62479000  0.84423000  1.0 0.1200854544
H  H312  1  0.89901000  0.64439000  0.87491000  1.0 0.1304920057
H  H313  1  0.85986000  0.62285000  0.99154000  1.0 0.1413339799
H  H314  1  0.88081000  0.66784000  0.95560000  1.0 0.1304920057
H  H315  1  0.91170000  0.61331000  0.95966000  1.0 0.1493968206
H  H316  1  0.51482000  0.68944000  0.87541000  1.0 0.1099667168
H  H317  1  0.47042000  0.69133000  0.91682000  1.0 0.1099667168
H  H318  1  0.52179000  0.72707000  0.92187000  1.0 0.100436509
H  H319  1  0.53540000  0.61755000  0.00763000  1.0 0.100436509
H  H320  1  0.49092000  0.66144000  0.99949000  1.0 0.100436509
H  H321  1  0.54561000  0.72320000  0.02844000  1.0 0.0888958127
H  H322  1  0.58979000  0.67931000  0.03709000  1.0 0.0888958127
H  H323  1  0.58110000  0.74836000  0.95326000  1.0 0.100436509
H  H324  1  0.66769000  0.63901000  0.94652000  1.0 0.1200854544
H  H325  1  0.62709000  0.59620000  0.92638000  1.0 0.1200854544
H  H326  1  0.62847000  0.61010000  0.98351000  1.0 0.1304920057
H  H327  1  0.59096000  0.71919000  0.88196000  1.0 0.1099667168
H  H328  1  0.59209000  0.65922000  0.86455000  1.0 0.1099667168
H  H329  1  0.64462000  0.68660000  0.88406000  1.0 0.1304920057
H  H330  1  0.77115000  0.88974000  0.91630000  1.0 0.1200854544
H  H331  1  0.76753000  0.93180000  0.84020000  1.0 0.1413339799
H  H332  1  0.73065000  0.79358000  0.77525000  1.0 0.1304920057
H  H333  1  0.73427000  0.75152000  0.85135000  1.0 0.1200854544
H  H334  1  0.70083000  0.87686000  0.73477000  1.0 0.1304920057
H  H335  1  0.71914000  0.93260000  0.75732000  1.0 0.1200854544
H  H336  1  0.78664000  0.85680000  0.72084000  1.0 0.100436509
H  H337  1  0.80289000  0.91415000  0.74025000  1.0 0.1099667168
H  H338  1  0.74987000  0.88950000  0.65034000  1.0 0.1200854544
H  H339  1  0.73365000  0.94414000  0.67603000  1.0 0.1200854544
H  H340  1  0.80478000  0.01741000  0.67934000  1.0 0.1413339799
H  H341  1  0.88945000  0.04528000  0.65864000  1.0 0.100436509
H  H342  1  0.92392000  0.89900000  0.60994000  1.0 0.100436509
H  H343  1  0.83925000  0.87113000  0.63064000  1.0 0.1304920057
H  H344  1  0.48909000  0.53857000  0.77629000  1.0 0.3064654048
H  H345  1  0.08342000  0.26567000  0.35831000  1.0 0.1099667168
H  H346  1  0.12008000  0.21975000  0.37904000  1.0 0.1304920057
H  H347  1  0.14590000  0.27217000  0.35752000  1.0 0.1200854544
H  H348  1  0.06850000  0.26858000  0.49122000  1.0 0.1099667168
H  H349  1  0.04908000  0.23543000  0.44458000  1.0 0.1099667168
H  H350  1  0.01452000  0.33526000  0.47253000  1.0 0.1099667168
H  H351  1  0.98843000  0.29779000  0.43181000  1.0 0.0888958127
H  H352  1  0.03980000  0.33218000  0.36955000  1.0 0.100436509
H  H353  1  0.17617000  0.34490000  0.37772000  1.0 0.1200854544
H  H354  1  0.12479000  0.34920000  0.34423000  1.0 0.1200854544
H  H355  1  0.14439000  0.39901000  0.37491000  1.0 0.1304920057
H  H356  1  0.12285000  0.35986000  0.49154000  1.0 0.1413339799
H  H357  1  0.16784000  0.38081000  0.45560000  1.0 0.1304920057
H  H358  1  0.11331000  0.41170000  0.45966000  1.0 0.1493968206
H  H359  1  0.18944000  0.01482000  0.37541000  1.0 0.1099667168
H  H360  1  0.19133000  0.97042000  0.41682000  1.0 0.1099667168
H  H361  1  0.22707000  0.02179000  0.42187000  1.0 0.100436509
H  H362  1  0.11755000  0.03540000  0.50763000  1.0 0.100436509
H  H363  1  0.16144000  0.99092000  0.49949000  1.0 0.100436509
H  H364  1  0.22320000  0.04561000  0.52844000  1.0 0.0888958127
H  H365  1  0.17931000  0.08979000  0.53709000  1.0 0.0888958127
H  H366  1  0.24836000  0.08110000  0.45326000  1.0 0.100436509
H  H367  1  0.13901000  0.16769000  0.44652000  1.0 0.1200854544
H  H368  1  0.09620000  0.12709000  0.42638000  1.0 0.1200854544
H  H369  1  0.11010000  0.12847000  0.48351000  1.0 0.1304920057
H  H370  1  0.21919000  0.09096000  0.38196000  1.0 0.1099667168
H  H371  1  0.15922000  0.09209000  0.36455000  1.0 0.1099667168
H  H372  1  0.18660000  0.14462000  0.38406000  1.0 0.1304920057
H  H373  1  0.38974000  0.27115000  0.41630000  1.0 0.1200854544
H  H374  1  0.43180000  0.26753000  0.34020000  1.0 0.1413339799
H  H375  1  0.29358000  0.23065000  0.27525000  1.0 0.1304920057
H  H376  1  0.25152000  0.23427000  0.35135000  1.0 0.1200854544
H  H377  1  0.37686000  0.20083000  0.23477000  1.0 0.1304920057
H  H378  1  0.43260000  0.21914000  0.25732000  1.0 0.1200854544
H  H379  1  0.35680000  0.28664000  0.22084000  1.0 0.100436509
H  H380  1  0.41415000  0.30289000  0.24025000  1.0 0.1099667168
H  H381  1  0.38950000  0.24987000  0.15034000  1.0 0.1200854544
H  H382  1  0.44414000  0.23365000  0.17603000  1.0 0.1200854544
H  H383  1  0.51741000  0.30478000  0.17934000  1.0 0.1413339799
H  H384  1  0.54528000  0.38945000  0.15864000  1.0 0.100436509
H  H385  1  0.39900000  0.42392000  0.10994000  1.0 0.100436509
H  H386  1  0.37113000  0.33925000  0.13064000  1.0 0.1304920057
H  H387  1  0.03857000  0.98909000  0.27629000  1.0 0.3064654048
H  H388  1  0.91658000  0.73433000  0.35831000  1.0 0.1099667168
H  H389  1  0.87992000  0.78025000  0.37904000  1.0 0.1304920057
H  H390  1  0.85410000  0.72783000  0.35752000  1.0 0.1200854544
H  H391  1  0.93150000  0.73142000  0.49122000  1.0 0.1099667168
H  H392  1  0.95092000  0.76457000  0.44458000  1.0 0.1099667168
H  H393  1  0.98548000  0.66474000  0.47253000  1.0 0.1099667168
H  H394  1  0.01157000  0.70221000  0.43181000  1.0 0.0888958127
H  H395  1  0.96020000  0.66782000  0.36955000  1.0 0.100436509
H  H396  1  0.82383000  0.65510000  0.37772000  1.0 0.1200854544
H  H397  1  0.87521000  0.65080000  0.34423000  1.0 0.1200854544
H  H398  1  0.85561000  0.60099000  0.37491000  1.0 0.1304920057
H  H399  1  0.87715000  0.64014000  0.49154000  1.0 0.1413339799
H  H400  1  0.83216000  0.61919000  0.45560000  1.0 0.1304920057
H  H401  1  0.88669000  0.58830000  0.45966000  1.0 0.1493968206
H  H402  1  0.81056000  0.98518000  0.37541000  1.0 0.1099667168
H  H403  1  0.80867000  0.02958000  0.41682000  1.0 0.1099667168
H  H404  1  0.77293000  0.97821000  0.42187000  1.0 0.100436509
H  H405  1  0.88245000  0.96460000  0.50763000  1.0 0.100436509
H  H406  1  0.83856000  0.00908000  0.49949000  1.0 0.100436509
H  H407  1  0.77680000  0.95439000  0.52844000  1.0 0.0888958127
H  H408  1  0.82069000  0.91021000  0.53709000  1.0 0.0888958127
H  H409  1  0.75164000  0.91890000  0.45326000  1.0 0.100436509
H  H410  1  0.86099000  0.83231000  0.44652000  1.0 0.1200854544
H  H411  1  0.90380000  0.87291000  0.42638000  1.0 0.1200854544
H  H412  1  0.88990000  0.87153000  0.48351000  1.0 0.1304920057
H  H413  1  0.78081000  0.90904000  0.38196000  1.0 0.1099667168
H  H414  1  0.84078000  0.90791000  0.36455000  1.0 0.1099667168
H  H415  1  0.81340000  0.85538000  0.38406000  1.0 0.1304920057
H  H416  1  0.61026000  0.72885000  0.41630000  1.0 0.1200854544
H  H417  1  0.56820000  0.73247000  0.34020000  1.0 0.1413339799
H  H418  1  0.70642000  0.76935000  0.27525000  1.0 0.1304920057
H  H419  1  0.74848000  0.76573000  0.35135000  1.0 0.1200854544
H  H420  1  0.62314000  0.79917000  0.23477000  1.0 0.1304920057
H  H421  1  0.56740000  0.78086000  0.25732000  1.0 0.1200854544
H  H422  1  0.64320000  0.71336000  0.22084000  1.0 0.100436509
H  H423  1  0.58585000  0.69711000  0.24025000  1.0 0.1099667168
H  H424  1  0.61050000  0.75013000  0.15034000  1.0 0.1200854544
H  H425  1  0.55586000  0.76635000  0.17603000  1.0 0.1200854544
H  H426  1  0.48259000  0.69522000  0.17934000  1.0 0.1413339799
H  H427  1  0.45472000  0.61055000  0.15864000  1.0 0.100436509
H  H428  1  0.60100000  0.57608000  0.10994000  1.0 0.100436509
H  H429  1  0.62887000  0.66075000  0.13064000  1.0 0.1304920057
H  H430  1  0.96143000  0.01091000  0.27629000  1.0 0.3064654048
H  H431  1  0.23433000  0.58342000  0.35831000  1.0 0.1099667168
H  H432  1  0.28025000  0.62008000  0.37904000  1.0 0.1304920057
H  H433  1  0.22783000  0.64590000  0.35752000  1.0 0.1200854544
H  H434  1  0.23142000  0.56850000  0.49122000  1.0 0.1099667168
H  H435  1  0.26457000  0.54908000  0.44458000  1.0 0.1099667168
H  H436  1  0.16474000  0.51452000  0.47253000  1.0 0.1099667168
H  H437  1  0.20221000  0.48843000  0.43181000  1.0 0.0888958127
H  H438  1  0.16782000  0.53980000  0.36955000  1.0 0.100436509
H  H439  1  0.15510000  0.67617000  0.37772000  1.0 0.1200854544
H  H440  1  0.15080000  0.62479000  0.34423000  1.0 0.1200854544
H  H441  1  0.10099000  0.64439000  0.37491000  1.0 0.1304920057
H  H442  1  0.14014000  0.62285000  0.49154000  1.0 0.1413339799
H  H443  1  0.11919000  0.66784000  0.45560000  1.0 0.1304920057
H  H444  1  0.08830000  0.61331000  0.45966000  1.0 0.1493968206
H  H445  1  0.48518000  0.68944000  0.37541000  1.0 0.1099667168
H  H446  1  0.52958000  0.69133000  0.41682000  1.0 0.1099667168
H  H447  1  0.47821000  0.72707000  0.42187000  1.0 0.100436509
H  H448  1  0.46460000  0.61755000  0.50763000  1.0 0.100436509
H  H449  1  0.50908000  0.66144000  0.49949000  1.0 0.100436509
H  H450  1  0.45439000  0.72320000  0.52844000  1.0 0.0888958127
H  H451  1  0.41021000  0.67931000  0.53709000  1.0 0.0888958127
H  H452  1  0.41890000  0.74836000  0.45326000  1.0 0.100436509
H  H453  1  0.33231000  0.63901000  0.44652000  1.0 0.1200854544
H  H454  1  0.37291000  0.59620000  0.42638000  1.0 0.1200854544
H  H455  1  0.37153000  0.61010000  0.48351000  1.0 0.1304920057
H  H456  1  0.40904000  0.71919000  0.38196000  1.0 0.1099667168
H  H457  1  0.40791000  0.65922000  0.36455000  1.0 0.1099667168
H  H458  1  0.35538000  0.68660000  0.38406000  1.0 0.1304920057
H  H459  1  0.22885000  0.88974000  0.41630000  1.0 0.1200854544
H  H460  1  0.23247000  0.93180000  0.34020000  1.0 0.1413339799
H  H461  1  0.26935000  0.79358000  0.27525000  1.0 0.1304920057
H  H462  1  0.26573000  0.75152000  0.35135000  1.0 0.1200854544
H  H463  1  0.29917000  0.87686000  0.23477000  1.0 0.1304920057
H  H464  1  0.28086000  0.93260000  0.25732000  1.0 0.1200854544
H  H465  1  0.21336000  0.85680000  0.22084000  1.0 0.100436509
H  H466  1  0.19711000  0.91415000  0.24025000  1.0 0.1099667168
H  H467  1  0.25013000  0.88950000  0.15034000  1.0 0.1200854544
H  H468  1  0.26635000  0.94414000  0.17603000  1.0 0.1200854544
H  H469  1  0.19522000  0.01741000  0.17934000  1.0 0.1413339799
H  H470  1  0.11055000  0.04528000  0.15864000  1.0 0.100436509
H  H471  1  0.07608000  0.89900000  0.10994000  1.0 0.100436509
H  H472  1  0.16075000  0.87113000  0.13064000  1.0 0.1304920057
H  H473  1  0.51091000  0.53857000  0.27629000  1.0 0.3064654048
H  H474  1  0.76567000  0.41658000  0.35831000  1.0 0.1099667168
H  H475  1  0.71975000  0.37992000  0.37904000  1.0 0.1304920057
H  H476  1  0.77217000  0.35410000  0.35752000  1.0 0.1200854544
H  H477  1  0.76858000  0.43150000  0.49122000  1.0 0.1099667168
H  H478  1  0.73543000  0.45092000  0.44458000  1.0 0.1099667168
H  H479  1  0.83526000  0.48548000  0.47253000  1.0 0.1099667168
H  H480  1  0.79779000  0.51157000  0.43181000  1.0 0.0888958127
H  H481  1  0.83218000  0.46020000  0.36955000  1.0 0.100436509
H  H482  1  0.84490000  0.32383000  0.37772000  1.0 0.1200854544
H  H483  1  0.84920000  0.37521000  0.34423000  1.0 0.1200854544
H  H484  1  0.89901000  0.35561000  0.37491000  1.0 0.1304920057
H  H485  1  0.85986000  0.37715000  0.49154000  1.0 0.1413339799
H  H486  1  0.88081000  0.33216000  0.45560000  1.0 0.1304920057
H  H487  1  0.91170000  0.38669000  0.45966000  1.0 0.1493968206
H  H488  1  0.51482000  0.31056000  0.37541000  1.0 0.1099667168
H  H489  1  0.47042000  0.30867000  0.41682000  1.0 0.1099667168
H  H490  1  0.52179000  0.27293000  0.42187000  1.0 0.100436509
H  H491  1  0.53540000  0.38245000  0.50763000  1.0 0.100436509
H  H492  1  0.49092000  0.33856000  0.49949000  1.0 0.100436509
H  H493  1  0.54561000  0.27680000  0.52844000  1.0 0.0888958127
H  H494  1  0.58979000  0.32069000  0.53709000  1.0 0.0888958127
H  H495  1  0.58110000  0.25164000  0.45326000  1.0 0.100436509
H  H496  1  0.66769000  0.36099000  0.44652000  1.0 0.1200854544
H  H497  1  0.62709000  0.40380000  0.42638000  1.0 0.1200854544
H  H498  1  0.62847000  0.38990000  0.48351000  1.0 0.1304920057
H  H499  1  0.59096000  0.28081000  0.38196000  1.0 0.1099667168
H  H500  1  0.59209000  0.34078000  0.36455000  1.0 0.1099667168
H  H501  1  0.64462000  0.31340000  0.38406000  1.0 0.1304920057
H  H502  1  0.77115000  0.11026000  0.41630000  1.0 0.1200854544
H  H503  1  0.76753000  0.06820000  0.34020000  1.0 0.1413339799
H  H504  1  0.73065000  0.20642000  0.27525000  1.0 0.1304920057
H  H505  1  0.73427000  0.24848000  0.35135000  1.0 0.1200854544
H  H506  1  0.70083000  0.12314000  0.23477000  1.0 0.1304920057
H  H507  1  0.71914000  0.06740000  0.25732000  1.0 0.1200854544
H  H508  1  0.78664000  0.14320000  0.22084000  1.0 0.100436509
H  H509  1  0.80289000  0.08585000  0.24025000  1.0 0.1099667168
H  H510  1  0.74987000  0.11050000  0.15034000  1.0 0.1200854544
H  H511  1  0.73365000  0.05586000  0.17603000  1.0 0.1200854544
H  H512  1  0.80478000  0.98259000  0.17934000  1.0 0.1413339799
H  H513  1  0.88945000  0.95472000  0.15864000  1.0 0.100436509
H  H514  1  0.92392000  0.10100000  0.10994000  1.0 0.100436509
H  H515  1  0.83925000  0.12887000  0.13064000  1.0 0.1304920057
H  H516  1  0.48909000  0.46143000  0.27629000  1.0 0.3064654048
H  H517  1  0.41658000  0.76567000  0.14169000  1.0 0.1099667168
H  H518  1  0.37992000  0.71975000  0.12096000  1.0 0.1304920057
H  H519  1  0.35410000  0.77217000  0.14248000  1.0 0.1200854544
H  H520  1  0.43150000  0.76858000  0.00878000  1.0 0.1099667168
H  H521  1  0.45092000  0.73543000  0.05542000  1.0 0.1099667168
H  H522  1  0.48548000  0.83526000  0.02747000  1.0 0.1099667168
H  H523  1  0.51157000  0.79779000  0.06819000  1.0 0.0888958127
H  H524  1  0.46020000  0.83218000  0.13045000  1.0 0.100436509
H  H525  1  0.32383000  0.84490000  0.12228000  1.0 0.1200854544
H  H526  1  0.37521000  0.84920000  0.15577000  1.0 0.1200854544
H  H527  1  0.35561000  0.89901000  0.12509000  1.0 0.1304920057
H  H528  1  0.37715000  0.85986000  0.00846000  1.0 0.1413339799
H  H529  1  0.33216000  0.88081000  0.04440000  1.0 0.1304920057
H  H530  1  0.38669000  0.91170000  0.04034000  1.0 0.1493968206
H  H531  1  0.31056000  0.51482000  0.12459000  1.0 0.1099667168
H  H532  1  0.30867000  0.47042000  0.08318000  1.0 0.1099667168
H  H533  1  0.27293000  0.52179000  0.07813000  1.0 0.100436509
H  H534  1  0.38245000  0.53540000  0.99237000  1.0 0.100436509
H  H535  1  0.33856000  0.49092000  0.00051000  1.0 0.100436509
H  H536  1  0.27680000  0.54561000  0.97156000  1.0 0.0888958127
H  H537  1  0.32069000  0.58979000  0.96291000  1.0 0.0888958127
H  H538  1  0.25164000  0.58110000  0.04674000  1.0 0.100436509
H  H539  1  0.36099000  0.66769000  0.05348000  1.0 0.1200854544
H  H540  1  0.40380000  0.62709000  0.07362000  1.0 0.1200854544
H  H541  1  0.38990000  0.62847000  0.01649000  1.0 0.1304920057
H  H542  1  0.28081000  0.59096000  0.11804000  1.0 0.1099667168
H  H543  1  0.34078000  0.59209000  0.13545000  1.0 0.1099667168
H  H544  1  0.31340000  0.64462000  0.11594000  1.0 0.1304920057
H  H545  1  0.11026000  0.77115000  0.08370000  1.0 0.1200854544
H  H546  1  0.06820000  0.76753000  0.15980000  1.0 0.1413339799
H  H547  1  0.20642000  0.73065000  0.22475000  1.0 0.1304920057
H  H548  1  0.24848000  0.73427000  0.14865000  1.0 0.1200854544
H  H549  1  0.12314000  0.70083000  0.26523000  1.0 0.1304920057
H  H550  1  0.06740000  0.71914000  0.24268000  1.0 0.1200854544
H  H551  1  0.14320000  0.78664000  0.27916000  1.0 0.100436509
H  H552  1  0.08585000  0.80289000  0.25975000  1.0 0.1099667168
H  H553  1  0.11050000  0.74987000  0.34966000  1.0 0.1200854544
H  H554  1  0.05586000  0.73365000  0.32397000  1.0 0.1200854544
H  H555  1  0.98259000  0.80478000  0.32066000  1.0 0.1413339799
H  H556  1  0.95472000  0.88945000  0.34136000  1.0 0.100436509
H  H557  1  0.10100000  0.92392000  0.39006000  1.0 0.100436509
H  H558  1  0.12887000  0.83925000  0.36936000  1.0 0.1304920057
H  H559  1  0.46143000  0.48909000  0.22371000  1.0 0.3064654048
H  H560  1  0.58342000  0.23433000  0.14169000  1.0 0.1099667168
H  H561  1  0.62008000  0.28025000  0.12096000  1.0 0.1304920057
H  H562  1  0.64590000  0.22783000  0.14248000  1.0 0.1200854544
H  H563  1  0.56850000  0.23142000  0.00878000  1.0 0.1099667168
H  H564  1  0.54908000  0.26457000  0.05542000  1.0 0.1099667168
H  H565  1  0.51452000  0.16474000  0.02747000  1.0 0.1099667168
H  H566  1  0.48843000  0.20221000  0.06819000  1.0 0.0888958127
H  H567  1  0.53980000  0.16782000  0.13045000  1.0 0.100436509
H  H568  1  0.67617000  0.15510000  0.12228000  1.0 0.1200854544
H  H569  1  0.62479000  0.15080000  0.15577000  1.0 0.1200854544
H  H570  1  0.64439000  0.10099000  0.12509000  1.0 0.1304920057
H  H571  1  0.62285000  0.14014000  0.00846000  1.0 0.1413339799
H  H572  1  0.66784000  0.11919000  0.04440000  1.0 0.1304920057
H  H573  1  0.61331000  0.08830000  0.04034000  1.0 0.1493968206
H  H574  1  0.68944000  0.48518000  0.12459000  1.0 0.1099667168
H  H575  1  0.69133000  0.52958000  0.08318000  1.0 0.1099667168
H  H576  1  0.72707000  0.47821000  0.07813000  1.0 0.100436509
H  H577  1  0.61755000  0.46460000  0.99237000  1.0 0.100436509
H  H578  1  0.66144000  0.50908000  0.00051000  1.0 0.100436509
H  H579  1  0.72320000  0.45439000  0.97156000  1.0 0.0888958127
H  H580  1  0.67931000  0.41021000  0.96291000  1.0 0.0888958127
H  H581  1  0.74836000  0.41890000  0.04674000  1.0 0.100436509
H  H582  1  0.63901000  0.33231000  0.05348000  1.0 0.1200854544
H  H583  1  0.59620000  0.37291000  0.07362000  1.0 0.1200854544
H  H584  1  0.61010000  0.37153000  0.01649000  1.0 0.1304920057
H  H585  1  0.71919000  0.40904000  0.11804000  1.0 0.1099667168
H  H586  1  0.65922000  0.40791000  0.13545000  1.0 0.1099667168
H  H587  1  0.68660000  0.35538000  0.11594000  1.0 0.1304920057
H  H588  1  0.88974000  0.22885000  0.08370000  1.0 0.1200854544
H  H589  1  0.93180000  0.23247000  0.15980000  1.0 0.1413339799
H  H590  1  0.79358000  0.26935000  0.22475000  1.0 0.1304920057
H  H591  1  0.75152000  0.26573000  0.14865000  1.0 0.1200854544
H  H592  1  0.87686000  0.29917000  0.26523000  1.0 0.1304920057
H  H593  1  0.93260000  0.28086000  0.24268000  1.0 0.1200854544
H  H594  1  0.85680000  0.21336000  0.27916000  1.0 0.100436509
H  H595  1  0.91415000  0.19711000  0.25975000  1.0 0.1099667168
H  H596  1  0.88950000  0.25013000  0.34966000  1.0 0.1200854544
H  H597  1  0.94414000  0.26635000  0.32397000  1.0 0.1200854544
H  H598  1  0.01741000  0.19522000  0.32066000  1.0 0.1413339799
H  H599  1  0.04528000  0.11055000  0.34136000  1.0 0.100436509
H  H600  1  0.89900000  0.07608000  0.39006000  1.0 0.100436509
H  H601  1  0.87113000  0.16075000  0.36936000  1.0 0.1304920057
H  H602  1  0.53857000  0.51091000  0.22371000  1.0 0.3064654048
H  H603  1  0.26567000  0.08342000  0.14169000  1.0 0.1099667168
H  H604  1  0.21975000  0.12008000  0.12096000  1.0 0.1304920057
H  H605  1  0.27217000  0.14590000  0.14248000  1.0 0.1200854544
H  H606  1  0.26858000  0.06850000  0.00878000  1.0 0.1099667168
H  H607  1  0.23543000  0.04908000  0.05542000  1.0 0.1099667168
H  H608  1  0.33526000  0.01452000  0.02747000  1.0 0.1099667168
H  H609  1  0.29779000  0.98843000  0.06819000  1.0 0.0888958127
H  H610  1  0.33218000  0.03980000  0.13045000  1.0 0.100436509
H  H611  1  0.34490000  0.17617000  0.12228000  1.0 0.1200854544
H  H612  1  0.34920000  0.12479000  0.15577000  1.0 0.1200854544
H  H613  1  0.39901000  0.14439000  0.12509000  1.0 0.1304920057
H  H614  1  0.35986000  0.12285000  0.00846000  1.0 0.1413339799
H  H615  1  0.38081000  0.16784000  0.04440000  1.0 0.1304920057
H  H616  1  0.41170000  0.11331000  0.04034000  1.0 0.1493968206
H  H617  1  0.01482000  0.18944000  0.12459000  1.0 0.1099667168
H  H618  1  0.97042000  0.19133000  0.08318000  1.0 0.1099667168
H  H619  1  0.02179000  0.22707000  0.07813000  1.0 0.100436509
H  H620  1  0.03540000  0.11755000  0.99237000  1.0 0.100436509
H  H621  1  0.99092000  0.16144000  0.00051000  1.0 0.100436509
H  H622  1  0.04561000  0.22320000  0.97156000  1.0 0.0888958127
H  H623  1  0.08979000  0.17931000  0.96291000  1.0 0.0888958127
H  H624  1  0.08110000  0.24836000  0.04674000  1.0 0.100436509
H  H625  1  0.16769000  0.13901000  0.05348000  1.0 0.1200854544
H  H626  1  0.12709000  0.09620000  0.07362000  1.0 0.1200854544
H  H627  1  0.12847000  0.11010000  0.01649000  1.0 0.1304920057
H  H628  1  0.09096000  0.21919000  0.11804000  1.0 0.1099667168
H  H629  1  0.09209000  0.15922000  0.13545000  1.0 0.1099667168
H  H630  1  0.14462000  0.18660000  0.11594000  1.0 0.1304920057
H  H631  1  0.27115000  0.38974000  0.08370000  1.0 0.1200854544
H  H632  1  0.26753000  0.43180000  0.15980000  1.0 0.1413339799
H  H633  1  0.23065000  0.29358000  0.22475000  1.0 0.1304920057
H  H634  1  0.23427000  0.25152000  0.14865000  1.0 0.1200854544
H  H635  1  0.20083000  0.37686000  0.26523000  1.0 0.1304920057
H  H636  1  0.21914000  0.43260000  0.24268000  1.0 0.1200854544
H  H637  1  0.28664000  0.35680000  0.27916000  1.0 0.100436509
H  H638  1  0.30289000  0.41415000  0.25975000  1.0 0.1099667168
H  H639  1  0.24987000  0.38950000  0.34966000  1.0 0.1200854544
H  H640  1  0.23365000  0.44414000  0.32397000  1.0 0.1200854544
H  H641  1  0.30478000  0.51741000  0.32066000  1.0 0.1413339799
H  H642  1  0.38945000  0.54528000  0.34136000  1.0 0.100436509
H  H643  1  0.42392000  0.39900000  0.39006000  1.0 0.100436509
H  H644  1  0.33925000  0.37113000  0.36936000  1.0 0.1304920057
H  H645  1  0.98909000  0.03857000  0.22371000  1.0 0.3064654048
H  H646  1  0.73433000  0.91658000  0.14169000  1.0 0.1099667168
H  H647  1  0.78025000  0.87992000  0.12096000  1.0 0.1304920057
H  H648  1  0.72783000  0.85410000  0.14248000  1.0 0.1200854544
H  H649  1  0.73142000  0.93150000  0.00878000  1.0 0.1099667168
H  H650  1  0.76457000  0.95092000  0.05542000  1.0 0.1099667168
H  H651  1  0.66474000  0.98548000  0.02747000  1.0 0.1099667168
H  H652  1  0.70221000  0.01157000  0.06819000  1.0 0.0888958127
H  H653  1  0.66782000  0.96020000  0.13045000  1.0 0.100436509
H  H654  1  0.65510000  0.82383000  0.12228000  1.0 0.1200854544
H  H655  1  0.65080000  0.87521000  0.15577000  1.0 0.1200854544
H  H656  1  0.60099000  0.85561000  0.12509000  1.0 0.1304920057
H  H657  1  0.64014000  0.87715000  0.00846000  1.0 0.1413339799
H  H658  1  0.61919000  0.83216000  0.04440000  1.0 0.1304920057
H  H659  1  0.58830000  0.88669000  0.04034000  1.0 0.1493968206
H  H660  1  0.98518000  0.81056000  0.12459000  1.0 0.1099667168
H  H661  1  0.02958000  0.80867000  0.08318000  1.0 0.1099667168
H  H662  1  0.97821000  0.77293000  0.07813000  1.0 0.100436509
H  H663  1  0.96460000  0.88245000  0.99237000  1.0 0.100436509
H  H664  1  0.00908000  0.83856000  0.00051000  1.0 0.100436509
H  H665  1  0.95439000  0.77680000  0.97156000  1.0 0.0888958127
H  H666  1  0.91021000  0.82069000  0.96291000  1.0 0.0888958127
H  H667  1  0.91890000  0.75164000  0.04674000  1.0 0.100436509
H  H668  1  0.83231000  0.86099000  0.05348000  1.0 0.1200854544
H  H669  1  0.87291000  0.90380000  0.07362000  1.0 0.1200854544
H  H670  1  0.87153000  0.88990000  0.01649000  1.0 0.1304920057
H  H671  1  0.90904000  0.78081000  0.11804000  1.0 0.1099667168
H  H672  1  0.90791000  0.84078000  0.13545000  1.0 0.1099667168
H  H673  1  0.85538000  0.81340000  0.11594000  1.0 0.1304920057
H  H674  1  0.72885000  0.61026000  0.08370000  1.0 0.1200854544
H  H675  1  0.73247000  0.56820000  0.15980000  1.0 0.1413339799
H  H676  1  0.76935000  0.70642000  0.22475000  1.0 0.1304920057
H  H677  1  0.76573000  0.74848000  0.14865000  1.0 0.1200854544
H  H678  1  0.79917000  0.62314000  0.26523000  1.0 0.1304920057
H  H679  1  0.78086000  0.56740000  0.24268000  1.0 0.1200854544
H  H680  1  0.71336000  0.64320000  0.27916000  1.0 0.100436509
H  H681  1  0.69711000  0.58585000  0.25975000  1.0 0.1099667168
H  H682  1  0.75013000  0.61050000  0.34966000  1.0 0.1200854544
H  H683  1  0.76635000  0.55586000  0.32397000  1.0 0.1200854544
H  H684  1  0.69522000  0.48259000  0.32066000  1.0 0.1413339799
H  H685  1  0.61055000  0.45472000  0.34136000  1.0 0.100436509
H  H686  1  0.57608000  0.60100000  0.39006000  1.0 0.100436509
H  H687  1  0.66075000  0.62887000  0.36936000  1.0 0.1304920057
H  H688  1  0.01091000  0.96143000  0.22371000  1.0 0.3064654048
C  C1  1  0.33480000  0.22886000  0.54474000  1.0 0.5441107626
C  C2  1  0.38584000  0.21643000  0.57168000  1.0 0.0402276839
C  C3  1  0.38393000  0.24214000  0.62417000  1.0 -0.4504163315
C  C4  1  0.43767000  0.22995000  0.54454000  1.0 -0.2275501036
C  C5  1  0.47821000  0.18652000  0.55671000  1.0 -0.1778411122
C  C6  1  0.45333000  0.15363000  0.59692000  1.0 -0.1580653408
C  C7  1  0.39279000  0.15670000  0.58168000  1.0 0.2124571229
C  C8  1  0.35879000  0.13933000  0.62513000  1.0 -0.4607412995
C  C9  1  0.37014000  0.12302000  0.53993000  1.0 -0.4607412995
C  C10  1  0.47196000  0.09409000  0.59064000  1.0 0.5752360697
C  C11  1  0.40486000  0.47557000  0.58368000  1.0 0.5604201226
C  C12  1  0.35125000  0.46397000  0.56175000  1.0 0.0478677213
C  C13  1  0.30685000  0.49174000  0.58941000  1.0 -0.4504163315
C  C14  1  0.34813000  0.47224000  0.50781000  1.0 -0.218928953
C  C15  1  0.30503000  0.43397000  0.48761000  1.0 -0.1746687119
C  C16  1  0.28189000  0.40143000  0.53003000  1.0 -0.1536293601
C  C17  1  0.33382000  0.40718000  0.55766000  1.0 0.1729352462
C  C18  1  0.37568000  0.36763000  0.54963000  1.0 -0.4708577047
C  C19  1  0.31543000  0.39357000  0.61201000  1.0 -0.4260682177
C  C20  1  0.26999000  0.34581000  0.51332000  1.0 0.5604201226
C  C21  1  0.12978000  0.23707000  0.61233000  1.0 0.0703971336
C  C22  1  0.10480000  0.23922000  0.65754000  1.0 -0.2126821785
C  C23  1  0.13336000  0.25125000  0.69943000  1.0 0.1493968206
C  C24  1  0.18690000  0.26113000  0.69612000  1.0 -0.2275501036
C  C25  1  0.21189000  0.25898000  0.65091000  1.0 0.0801796957
C  C26  1  0.10410000  0.27006000  0.74906000  1.0 -0.2432650619
C  C27  1  0.10639000  0.22528000  0.77576000  1.0 -0.1359359103
C  C28  1  0.08287000  0.23855000  0.82658000  1.0 -0.2592747
C  C29  1  0.05835000  0.18594000  0.84306000  1.0 0.1795084055
C  C30  1  0.00663000  0.17103000  0.83474000  1.0 -0.218928953
C  C31  1  0.99007000  0.12074000  0.84704000  1.0 0.0478677213
C  C32  1  0.07697000  0.10027000  0.87597000  1.0 0.0703971336
C  C33  1  0.09352000  0.15056000  0.86367000  1.0 -0.2126821785
C  C34  1  0.66520000  0.77114000  0.54474000  1.0 0.5441107626
C  C35  1  0.61416000  0.78357000  0.57168000  1.0 0.0402276839
C  C36  1  0.61607000  0.75786000  0.62417000  1.0 -0.4504163315
C  C37  1  0.56233000  0.77005000  0.54454000  1.0 -0.2275501036
C  C38  1  0.52179000  0.81348000  0.55671000  1.0 -0.1778411122
C  C39  1  0.54667000  0.84637000  0.59692000  1.0 -0.1580653408
C  C40  1  0.60721000  0.84330000  0.58168000  1.0 0.2124571229
C  C41  1  0.64121000  0.86067000  0.62513000  1.0 -0.4607412995
C  C42  1  0.62986000  0.87698000  0.53993000  1.0 -0.4607412995
C  C43  1  0.52804000  0.90591000  0.59064000  1.0 0.5752360697
C  C44  1  0.59514000  0.52443000  0.58368000  1.0 0.5604201226
C  C45  1  0.64875000  0.53603000  0.56175000  1.0 0.0478677213
C  C46  1  0.69315000  0.50826000  0.58941000  1.0 -0.4504163315
C  C47  1  0.65187000  0.52776000  0.50781000  1.0 -0.218928953
C  C48  1  0.69497000  0.56603000  0.48761000  1.0 -0.1746687119
C  C49  1  0.71811000  0.59857000  0.53003000  1.0 -0.1536293601
C  C50  1  0.66618000  0.59282000  0.55766000  1.0 0.1729352462
C  C51  1  0.62432000  0.63237000  0.54963000  1.0 -0.4708577047
C  C52  1  0.68457000  0.60643000  0.61201000  1.0 -0.4260682177
C  C53  1  0.73001000  0.65419000  0.51332000  1.0 0.5604201226
C  C54  1  0.87022000  0.76293000  0.61233000  1.0 0.0703971336
C  C55  1  0.89520000  0.76078000  0.65754000  1.0 -0.2126821785
C  C56  1  0.86664000  0.74875000  0.69943000  1.0 0.1493968206
C  C57  1  0.81310000  0.73887000  0.69612000  1.0 -0.2275501036
C  C58  1  0.78811000  0.74102000  0.65091000  1.0 0.0801796957
C  C59  1  0.89590000  0.72994000  0.74906000  1.0 -0.2432650619
C  C60  1  0.89361000  0.77472000  0.77576000  1.0 -0.1359359103
C  C61  1  0.91713000  0.76145000  0.82658000  1.0 -0.2592747
C  C62  1  0.94165000  0.81406000  0.84306000  1.0 0.1795084055
C  C63  1  0.99337000  0.82897000  0.83474000  1.0 -0.218928953
C  C64  1  0.00993000  0.87926000  0.84704000  1.0 0.0478677213
C  C65  1  0.92303000  0.89973000  0.87597000  1.0 0.0703971336
C  C66  1  0.90648000  0.84944000  0.86367000  1.0 -0.2126821785
C  C67  1  0.27114000  0.83480000  0.54474000  1.0 0.5441107626
C  C68  1  0.28357000  0.88584000  0.57168000  1.0 0.0402276839
C  C69  1  0.25786000  0.88393000  0.62417000  1.0 -0.4504163315
C  C70  1  0.27005000  0.93767000  0.54454000  1.0 -0.2275501036
C  C71  1  0.31348000  0.97821000  0.55671000  1.0 -0.1778411122
C  C72  1  0.34637000  0.95333000  0.59692000  1.0 -0.1580653408
C  C73  1  0.34330000  0.89279000  0.58168000  1.0 0.2124571229
C  C74  1  0.36067000  0.85879000  0.62513000  1.0 -0.4607412995
C  C75  1  0.37698000  0.87014000  0.53993000  1.0 -0.4607412995
C  C76  1  0.40591000  0.97196000  0.59064000  1.0 0.5752360697
C  C77  1  0.02443000  0.90486000  0.58368000  1.0 0.5604201226
C  C78  1  0.03603000  0.85125000  0.56175000  1.0 0.0478677213
C  C79  1  0.00826000  0.80685000  0.58941000  1.0 -0.4504163315
C  C80  1  0.02776000  0.84813000  0.50781000  1.0 -0.218928953
C  C81  1  0.06603000  0.80503000  0.48761000  1.0 -0.1746687119
C  C82  1  0.09857000  0.78189000  0.53003000  1.0 -0.1536293601
C  C83  1  0.09282000  0.83382000  0.55766000  1.0 0.1729352462
C  C84  1  0.13237000  0.87568000  0.54963000  1.0 -0.4708577047
C  C85  1  0.10643000  0.81543000  0.61201000  1.0 -0.4260682177
C  C86  1  0.15419000  0.76999000  0.51332000  1.0 0.5604201226
C  C87  1  0.26293000  0.62978000  0.61233000  1.0 0.0703971336
C  C88  1  0.26078000  0.60480000  0.65754000  1.0 -0.2126821785
C  C89  1  0.24875000  0.63336000  0.69943000  1.0 0.1493968206
C  C90  1  0.23887000  0.68690000  0.69612000  1.0 -0.2275501036
C  C91  1  0.24102000  0.71189000  0.65091000  1.0 0.0801796957
C  C92  1  0.22994000  0.60410000  0.74906000  1.0 -0.2432650619
C  C93  1  0.27472000  0.60639000  0.77576000  1.0 -0.1359359103
C  C94  1  0.26145000  0.58287000  0.82658000  1.0 -0.2592747
C  C95  1  0.31406000  0.55835000  0.84306000  1.0 0.1795084055
C  C96  1  0.32897000  0.50663000  0.83474000  1.0 -0.218928953
C  C97  1  0.37926000  0.49007000  0.84704000  1.0 0.0478677213
C  C98  1  0.39973000  0.57697000  0.87597000  1.0 0.0703971336
C  C99  1  0.34944000  0.59352000  0.86367000  1.0 -0.2126821785
C  C100  1  0.72886000  0.16520000  0.54474000  1.0 0.5441107626
C  C101  1  0.71643000  0.11416000  0.57168000  1.0 0.0402276839
C  C102  1  0.74214000  0.11607000  0.62417000  1.0 -0.4504163315
C  C103  1  0.72995000  0.06233000  0.54454000  1.0 -0.2275501036
C  C104  1  0.68652000  0.02179000  0.55671000  1.0 -0.1778411122
C  C105  1  0.65363000  0.04667000  0.59692000  1.0 -0.1580653408
C  C106  1  0.65670000  0.10721000  0.58168000  1.0 0.2124571229
C  C107  1  0.63933000  0.14121000  0.62513000  1.0 -0.4607412995
C  C108  1  0.62302000  0.12986000  0.53993000  1.0 -0.4607412995
C  C109  1  0.59409000  0.02804000  0.59064000  1.0 0.5752360697
C  C110  1  0.97557000  0.09514000  0.58368000  1.0 0.5604201226
C  C111  1  0.96397000  0.14875000  0.56175000  1.0 0.0478677213
C  C112  1  0.99174000  0.19315000  0.58941000  1.0 -0.4504163315
C  C113  1  0.97224000  0.15187000  0.50781000  1.0 -0.218928953
C  C114  1  0.93397000  0.19497000  0.48761000  1.0 -0.1746687119
C  C115  1  0.90143000  0.21811000  0.53003000  1.0 -0.1536293601
C  C116  1  0.90718000  0.16618000  0.55766000  1.0 0.1729352462
C  C117  1  0.86763000  0.12432000  0.54963000  1.0 -0.4708577047
C  C118  1  0.89357000  0.18457000  0.61201000  1.0 -0.4260682177
C  C119  1  0.84581000  0.23001000  0.51332000  1.0 0.5604201226
C  C120  1  0.73707000  0.37022000  0.61233000  1.0 0.0703971336
C  C121  1  0.73922000  0.39520000  0.65754000  1.0 -0.2126821785
C  C122  1  0.75125000  0.36664000  0.69943000  1.0 0.1493968206
C  C123  1  0.76113000  0.31310000  0.69612000  1.0 -0.2275501036
C  C124  1  0.75898000  0.28811000  0.65091000  1.0 0.0801796957
C  C125  1  0.77006000  0.39590000  0.74906000  1.0 -0.2432650619
C  C126  1  0.72528000  0.39361000  0.77576000  1.0 -0.1359359103
C  C127  1  0.73855000  0.41713000  0.82658000  1.0 -0.2592747
C  C128  1  0.68594000  0.44165000  0.84306000  1.0 0.1795084055
C  C129  1  0.67103000  0.49337000  0.83474000  1.0 -0.218928953
C  C130  1  0.62074000  0.50993000  0.84704000  1.0 0.0478677213
C  C131  1  0.60027000  0.42303000  0.87597000  1.0 0.0703971336
C  C132  1  0.65056000  0.40648000  0.86367000  1.0 -0.2126821785
C  C133  1  0.16520000  0.72886000  0.95526000  1.0 0.5441107626
C  C134  1  0.11416000  0.71643000  0.92832000  1.0 0.0402276839
C  C135  1  0.11607000  0.74214000  0.87583000  1.0 -0.4504163315
C  C136  1  0.06233000  0.72995000  0.95546000  1.0 -0.2275501036
C  C137  1  0.02179000  0.68652000  0.94329000  1.0 -0.1778411122
C  C138  1  0.04667000  0.65363000  0.90308000  1.0 -0.1580653408
C  C139  1  0.10721000  0.65670000  0.91832000  1.0 0.2124571229
C  C140  1  0.14121000  0.63933000  0.87487000  1.0 -0.4607412995
C  C141  1  0.12986000  0.62302000  0.96007000  1.0 -0.4607412995
C  C142  1  0.02804000  0.59409000  0.90936000  1.0 0.5752360697
C  C143  1  0.09514000  0.97557000  0.91632000  1.0 0.5604201226
C  C144  1  0.14875000  0.96397000  0.93825000  1.0 0.0478677213
C  C145  1  0.19315000  0.99174000  0.91059000  1.0 -0.4504163315
C  C146  1  0.15187000  0.97224000  0.99219000  1.0 -0.218928953
C  C147  1  0.19497000  0.93397000  0.01239000  1.0 -0.1746687119
C  C148  1  0.21811000  0.90143000  0.96997000  1.0 -0.1536293601
C  C149  1  0.16618000  0.90718000  0.94234000  1.0 0.1729352462
C  C150  1  0.12432000  0.86763000  0.95037000  1.0 -0.4708577047
C  C151  1  0.18457000  0.89357000  0.88799000  1.0 -0.4260682177
C  C152  1  0.23001000  0.84581000  0.98668000  1.0 0.5604201226
C  C153  1  0.37022000  0.73707000  0.88767000  1.0 0.0703971336
C  C154  1  0.39520000  0.73922000  0.84246000  1.0 -0.2126821785
C  C155  1  0.36664000  0.75125000  0.80057000  1.0 0.1493968206
C  C156  1  0.31310000  0.76113000  0.80388000  1.0 -0.2275501036
C  C157  1  0.28811000  0.75898000  0.84909000  1.0 0.0801796957
C  C158  1  0.39590000  0.77006000  0.75094000  1.0 -0.2432650619
C  C159  1  0.39361000  0.72528000  0.72424000  1.0 -0.1359359103
C  C160  1  0.41713000  0.73855000  0.67342000  1.0 -0.2592747
C  C161  1  0.44165000  0.68594000  0.65694000  1.0 0.1795084055
C  C162  1  0.49337000  0.67103000  0.66526000  1.0 -0.218928953
C  C163  1  0.50993000  0.62074000  0.65296000  1.0 0.0478677213
C  C164  1  0.42303000  0.60027000  0.62403000  1.0 0.0703971336
C  C165  1  0.40648000  0.65056000  0.63633000  1.0 -0.2126821785
C  C166  1  0.83480000  0.27114000  0.95526000  1.0 0.5441107626
C  C167  1  0.88584000  0.28357000  0.92832000  1.0 0.0402276839
C  C168  1  0.88393000  0.25786000  0.87583000  1.0 -0.4504163315
C  C169  1  0.93767000  0.27005000  0.95546000  1.0 -0.2275501036
C  C170  1  0.97821000  0.31348000  0.94329000  1.0 -0.1778411122
C  C171  1  0.95333000  0.34637000  0.90308000  1.0 -0.1580653408
C  C172  1  0.89279000  0.34330000  0.91832000  1.0 0.2124571229
C  C173  1  0.85879000  0.36067000  0.87487000  1.0 -0.4607412995
C  C174  1  0.87014000  0.37698000  0.96007000  1.0 -0.4607412995
C  C175  1  0.97196000  0.40591000  0.90936000  1.0 0.5752360697
C  C176  1  0.90486000  0.02443000  0.91632000  1.0 0.5604201226
C  C177  1  0.85125000  0.03603000  0.93825000  1.0 0.0478677213
C  C178  1  0.80685000  0.00826000  0.91059000  1.0 -0.4504163315
C  C179  1  0.84813000  0.02776000  0.99219000  1.0 -0.218928953
C  C180  1  0.80503000  0.06603000  0.01239000  1.0 -0.1778411122
C  C181  1  0.78189000  0.09857000  0.96997000  1.0 -0.1536293601
C  C182  1  0.83382000  0.09282000  0.94234000  1.0 0.1729352462
C  C183  1  0.87568000  0.13237000  0.95037000  1.0 -0.4708577047
C  C184  1  0.81543000  0.10643000  0.88799000  1.0 -0.4260682177
C  C185  1  0.76999000  0.15419000  0.98668000  1.0 0.5604201226
C  C186  1  0.62978000  0.26293000  0.88767000  1.0 0.0703971336
C  C187  1  0.60480000  0.26078000  0.84246000  1.0 -0.2126821785
C  C188  1  0.63336000  0.24875000  0.80057000  1.0 0.1493968206
C  C189  1  0.68690000  0.23887000  0.80388000  1.0 -0.2275501036
C  C190  1  0.71189000  0.24102000  0.84909000  1.0 0.0801796957
C  C191  1  0.60410000  0.22994000  0.75094000  1.0 -0.2432650619
C  C192  1  0.60639000  0.27472000  0.72424000  1.0 -0.1359359103
C  C193  1  0.58287000  0.26145000  0.67342000  1.0 -0.2592747
C  C194  1  0.55835000  0.31406000  0.65694000  1.0 0.1795084055
C  C195  1  0.50663000  0.32897000  0.66526000  1.0 -0.218928953
C  C196  1  0.49007000  0.37926000  0.65296000  1.0 0.0478677213
C  C197  1  0.57697000  0.39973000  0.62403000  1.0 0.0703971336
C  C198  1  0.59352000  0.34944000  0.63633000  1.0 -0.2126821785
C  C199  1  0.22886000  0.33480000  0.95526000  1.0 0.5441107626
C  C200  1  0.21643000  0.38584000  0.92832000  1.0 0.0402276839
C  C201  1  0.24214000  0.38393000  0.87583000  1.0 -0.4504163315
C  C202  1  0.22995000  0.43767000  0.95546000  1.0 -0.2275501036
C  C203  1  0.18652000  0.47821000  0.94329000  1.0 -0.1778411122
C  C204  1  0.15363000  0.45333000  0.90308000  1.0 -0.1580653408
C  C205  1  0.15670000  0.39279000  0.91832000  1.0 0.2124571229
C  C206  1  0.13933000  0.35879000  0.87487000  1.0 -0.4607412995
C  C207  1  0.12302000  0.37014000  0.96007000  1.0 -0.4607412995
C  C208  1  0.09409000  0.47196000  0.90936000  1.0 0.5752360697
C  C209  1  0.47557000  0.40486000  0.91632000  1.0 0.5604201226
C  C210  1  0.46397000  0.35125000  0.93825000  1.0 0.0478677213
C  C211  1  0.49174000  0.30685000  0.91059000  1.0 -0.4504163315
C  C212  1  0.47224000  0.34813000  0.99219000  1.0 -0.218928953
C  C213  1  0.43397000  0.30503000  0.01239000  1.0 -0.1746687119
C  C214  1  0.40143000  0.28189000  0.96997000  1.0 -0.1536293601
C  C215  1  0.40718000  0.33382000  0.94234000  1.0 0.1729352462
C  C216  1  0.36763000  0.37568000  0.95037000  1.0 -0.4708577047
C  C217  1  0.39357000  0.31543000  0.88799000  1.0 -0.4260682177
C  C218  1  0.34581000  0.26999000  0.98668000  1.0 0.5604201226
C  C219  1  0.23707000  0.12978000  0.88767000  1.0 0.0703971336
C  C220  1  0.23922000  0.10480000  0.84246000  1.0 -0.2126821785
C  C221  1  0.25125000  0.13336000  0.80057000  1.0 0.1493968206
C  C222  1  0.26113000  0.18690000  0.80388000  1.0 -0.2275501036
C  C223  1  0.25898000  0.21189000  0.84909000  1.0 0.0801796957
C  C224  1  0.27006000  0.10410000  0.75094000  1.0 -0.2432650619
C  C225  1  0.22528000  0.10639000  0.72424000  1.0 -0.1359359103
C  C226  1  0.23855000  0.08287000  0.67342000  1.0 -0.2592747
C  C227  1  0.18594000  0.05835000  0.65694000  1.0 0.1795084055
C  C228  1  0.17103000  0.00663000  0.66526000  1.0 -0.218928953
C  C229  1  0.12074000  0.99007000  0.65296000  1.0 0.0478677213
C  C230  1  0.10027000  0.07697000  0.62403000  1.0 0.0703971336
C  C231  1  0.15056000  0.09352000  0.63633000  1.0 -0.2126821785
C  C232  1  0.77114000  0.66520000  0.95526000  1.0 0.5441107626
C  C233  1  0.78357000  0.61416000  0.92832000  1.0 0.0402276839
C  C234  1  0.75786000  0.61607000  0.87583000  1.0 -0.4504163315
C  C235  1  0.77005000  0.56233000  0.95546000  1.0 -0.2275501036
C  C236  1  0.81348000  0.52179000  0.94329000  1.0 -0.1778411122
C  C237  1  0.84637000  0.54667000  0.90308000  1.0 -0.1580653408
C  C238  1  0.84330000  0.60721000  0.91832000  1.0 0.2124571229
C  C239  1  0.86067000  0.64121000  0.87487000  1.0 -0.4607412995
C  C240  1  0.87698000  0.62986000  0.96007000  1.0 -0.4607412995
C  C241  1  0.90591000  0.52804000  0.90936000  1.0 0.5752360697
C  C242  1  0.52443000  0.59514000  0.91632000  1.0 0.5604201226
C  C243  1  0.53603000  0.64875000  0.93825000  1.0 0.0478677213
C  C244  1  0.50826000  0.69315000  0.91059000  1.0 -0.4504163315
C  C245  1  0.52776000  0.65187000  0.99219000  1.0 -0.218928953
C  C246  1  0.56603000  0.69497000  0.01239000  1.0 -0.1746687119
C  C247  1  0.59857000  0.71811000  0.96997000  1.0 -0.1536293601
C  C248  1  0.59282000  0.66618000  0.94234000  1.0 0.1729352462
C  C249  1  0.63237000  0.62432000  0.95037000  1.0 -0.4708577047
C  C250  1  0.60643000  0.68457000  0.88799000  1.0 -0.4260682177
C  C251  1  0.65419000  0.73001000  0.98668000  1.0 0.5604201226
C  C252  1  0.76293000  0.87022000  0.88767000  1.0 0.0703971336
C  C253  1  0.76078000  0.89520000  0.84246000  1.0 -0.2126821785
C  C254  1  0.74875000  0.86664000  0.80057000  1.0 0.1493968206
C  C255  1  0.73887000  0.81310000  0.80388000  1.0 -0.2275501036
C  C256  1  0.74102000  0.78811000  0.84909000  1.0 0.0801796957
C  C257  1  0.72994000  0.89590000  0.75094000  1.0 -0.2432650619
C  C258  1  0.77472000  0.89361000  0.72424000  1.0 -0.1359359103
C  C259  1  0.76145000  0.91713000  0.67342000  1.0 -0.2592747
C  C260  1  0.81406000  0.94165000  0.65694000  1.0 0.1795084055
C  C261  1  0.82897000  0.99337000  0.66526000  1.0 -0.218928953
C  C262  1  0.87926000  0.00993000  0.65296000  1.0 0.0478677213
C  C263  1  0.89973000  0.92303000  0.62403000  1.0 0.0703971336
C  C264  1  0.84944000  0.90648000  0.63633000  1.0 -0.2126821785
C  C265  1  0.16520000  0.27114000  0.45526000  1.0 0.5441107626
C  C266  1  0.11416000  0.28357000  0.42832000  1.0 0.0402276839
C  C267  1  0.11607000  0.25786000  0.37583000  1.0 -0.4504163315
C  C268  1  0.06233000  0.27005000  0.45546000  1.0 -0.2275501036
C  C269  1  0.02179000  0.31348000  0.44329000  1.0 -0.1778411122
C  C270  1  0.04667000  0.34637000  0.40308000  1.0 -0.1580653408
C  C271  1  0.10721000  0.34330000  0.41832000  1.0 0.2124571229
C  C272  1  0.14121000  0.36067000  0.37487000  1.0 -0.4607412995
C  C273  1  0.12986000  0.37698000  0.46007000  1.0 -0.4607412995
C  C274  1  0.02804000  0.40591000  0.40936000  1.0 0.5752360697
C  C275  1  0.09514000  0.02443000  0.41632000  1.0 0.5604201226
C  C276  1  0.14875000  0.03603000  0.43825000  1.0 0.0478677213
C  C277  1  0.19315000  0.00826000  0.41059000  1.0 -0.4504163315
C  C278  1  0.15187000  0.02776000  0.49219000  1.0 -0.218928953
C  C279  1  0.19497000  0.06603000  0.51239000  1.0 -0.1746687119
C  C280  1  0.21811000  0.09857000  0.46997000  1.0 -0.1536293601
C  C281  1  0.16618000  0.09282000  0.44234000  1.0 0.1729352462
C  C282  1  0.12432000  0.13237000  0.45037000  1.0 -0.4708577047
C  C283  1  0.18457000  0.10643000  0.38799000  1.0 -0.4260682177
C  C284  1  0.23001000  0.15419000  0.48668000  1.0 0.5604201226
C  C285  1  0.37022000  0.26293000  0.38767000  1.0 0.0703971336
C  C286  1  0.39520000  0.26078000  0.34246000  1.0 -0.2126821785
C  C287  1  0.36664000  0.24875000  0.30057000  1.0 0.1493968206
C  C288  1  0.31310000  0.23887000  0.30388000  1.0 -0.2275501036
C  C289  1  0.28811000  0.24102000  0.34909000  1.0 0.0801796957
C  C290  1  0.39590000  0.22994000  0.25094000  1.0 -0.2432650619
C  C291  1  0.39361000  0.27472000  0.22424000  1.0 -0.1359359103
C  C292  1  0.41713000  0.26145000  0.17342000  1.0 -0.2592747
C  C293  1  0.44165000  0.31406000  0.15694000  1.0 0.1795084055
C  C294  1  0.49337000  0.32897000  0.16526000  1.0 -0.218928953
C  C295  1  0.50993000  0.37926000  0.15296000  1.0 0.0478677213
C  C296  1  0.42303000  0.39973000  0.12403000  1.0 0.0703971336
C  C297  1  0.40648000  0.34944000  0.13633000  1.0 -0.2126821785
C  C298  1  0.83480000  0.72886000  0.45526000  1.0 0.5441107626
C  C299  1  0.88584000  0.71643000  0.42832000  1.0 0.0402276839
C  C300  1  0.88393000  0.74214000  0.37583000  1.0 -0.4504163315
C  C301  1  0.93767000  0.72995000  0.45546000  1.0 -0.2275501036
C  C302  1  0.97821000  0.68652000  0.44329000  1.0 -0.1778411122
C  C303  1  0.95333000  0.65363000  0.40308000  1.0 -0.1580653408
C  C304  1  0.89279000  0.65670000  0.41832000  1.0 0.2124571229
C  C305  1  0.85879000  0.63933000  0.37487000  1.0 -0.4607412995
C  C306  1  0.87014000  0.62302000  0.46007000  1.0 -0.4607412995
C  C307  1  0.97196000  0.59409000  0.40936000  1.0 0.5752360697
C  C308  1  0.90486000  0.97557000  0.41632000  1.0 0.5604201226
C  C309  1  0.85125000  0.96397000  0.43825000  1.0 0.0478677213
C  C310  1  0.80685000  0.99174000  0.41059000  1.0 -0.4504163315
C  C311  1  0.84813000  0.97224000  0.49219000  1.0 -0.218928953
C  C312  1  0.80503000  0.93397000  0.51239000  1.0 -0.1746687119
C  C313  1  0.78189000  0.90143000  0.46997000  1.0 -0.1536293601
C  C314  1  0.83382000  0.90718000  0.44234000  1.0 0.1729352462
C  C315  1  0.87568000  0.86763000  0.45037000  1.0 -0.4708577047
C  C316  1  0.81543000  0.89357000  0.38799000  1.0 -0.4260682177
C  C317  1  0.76999000  0.84581000  0.48668000  1.0 0.5604201226
C  C318  1  0.62978000  0.73707000  0.38767000  1.0 0.0703971336
C  C319  1  0.60480000  0.73922000  0.34246000  1.0 -0.2126821785
C  C320  1  0.63336000  0.75125000  0.30057000  1.0 0.1493968206
C  C321  1  0.68690000  0.76113000  0.30388000  1.0 -0.2275501036
C  C322  1  0.71189000  0.75898000  0.34909000  1.0 0.0801796957
C  C323  1  0.60410000  0.77006000  0.25094000  1.0 -0.2432650619
C  C324  1  0.60639000  0.72528000  0.22424000  1.0 -0.1359359103
C  C325  1  0.58287000  0.73855000  0.17342000  1.0 -0.2592747
C  C326  1  0.55835000  0.68594000  0.15694000  1.0 0.1795084055
C  C327  1  0.50663000  0.67103000  0.16526000  1.0 -0.218928953
C  C328  1  0.49007000  0.62074000  0.15296000  1.0 0.0478677213
C  C329  1  0.57697000  0.60027000  0.12403000  1.0 0.0703971336
C  C330  1  0.59352000  0.65056000  0.13633000  1.0 -0.2126821785
C  C331  1  0.22886000  0.66520000  0.45526000  1.0 0.5441107626
C  C332  1  0.21643000  0.61416000  0.42832000  1.0 0.0402276839
C  C333  1  0.24214000  0.61607000  0.37583000  1.0 -0.4504163315
C  C334  1  0.22995000  0.56233000  0.45546000  1.0 -0.2275501036
C  C335  1  0.18652000  0.52179000  0.44329000  1.0 -0.1778411122
C  C336  1  0.15363000  0.54667000  0.40308000  1.0 -0.1580653408
C  C337  1  0.15670000  0.60721000  0.41832000  1.0 0.2124571229
C  C338  1  0.13933000  0.64121000  0.37487000  1.0 -0.4607412995
C  C339  1  0.12302000  0.62986000  0.46007000  1.0 -0.4607412995
C  C340  1  0.09409000  0.52804000  0.40936000  1.0 0.5752360697
C  C341  1  0.47557000  0.59514000  0.41632000  1.0 0.5604201226
C  C342  1  0.46397000  0.64875000  0.43825000  1.0 0.0478677213
C  C343  1  0.49174000  0.69315000  0.41059000  1.0 -0.4504163315
C  C344  1  0.47224000  0.65187000  0.49219000  1.0 -0.218928953
C  C345  1  0.43397000  0.69497000  0.51239000  1.0 -0.1746687119
C  C346  1  0.40143000  0.71811000  0.46997000  1.0 -0.1536293601
C  C347  1  0.40718000  0.66618000  0.44234000  1.0 0.1729352462
C  C348  1  0.36763000  0.62432000  0.45037000  1.0 -0.4708577047
C  C349  1  0.39357000  0.68457000  0.38799000  1.0 -0.4260682177
C  C350  1  0.34581000  0.73001000  0.48668000  1.0 0.5604201226
C  C351  1  0.23707000  0.87022000  0.38767000  1.0 0.0703971336
C  C352  1  0.23922000  0.89520000  0.34246000  1.0 -0.2126821785
C  C353  1  0.25125000  0.86664000  0.30057000  1.0 0.1493968206
C  C354  1  0.26113000  0.81310000  0.30388000  1.0 -0.2275501036
C  C355  1  0.25898000  0.78811000  0.34909000  1.0 0.0801796957
C  C356  1  0.27006000  0.89590000  0.25094000  1.0 -0.2432650619
C  C357  1  0.22528000  0.89361000  0.22424000  1.0 -0.1359359103
C  C358  1  0.23855000  0.91713000  0.17342000  1.0 -0.2592747
C  C359  1  0.18594000  0.94165000  0.15694000  1.0 0.1795084055
C  C360  1  0.17103000  0.99337000  0.16526000  1.0 -0.218928953
C  C361  1  0.12074000  0.00993000  0.15296000  1.0 0.0478677213
C  C362  1  0.10027000  0.92303000  0.12403000  1.0 0.0703971336
C  C363  1  0.15056000  0.90648000  0.13633000  1.0 -0.2126821785
C  C364  1  0.77114000  0.33480000  0.45526000  1.0 0.5441107626
C  C365  1  0.78357000  0.38584000  0.42832000  1.0 0.0402276839
C  C366  1  0.75786000  0.38393000  0.37583000  1.0 -0.4504163315
C  C367  1  0.77005000  0.43767000  0.45546000  1.0 -0.2275501036
C  C368  1  0.81348000  0.47821000  0.44329000  1.0 -0.1778411122
C  C369  1  0.84637000  0.45333000  0.40308000  1.0 -0.1580653408
C  C370  1  0.84330000  0.39279000  0.41832000  1.0 0.2124571229
C  C371  1  0.86067000  0.35879000  0.37487000  1.0 -0.4607412995
C  C372  1  0.87698000  0.37014000  0.46007000  1.0 -0.4607412995
C  C373  1  0.90591000  0.47196000  0.40936000  1.0 0.5752360697
C  C374  1  0.52443000  0.40486000  0.41632000  1.0 0.5604201226
C  C375  1  0.53603000  0.35125000  0.43825000  1.0 0.0478677213
C  C376  1  0.50826000  0.30685000  0.41059000  1.0 -0.4504163315
C  C377  1  0.52776000  0.34813000  0.49219000  1.0 -0.218928953
C  C378  1  0.56603000  0.30503000  0.51239000  1.0 -0.1746687119
C  C379  1  0.59857000  0.28189000  0.46997000  1.0 -0.1536293601
C  C380  1  0.59282000  0.33382000  0.44234000  1.0 0.1729352462
C  C381  1  0.63237000  0.37568000  0.45037000  1.0 -0.4708577047
C  C382  1  0.60643000  0.31543000  0.38799000  1.0 -0.4260682177
C  C383  1  0.65419000  0.26999000  0.48668000  1.0 0.5604201226
C  C384  1  0.76293000  0.12978000  0.38767000  1.0 0.0703971336
C  C385  1  0.76078000  0.10480000  0.34246000  1.0 -0.2126821785
C  C386  1  0.74875000  0.13336000  0.30057000  1.0 0.1493968206
C  C387  1  0.73887000  0.18690000  0.30388000  1.0 -0.2275501036
C  C388  1  0.74102000  0.21189000  0.34909000  1.0 0.0801796957
C  C389  1  0.72994000  0.10410000  0.25094000  1.0 -0.2432650619
C  C390  1  0.77472000  0.10639000  0.22424000  1.0 -0.1359359103
C  C391  1  0.76145000  0.08287000  0.17342000  1.0 -0.2592747
C  C392  1  0.81406000  0.05835000  0.15694000  1.0 0.1795084055
C  C393  1  0.82897000  0.00663000  0.16526000  1.0 -0.218928953
C  C394  1  0.87926000  0.99007000  0.15296000  1.0 0.0478677213
C  C395  1  0.89973000  0.07697000  0.12403000  1.0 0.0703971336
C  C396  1  0.84944000  0.09352000  0.13633000  1.0 -0.2126821785
C  C397  1  0.33480000  0.77114000  0.04474000  1.0 0.5441107626
C  C398  1  0.38584000  0.78357000  0.07168000  1.0 0.0402276839
C  C399  1  0.38393000  0.75786000  0.12417000  1.0 -0.4504163315
C  C400  1  0.43767000  0.77005000  0.04454000  1.0 -0.2275501036
C  C401  1  0.47821000  0.81348000  0.05671000  1.0 -0.1778411122
C  C402  1  0.45333000  0.84637000  0.09692000  1.0 -0.1580653408
C  C403  1  0.39279000  0.84330000  0.08168000  1.0 0.2124571229
C  C404  1  0.35879000  0.86067000  0.12513000  1.0 -0.4607412995
C  C405  1  0.37014000  0.87698000  0.03993000  1.0 -0.4607412995
C  C406  1  0.47196000  0.90591000  0.09064000  1.0 0.5752360697
C  C407  1  0.40486000  0.52443000  0.08368000  1.0 0.5604201226
C  C408  1  0.35125000  0.53603000  0.06175000  1.0 0.0478677213
C  C409  1  0.30685000  0.50826000  0.08941000  1.0 -0.4504163315
C  C410  1  0.34813000  0.52776000  0.00781000  1.0 -0.218928953
C  C411  1  0.30503000  0.56603000  0.98761000  1.0 -0.1746687119
C  C412  1  0.28189000  0.59857000  0.03003000  1.0 -0.1536293601
C  C413  1  0.33382000  0.59282000  0.05766000  1.0 0.1729352462
C  C414  1  0.37568000  0.63237000  0.04963000  1.0 -0.4708577047
C  C415  1  0.31543000  0.60643000  0.11201000  1.0 -0.4260682177
C  C416  1  0.26999000  0.65419000  0.01332000  1.0 0.5604201226
C  C417  1  0.12978000  0.76293000  0.11233000  1.0 0.0703971336
C  C418  1  0.10480000  0.76078000  0.15754000  1.0 -0.2126821785
C  C419  1  0.13336000  0.74875000  0.19943000  1.0 0.1493968206
C  C420  1  0.18690000  0.73887000  0.19612000  1.0 -0.2275501036
C  C421  1  0.21189000  0.74102000  0.15091000  1.0 0.0801796957
C  C422  1  0.10410000  0.72994000  0.24906000  1.0 -0.2432650619
C  C423  1  0.10639000  0.77472000  0.27576000  1.0 -0.1359359103
C  C424  1  0.08287000  0.76145000  0.32658000  1.0 -0.2592747
C  C425  1  0.05835000  0.81406000  0.34306000  1.0 0.1795084055
C  C426  1  0.00663000  0.82897000  0.33474000  1.0 -0.218928953
C  C427  1  0.99007000  0.87926000  0.34704000  1.0 0.0478677213
C  C428  1  0.07697000  0.89973000  0.37597000  1.0 0.0703971336
C  C429  1  0.09352000  0.84944000  0.36367000  1.0 -0.2126821785
C  C430  1  0.66520000  0.22886000  0.04474000  1.0 0.5441107626
C  C431  1  0.61416000  0.21643000  0.07168000  1.0 0.0402276839
C  C432  1  0.61607000  0.24214000  0.12417000  1.0 -0.4504163315
C  C433  1  0.56233000  0.22995000  0.04454000  1.0 -0.2275501036
C  C434  1  0.52179000  0.18652000  0.05671000  1.0 -0.1778411122
C  C435  1  0.54667000  0.15363000  0.09692000  1.0 -0.1580653408
C  C436  1  0.60721000  0.15670000  0.08168000  1.0 0.2124571229
C  C437  1  0.64121000  0.13933000  0.12513000  1.0 -0.4607412995
C  C438  1  0.62986000  0.12302000  0.03993000  1.0 -0.4607412995
C  C439  1  0.52804000  0.09409000  0.09064000  1.0 0.5752360697
C  C440  1  0.59514000  0.47557000  0.08368000  1.0 0.5604201226
C  C441  1  0.64875000  0.46397000  0.06175000  1.0 0.0478677213
C  C442  1  0.69315000  0.49174000  0.08941000  1.0 -0.4504163315
C  C443  1  0.65187000  0.47224000  0.00781000  1.0 -0.218928953
C  C444  1  0.69497000  0.43397000  0.98761000  1.0 -0.1746687119
C  C445  1  0.71811000  0.40143000  0.03003000  1.0 -0.1536293601
C  C446  1  0.66618000  0.40718000  0.05766000  1.0 0.1729352462
C  C447  1  0.62432000  0.36763000  0.04963000  1.0 -0.4708577047
C  C448  1  0.68457000  0.39357000  0.11201000  1.0 -0.4260682177
C  C449  1  0.73001000  0.34581000  0.01332000  1.0 0.5604201226
C  C450  1  0.87022000  0.23707000  0.11233000  1.0 0.0703971336
C  C451  1  0.89520000  0.23922000  0.15754000  1.0 -0.2126821785
C  C452  1  0.86664000  0.25125000  0.19943000  1.0 0.1493968206
C  C453  1  0.81310000  0.26113000  0.19612000  1.0 -0.2275501036
C  C454  1  0.78811000  0.25898000  0.15091000  1.0 0.0801796957
C  C455  1  0.89590000  0.27006000  0.24906000  1.0 -0.2432650619
C  C456  1  0.89361000  0.22528000  0.27576000  1.0 -0.1359359103
C  C457  1  0.91713000  0.23855000  0.32658000  1.0 -0.2592747
C  C458  1  0.94165000  0.18594000  0.34306000  1.0 0.1795084055
C  C459  1  0.99337000  0.17103000  0.33474000  1.0 -0.218928953
C  C460  1  0.00993000  0.12074000  0.34704000  1.0 0.0478677213
C  C461  1  0.92303000  0.10027000  0.37597000  1.0 0.0703971336
C  C462  1  0.90648000  0.15056000  0.36367000  1.0 -0.2126821785
C  C463  1  0.27114000  0.16520000  0.04474000  1.0 0.5441107626
C  C464  1  0.28357000  0.11416000  0.07168000  1.0 0.0402276839
C  C465  1  0.25786000  0.11607000  0.12417000  1.0 -0.4504163315
C  C466  1  0.27005000  0.06233000  0.04454000  1.0 -0.2275501036
C  C467  1  0.31348000  0.02179000  0.05671000  1.0 -0.1778411122
C  C468  1  0.34637000  0.04667000  0.09692000  1.0 -0.1580653408
C  C469  1  0.34330000  0.10721000  0.08168000  1.0 0.2124571229
C  C470  1  0.36067000  0.14121000  0.12513000  1.0 -0.4607412995
C  C471  1  0.37698000  0.12986000  0.03993000  1.0 -0.4607412995
C  C472  1  0.40591000  0.02804000  0.09064000  1.0 0.5752360697
C  C473  1  0.02443000  0.09514000  0.08368000  1.0 0.5604201226
C  C474  1  0.03603000  0.14875000  0.06175000  1.0 0.0478677213
C  C475  1  0.00826000  0.19315000  0.08941000  1.0 -0.4504163315
C  C476  1  0.02776000  0.15187000  0.00781000  1.0 -0.218928953
C  C477  1  0.06603000  0.19497000  0.98761000  1.0 -0.1746687119
C  C478  1  0.09857000  0.21811000  0.03003000  1.0 -0.1536293601
C  C479  1  0.09282000  0.16618000  0.05766000  1.0 0.1729352462
C  C480  1  0.13237000  0.12432000  0.04963000  1.0 -0.4708577047
C  C481  1  0.10643000  0.18457000  0.11201000  1.0 -0.4260682177
C  C482  1  0.15419000  0.23001000  0.01332000  1.0 0.5604201226
C  C483  1  0.26293000  0.37022000  0.11233000  1.0 0.0703971336
C  C484  1  0.26078000  0.39520000  0.15754000  1.0 -0.2126821785
C  C485  1  0.24875000  0.36664000  0.19943000  1.0 0.1493968206
C  C486  1  0.23887000  0.31310000  0.19612000  1.0 -0.2275501036
C  C487  1  0.24102000  0.28811000  0.15091000  1.0 0.0801796957
C  C488  1  0.22994000  0.39590000  0.24906000  1.0 -0.2432650619
C  C489  1  0.27472000  0.39361000  0.27576000  1.0 -0.1359359103
C  C490  1  0.26145000  0.41713000  0.32658000  1.0 -0.2592747
C  C491  1  0.31406000  0.44165000  0.34306000  1.0 0.1795084055
C  C492  1  0.32897000  0.49337000  0.33474000  1.0 -0.218928953
C  C493  1  0.37926000  0.50993000  0.34704000  1.0 0.0478677213
C  C494  1  0.39973000  0.42303000  0.37597000  1.0 0.0703971336
C  C495  1  0.34944000  0.40648000  0.36367000  1.0 -0.2126821785
C  C496  1  0.72886000  0.83480000  0.04474000  1.0 0.5441107626
C  C497  1  0.71643000  0.88584000  0.07168000  1.0 0.0402276839
C  C498  1  0.74214000  0.88393000  0.12417000  1.0 -0.4504163315
C  C499  1  0.72995000  0.93767000  0.04454000  1.0 -0.2275501036
C  C500  1  0.68652000  0.97821000  0.05671000  1.0 -0.1778411122
C  C501  1  0.65363000  0.95333000  0.09692000  1.0 -0.1580653408
C  C502  1  0.65670000  0.89279000  0.08168000  1.0 0.2124571229
C  C503  1  0.63933000  0.85879000  0.12513000  1.0 -0.4607412995
C  C504  1  0.62302000  0.87014000  0.03993000  1.0 -0.4607412995
C  C505  1  0.59409000  0.97196000  0.09064000  1.0 0.5752360697
C  C506  1  0.97557000  0.90486000  0.08368000  1.0 0.5604201226
C  C507  1  0.96397000  0.85125000  0.06175000  1.0 0.0478677213
C  C508  1  0.99174000  0.80685000  0.08941000  1.0 -0.4504163315
C  C509  1  0.97224000  0.84813000  0.00781000  1.0 -0.218928953
C  C510  1  0.93397000  0.80503000  0.98761000  1.0 -0.1746687119
C  C511  1  0.90143000  0.78189000  0.03003000  1.0 -0.1536293601
C  C512  1  0.90718000  0.83382000  0.05766000  1.0 0.1729352462
C  C513  1  0.86763000  0.87568000  0.04963000  1.0 -0.4708577047
C  C514  1  0.89357000  0.81543000  0.11201000  1.0 -0.4260682177
C  C515  1  0.84581000  0.76999000  0.01332000  1.0 0.5604201226
C  C516  1  0.73707000  0.62978000  0.11233000  1.0 0.0703971336
C  C517  1  0.73922000  0.60480000  0.15754000  1.0 -0.2126821785
C  C518  1  0.75125000  0.63336000  0.19943000  1.0 0.1493968206
C  C519  1  0.76113000  0.68690000  0.19612000  1.0 -0.2275501036
C  C520  1  0.75898000  0.71189000  0.15091000  1.0 0.0801796957
C  C521  1  0.77006000  0.60410000  0.24906000  1.0 -0.2432650619
C  C522  1  0.72528000  0.60639000  0.27576000  1.0 -0.1359359103
C  C523  1  0.73855000  0.58287000  0.32658000  1.0 -0.2592747
C  C524  1  0.68594000  0.55835000  0.34306000  1.0 0.1795084055
C  C525  1  0.67103000  0.50663000  0.33474000  1.0 -0.218928953
C  C526  1  0.62074000  0.49007000  0.34704000  1.0 0.0478677213
C  C527  1  0.60027000  0.57697000  0.37597000  1.0 0.0703971336
C  C528  1  0.65056000  0.59352000  0.36367000  1.0 -0.2126821785
N  N1  1  0.18333000  0.24695000  0.60902000  1.0 -0.2760352374
N  N2  1  0.02524000  0.08536000  0.86765000  1.0 -0.3270176289
N  N3  1  0.81667000  0.75305000  0.60902000  1.0 -0.2760352374
N  N4  1  0.97476000  0.91464000  0.86765000  1.0 -0.3270176289
N  N5  1  0.25305000  0.68333000  0.60902000  1.0 -0.2760352374
N  N6  1  0.41464000  0.52524000  0.86765000  1.0 -0.3270176289
N  N7  1  0.74695000  0.31667000  0.60902000  1.0 -0.2760352374
N  N8  1  0.58536000  0.47476000  0.86765000  1.0 -0.3270176289
N  N9  1  0.31667000  0.74695000  0.89098000  1.0 -0.2760352374
N  N10  1  0.47476000  0.58536000  0.63235000  1.0 -0.3270176289
N  N11  1  0.68333000  0.25305000  0.89098000  1.0 -0.2760352374
N  N12  1  0.52524000  0.41464000  0.63235000  1.0 -0.3270176289
N  N13  1  0.24695000  0.18333000  0.89098000  1.0 -0.2760352374
N  N14  1  0.08536000  0.02524000  0.63235000  1.0 -0.3270176289
N  N15  1  0.75305000  0.81667000  0.89098000  1.0 -0.2760352374
N  N16  1  0.91464000  0.97476000  0.63235000  1.0 -0.3270176289
N  N17  1  0.31667000  0.25305000  0.39098000  1.0 -0.2760352374
N  N18  1  0.47476000  0.41464000  0.13235000  1.0 -0.3270176289
N  N19  1  0.68333000  0.74695000  0.39098000  1.0 -0.2760352374
N  N20  1  0.52524000  0.58536000  0.13235000  1.0 -0.3270176289
N  N21  1  0.24695000  0.81667000  0.39098000  1.0 -0.2760352374
N  N22  1  0.08536000  0.97476000  0.13235000  1.0 -0.3270176289
N  N23  1  0.75305000  0.18333000  0.39098000  1.0 -0.2760352374
N  N24  1  0.91464000  0.02524000  0.13235000  1.0 -0.3270176289
N  N25  1  0.18333000  0.75305000  0.10902000  1.0 -0.2760352374
N  N26  1  0.02524000  0.91464000  0.36765000  1.0 -0.3270176289
N  N27  1  0.81667000  0.24695000  0.10902000  1.0 -0.2760352374
N  N28  1  0.97476000  0.08536000  0.36765000  1.0 -0.3270176289
N  N29  1  0.25305000  0.31667000  0.10902000  1.0 -0.2760352374
N  N30  1  0.41464000  0.47476000  0.36765000  1.0 -0.3270176289
N  N31  1  0.74695000  0.68333000  0.10902000  1.0 -0.2760352374
N  N32  1  0.58536000  0.52524000  0.36765000  1.0 -0.3270176289
O  O1  1  0.48733000  0.49262000  0.71525000  1.0 -0.0833662486
O  O2  1  0.29335000  0.22971000  0.56862000  1.0 -0.4984044072
O  O3  1  0.33531000  0.23626000  0.49935000  1.0 -0.5164711003
O  O4  1  0.48586000  0.07634000  0.54814000  1.0 -0.5499147412
O  O5  1  0.46672000  0.06947000  0.62777000  1.0 -0.4708577047
O  O6  1  0.44334000  0.48469000  0.55574000  1.0 -0.653534313
O  O7  1  0.40792000  0.47328000  0.62846000  1.0 -0.5593971138
O  O8  1  0.28762000  0.32745000  0.47578000  1.0 -0.4708577047
O  O9  1  0.24475000  0.32327000  0.54577000  1.0 -0.4984044072
O  O10  1  0.51267000  0.50738000  0.71525000  1.0 -0.0833662486
O  O11  1  0.70665000  0.77029000  0.56862000  1.0 -0.4984044072
O  O12  1  0.66469000  0.76374000  0.49935000  1.0 -0.5164711003
O  O13  1  0.51414000  0.92366000  0.54814000  1.0 -0.5499147412
O  O14  1  0.53328000  0.93053000  0.62777000  1.0 -0.4708577047
O  O15  1  0.55666000  0.51531000  0.55574000  1.0 -0.653534313
O  O16  1  0.59208000  0.52672000  0.62846000  1.0 -0.5593971138
O  O17  1  0.71238000  0.67255000  0.47578000  1.0 -0.4708577047
O  O18  1  0.75525000  0.67673000  0.54577000  1.0 -0.4984044072
O  O19  1  0.00738000  0.98733000  0.71525000  1.0 -0.0833662486
O  O20  1  0.27029000  0.79335000  0.56862000  1.0 -0.4984044072
O  O21  1  0.26374000  0.83531000  0.49935000  1.0 -0.5164711003
O  O22  1  0.42366000  0.98586000  0.54814000  1.0 -0.5499147412
O  O23  1  0.43053000  0.96672000  0.62777000  1.0 -0.4708577047
O  O24  1  0.01531000  0.94334000  0.55574000  1.0 -0.653534313
O  O25  1  0.02672000  0.90792000  0.62846000  1.0 -0.5593971138
O  O26  1  0.17255000  0.78762000  0.47578000  1.0 -0.4708577047
O  O27  1  0.17673000  0.74475000  0.54577000  1.0 -0.4984044072
O  O28  1  0.99262000  0.01267000  0.71525000  1.0 -0.0833662486
O  O29  1  0.72971000  0.20665000  0.56862000  1.0 -0.4984044072
O  O30  1  0.73626000  0.16469000  0.49935000  1.0 -0.5164711003
O  O31  1  0.57634000  0.01414000  0.54814000  1.0 -0.5499147412
O  O32  1  0.56947000  0.03328000  0.62777000  1.0 -0.4708577047
O  O33  1  0.98469000  0.05666000  0.55574000  1.0 -0.653534313
O  O34  1  0.97328000  0.09208000  0.62846000  1.0 -0.5593971138
O  O35  1  0.82745000  0.21238000  0.47578000  1.0 -0.4708577047
O  O36  1  0.82327000  0.25525000  0.54577000  1.0 -0.4984044072
O  O37  1  0.01267000  0.99262000  0.78475000  1.0 -0.0833662486
O  O38  1  0.20665000  0.72971000  0.93138000  1.0 -0.4984044072
O  O39  1  0.16469000  0.73626000  0.00065000  1.0 -0.5164711003
O  O40  1  0.01414000  0.57634000  0.95186000  1.0 -0.5499147412
O  O41  1  0.03328000  0.56947000  0.87223000  1.0 -0.4708577047
O  O42  1  0.05666000  0.98469000  0.94426000  1.0 -0.653534313
O  O43  1  0.09208000  0.97328000  0.87154000  1.0 -0.5593971138
O  O44  1  0.21238000  0.82745000  0.02422000  1.0 -0.4708577047
O  O45  1  0.25525000  0.82327000  0.95423000  1.0 -0.4984044072
O  O46  1  0.98733000  0.00738000  0.78475000  1.0 -0.0833662486
O  O47  1  0.79335000  0.27029000  0.93138000  1.0 -0.4984044072
O  O48  1  0.83531000  0.26374000  0.00065000  1.0 -0.5164711003
O  O49  1  0.98586000  0.42366000  0.95186000  1.0 -0.5499147412
O  O50  1  0.96672000  0.43053000  0.87223000  1.0 -0.4708577047
O  O51  1  0.94334000  0.01531000  0.94426000  1.0 -0.653534313
O  O52  1  0.90792000  0.02672000  0.87154000  1.0 -0.5593971138
O  O53  1  0.78762000  0.17255000  0.02422000  1.0 -0.4708577047
O  O54  1  0.74475000  0.17673000  0.95423000  1.0 -0.4984044072
O  O55  1  0.49262000  0.48733000  0.78475000  1.0 -0.0833662486
O  O56  1  0.22971000  0.29335000  0.93138000  1.0 -0.4984044072
O  O57  1  0.23626000  0.33531000  0.00065000  1.0 -0.5164711003
O  O58  1  0.07634000  0.48586000  0.95186000  1.0 -0.5499147412
O  O59  1  0.06947000  0.46672000  0.87223000  1.0 -0.4708577047
O  O60  1  0.48469000  0.44334000  0.94426000  1.0 -0.653534313
O  O61  1  0.47328000  0.40792000  0.87154000  1.0 -0.5593971138
O  O62  1  0.32745000  0.28762000  0.02422000  1.0 -0.4708577047
O  O63  1  0.32327000  0.24475000  0.95423000  1.0 -0.4984044072
O  O64  1  0.50738000  0.51267000  0.78475000  1.0 -0.0833662486
O  O65  1  0.77029000  0.70665000  0.93138000  1.0 -0.4984044072
O  O66  1  0.76374000  0.66469000  0.00065000  1.0 -0.5164711003
O  O67  1  0.92366000  0.51414000  0.95186000  1.0 -0.5499147412
O  O68  1  0.93053000  0.53328000  0.87223000  1.0 -0.4708577047
O  O69  1  0.51531000  0.55666000  0.94426000  1.0 -0.653534313
O  O70  1  0.52672000  0.59208000  0.87154000  1.0 -0.5593971138
O  O71  1  0.67255000  0.71238000  0.02422000  1.0 -0.4708577047
O  O72  1  0.67673000  0.75525000  0.95423000  1.0 -0.4984044072
O  O73  1  0.01267000  0.00738000  0.28475000  1.0 -0.0833662486
O  O74  1  0.20665000  0.27029000  0.43138000  1.0 -0.4984044072
O  O75  1  0.16469000  0.26374000  0.50065000  1.0 -0.5164711003
O  O76  1  0.01414000  0.42366000  0.45186000  1.0 -0.5499147412
O  O77  1  0.03328000  0.43053000  0.37223000  1.0 -0.4708577047
O  O78  1  0.05666000  0.01531000  0.44426000  1.0 -0.653534313
O  O79  1  0.09208000  0.02672000  0.37154000  1.0 -0.5593971138
O  O80  1  0.21238000  0.17255000  0.52422000  1.0 -0.4708577047
O  O81  1  0.25525000  0.17673000  0.45423000  1.0 -0.4984044072
O  O82  1  0.98733000  0.99262000  0.28475000  1.0 -0.0833662486
O  O83  1  0.79335000  0.72971000  0.43138000  1.0 -0.4984044072
O  O84  1  0.83531000  0.73626000  0.50065000  1.0 -0.5164711003
O  O85  1  0.98586000  0.57634000  0.45186000  1.0 -0.5499147412
O  O86  1  0.96672000  0.56947000  0.37223000  1.0 -0.4708577047
O  O87  1  0.94334000  0.98469000  0.44426000  1.0 -0.653534313
O  O88  1  0.90792000  0.97328000  0.37154000  1.0 -0.5593971138
O  O89  1  0.78762000  0.82745000  0.52422000  1.0 -0.4708577047
O  O90  1  0.74475000  0.82327000  0.45423000  1.0 -0.4984044072
O  O91  1  0.49262000  0.51267000  0.28475000  1.0 -0.0833662486
O  O92  1  0.22971000  0.70665000  0.43138000  1.0 -0.4984044072
O  O93  1  0.23626000  0.66469000  0.50065000  1.0 -0.5164711003
O  O94  1  0.07634000  0.51414000  0.45186000  1.0 -0.5499147412
O  O95  1  0.06947000  0.53328000  0.37223000  1.0 -0.4708577047
O  O96  1  0.48469000  0.55666000  0.44426000  1.0 -0.653534313
O  O97  1  0.47328000  0.59208000  0.37154000  1.0 -0.5593971138
O  O98  1  0.32745000  0.71238000  0.52422000  1.0 -0.4708577047
O  O99  1  0.32327000  0.75525000  0.45423000  1.0 -0.4984044072
O  O100  1  0.50738000  0.48733000  0.28475000  1.0 -0.0833662486
O  O101  1  0.77029000  0.29335000  0.43138000  1.0 -0.4984044072
O  O102  1  0.76374000  0.33531000  0.50065000  1.0 -0.5164711003
O  O103  1  0.92366000  0.48586000  0.45186000  1.0 -0.5499147412
O  O104  1  0.93053000  0.46672000  0.37223000  1.0 -0.4708577047
O  O105  1  0.51531000  0.44334000  0.44426000  1.0 -0.653534313
O  O106  1  0.52672000  0.40792000  0.37154000  1.0 -0.5593971138
O  O107  1  0.67255000  0.28762000  0.52422000  1.0 -0.4708577047
O  O108  1  0.67673000  0.24475000  0.45423000  1.0 -0.4984044072
O  O109  1  0.48733000  0.50738000  0.21525000  1.0 -0.0833662486
O  O110  1  0.29335000  0.77029000  0.06862000  1.0 -0.4984044072
O  O111  1  0.33531000  0.76374000  0.99935000  1.0 -0.5164711003
O  O112  1  0.48586000  0.92366000  0.04814000  1.0 -0.5499147412
O  O113  1  0.46672000  0.93053000  0.12777000  1.0 -0.4708577047
O  O114  1  0.44334000  0.51531000  0.05574000  1.0 -0.653534313
O  O115  1  0.40792000  0.52672000  0.12846000  1.0 -0.5593971138
O  O116  1  0.28762000  0.67255000  0.97578000  1.0 -0.4708577047
O  O117  1  0.24475000  0.67673000  0.04577000  1.0 -0.4984044072
O  O118  1  0.51267000  0.49262000  0.21525000  1.0 -0.0833662486
O  O119  1  0.70665000  0.22971000  0.06862000  1.0 -0.4984044072
O  O120  1  0.66469000  0.23626000  0.99935000  1.0 -0.5164711003
O  O121  1  0.51414000  0.07634000  0.04814000  1.0 -0.5499147412
O  O122  1  0.53328000  0.06947000  0.12777000  1.0 -0.4708577047
O  O123  1  0.55666000  0.48469000  0.05574000  1.0 -0.653534313
O  O124  1  0.59208000  0.47328000  0.12846000  1.0 -0.5593971138
O  O125  1  0.71238000  0.32745000  0.97578000  1.0 -0.4708577047
O  O126  1  0.75525000  0.32327000  0.04577000  1.0 -0.4984044072
O  O127  1  0.00738000  0.01267000  0.21525000  1.0 -0.0833662486
O  O128  1  0.27029000  0.20665000  0.06862000  1.0 -0.4984044072
O  O129  1  0.26374000  0.16469000  0.99935000  1.0 -0.5164711003
O  O130  1  0.42366000  0.01414000  0.04814000  1.0 -0.5499147412
O  O131  1  0.43053000  0.03328000  0.12777000  1.0 -0.4708577047
O  O132  1  0.01531000  0.05666000  0.05574000  1.0 -0.653534313
O  O133  1  0.02672000  0.09208000  0.12846000  1.0 -0.5593971138
O  O134  1  0.17255000  0.21238000  0.97578000  1.0 -0.4708577047
O  O135  1  0.17673000  0.25525000  0.04577000  1.0 -0.4984044072
O  O136  1  0.99262000  0.98733000  0.21525000  1.0 -0.0833662486
O  O137  1  0.72971000  0.79335000  0.06862000  1.0 -0.4984044072
O  O138  1  0.73626000  0.83531000  0.99935000  1.0 -0.5164711003
O  O139  1  0.57634000  0.98586000  0.04814000  1.0 -0.5499147412
O  O140  1  0.56947000  0.96672000  0.12777000  1.0 -0.4708577047
O  O141  1  0.98469000  0.94334000  0.05574000  1.0 -0.653534313
O  O142  1  0.97328000  0.90792000  0.12846000  1.0 -0.5593971138
O  O143  1  0.82745000  0.78762000  0.97578000  1.0 -0.4708577047
O  O144  1  0.82327000  0.74475000  0.04577000  1.0 -0.4984044072
