# DDEC6 charges by PACMAN v1.1 (https://github.com/mtap-research/PACMAN-charge/)
data_NOWYAC01_ion_pacman
_symmetry_space_group_name_H-M   'P 1'
_cell_length_a   20.60630000
_cell_length_b   18.22630000
_cell_length_c   14.41600000
_cell_angle_alpha   77.31460000
_cell_angle_beta   59.64480000
_cell_angle_gamma   43.04050000
_symmetry_Int_Tables_number   1
_chemical_formula_structural   InH28C26N5O8
_chemical_formula_sum   'In4 H112 C104 N20 O32'
_cell_volume   3083.94308007
_cell_formula_units_Z   4
loop_
 _symmetry_equiv_pos_site_id
 _symmetry_equiv_pos_as_xyz
  1  'x, y, z'
loop_
 _atom_site_type_symbol
 _atom_site_label
 _atom_site_symmetry_multiplicity
 _atom_site_fract_x
 _atom_site_fract_y
 _atom_site_fract_z
 _atom_site_occupancy
 _atom_site_charge
In  In1  1  0.30634000  0.30634000  0.69366000  1.0 1.2239947805
In  In2  1  0.55634000  0.55634000  0.94366000  1.0 1.2239947805
In  In3  1  0.69366000  0.69366000  0.30634000  1.0 1.2239947805
In  In4  1  0.94366000  0.94366000  0.55634000  1.0 1.2239947805
H  H1  1  0.24560000  0.55040000  0.88000000  1.0 0.140115103
H  H2  1  0.61560000  0.30900000  0.77080000  1.0 0.1154718041
H  H3  1  0.66320000  0.16380000  0.69540000  1.0 0.140115103
H  H4  1  0.57920000  0.17920000  0.69720000  1.0 0.1529186344
H  H5  1  0.29670000  0.61630000  0.91650000  1.0 0.1154718041
H  H6  1  0.09520000  0.29920000  0.64840000  1.0 0.1154718041
H  H7  1  0.92740000  0.51520000  0.92440000  1.0 0.1130733455
H  H8  1  0.67810000  0.60870000  0.04470000  1.0 0.1594802578
H  H9  1  0.73760000  0.62520000  0.05340000  1.0 0.140115103
H  H10  1  0.93590000  0.34850000  0.70890000  1.0 0.140115103
H  H11  1  0.55040000  0.24560000  0.32400000  1.0 0.140115103
H  H12  1  0.30900000  0.61560000  0.30460000  1.0 0.1154718041
H  H13  1  0.16380000  0.66320000  0.47760000  1.0 0.140115103
H  H14  1  0.17920000  0.57920000  0.54440000  1.0 0.1529186344
H  H15  1  0.61630000  0.29670000  0.17050000  1.0 0.1154718041
H  H16  1  0.29920000  0.09520000  0.95720000  1.0 0.1154718041
H  H17  1  0.51520000  0.92740000  0.63300000  1.0 0.1130733455
H  H18  1  0.60870000  0.67810000  0.66850000  1.0 0.1529186344
H  H19  1  0.62520000  0.73760000  0.58380000  1.0 0.140115103
H  H20  1  0.34850000  0.93590000  0.00670000  1.0 0.140115103
H  H21  1  0.37000000  0.92600000  0.00440000  1.0 0.140115103
H  H22  1  0.47920000  0.94540000  0.63440000  1.0 0.1154718041
H  H23  1  0.55460000  0.77240000  0.58680000  1.0 0.140115103
H  H24  1  0.55280000  0.70560000  0.67080000  1.0 0.1529186344
H  H25  1  0.33350000  0.07950000  0.95330000  1.0 0.1154718041
H  H26  1  0.60160000  0.29280000  0.15480000  1.0 0.1154718041
H  H27  1  0.32560000  0.61700000  0.32260000  1.0 0.1130733455
H  H28  1  0.20530000  0.58150000  0.57190000  1.0 0.1529186344
H  H29  1  0.19660000  0.66620000  0.51240000  1.0 0.140115103
H  H30  1  0.54110000  0.24330000  0.31410000  1.0 0.140115103
H  H31  1  0.92600000  0.37000000  0.69960000  1.0 0.140115103
H  H32  1  0.94540000  0.47920000  0.94100000  1.0 0.1154718041
H  H33  1  0.77240000  0.55460000  0.08620000  1.0 0.140115103
H  H34  1  0.70560000  0.55280000  0.07080000  1.0 0.1529186344
H  H35  1  0.07950000  0.33350000  0.63370000  1.0 0.1154718041
H  H36  1  0.29280000  0.60160000  0.95080000  1.0 0.1154718041
H  H37  1  0.61700000  0.32560000  0.73480000  1.0 0.1130733455
H  H38  1  0.58150000  0.20530000  0.64130000  1.0 0.1529186344
H  H39  1  0.66620000  0.19660000  0.62480000  1.0 0.140115103
H  H40  1  0.24330000  0.54110000  0.90150000  1.0 0.140115103
H  H41  1  0.88000000  0.32400000  0.24560000  1.0 0.140115103
H  H42  1  0.77080000  0.30460000  0.61560000  1.0 0.1154718041
H  H43  1  0.69540000  0.47760000  0.66320000  1.0 0.140115103
H  H44  1  0.69720000  0.54440000  0.57920000  1.0 0.1529186344
H  H45  1  0.91650000  0.17050000  0.29670000  1.0 0.1154718041
H  H46  1  0.64840000  0.95720000  0.09520000  1.0 0.1154718041
H  H47  1  0.92440000  0.63300000  0.92740000  1.0 0.1130733455
H  H48  1  0.04470000  0.66850000  0.67810000  1.0 0.1594802578
H  H49  1  0.05340000  0.58380000  0.73760000  1.0 0.140115103
H  H50  1  0.70890000  0.00670000  0.93590000  1.0 0.140115103
H  H51  1  0.32400000  0.88000000  0.55040000  1.0 0.140115103
H  H52  1  0.30460000  0.77080000  0.30900000  1.0 0.1154718041
H  H53  1  0.47760000  0.69540000  0.16380000  1.0 0.140115103
H  H54  1  0.54440000  0.69720000  0.17920000  1.0 0.1529186344
H  H55  1  0.17050000  0.91650000  0.61630000  1.0 0.1154718041
H  H56  1  0.95720000  0.64840000  0.29920000  1.0 0.1154718041
H  H57  1  0.63300000  0.92440000  0.51520000  1.0 0.1130733455
H  H58  1  0.66850000  0.04470000  0.60870000  1.0 0.1529186344
H  H59  1  0.58380000  0.05340000  0.62520000  1.0 0.140115103
H  H60  1  0.00670000  0.70890000  0.34850000  1.0 0.140115103
H  H61  1  0.00440000  0.69960000  0.37000000  1.0 0.140115103
H  H62  1  0.63440000  0.94100000  0.47920000  1.0 0.1154718041
H  H63  1  0.58680000  0.08620000  0.55460000  1.0 0.140115103
H  H64  1  0.67080000  0.07080000  0.55280000  1.0 0.1529186344
H  H65  1  0.95330000  0.63370000  0.33350000  1.0 0.1154718041
H  H66  1  0.15480000  0.95080000  0.60160000  1.0 0.1154718041
H  H67  1  0.32260000  0.73480000  0.32560000  1.0 0.1130733455
H  H68  1  0.57190000  0.64130000  0.20530000  1.0 0.1529186344
H  H69  1  0.51240000  0.62480000  0.19660000  1.0 0.140115103
H  H70  1  0.31410000  0.90150000  0.54110000  1.0 0.140115103
H  H71  1  0.69960000  0.00440000  0.92600000  1.0 0.140115103
H  H72  1  0.94100000  0.63440000  0.94540000  1.0 0.1154718041
H  H73  1  0.08620000  0.58680000  0.77240000  1.0 0.140115103
H  H74  1  0.07080000  0.67080000  0.70560000  1.0 0.1529186344
H  H75  1  0.63370000  0.95330000  0.07950000  1.0 0.1154718041
H  H76  1  0.95080000  0.15480000  0.29280000  1.0 0.1154718041
H  H77  1  0.73480000  0.32260000  0.61700000  1.0 0.1130733455
H  H78  1  0.64130000  0.57190000  0.58150000  1.0 0.1529186344
H  H79  1  0.62480000  0.51240000  0.66620000  1.0 0.140115103
H  H80  1  0.90150000  0.31410000  0.24330000  1.0 0.140115103
H  H81  1  0.22350000  0.12930000  0.33150000  1.0 0.26149302
H  H82  1  0.01190000  0.22170000  0.47130000  1.0 0.1277903023
H  H83  1  0.06210000  0.24310000  0.50250000  1.0 0.1014701875
H  H84  1  0.11500000  0.12200000  0.48820000  1.0 0.1277903023
H  H85  1  0.12930000  0.22350000  0.31570000  1.0 0.26149302
H  H86  1  0.22170000  0.01190000  0.29510000  1.0 0.1277903023
H  H87  1  0.24310000  0.06210000  0.19230000  1.0 0.1014701875
H  H88  1  0.12200000  0.11500000  0.27480000  1.0 0.1277903023
H  H89  1  0.33150000  0.31570000  0.22350000  1.0 0.26149302
H  H90  1  0.47130000  0.29510000  0.01190000  1.0 0.1277903023
H  H91  1  0.50250000  0.19230000  0.06210000  1.0 0.1014701875
H  H92  1  0.48820000  0.27480000  0.11500000  1.0 0.1277903023
H  H93  1  0.31570000  0.33150000  0.12930000  1.0 0.26149302
H  H94  1  0.29510000  0.47130000  0.22170000  1.0 0.1277903023
H  H95  1  0.19230000  0.50250000  0.24310000  1.0 0.1014701875
H  H96  1  0.27480000  0.48820000  0.12200000  1.0 0.1277903023
H  H97  1  0.02650000  0.12070000  0.91850000  1.0 0.26149302
H  H98  1  0.23810000  0.02830000  0.77870000  1.0 0.1277903023
H  H99  1  0.18790000  0.00690000  0.74750000  1.0 0.1014701875
H  H100  1  0.13500000  0.12800000  0.76180000  1.0 0.1277903023
H  H101  1  0.12070000  0.02650000  0.93430000  1.0 0.26149302
H  H102  1  0.02830000  0.23810000  0.95490000  1.0 0.1277903023
H  H103  1  0.00690000  0.18790000  0.05770000  1.0 0.1014701875
H  H104  1  0.12800000  0.13500000  0.97520000  1.0 0.1277903023
H  H105  1  0.91850000  0.93430000  0.02650000  1.0 0.26149302
H  H106  1  0.77870000  0.95490000  0.23810000  1.0 0.1277903023
H  H107  1  0.74750000  0.05770000  0.18790000  1.0 0.1014701875
H  H108  1  0.76180000  0.97520000  0.13500000  1.0 0.1277903023
H  H109  1  0.93430000  0.91850000  0.12070000  1.0 0.26149302
H  H110  1  0.95490000  0.77870000  0.02830000  1.0 0.1277903023
H  H111  1  0.05770000  0.74750000  0.00690000  1.0 0.1014701875
H  H112  1  0.97520000  0.76180000  0.12800000  1.0 0.1277903023
C  C1  1  0.36387000  0.35967000  0.76833000  1.0 0.4408902565
C  C2  1  0.40097000  0.39257000  0.79583000  1.0 -0.0528110273
C  C3  1  0.51220000  0.31700000  0.76720000  1.0 0.1594802578
C  C4  1  0.32120000  0.50180000  0.85520000  1.0 -0.1527072515
C  C5  1  0.54080000  0.35760000  0.79180000  1.0 -0.2586013766
C  C6  1  0.35100000  0.54080000  0.87880000  1.0 -0.1251856177
C  C7  1  0.46040000  0.46804000  0.84656000  1.0 0.0698898176
C  C8  1  0.49492000  0.50462000  0.87458000  1.0 0.458034903
C  C9  1  0.02910000  0.35230000  0.71710000  1.0 -0.1251856177
C  C10  1  0.92880000  0.48120000  0.88100000  1.0 -0.2586013766
C  C11  1  0.83270000  0.51110000  0.91870000  1.0 0.1594802578
C  C12  1  0.93510000  0.38010000  0.75430000  1.0 -0.1527072515
C  C13  1  0.35967000  0.36387000  0.50813000  1.0 0.4408902565
C  C14  1  0.39257000  0.40097000  0.41063000  1.0 -0.0528110273
C  C15  1  0.31700000  0.51220000  0.40360000  1.0 0.1594802578
C  C16  1  0.50180000  0.32120000  0.32180000  1.0 -0.1527072515
C  C17  1  0.35760000  0.54080000  0.30980000  1.0 -0.2586013766
C  C18  1  0.54080000  0.35100000  0.22940000  1.0 -0.1241877934
C  C19  1  0.46804000  0.46040000  0.22500000  1.0 0.0698898176
C  C20  1  0.50462000  0.49492000  0.12588000  1.0 0.458034903
C  C21  1  0.35230000  0.02910000  0.90150000  1.0 -0.1251856177
C  C22  1  0.48120000  0.92880000  0.70900000  1.0 -0.2586013766
C  C23  1  0.51110000  0.83270000  0.73750000  1.0 0.1594802578
C  C24  1  0.38010000  0.93510000  0.93050000  1.0 -0.1527072515
C  C25  1  0.48167000  0.74187000  0.88613000  1.0 0.4408902565
C  C26  1  0.45417000  0.83937000  0.84903000  1.0 -0.0528110273
C  C27  1  0.48280000  0.84640000  0.73780000  1.0 0.1594802578
C  C28  1  0.39480000  0.92820000  0.92880000  1.0 -0.1527072515
C  C29  1  0.45820000  0.94020000  0.70920000  1.0 -0.2586013766
C  C30  1  0.37120000  0.02060000  0.89900000  1.0 -0.1251856177
C  C31  1  0.40344000  0.02500000  0.78960000  1.0 0.0698898176
C  C32  1  0.37542000  0.12412000  0.75508000  1.0 0.458034903
C  C33  1  0.53290000  0.34850000  0.22090000  1.0 -0.1241877934
C  C34  1  0.36900000  0.54100000  0.32120000  1.0 -0.2586013766
C  C35  1  0.33130000  0.51250000  0.41730000  1.0 0.1594802578
C  C36  1  0.49570000  0.31950000  0.31490000  1.0 -0.1527072515
C  C37  1  0.74187000  0.48167000  0.89033000  1.0 0.4408902565
C  C38  1  0.83937000  0.45417000  0.85743000  1.0 -0.0528110273
C  C39  1  0.84640000  0.48280000  0.93300000  1.0 0.1594802578
C  C40  1  0.92820000  0.39480000  0.74820000  1.0 -0.1527072515
C  C41  1  0.94020000  0.45820000  0.89240000  1.0 -0.2586013766
C  C42  1  0.02060000  0.37120000  0.70920000  1.0 -0.1251856177
C  C43  1  0.02500000  0.40344000  0.78196000  1.0 0.0698898176
C  C44  1  0.12412000  0.37542000  0.74538000  1.0 0.458034903
C  C45  1  0.34850000  0.53290000  0.89770000  1.0 -0.1251856177
C  C46  1  0.54100000  0.36900000  0.76880000  1.0 -0.2586013766
C  C47  1  0.51250000  0.33130000  0.73890000  1.0 0.1594802578
C  C48  1  0.31950000  0.49570000  0.86990000  1.0 -0.1527072515
C  C49  1  0.76833000  0.50813000  0.36387000  1.0 0.4408902565
C  C50  1  0.79583000  0.41063000  0.40097000  1.0 -0.0528110273
C  C51  1  0.76720000  0.40360000  0.51220000  1.0 0.1594802578
C  C52  1  0.85520000  0.32180000  0.32120000  1.0 -0.1527072515
C  C53  1  0.79180000  0.30980000  0.54080000  1.0 -0.2586013766
C  C54  1  0.87880000  0.22940000  0.35100000  1.0 -0.1241877934
C  C55  1  0.84656000  0.22500000  0.46040000  1.0 0.0698898176
C  C56  1  0.87458000  0.12588000  0.49492000  1.0 0.458034903
C  C57  1  0.71710000  0.90150000  0.02910000  1.0 -0.1241877934
C  C58  1  0.88100000  0.70900000  0.92880000  1.0 -0.2586013766
C  C59  1  0.91870000  0.73750000  0.83270000  1.0 0.1594802578
C  C60  1  0.75430000  0.93050000  0.93510000  1.0 -0.1527072515
C  C61  1  0.50813000  0.76833000  0.35967000  1.0 0.4408902565
C  C62  1  0.41063000  0.79583000  0.39257000  1.0 -0.0528110273
C  C63  1  0.40360000  0.76720000  0.31700000  1.0 0.1594802578
C  C64  1  0.32180000  0.85520000  0.50180000  1.0 -0.1527072515
C  C65  1  0.30980000  0.79180000  0.35760000  1.0 -0.2586013766
C  C66  1  0.22940000  0.87880000  0.54080000  1.0 -0.1241877934
C  C67  1  0.22500000  0.84656000  0.46804000  1.0 0.0698898176
C  C68  1  0.12588000  0.87458000  0.50462000  1.0 0.458034903
C  C69  1  0.90150000  0.71710000  0.35230000  1.0 -0.1241877934
C  C70  1  0.70900000  0.88100000  0.48120000  1.0 -0.2586013766
C  C71  1  0.73750000  0.91870000  0.51110000  1.0 0.1594802578
C  C72  1  0.93050000  0.75430000  0.38010000  1.0 -0.1527072515
C  C73  1  0.88613000  0.89033000  0.48167000  1.0 0.4408902565
C  C74  1  0.84903000  0.85743000  0.45417000  1.0 -0.0528110273
C  C75  1  0.73780000  0.93300000  0.48280000  1.0 0.1594802578
C  C76  1  0.92880000  0.74820000  0.39480000  1.0 -0.1527072515
C  C77  1  0.70920000  0.89240000  0.45820000  1.0 -0.2586013766
C  C78  1  0.89900000  0.70920000  0.37120000  1.0 -0.1241877934
C  C79  1  0.78960000  0.78196000  0.40344000  1.0 0.0698898176
C  C80  1  0.75508000  0.74538000  0.37542000  1.0 0.458034903
C  C81  1  0.22090000  0.89770000  0.53290000  1.0 -0.1251856177
C  C82  1  0.32120000  0.76880000  0.36900000  1.0 -0.2586013766
C  C83  1  0.41730000  0.73890000  0.33130000  1.0 0.1594802578
C  C84  1  0.31490000  0.86990000  0.49570000  1.0 -0.1527072515
C  C85  1  0.89033000  0.88613000  0.74187000  1.0 0.4408902565
C  C86  1  0.85743000  0.84903000  0.83937000  1.0 -0.0528110273
C  C87  1  0.93300000  0.73780000  0.84640000  1.0 0.1594802578
C  C88  1  0.74820000  0.92880000  0.92820000  1.0 -0.1527072515
C  C89  1  0.89240000  0.70920000  0.94020000  1.0 -0.2586013766
C  C90  1  0.70920000  0.89900000  0.02060000  1.0 -0.1241877934
C  C91  1  0.78196000  0.78960000  0.02500000  1.0 0.0698898176
C  C92  1  0.74538000  0.75508000  0.12412000  1.0 0.458034903
C  C93  1  0.89770000  0.22090000  0.34850000  1.0 -0.1241877934
C  C94  1  0.76880000  0.32120000  0.54100000  1.0 -0.2586013766
C  C95  1  0.73890000  0.41730000  0.51250000  1.0 0.1594802578
C  C96  1  0.86990000  0.31490000  0.31950000  1.0 -0.1527072515
C  C97  1  0.08100000  0.18900000  0.46100000  1.0 -0.328318849
C  C98  1  0.18900000  0.08100000  0.26900000  1.0 -0.328318849
C  C99  1  0.46100000  0.26900000  0.08100000  1.0 -0.328318849
C  C100  1  0.26900000  0.46100000  0.18900000  1.0 -0.328318849
C  C101  1  0.16900000  0.06100000  0.78900000  1.0 -0.328318849
C  C102  1  0.06100000  0.16900000  0.98100000  1.0 -0.328318849
C  C103  1  0.78900000  0.98100000  0.16900000  1.0 -0.328318849
C  C104  1  0.98100000  0.78900000  0.06100000  1.0 -0.328318849
N  N1  1  0.59470000  0.20690000  0.71350000  1.0 -0.1823800242
N  N2  1  0.73800000  0.59140000  0.01760000  1.0 -0.2029407358
N  N3  1  0.20690000  0.59470000  0.48490000  1.0 -0.1823800242
N  N4  1  0.59140000  0.73800000  0.65300000  1.0 -0.2029407358
N  N5  1  0.53650000  0.76510000  0.65530000  1.0 -0.1823800242
N  N6  1  0.23240000  0.59700000  0.51200000  1.0 -0.2029407358
N  N7  1  0.76510000  0.53650000  0.04310000  1.0 -0.1823800242
N  N8  1  0.59700000  0.23240000  0.65860000  1.0 -0.2029407358
N  N9  1  0.71350000  0.48490000  0.59470000  1.0 -0.1823800242
N  N10  1  0.01760000  0.65300000  0.73800000  1.0 -0.2029407358
N  N11  1  0.48490000  0.71350000  0.20690000  1.0 -0.1823800242
N  N12  1  0.65300000  0.01760000  0.59140000  1.0 -0.2029407358
N  N13  1  0.65530000  0.04310000  0.53650000  1.0 -0.1823800242
N  N14  1  0.51200000  0.65860000  0.23240000  1.0 -0.2029407358
N  N15  1  0.04310000  0.65530000  0.76510000  1.0 -0.1823800242
N  N16  1  0.65860000  0.51200000  0.59700000  1.0 -0.2029407358
N  N17  1  0.16000000  0.16000000  0.34000000  1.0 -0.1103823239
N  N18  1  0.34000000  0.34000000  0.16000000  1.0 -0.1103823239
N  N19  1  0.09000000  0.09000000  0.91000000  1.0 -0.1103823239
N  N20  1  0.91000000  0.91000000  0.09000000  1.0 -0.1103823239
O  O1  1  0.59595000  0.44793000  0.82527000  1.0 -0.4859022701
O  O2  1  0.42260000  0.59212000  0.95032000  1.0 -0.4859022701
O  O3  1  0.26272000  0.41812000  0.81488000  1.0 -0.4752555769
O  O4  1  0.43575000  0.27087000  0.69253000  1.0 -0.5043980589
O  O5  1  0.44793000  0.59595000  0.13085000  1.0 -0.4859022701
O  O6  1  0.59212000  0.42260000  0.03496000  1.0 -0.4859022701
O  O7  1  0.41812000  0.26272000  0.50428000  1.0 -0.4752555769
O  O8  1  0.27087000  0.43575000  0.60085000  1.0 -0.5055244675
O  O9  1  0.42473000  0.11915000  0.65405000  1.0 -0.4859022701
O  O10  1  0.29968000  0.21504000  0.82740000  1.0 -0.4859022701
O  O11  1  0.43512000  0.74572000  0.98728000  1.0 -0.4752555769
O  O12  1  0.55747000  0.64915000  0.81425000  1.0 -0.5043980589
O  O13  1  0.11915000  0.42473000  0.80207000  1.0 -0.4859022701
O  O14  1  0.21504000  0.29968000  0.65788000  1.0 -0.4859022701
O  O15  1  0.74572000  0.43512000  0.83188000  1.0 -0.4747181346
O  O16  1  0.64915000  0.55747000  0.97913000  1.0 -0.5055244675
O  O17  1  0.82527000  0.13085000  0.59595000  1.0 -0.4859022701
O  O18  1  0.95032000  0.03496000  0.42260000  1.0 -0.4859022701
O  O19  1  0.81488000  0.50428000  0.26272000  1.0 -0.4752555769
O  O20  1  0.69253000  0.60085000  0.43575000  1.0 -0.5055244675
O  O21  1  0.13085000  0.82527000  0.44793000  1.0 -0.4859022701
O  O22  1  0.03496000  0.95032000  0.59212000  1.0 -0.4859022701
O  O23  1  0.50428000  0.81488000  0.41812000  1.0 -0.4752555769
O  O24  1  0.60085000  0.69253000  0.27087000  1.0 -0.5055244675
O  O25  1  0.65405000  0.80207000  0.42473000  1.0 -0.4859022701
O  O26  1  0.82740000  0.65788000  0.29968000  1.0 -0.4859022701
O  O27  1  0.98728000  0.83188000  0.43512000  1.0 -0.4752555769
O  O28  1  0.81425000  0.97913000  0.55747000  1.0 -0.5055244675
O  O29  1  0.80207000  0.65405000  0.11915000  1.0 -0.4859022701
O  O30  1  0.65788000  0.82740000  0.21504000  1.0 -0.4859022701
O  O31  1  0.83188000  0.98728000  0.74572000  1.0 -0.4752555769
O  O32  1  0.97913000  0.81425000  0.64915000  1.0 -0.5055244675
