# DDEC6 charges by PACMAN v1.1 (https://github.com/mtap-research/PACMAN-charge/)
data_NOZZOT_FSR_pacman
_symmetry_space_group_name_H-M   'P 1'
_cell_length_a   14.09700000
_cell_length_b   14.20150000
_cell_length_c   14.26490000
_cell_angle_alpha   115.66300000
_cell_angle_beta   113.62700000
_cell_angle_gamma   97.60300000
_symmetry_Int_Tables_number   1
_chemical_formula_structural   Cd2SiH36C36N2O11
_chemical_formula_sum   'Cd4 Si2 H72 C72 N4 O22'
_cell_volume   2190.58528798
_cell_formula_units_Z   2
loop_
 _symmetry_equiv_pos_site_id
 _symmetry_equiv_pos_as_xyz
  1  'x, y, z'
loop_
 _atom_site_type_symbol
 _atom_site_label
 _atom_site_symmetry_multiplicity
 _atom_site_fract_x
 _atom_site_fract_y
 _atom_site_fract_z
 _atom_site_occupancy
 _atom_site_charge
Cd  Cd1  1  0.00565000  0.88663000  0.18695000  1.0 0.981912349
Cd  Cd2  1  0.99435000  0.11337000  0.81305000  1.0 0.981912349
Cd  Cd3  1  0.00000000  0.00000000  0.00000000  1.0 1.1220164938
Cd  Cd4  1  0.50000000  0.00000000  0.50000000  1.0 1.0890790863
Si  Si1  1  0.26351000  0.64836000  0.68439000  1.0 0.6617589338
Si  Si2  1  0.73649000  0.35164000  0.31561000  1.0 0.6617589338
H  H1  1  0.17700000  0.24350000  0.53090000  1.0 0.1194506435
H  H2  1  0.82300000  0.75650000  0.46910000  1.0 0.1194506435
H  H3  1  0.25120000  0.43360000  0.68110000  1.0 0.1194506435
H  H4  1  0.74880000  0.56640000  0.31890000  1.0 0.1194506435
H  H5  1  0.14670000  0.51020000  0.42390000  1.0 0.1194506435
H  H6  1  0.85330000  0.48980000  0.57610000  1.0 0.1120072303
H  H7  1  0.05050000  0.58310000  0.86860000  1.0 0.1278540023
H  H8  1  0.94950000  0.41690000  0.13140000  1.0 0.1278540023
H  H9  1  0.07730000  0.32100000  0.27480000  1.0 0.1194506435
H  H10  1  0.92270000  0.67900000  0.72520000  1.0 0.1194506435
H  H11  1  0.20250000  0.90880000  0.99150000  1.0 0.1194506435
H  H12  1  0.79750000  0.09120000  0.00850000  1.0 0.1194506435
H  H13  1  0.44150000  0.86350000  0.81120000  1.0 0.1120072303
H  H14  1  0.55850000  0.13650000  0.18880000  1.0 0.1120072303
H  H15  1  0.44340000  0.56260000  0.76570000  1.0 0.1120072303
H  H16  1  0.55660000  0.43740000  0.23430000  1.0 0.1120072303
H  H17  1  0.12000000  0.52650000  0.73810000  1.0 0.1120072303
H  H18  1  0.88000000  0.47350000  0.26190000  1.0 0.1120072303
H  H19  1  0.63480000  0.93580000  0.91430000  1.0 0.1194506435
H  H20  1  0.36520000  0.06420000  0.08570000  1.0 0.1194506435
H  H21  1  0.06940000  0.70590000  0.58920000  1.0 0.1120072303
H  H22  1  0.93060000  0.29410000  0.41080000  1.0 0.1120072303
H  H23  1  0.35270000  0.74610000  0.57830000  1.0 0.1120072303
H  H24  1  0.64730000  0.25390000  0.42170000  1.0 0.1120072303
H  H25  1  0.28430000  0.80750000  0.44650000  1.0 0.1120072303
H  H26  1  0.71570000  0.19250000  0.55350000  1.0 0.1120072303
H  H27  1  0.63740000  0.64000000  0.88440000  1.0 0.1278540023
H  H28  1  0.36260000  0.36000000  0.11560000  1.0 0.1278540023
H  H29  1  0.27860000  0.85270000  0.86830000  1.0 0.1120072303
H  H30  1  0.72140000  0.14730000  0.13170000  1.0 0.1120072303
H  H31  1  0.00050000  0.76630000  0.45690000  1.0 0.1194506435
H  H32  1  0.99950000  0.23370000  0.54310000  1.0 0.1194506435
H  H33  1  0.57750000  0.61720000  0.60810000  1.0 0.1278540023
H  H34  1  0.42250000  0.38280000  0.39190000  1.0 0.1278540023
H  H35  1  0.68520000  0.72170000  0.66340000  1.0 0.1278540023
H  H36  1  0.31480000  0.27830000  0.33660000  1.0 0.1278540023
H  H37  1  0.63740000  0.61200000  0.53250000  1.0 0.1278540023
H  H38  1  0.36260000  0.38800000  0.46750000  1.0 0.1278540023
H  H39  1  0.68080000  0.97740000  0.71970000  1.0 0.1618253657
H  H40  1  0.31920000  0.02260000  0.28030000  1.0 0.1618253657
H  H41  1  0.73820000  0.90020000  0.66010000  1.0 0.1692456125
H  H42  1  0.26180000  0.09980000  0.33990000  1.0 0.1692456125
H  H43  1  0.70300000  0.88150000  0.74620000  1.0 0.1618253657
H  H44  1  0.29700000  0.11850000  0.25380000  1.0 0.1618253657
H  H45  1  0.54390000  0.14410000  0.84210000  1.0 0.1692456125
H  H46  1  0.45610000  0.85590000  0.15790000  1.0 0.1692456125
H  H47  1  0.53450000  0.02870000  0.73930000  1.0 0.1618253657
H  H48  1  0.46550000  0.97130000  0.26070000  1.0 0.1618253657
H  H49  1  0.46560000  0.02650000  0.80480000  1.0 0.1464177078
H  H50  1  0.53440000  0.97350000  0.19520000  1.0 0.1464177078
H  H51  1  0.22570000  0.07480000  0.53870000  1.0 0.1405864997
H  H52  1  0.77430000  0.92520000  0.46130000  1.0 0.1405864997
H  H53  1  0.21190000  0.16290000  0.64500000  1.0 0.1405864997
H  H54  1  0.78810000  0.83710000  0.35500000  1.0 0.1405864997
H  H55  1  0.14890000  0.03080000  0.58000000  1.0 0.1405864997
H  H56  1  0.85110000  0.96920000  0.42000000  1.0 0.1405864997
H  H57  1  0.40390000  0.66520000  0.38270000  1.0 0.1405864997
H  H58  1  0.59610000  0.33480000  0.61730000  1.0 0.1405864997
H  H59  1  0.39230000  0.59140000  0.43900000  1.0 0.1278540023
H  H60  1  0.60770000  0.40860000  0.56100000  1.0 0.1278540023
H  H61  1  0.45610000  0.56980000  0.36520000  1.0 0.1278540023
H  H62  1  0.54390000  0.43020000  0.63480000  1.0 0.1278540023
H  H63  1  0.38050000  0.14390000  0.87370000  1.0 0.1194506435
H  H64  1  0.61950000  0.85610000  0.12630000  1.0 0.1194506435
H  H65  1  0.28090000  0.02370000  0.78770000  1.0 0.1278540023
H  H66  1  0.71910000  0.97630000  0.21230000  1.0 0.1278540023
H  H67  1  0.25410000  0.13500000  0.80970000  1.0 0.1464177078
H  H68  1  0.74590000  0.86500000  0.19030000  1.0 0.1464177078
H  H69  1  0.65900000  0.18800000  0.72100000  1.0 0.3215021832
H  H70  1  0.34100000  0.81200000  0.27900000  1.0 0.3215021832
H  H71  1  0.72200000  0.13700000  0.68500000  1.0 0.3568214222
H  H72  1  0.27800000  0.86300000  0.31500000  1.0 0.3568214222
C  C1  1  0.42041000  0.70440000  0.77459000  1.0 -0.2176539507
C  C2  1  0.57959000  0.29560000  0.22541000  1.0 -0.2176539507
C  C3  1  0.20702000  0.68322000  0.78868000  1.0 -0.2176539507
C  C4  1  0.79298000  0.31678000  0.21132000  1.0 -0.2176539507
C  C5  1  0.11823000  0.75135000  0.94104000  1.0 -0.0089446007
C  C6  1  0.88177000  0.24865000  0.05896000  1.0 -0.0089446007
C  C7  1  0.21825000  0.71808000  0.59739000  1.0 -0.2116334618
C  C8  1  0.78175000  0.28192000  0.40261000  1.0 -0.2116334618
C  C9  1  0.06714000  0.78778000  0.01858000  1.0 0.5745844586
C  C10  1  0.93286000  0.21222000  0.98142000  1.0 0.5745844586
C  C11  1  0.11887000  0.26359000  0.38777000  1.0 -0.0174312143
C  C12  1  0.88113000  0.73641000  0.61223000  1.0 -0.0174312143
C  C13  1  0.17116000  0.29775000  0.50902000  1.0 -0.1016090842
C  C14  1  0.82884000  0.70225000  0.49098000  1.0 -0.1016090842
C  C15  1  0.07148000  0.14149000  0.28816000  1.0 0.5782091512
C  C16  1  0.92852000  0.85851000  0.71184000  1.0 0.5782091512
C  C17  1  0.20681000  0.49352000  0.56958000  1.0 -0.2176539507
C  C18  1  0.79319000  0.50648000  0.43042000  1.0 -0.2176539507
C  C19  1  0.21494000  0.41127000  0.59847000  1.0 -0.0923354409
C  C20  1  0.78506000  0.58873000  0.40153000  1.0 -0.0923354409
C  C21  1  0.15384000  0.45668000  0.44663000  1.0 -0.0807938377
C  C22  1  0.84616000  0.54332000  0.55337000  1.0 -0.0807938377
C  C23  1  0.09533000  0.63781000  0.86690000  1.0 -0.1016090842
C  C24  1  0.90467000  0.36219000  0.13310000  1.0 -0.1016090842
C  C25  1  0.11160000  0.34369000  0.35748000  1.0 -0.0923354409
C  C26  1  0.88840000  0.65631000  0.64252000  1.0 -0.0923354409
C  C27  1  0.18635000  0.83108000  0.94080000  1.0 -0.0923354409
C  C28  1  0.81365000  0.16892000  0.05920000  1.0 -0.0923354409
C  C29  1  0.13478000  0.79134000  0.43725000  1.0 -0.0089446007
C  C30  1  0.86522000  0.20866000  0.56275000  1.0 -0.0089446007
C  C31  1  0.78161000  0.84429000  0.98083000  1.0 0.5782091512
C  C32  1  0.21839000  0.15571000  0.01917000  1.0 0.5782091512
C  C33  1  0.65567000  0.79502000  0.90902000  1.0 -0.0089446007
C  C34  1  0.34433000  0.20498000  0.09098000  1.0 -0.0089446007
C  C35  1  0.08806000  0.82805000  0.34950000  1.0 0.5515482171
C  C36  1  0.91194000  0.17195000  0.65050000  1.0 0.5515482171
C  C37  1  0.48078000  0.81625000  0.82250000  1.0 -0.0807938377
C  C38  1  0.51922000  0.18375000  0.17750000  1.0 -0.0807938377
C  C39  1  0.48164000  0.63926000  0.79760000  1.0 -0.0807938377
C  C40  1  0.51836000  0.36074000  0.20240000  1.0 -0.0807938377
C  C41  1  0.13805000  0.60437000  0.79031000  1.0 -0.0745234521
C  C42  1  0.86195000  0.39563000  0.20969000  1.0 -0.0745234521
C  C43  1  0.59619000  0.86039000  0.88620000  1.0 -0.1103532047
C  C44  1  0.40381000  0.13961000  0.11380000  1.0 -0.1103532047
C  C45  1  0.11346000  0.72580000  0.56000000  1.0 -0.0807938377
C  C46  1  0.88654000  0.27420000  0.44000000  1.0 -0.0807938377
C  C47  1  0.28055000  0.74965000  0.55360000  1.0 -0.0807938377
C  C48  1  0.71945000  0.25035000  0.44640000  1.0 -0.0807938377
C  C49  1  0.23994000  0.78613000  0.47470000  1.0 -0.1016090842
C  C50  1  0.76006000  0.21387000  0.52530000  1.0 -0.1016090842
C  C51  1  0.59769000  0.68473000  0.86640000  1.0 -0.1103532047
C  C52  1  0.40231000  0.31527000  0.13360000  1.0 -0.1103532047
C  C53  1  0.23080000  0.79729000  0.86650000  1.0 -0.0807938377
C  C54  1  0.76920000  0.20271000  0.13350000  1.0 -0.0807938377
C  C55  1  0.07227000  0.76180000  0.48110000  1.0 -0.1016090842
C  C56  1  0.92773000  0.23820000  0.51890000  1.0 -0.1016090842
C  C57  1  0.57025000  0.81910000  0.57740000  1.0 0.52711751
C  C58  1  0.42975000  0.18090000  0.42260000  1.0 0.52711751
C  C59  1  0.39760000  0.06980000  0.68010000  1.0 0.52711751
C  C60  1  0.60240000  0.93020000  0.31990000  1.0 0.52711751
C  C61  1  0.61740000  0.66110000  0.58880000  1.0 -0.346426952
C  C62  1  0.38260000  0.33890000  0.41120000  1.0 -0.346426952
C  C63  1  0.68280000  0.90170000  0.68520000  1.0 -0.6107674794
C  C64  1  0.31720000  0.09830000  0.31480000  1.0 -0.6107674794
C  C65  1  0.49380000  0.06700000  0.77480000  1.0 -0.6171069102
C  C66  1  0.50620000  0.93300000  0.22520000  1.0 -0.6171069102
C  C67  1  0.21700000  0.08880000  0.60780000  1.0 -0.3317123012
C  C68  1  0.78300000  0.91120000  0.39220000  1.0 -0.3317123012
C  C69  1  0.44080000  0.62720000  0.42070000  1.0 -0.3421761947
C  C70  1  0.55920000  0.37280000  0.57930000  1.0 -0.3421761947
C  C71  1  0.30660000  0.09810000  0.80040000  1.0 -0.346426952
C  C72  1  0.69340000  0.90190000  0.19960000  1.0 -0.346426952
N  N1  1  0.31310000  0.08590000  0.69680000  1.0 -0.0089446007
N  N2  1  0.68690000  0.91410000  0.30320000  1.0 -0.0089446007
N  N3  1  0.54576000  0.70936000  0.53280000  1.0 -0.0174312143
N  N4  1  0.45424000  0.29064000  0.46720000  1.0 -0.0174312143
O  O1  1  0.01879000  0.72021000  0.03279000  1.0 -0.5048894243
O  O2  1  0.98121000  0.27979000  0.96721000  1.0 -0.5048894243
O  O3  1  0.07789000  0.89195000  0.07076000  1.0 -0.6021253424
O  O4  1  0.92211000  0.10805000  0.92924000  1.0 -0.6021253424
O  O5  1  0.82670000  0.81659000  0.05562000  1.0 -0.5413311676
O  O6  1  0.17330000  0.18341000  0.94438000  1.0 -0.5413311676
O  O7  1  0.82871000  0.90796000  0.96122000  1.0 -0.5683144586
O  O8  1  0.17129000  0.09204000  0.03878000  1.0 -0.5683144586
O  O9  1  0.05978000  0.06926000  0.31534000  1.0 -0.5462145464
O  O10  1  0.94022000  0.93074000  0.68466000  1.0 -0.5462145464
O  O11  1  0.04866000  0.12317000  0.18642000  1.0 -0.5626356856
O  O12  1  0.95134000  0.87683000  0.81358000  1.0 -0.5626356856
O  O13  1  0.99003000  0.82558000  0.31114000  1.0 -0.5315672116
O  O14  1  0.00997000  0.17442000  0.68886000  1.0 -0.5315672116
O  O15  1  0.14915000  0.86110000  0.31622000  1.0 -0.5462145464
O  O16  1  0.85085000  0.13890000  0.68378000  1.0 -0.5462145464
O  O17  1  0.65780000  0.12426000  0.67740000  1.0 -0.6757270055
O  O18  1  0.34220000  0.87574000  0.32260000  1.0 -0.6736979441
O  O19  1  0.49927000  0.85212000  0.52806000  1.0 -0.5626356856
O  O20  1  0.50073000  0.14788000  0.47194000  1.0 -0.5626356856
O  O21  1  0.39620000  0.05682000  0.58708000  1.0 -0.5683144586
O  O22  1  0.60380000  0.94318000  0.41292000  1.0 -0.5683144586
