# DDEC6 charges by PACMAN v1.1 (https://github.com/mtap-research/PACMAN-charge/)
data_NUBPAE08_ASR_pacman
_symmetry_space_group_name_H-M   'P 1'
_cell_length_a   14.41870000
_cell_length_b   13.86750000
_cell_length_c   35.83300000
_cell_angle_alpha   90.00000000
_cell_angle_beta   90.50000000
_cell_angle_gamma   90.00000000
_symmetry_Int_Tables_number   1
_chemical_formula_structural   FeH22C28(SN3)2
_chemical_formula_sum   'Fe8 H176 C224 S16 N48'
_cell_volume   7164.58291443
_cell_formula_units_Z   8
loop_
 _symmetry_equiv_pos_site_id
 _symmetry_equiv_pos_as_xyz
  1  'x, y, z'
loop_
 _atom_site_type_symbol
 _atom_site_label
 _atom_site_symmetry_multiplicity
 _atom_site_fract_x
 _atom_site_fract_y
 _atom_site_fract_z
 _atom_site_occupancy
 _atom_site_charge
Fe  Fe1  1  0.87316000  0.87765000  0.37638000  1.0 0.702878548
Fe  Fe2  1  0.62351000  0.91228000  0.62587000  1.0 0.702878548
Fe  Fe3  1  0.12684000  0.87765000  0.12362000  1.0 0.702878548
Fe  Fe4  1  0.37649000  0.91228000  0.87413000  1.0 0.702878548
Fe  Fe5  1  0.12684000  0.12235000  0.62362000  1.0 0.702878548
Fe  Fe6  1  0.37649000  0.08772000  0.37413000  1.0 0.702878548
Fe  Fe7  1  0.87316000  0.12235000  0.87638000  1.0 0.702878548
Fe  Fe8  1  0.62351000  0.08772000  0.12587000  1.0 0.702878548
H  H1  1  0.86580000  0.70970000  0.43500000  1.0 0.1120558358
H  H2  1  0.87210000  0.54520000  0.44090000  1.0 0.1380735065
H  H3  1  0.88820000  0.52630000  0.32990000  1.0 0.1302224194
H  H4  1  0.88250000  0.69120000  0.32740000  1.0 0.1120558358
H  H5  1  0.89670000  0.38580000  0.41390000  1.0 0.1302224194
H  H6  1  0.91640000  0.88670000  0.46210000  1.0 0.100972456
H  H7  1  0.02790000  0.89230000  0.50680000  1.0 0.1120558358
H  H8  1  0.21690000  0.88200000  0.42720000  1.0 0.1120558358
H  H9  1  0.09670000  0.87730000  0.38300000  1.0 0.100972456
H  H10  1  0.18550000  0.89390000  0.52970000  1.0 0.100972456
H  H11  1  0.95910000  0.06660000  0.41440000  1.0 0.100972456
H  H12  1  0.96030000  0.23100000  0.41110000  1.0 0.1302224194
H  H13  1  0.78560000  0.21610000  0.32470000  1.0 0.1302224194
H  H14  1  0.78470000  0.05120000  0.33110000  1.0 0.100972456
H  H15  1  0.85590000  0.37340000  0.33960000  1.0 0.1302224194
H  H16  1  0.82880000  0.85970000  0.28850000  1.0 0.100972456
H  H17  1  0.71140000  0.85730000  0.24560000  1.0 0.1178465698
H  H18  1  0.53340000  0.86880000  0.32920000  1.0 0.1178465698
H  H19  1  0.65290000  0.87010000  0.36970000  1.0 0.100972456
H  H20  1  0.56950000  0.87060000  0.22420000  1.0 0.1120558358
H  H21  1  0.61970000  0.74320000  0.68370000  1.0 0.1120558358
H  H22  1  0.62240000  0.57880000  0.68890000  1.0 0.1380735065
H  H23  1  0.63220000  0.56160000  0.57800000  1.0 0.1302224194
H  H24  1  0.63110000  0.72710000  0.57550000  1.0 0.1120558358
H  H25  1  0.64600000  0.42130000  0.66180000  1.0 0.1302224194
H  H26  1  0.66970000  0.92550000  0.71190000  1.0 0.100972456
H  H27  1  0.78690000  0.92890000  0.75500000  1.0 0.1120558358
H  H28  1  0.96450000  0.91100000  0.67160000  1.0 0.1178465698
H  H29  1  0.84550000  0.90700000  0.63090000  1.0 0.100972456
H  H30  1  0.93190000  0.92910000  0.77630000  1.0 0.100972456
H  H31  1  0.70820000  0.10000000  0.66340000  1.0 0.100972456
H  H32  1  0.70890000  0.26640000  0.66100000  1.0 0.1302224194
H  H33  1  0.53040000  0.24890000  0.57580000  1.0 0.1302224194
H  H34  1  0.53330000  0.08660000  0.58110000  1.0 0.100972456
H  H35  1  0.60400000  0.40930000  0.58820000  1.0 0.1302224194
H  H36  1  0.57750000  0.90260000  0.54050000  1.0 0.100972456
H  H37  1  0.46430000  0.89320000  0.49660000  1.0 0.1178465698
H  H38  1  0.27890000  0.88990000  0.57700000  1.0 0.1120558358
H  H39  1  0.39930000  0.89720000  0.62050000  1.0 0.100972456
H  H40  1  0.31100000  0.88880000  0.47350000  1.0 0.100972456
H  H41  1  0.28050000  0.94210000  0.47220000  1.0 0.1120558358
H  H42  1  0.45370000  0.85020000  0.28320000  1.0 0.100972456
H  H43  1  0.04710000  0.89960000  0.71680000  1.0 0.100972456
H  H44  1  0.21390000  0.83610000  0.53100000  1.0 0.100972456
H  H45  1  0.13420000  0.70970000  0.06500000  1.0 0.1120558358
H  H46  1  0.12790000  0.54520000  0.05910000  1.0 0.1380735065
H  H47  1  0.11180000  0.52630000  0.17010000  1.0 0.1302224194
H  H48  1  0.11750000  0.69120000  0.17260000  1.0 0.1120558358
H  H49  1  0.10330000  0.38580000  0.08610000  1.0 0.1302224194
H  H50  1  0.08360000  0.88670000  0.03790000  1.0 0.100972456
H  H51  1  0.97210000  0.89230000  0.99320000  1.0 0.1120558358
H  H52  1  0.78310000  0.88200000  0.07280000  1.0 0.1120558358
H  H53  1  0.90330000  0.87730000  0.11700000  1.0 0.100972456
H  H54  1  0.81450000  0.89390000  0.97030000  1.0 0.100972456
H  H55  1  0.04090000  0.06660000  0.08560000  1.0 0.100972456
H  H56  1  0.03970000  0.23100000  0.08890000  1.0 0.1302224194
H  H57  1  0.21440000  0.21610000  0.17530000  1.0 0.1302224194
H  H58  1  0.21530000  0.05120000  0.16890000  1.0 0.100972456
H  H59  1  0.14410000  0.37340000  0.16040000  1.0 0.1302224194
H  H60  1  0.17120000  0.85970000  0.21150000  1.0 0.100972456
H  H61  1  0.28860000  0.85730000  0.25440000  1.0 0.1178465698
H  H62  1  0.46660000  0.86880000  0.17080000  1.0 0.1178465698
H  H63  1  0.34710000  0.87010000  0.13030000  1.0 0.100972456
H  H64  1  0.43050000  0.87060000  0.27580000  1.0 0.1120558358
H  H65  1  0.38030000  0.74320000  0.81630000  1.0 0.1120558358
H  H66  1  0.37760000  0.57880000  0.81110000  1.0 0.1380735065
H  H67  1  0.36780000  0.56160000  0.92200000  1.0 0.1302224194
H  H68  1  0.36890000  0.72710000  0.92450000  1.0 0.1120558358
H  H69  1  0.35400000  0.42130000  0.83820000  1.0 0.1302224194
H  H70  1  0.33030000  0.92550000  0.78810000  1.0 0.100972456
H  H71  1  0.21310000  0.92890000  0.74500000  1.0 0.1120558358
H  H72  1  0.03550000  0.91100000  0.82840000  1.0 0.1178465698
H  H73  1  0.15450000  0.90700000  0.86910000  1.0 0.100972456
H  H74  1  0.06810000  0.92910000  0.72370000  1.0 0.100972456
H  H75  1  0.29180000  0.10000000  0.83660000  1.0 0.100972456
H  H76  1  0.29110000  0.26640000  0.83900000  1.0 0.1302224194
H  H77  1  0.46960000  0.24890000  0.92420000  1.0 0.1302224194
H  H78  1  0.46670000  0.08660000  0.91890000  1.0 0.100972456
H  H79  1  0.39600000  0.40930000  0.91180000  1.0 0.1302224194
H  H80  1  0.42250000  0.90260000  0.95950000  1.0 0.100972456
H  H81  1  0.53570000  0.89320000  0.00340000  1.0 0.1178465698
H  H82  1  0.72110000  0.88990000  0.92300000  1.0 0.1120558358
H  H83  1  0.60070000  0.89720000  0.87950000  1.0 0.100972456
H  H84  1  0.68900000  0.88880000  0.02650000  1.0 0.100972456
H  H85  1  0.71950000  0.94210000  0.02780000  1.0 0.1120558358
H  H86  1  0.54630000  0.85020000  0.21680000  1.0 0.100972456
H  H87  1  0.95290000  0.89960000  0.78320000  1.0 0.100972456
H  H88  1  0.78610000  0.83610000  0.96900000  1.0 0.100972456
H  H89  1  0.13420000  0.29030000  0.56500000  1.0 0.1120558358
H  H90  1  0.12790000  0.45480000  0.55910000  1.0 0.1380735065
H  H91  1  0.11180000  0.47370000  0.67010000  1.0 0.1302224194
H  H92  1  0.11750000  0.30880000  0.67260000  1.0 0.1120558358
H  H93  1  0.10330000  0.61420000  0.58610000  1.0 0.1302224194
H  H94  1  0.08360000  0.11330000  0.53790000  1.0 0.100972456
H  H95  1  0.97210000  0.10770000  0.49320000  1.0 0.1120558358
H  H96  1  0.78310000  0.11800000  0.57280000  1.0 0.1120558358
H  H97  1  0.90330000  0.12270000  0.61700000  1.0 0.100972456
H  H98  1  0.81450000  0.10610000  0.47030000  1.0 0.100972456
H  H99  1  0.04090000  0.93340000  0.58560000  1.0 0.100972456
H  H100  1  0.03970000  0.76900000  0.58890000  1.0 0.1302224194
H  H101  1  0.21440000  0.78390000  0.67530000  1.0 0.1302224194
H  H102  1  0.21530000  0.94880000  0.66890000  1.0 0.100972456
H  H103  1  0.14410000  0.62660000  0.66040000  1.0 0.1302224194
H  H104  1  0.17120000  0.14030000  0.71150000  1.0 0.100972456
H  H105  1  0.28860000  0.14270000  0.75440000  1.0 0.1178465698
H  H106  1  0.46660000  0.13120000  0.67080000  1.0 0.1178465698
H  H107  1  0.34710000  0.12990000  0.63030000  1.0 0.100972456
H  H108  1  0.43050000  0.12940000  0.77580000  1.0 0.1120558358
H  H109  1  0.38030000  0.25680000  0.31630000  1.0 0.1120558358
H  H110  1  0.37760000  0.42120000  0.31110000  1.0 0.1380735065
H  H111  1  0.36780000  0.43840000  0.42200000  1.0 0.1302224194
H  H112  1  0.36890000  0.27290000  0.42450000  1.0 0.1120558358
H  H113  1  0.35400000  0.57870000  0.33820000  1.0 0.1302224194
H  H114  1  0.33030000  0.07450000  0.28810000  1.0 0.100972456
H  H115  1  0.21310000  0.07110000  0.24500000  1.0 0.1120558358
H  H116  1  0.03550000  0.08900000  0.32840000  1.0 0.1178465698
H  H117  1  0.15450000  0.09300000  0.36910000  1.0 0.100972456
H  H118  1  0.06810000  0.07090000  0.22370000  1.0 0.100972456
H  H119  1  0.29180000  0.90000000  0.33660000  1.0 0.100972456
H  H120  1  0.29110000  0.73360000  0.33900000  1.0 0.1302224194
H  H121  1  0.46960000  0.75110000  0.42420000  1.0 0.1302224194
H  H122  1  0.46670000  0.91340000  0.41890000  1.0 0.100972456
H  H123  1  0.39600000  0.59070000  0.41180000  1.0 0.1302224194
H  H124  1  0.42250000  0.09740000  0.45950000  1.0 0.100972456
H  H125  1  0.53570000  0.10680000  0.50340000  1.0 0.1178465698
H  H126  1  0.72110000  0.11010000  0.42300000  1.0 0.1178465698
H  H127  1  0.60070000  0.10280000  0.37950000  1.0 0.100972456
H  H128  1  0.68900000  0.11120000  0.52650000  1.0 0.100972456
H  H129  1  0.71950000  0.05790000  0.52780000  1.0 0.1120558358
H  H130  1  0.54630000  0.14980000  0.71680000  1.0 0.100972456
H  H131  1  0.95290000  0.10040000  0.28320000  1.0 0.100972456
H  H132  1  0.78610000  0.16390000  0.46900000  1.0 0.100972456
H  H133  1  0.86580000  0.29030000  0.93500000  1.0 0.1120558358
H  H134  1  0.87210000  0.45480000  0.94090000  1.0 0.1380735065
H  H135  1  0.88820000  0.47370000  0.82990000  1.0 0.1302224194
H  H136  1  0.88250000  0.30880000  0.82740000  1.0 0.1120558358
H  H137  1  0.89670000  0.61420000  0.91390000  1.0 0.1302224194
H  H138  1  0.91640000  0.11330000  0.96210000  1.0 0.100972456
H  H139  1  0.02790000  0.10770000  0.00680000  1.0 0.1120558358
H  H140  1  0.21690000  0.11800000  0.92720000  1.0 0.1120558358
H  H141  1  0.09670000  0.12270000  0.88300000  1.0 0.100972456
H  H142  1  0.18550000  0.10610000  0.02970000  1.0 0.100972456
H  H143  1  0.95910000  0.93340000  0.91440000  1.0 0.100972456
H  H144  1  0.96030000  0.76900000  0.91110000  1.0 0.1302224194
H  H145  1  0.78560000  0.78390000  0.82470000  1.0 0.1302224194
H  H146  1  0.78470000  0.94880000  0.83110000  1.0 0.100972456
H  H147  1  0.85590000  0.62660000  0.83960000  1.0 0.1302224194
H  H148  1  0.82880000  0.14030000  0.78850000  1.0 0.100972456
H  H149  1  0.71140000  0.14270000  0.74560000  1.0 0.1178465698
H  H150  1  0.53340000  0.13120000  0.82920000  1.0 0.1178465698
H  H151  1  0.65290000  0.12990000  0.86970000  1.0 0.100972456
H  H152  1  0.56950000  0.12940000  0.72420000  1.0 0.1120558358
H  H153  1  0.61970000  0.25680000  0.18370000  1.0 0.1120558358
H  H154  1  0.62240000  0.42120000  0.18890000  1.0 0.1380735065
H  H155  1  0.63220000  0.43840000  0.07800000  1.0 0.1302224194
H  H156  1  0.63110000  0.27290000  0.07550000  1.0 0.1120558358
H  H157  1  0.64600000  0.57870000  0.16180000  1.0 0.1302224194
H  H158  1  0.66970000  0.07450000  0.21190000  1.0 0.100972456
H  H159  1  0.78690000  0.07110000  0.25500000  1.0 0.1120558358
H  H160  1  0.96450000  0.08900000  0.17160000  1.0 0.1178465698
H  H161  1  0.84550000  0.09300000  0.13090000  1.0 0.100972456
H  H162  1  0.93190000  0.07090000  0.27630000  1.0 0.100972456
H  H163  1  0.70820000  0.90000000  0.16340000  1.0 0.100972456
H  H164  1  0.70890000  0.73360000  0.16100000  1.0 0.1302224194
H  H165  1  0.53040000  0.75110000  0.07580000  1.0 0.1302224194
H  H166  1  0.53330000  0.91340000  0.08110000  1.0 0.100972456
H  H167  1  0.60400000  0.59070000  0.08820000  1.0 0.1302224194
H  H168  1  0.57750000  0.09740000  0.04050000  1.0 0.100972456
H  H169  1  0.46430000  0.10680000  0.99660000  1.0 0.1178465698
H  H170  1  0.27890000  0.11010000  0.07700000  1.0 0.1178465698
H  H171  1  0.39930000  0.10280000  0.12050000  1.0 0.100972456
H  H172  1  0.31100000  0.11120000  0.97350000  1.0 0.100972456
H  H173  1  0.28050000  0.05790000  0.97220000  1.0 0.1120558358
H  H174  1  0.45370000  0.14980000  0.78320000  1.0 0.100972456
H  H175  1  0.04710000  0.10040000  0.21680000  1.0 0.100972456
H  H176  1  0.21390000  0.16390000  0.03100000  1.0 0.100972456
C  C1  1  0.87080000  0.67250000  0.41356000  1.0 0.100972456
C  C2  1  0.87410000  0.57320000  0.41736000  1.0 -0.1919792482
C  C3  1  0.88030000  0.51630000  0.38603000  1.0 0.1380735065
C  C4  1  0.88370000  0.56190000  0.35176000  1.0 -0.1919792482
C  C5  1  0.88040000  0.66150000  0.35065000  1.0 0.100972456
C  C6  1  0.88350000  0.41050000  0.39029000  1.0 -0.1304937818
C  C7  1  0.97780000  0.88620000  0.45443000  1.0 0.0491367513
C  C8  1  0.04480000  0.88950000  0.48186000  1.0 -0.2288062418
C  C9  1  0.13380000  0.88860000  0.47257000  1.0 0.1178465698
C  C10  1  0.15540000  0.88350000  0.43480000  1.0 -0.2529049496
C  C11  1  0.08220000  0.88050000  0.40818000  1.0 0.0793299685
C  C12  1  0.20550000  0.89160000  0.50510000  1.0 -0.0565943206
C  C13  1  0.92300000  0.09660000  0.39620000  1.0 0.0417242811
C  C14  1  0.92400000  0.19610000  0.39428000  1.0 -0.1919792482
C  C15  1  0.87240000  0.24370000  0.36800000  1.0 0.1380735065
C  C16  1  0.82060000  0.18730000  0.34352000  1.0 -0.1919792482
C  C17  1  0.82150000  0.08760000  0.34730000  1.0 0.0491367513
C  C18  1  0.86910000  0.34910000  0.36328000  1.0 -0.1353490881
C  C19  1  0.76800000  0.86210000  0.29695000  1.0 0.0559516395
C  C20  1  0.69740000  0.86040000  0.27086000  1.0 -0.2376021239
C  C21  1  0.60570000  0.86330000  0.28200000  1.0 0.1380735065
C  C22  1  0.59340000  0.86710000  0.31995000  1.0 -0.2376021239
C  C23  1  0.66570000  0.86830000  0.34427000  1.0 0.0793299685
C  C24  1  0.54400000  0.86780000  0.24800000  1.0 -0.0565943206
C  C25  1  0.02640000  0.84110000  0.31479000  1.0 0.2475268972
C  C26  1  0.71980000  0.85900000  0.44008000  1.0 0.2475268972
C  C27  1  0.62250000  0.70630000  0.66209000  1.0 0.100972456
C  C28  1  0.62410000  0.60730000  0.66544000  1.0 -0.1919792482
C  C29  1  0.62810000  0.55090000  0.63404000  1.0 0.1302224194
C  C30  1  0.63010000  0.59720000  0.59997000  1.0 -0.1919792482
C  C31  1  0.62890000  0.69680000  0.59868000  1.0 0.0945740474
C  C32  1  0.63190000  0.44580000  0.63822000  1.0 -0.1304937818
C  C33  1  0.73060000  0.92230000  0.70358000  1.0 0.0491367513
C  C34  1  0.80090000  0.92430000  0.72982000  1.0 -0.2376021239
C  C35  1  0.89250000  0.91950000  0.71870000  1.0 0.1380735065
C  C36  1  0.90450000  0.91370000  0.68082000  1.0 -0.2288062418
C  C37  1  0.83280000  0.91170000  0.65628000  1.0 0.0793299685
C  C38  1  0.95630000  0.92550000  0.75240000  1.0 -0.0497210661
C  C39  1  0.67180000  0.13060000  0.64545000  1.0 0.0417242811
C  C40  1  0.67330000  0.23120000  0.64406000  1.0 -0.2016483563
C  C41  1  0.62020000  0.27810000  0.61654000  1.0 0.1380735065
C  C42  1  0.56810000  0.22090000  0.59393000  1.0 -0.1919792482
C  C43  1  0.57000000  0.12280000  0.59734000  1.0 0.0491367513
C  C44  1  0.61730000  0.38510000  0.61189000  1.0 -0.1304937818
C  C45  1  0.51640000  0.89990000  0.54853000  1.0 0.0559516395
C  C46  1  0.44820000  0.89540000  0.52166000  1.0 -0.2288062418
C  C47  1  0.35820000  0.89390000  0.53120000  1.0 0.1302224194
C  C48  1  0.33990000  0.89310000  0.56880000  1.0 -0.2554468828
C  C49  1  0.41320000  0.89710000  0.59518000  1.0 0.0793299685
C  C50  1  0.29000000  0.89100000  0.49800000  1.0 -0.0565943206
C  C51  1  0.77740000  0.87620000  0.56418000  1.0 0.2422919405
C  C52  1  0.47240000  0.89110000  0.68935000  1.0 0.2475268972
C  C53  1  0.23770000  0.90760000  0.48620000  1.0 -0.0426098899
C  C54  1  0.50420000  0.85490000  0.26730000  1.0 -0.0497210661
C  C55  1  0.99680000  0.90650000  0.73271000  1.0 -0.0426098899
C  C56  1  0.25610000  0.87210000  0.51730000  1.0 -0.0426098899
C  C57  1  0.12920000  0.67250000  0.08644000  1.0 0.100972456
C  C58  1  0.12590000  0.57320000  0.08264000  1.0 -0.1919792482
C  C59  1  0.11970000  0.51630000  0.11397000  1.0 0.1380735065
C  C60  1  0.11630000  0.56190000  0.14824000  1.0 -0.1919792482
C  C61  1  0.11960000  0.66150000  0.14935000  1.0 0.100972456
C  C62  1  0.11650000  0.41050000  0.10971000  1.0 -0.1353490881
C  C63  1  0.02220000  0.88620000  0.04557000  1.0 0.0491367513
C  C64  1  0.95520000  0.88950000  0.01814000  1.0 -0.2215117162
C  C65  1  0.86620000  0.88860000  0.02743000  1.0 0.1178465698
C  C66  1  0.84460000  0.88350000  0.06520000  1.0 -0.2529049496
C  C67  1  0.91780000  0.88050000  0.09182000  1.0 0.0793299685
C  C68  1  0.79450000  0.89160000  0.99490000  1.0 -0.0565943206
C  C69  1  0.07700000  0.09660000  0.10380000  1.0 0.0417242811
C  C70  1  0.07600000  0.19610000  0.10572000  1.0 -0.1919792482
C  C71  1  0.12760000  0.24370000  0.13200000  1.0 0.1380735065
C  C72  1  0.17940000  0.18730000  0.15648000  1.0 -0.1919792482
C  C73  1  0.17850000  0.08760000  0.15270000  1.0 0.0491367513
C  C74  1  0.13090000  0.34910000  0.13672000  1.0 -0.1353490881
C  C75  1  0.23200000  0.86210000  0.20305000  1.0 0.0491367513
C  C76  1  0.30260000  0.86040000  0.22914000  1.0 -0.2376021239
C  C77  1  0.39430000  0.86330000  0.21800000  1.0 0.1380735065
C  C78  1  0.40660000  0.86710000  0.18005000  1.0 -0.2376021239
C  C79  1  0.33430000  0.86830000  0.15573000  1.0 0.0793299685
C  C80  1  0.45600000  0.86780000  0.25200000  1.0 -0.0565943206
C  C81  1  0.97360000  0.84110000  0.18521000  1.0 0.2475268972
C  C82  1  0.28020000  0.85900000  0.05992000  1.0 0.2475268972
C  C83  1  0.37750000  0.70630000  0.83791000  1.0 0.100972456
C  C84  1  0.37590000  0.60730000  0.83456000  1.0 -0.1919792482
C  C85  1  0.37190000  0.55090000  0.86596000  1.0 0.1302224194
C  C86  1  0.36990000  0.59720000  0.90003000  1.0 -0.1919792482
C  C87  1  0.37110000  0.69680000  0.90132000  1.0 0.100972456
C  C88  1  0.36810000  0.44580000  0.86178000  1.0 -0.1304937818
C  C89  1  0.26940000  0.92230000  0.79642000  1.0 0.0491367513
C  C90  1  0.19910000  0.92430000  0.77018000  1.0 -0.2376021239
C  C91  1  0.10750000  0.91950000  0.78130000  1.0 0.1380735065
C  C92  1  0.09550000  0.91370000  0.81918000  1.0 -0.2288062418
C  C93  1  0.16720000  0.91170000  0.84372000  1.0 0.0793299685
C  C94  1  0.04370000  0.92550000  0.74760000  1.0 -0.0565943206
C  C95  1  0.32820000  0.13060000  0.85455000  1.0 0.0417242811
C  C96  1  0.32670000  0.23120000  0.85594000  1.0 -0.2016483563
C  C97  1  0.37980000  0.27810000  0.88346000  1.0 0.1380735065
C  C98  1  0.43190000  0.22090000  0.90607000  1.0 -0.1919792482
C  C99  1  0.43000000  0.12280000  0.90266000  1.0 0.0491367513
C  C100  1  0.38270000  0.38510000  0.88811000  1.0 -0.1304937818
C  C101  1  0.48360000  0.89990000  0.95147000  1.0 0.0559516395
C  C102  1  0.55180000  0.89540000  0.97834000  1.0 -0.2288062418
C  C103  1  0.64180000  0.89390000  0.96880000  1.0 0.1302224194
C  C104  1  0.66010000  0.89310000  0.93120000  1.0 -0.2554468828
C  C105  1  0.58680000  0.89710000  0.90482000  1.0 0.0793299685
C  C106  1  0.71000000  0.89100000  0.00200000  1.0 -0.0565943206
C  C107  1  0.22260000  0.87620000  0.93582000  1.0 0.2422919405
C  C108  1  0.52760000  0.89110000  0.81065000  1.0 0.2475268972
C  C109  1  0.76230000  0.90760000  0.01380000  1.0 -0.0426098899
C  C110  1  0.49580000  0.85490000  0.23270000  1.0 -0.0497210661
C  C111  1  0.00320000  0.90650000  0.76729000  1.0 -0.0426098899
C  C112  1  0.74390000  0.87210000  0.98270000  1.0 -0.0426098899
C  C113  1  0.12920000  0.32750000  0.58644000  1.0 0.100972456
C  C114  1  0.12590000  0.42680000  0.58264000  1.0 -0.1919792482
C  C115  1  0.11970000  0.48370000  0.61397000  1.0 0.1380735065
C  C116  1  0.11630000  0.43810000  0.64824000  1.0 -0.1919792482
C  C117  1  0.11960000  0.33850000  0.64935000  1.0 0.100972456
C  C118  1  0.11650000  0.58950000  0.60971000  1.0 -0.1353490881
C  C119  1  0.02220000  0.11380000  0.54557000  1.0 0.0491367513
C  C120  1  0.95520000  0.11050000  0.51814000  1.0 -0.2215117162
C  C121  1  0.86620000  0.11140000  0.52743000  1.0 0.1178465698
C  C122  1  0.84460000  0.11650000  0.56520000  1.0 -0.2529049496
C  C123  1  0.91780000  0.11950000  0.59182000  1.0 0.0793299685
C  C124  1  0.79450000  0.10840000  0.49490000  1.0 -0.0565943206
C  C125  1  0.07700000  0.90340000  0.60380000  1.0 0.0417242811
C  C126  1  0.07600000  0.80390000  0.60572000  1.0 -0.1919792482
C  C127  1  0.12760000  0.75630000  0.63200000  1.0 0.1380735065
C  C128  1  0.17940000  0.81270000  0.65648000  1.0 -0.1919792482
C  C129  1  0.17850000  0.91240000  0.65270000  1.0 0.0417242811
C  C130  1  0.13090000  0.65090000  0.63672000  1.0 -0.1353490881
C  C131  1  0.23200000  0.13790000  0.70305000  1.0 0.0559516395
C  C132  1  0.30260000  0.13960000  0.72914000  1.0 -0.2376021239
C  C133  1  0.39430000  0.13670000  0.71800000  1.0 0.1380735065
C  C134  1  0.40660000  0.13290000  0.68005000  1.0 -0.2376021239
C  C135  1  0.33430000  0.13170000  0.65573000  1.0 0.0793299685
C  C136  1  0.45600000  0.13220000  0.75200000  1.0 -0.0565943206
C  C137  1  0.97360000  0.15890000  0.68521000  1.0 0.2475268972
C  C138  1  0.28020000  0.14100000  0.55992000  1.0 0.2475268972
C  C139  1  0.37750000  0.29370000  0.33791000  1.0 0.100972456
C  C140  1  0.37590000  0.39270000  0.33456000  1.0 -0.1919792482
C  C141  1  0.37190000  0.44910000  0.36596000  1.0 0.1302224194
C  C142  1  0.36990000  0.40280000  0.40003000  1.0 -0.1919792482
C  C143  1  0.37110000  0.30320000  0.40132000  1.0 0.0945740474
C  C144  1  0.36810000  0.55420000  0.36178000  1.0 -0.1304937818
C  C145  1  0.26940000  0.07770000  0.29642000  1.0 0.0491367513
C  C146  1  0.19910000  0.07570000  0.27018000  1.0 -0.2376021239
C  C147  1  0.10750000  0.08050000  0.28130000  1.0 0.1380735065
C  C148  1  0.09550000  0.08630000  0.31918000  1.0 -0.2288062418
C  C149  1  0.16720000  0.08830000  0.34372000  1.0 0.0793299685
C  C150  1  0.04370000  0.07450000  0.24760000  1.0 -0.0497210661
C  C151  1  0.32820000  0.86940000  0.35455000  1.0 0.0417242811
C  C152  1  0.32670000  0.76880000  0.35594000  1.0 -0.2016483563
C  C153  1  0.37980000  0.72190000  0.38346000  1.0 0.1380735065
C  C154  1  0.43190000  0.77910000  0.40607000  1.0 -0.1919792482
C  C155  1  0.43000000  0.87720000  0.40266000  1.0 0.0491367513
C  C156  1  0.38270000  0.61490000  0.38811000  1.0 -0.1304937818
C  C157  1  0.48360000  0.10010000  0.45147000  1.0 0.0559516395
C  C158  1  0.55180000  0.10460000  0.47834000  1.0 -0.2288062418
C  C159  1  0.64180000  0.10610000  0.46880000  1.0 0.1302224194
C  C160  1  0.66010000  0.10690000  0.43120000  1.0 -0.2554468828
C  C161  1  0.58680000  0.10290000  0.40482000  1.0 0.0793299685
C  C162  1  0.71000000  0.10900000  0.50200000  1.0 -0.0565943206
C  C163  1  0.22260000  0.12380000  0.43582000  1.0 0.2422919405
C  C164  1  0.52760000  0.10890000  0.31065000  1.0 0.2475268972
C  C165  1  0.76230000  0.09240000  0.51380000  1.0 -0.0426098899
C  C166  1  0.49580000  0.14510000  0.73270000  1.0 -0.0497210661
C  C167  1  0.00320000  0.09350000  0.26729000  1.0 -0.0426098899
C  C168  1  0.74390000  0.12790000  0.48270000  1.0 -0.0426098899
C  C169  1  0.87080000  0.32750000  0.91356000  1.0 0.100972456
C  C170  1  0.87410000  0.42680000  0.91736000  1.0 -0.1919792482
C  C171  1  0.88030000  0.48370000  0.88603000  1.0 0.1380735065
C  C172  1  0.88370000  0.43810000  0.85176000  1.0 -0.1919792482
C  C173  1  0.88040000  0.33850000  0.85065000  1.0 0.100972456
C  C174  1  0.88350000  0.58950000  0.89029000  1.0 -0.1353490881
C  C175  1  0.97780000  0.11380000  0.95443000  1.0 0.0491367513
C  C176  1  0.04480000  0.11050000  0.98186000  1.0 -0.2288062418
C  C177  1  0.13380000  0.11140000  0.97257000  1.0 0.1178465698
C  C178  1  0.15540000  0.11650000  0.93480000  1.0 -0.2529049496
C  C179  1  0.08220000  0.11950000  0.90818000  1.0 0.0793299685
C  C180  1  0.20550000  0.10840000  0.00510000  1.0 -0.0565943206
C  C181  1  0.92300000  0.90340000  0.89620000  1.0 0.0417242811
C  C182  1  0.92400000  0.80390000  0.89428000  1.0 -0.1919792482
C  C183  1  0.87240000  0.75630000  0.86800000  1.0 0.1380735065
C  C184  1  0.82060000  0.81270000  0.84352000  1.0 -0.1919792482
C  C185  1  0.82150000  0.91240000  0.84730000  1.0 0.0491367513
C  C186  1  0.86910000  0.65090000  0.86328000  1.0 -0.1353490881
C  C187  1  0.76800000  0.13790000  0.79695000  1.0 0.0559516395
C  C188  1  0.69740000  0.13960000  0.77086000  1.0 -0.2376021239
C  C189  1  0.60570000  0.13670000  0.78200000  1.0 0.1380735065
C  C190  1  0.59340000  0.13290000  0.81995000  1.0 -0.2376021239
C  C191  1  0.66570000  0.13170000  0.84427000  1.0 0.0793299685
C  C192  1  0.54400000  0.13220000  0.74800000  1.0 -0.0565943206
C  C193  1  0.02640000  0.15890000  0.81479000  1.0 0.2475268972
C  C194  1  0.71980000  0.14100000  0.94008000  1.0 0.2475268972
C  C195  1  0.62250000  0.29370000  0.16209000  1.0 0.100972456
C  C196  1  0.62410000  0.39270000  0.16544000  1.0 -0.1919792482
C  C197  1  0.62810000  0.44910000  0.13404000  1.0 0.1302224194
C  C198  1  0.63010000  0.40280000  0.09997000  1.0 -0.1919792482
C  C199  1  0.62890000  0.30320000  0.09868000  1.0 0.0945740474
C  C200  1  0.63190000  0.55420000  0.13822000  1.0 -0.1304937818
C  C201  1  0.73060000  0.07770000  0.20358000  1.0 0.0491367513
C  C202  1  0.80090000  0.07570000  0.22982000  1.0 -0.2376021239
C  C203  1  0.89250000  0.08050000  0.21870000  1.0 0.1380735065
C  C204  1  0.90450000  0.08630000  0.18082000  1.0 -0.2288062418
C  C205  1  0.83280000  0.08830000  0.15628000  1.0 0.0793299685
C  C206  1  0.95630000  0.07450000  0.25240000  1.0 -0.0497210661
C  C207  1  0.67180000  0.86940000  0.14545000  1.0 0.0417242811
C  C208  1  0.67330000  0.76880000  0.14406000  1.0 -0.2016483563
C  C209  1  0.62020000  0.72190000  0.11654000  1.0 0.1380735065
C  C210  1  0.56810000  0.77910000  0.09393000  1.0 -0.1919792482
C  C211  1  0.57000000  0.87720000  0.09734000  1.0 0.0491367513
C  C212  1  0.61730000  0.61490000  0.11189000  1.0 -0.1304937818
C  C213  1  0.51640000  0.10010000  0.04853000  1.0 0.0491367513
C  C214  1  0.44820000  0.10460000  0.02166000  1.0 -0.2288062418
C  C215  1  0.35820000  0.10610000  0.03120000  1.0 0.1302224194
C  C216  1  0.33990000  0.10690000  0.06880000  1.0 -0.2554468828
C  C217  1  0.41320000  0.10290000  0.09518000  1.0 0.0793299685
C  C218  1  0.29000000  0.10900000  0.99800000  1.0 -0.0565943206
C  C219  1  0.77740000  0.12380000  0.06418000  1.0 0.2422919405
C  C220  1  0.47240000  0.10890000  0.18935000  1.0 0.2475268972
C  C221  1  0.23770000  0.09240000  0.98620000  1.0 -0.0426098899
C  C222  1  0.50420000  0.14510000  0.76730000  1.0 -0.0497210661
C  C223  1  0.99680000  0.09350000  0.23271000  1.0 -0.0426098899
C  C224  1  0.25610000  0.12790000  0.01730000  1.0 -0.0426098899
S  S1  1  0.11305000  0.80028000  0.29084000  1.0 -0.3655392396
S  S2  1  0.63973000  0.82497000  0.46752000  1.0 -0.3604693952
S  S3  1  0.86369000  0.83291000  0.54178000  1.0 -0.3514208141
S  S4  1  0.38871000  0.85381000  0.71530000  1.0 -0.3604693952
S  S5  1  0.88695000  0.80028000  0.20916000  1.0 -0.3655392396
S  S6  1  0.36027000  0.82497000  0.03248000  1.0 -0.3604693952
S  S7  1  0.13631000  0.83291000  0.95822000  1.0 -0.3514208141
S  S8  1  0.61129000  0.85381000  0.78470000  1.0 -0.3604693952
S  S9  1  0.88695000  0.19972000  0.70916000  1.0 -0.3655392396
S  S10  1  0.36027000  0.17503000  0.53248000  1.0 -0.3604693952
S  S11  1  0.13631000  0.16709000  0.45822000  1.0 -0.3514208141
S  S12  1  0.61129000  0.14619000  0.28470000  1.0 -0.3604693952
S  S13  1  0.11305000  0.19972000  0.79084000  1.0 -0.3655392396
S  S14  1  0.63973000  0.17503000  0.96752000  1.0 -0.3604693952
S  S15  1  0.86369000  0.16709000  0.04178000  1.0 -0.3514208141
S  S16  1  0.38871000  0.14619000  0.21530000  1.0 -0.3604693952
N  N1  1  0.87440000  0.71760000  0.38061000  1.0 -0.2215117162
N  N2  1  0.99280000  0.88220000  0.41800000  1.0 -0.2215117162
N  N3  1  0.87250000  0.04140000  0.37306000  1.0 -0.2215117162
N  N4  1  0.75410000  0.86720000  0.33390000  1.0 -0.2215117162
N  N5  1  0.96640000  0.87100000  0.33230000  1.0 -0.4893877114
N  N6  1  0.77870000  0.88430000  0.42049000  1.0 -0.4893877114
N  N7  1  0.62480000  0.75170000  0.62942000  1.0 -0.2215117162
N  N8  1  0.74450000  0.91620000  0.66705000  1.0 -0.2215117162
N  N9  1  0.62100000  0.07590000  0.62250000  1.0 -0.2215117162
N  N10  1  0.50190000  0.90070000  0.58490000  1.0 -0.2215117162
N  N11  1  0.71540000  0.90700000  0.58126000  1.0 -0.5003409701
N  N12  1  0.53130000  0.91790000  0.67046000  1.0 -0.4797956514
N  N13  1  0.12560000  0.71760000  0.11939000  1.0 -0.2215117162
N  N14  1  0.00720000  0.88220000  0.08200000  1.0 -0.2215117162
N  N15  1  0.12750000  0.04140000  0.12694000  1.0 -0.2288062418
N  N16  1  0.24590000  0.86720000  0.16610000  1.0 -0.2215117162
N  N17  1  0.03360000  0.87100000  0.16770000  1.0 -0.4893877114
N  N18  1  0.22130000  0.88430000  0.07951000  1.0 -0.4893877114
N  N19  1  0.37520000  0.75170000  0.87058000  1.0 -0.2215117162
N  N20  1  0.25550000  0.91620000  0.83295000  1.0 -0.2215117162
N  N21  1  0.37900000  0.07590000  0.87750000  1.0 -0.2215117162
N  N22  1  0.49810000  0.90070000  0.91510000  1.0 -0.2215117162
N  N23  1  0.28460000  0.90700000  0.91874000  1.0 -0.5003409701
N  N24  1  0.46870000  0.91790000  0.82954000  1.0 -0.4797956514
N  N25  1  0.12560000  0.28240000  0.61939000  1.0 -0.2215117162
N  N26  1  0.00720000  0.11780000  0.58200000  1.0 -0.2215117162
N  N27  1  0.12750000  0.95860000  0.62694000  1.0 -0.2288062418
N  N28  1  0.24590000  0.13280000  0.66610000  1.0 -0.2215117162
N  N29  1  0.03360000  0.12900000  0.66770000  1.0 -0.4893877114
N  N30  1  0.22130000  0.11570000  0.57951000  1.0 -0.4893877114
N  N31  1  0.37520000  0.24830000  0.37058000  1.0 -0.2215117162
N  N32  1  0.25550000  0.08380000  0.33295000  1.0 -0.2215117162
N  N33  1  0.37900000  0.92410000  0.37750000  1.0 -0.2215117162
N  N34  1  0.49810000  0.09930000  0.41510000  1.0 -0.2215117162
N  N35  1  0.28460000  0.09300000  0.41874000  1.0 -0.5003409701
N  N36  1  0.46870000  0.08210000  0.32954000  1.0 -0.4797956514
N  N37  1  0.87440000  0.28240000  0.88061000  1.0 -0.2215117162
N  N38  1  0.99280000  0.11780000  0.91800000  1.0 -0.2215117162
N  N39  1  0.87250000  0.95860000  0.87306000  1.0 -0.2288062418
N  N40  1  0.75410000  0.13280000  0.83390000  1.0 -0.2215117162
N  N41  1  0.96640000  0.12900000  0.83230000  1.0 -0.4893877114
N  N42  1  0.77870000  0.11570000  0.92049000  1.0 -0.4893877114
N  N43  1  0.62480000  0.24830000  0.12942000  1.0 -0.2215117162
N  N44  1  0.74450000  0.08380000  0.16705000  1.0 -0.2215117162
N  N45  1  0.62100000  0.92410000  0.12250000  1.0 -0.2215117162
N  N46  1  0.50190000  0.09930000  0.08490000  1.0 -0.2215117162
N  N47  1  0.71540000  0.09300000  0.08126000  1.0 -0.5003409701
N  N48  1  0.53130000  0.08210000  0.17046000  1.0 -0.4797956514
