# DDEC6 charges by PACMAN v1.1 (https://github.com/mtap-research/PACMAN-charge/)
data_NUCREJ_ASR_pacman
_symmetry_space_group_name_H-M   'P 1'
_cell_length_a   11.32100000
_cell_length_b   11.32100000
_cell_length_c   19.87200000
_cell_angle_alpha   90.00000000
_cell_angle_beta   90.00000000
_cell_angle_gamma   120.00000000
_symmetry_Int_Tables_number   1
_chemical_formula_structural   Zn3H16C22(NO2)8
_chemical_formula_sum   'Zn9 H48 C66 N24 O48'
_cell_volume   2205.67637244
_cell_formula_units_Z   3
loop_
 _symmetry_equiv_pos_site_id
 _symmetry_equiv_pos_as_xyz
  1  'x, y, z'
loop_
 _atom_site_type_symbol
 _atom_site_label
 _atom_site_symmetry_multiplicity
 _atom_site_fract_x
 _atom_site_fract_y
 _atom_site_fract_z
 _atom_site_occupancy
 _atom_site_charge
Zn  Zn1  1  0.88985000  0.29823000  0.22174000  1.0 0.7883337597
Zn  Zn2  1  0.70177000  0.59162000  0.88841000  1.0 0.7883337597
Zn  Zn3  1  0.40838000  0.11015000  0.55507000  1.0 0.7883337597
Zn  Zn4  1  0.59162000  0.70177000  0.11159000  1.0 0.7883337597
Zn  Zn5  1  0.11015000  0.40838000  0.44493000  1.0 0.7883337597
Zn  Zn6  1  0.29823000  0.88985000  0.77826000  1.0 0.7883337597
Zn  Zn7  1  0.37823000  0.37823000  0.50000000  1.0 0.7526837945
Zn  Zn8  1  0.62177000  0.00000000  0.16667000  1.0 0.7526837945
Zn  Zn9  1  0.00000000  0.62177000  0.83333000  1.0 0.7526837945
H  H1  1  0.84250000  0.55250000  0.23550000  1.0 0.1274199495
H  H2  1  0.44750000  0.29000000  0.90217000  1.0 0.1274199495
H  H3  1  0.71000000  0.15750000  0.56883000  1.0 0.1274199495
H  H4  1  0.29000000  0.44750000  0.09783000  1.0 0.1274199495
H  H5  1  0.15750000  0.71000000  0.43117000  1.0 0.1274199495
H  H6  1  0.55250000  0.84250000  0.76450000  1.0 0.1274199495
H  H7  1  0.79700000  0.63450000  0.33890000  1.0 0.1274199495
H  H8  1  0.36550000  0.16250000  0.00557000  1.0 0.1274199495
H  H9  1  0.83750000  0.20300000  0.67223000  1.0 0.1274199495
H  H10  1  0.16250000  0.36550000  0.99443000  1.0 0.1274199495
H  H11  1  0.20300000  0.83750000  0.32777000  1.0 0.1274199495
H  H12  1  0.63450000  0.79700000  0.66110000  1.0 0.1274199495
H  H13  1  0.91310000  0.09220000  0.46830000  1.0 0.1370474706
H  H14  1  0.90780000  0.82090000  0.13497000  1.0 0.1370474706
H  H15  1  0.17910000  0.08690000  0.80163000  1.0 0.1370474706
H  H16  1  0.82090000  0.90780000  0.86503000  1.0 0.1370474706
H  H17  1  0.08690000  0.17910000  0.19837000  1.0 0.1370474706
H  H18  1  0.09220000  0.91310000  0.53170000  1.0 0.1370474706
H  H19  1  0.68160000  0.95550000  0.42830000  1.0 0.1132076182
H  H20  1  0.04450000  0.72610000  0.09497000  1.0 0.1132076182
H  H21  1  0.27390000  0.31840000  0.76163000  1.0 0.1132076182
H  H22  1  0.72610000  0.04450000  0.90503000  1.0 0.1132076182
H  H23  1  0.31840000  0.27390000  0.23837000  1.0 0.1132076182
H  H24  1  0.95550000  0.68160000  0.57170000  1.0 0.1132076182
H  H25  1  0.53220000  0.00710000  0.34220000  1.0 0.1197549164
H  H26  1  0.99290000  0.52510000  0.00887000  1.0 0.1197549164
H  H27  1  0.47490000  0.46780000  0.67553000  1.0 0.1197549164
H  H28  1  0.52510000  0.99290000  0.99113000  1.0 0.1197549164
H  H29  1  0.46780000  0.47490000  0.32447000  1.0 0.1197549164
H  H30  1  0.00710000  0.53220000  0.65780000  1.0 0.1197549164
H  H31  1  0.57770000  0.16100000  0.33150000  1.0 0.1197549164
H  H32  1  0.83900000  0.41670000  0.99817000  1.0 0.1197549164
H  H33  1  0.58330000  0.42230000  0.66483000  1.0 0.1197549164
H  H34  1  0.41670000  0.83900000  0.00183000  1.0 0.1197549164
H  H35  1  0.42230000  0.58330000  0.33517000  1.0 0.1197549164
H  H36  1  0.16100000  0.57770000  0.66850000  1.0 0.1197549164
H  H37  1  0.85000000  0.57030000  0.46920000  1.0 0.1197549164
H  H38  1  0.42970000  0.27970000  0.13587000  1.0 0.1197549164
H  H39  1  0.72030000  0.15000000  0.80253000  1.0 0.1197549164
H  H40  1  0.27970000  0.42970000  0.86413000  1.0 0.1197549164
H  H41  1  0.15000000  0.72030000  0.19747000  1.0 0.1197549164
H  H42  1  0.57030000  0.85000000  0.53080000  1.0 0.1197549164
H  H43  1  0.79080000  0.41480000  0.47720000  1.0 0.1274199495
H  H44  1  0.58520000  0.37600000  0.14387000  1.0 0.1274199495
H  H45  1  0.62400000  0.20920000  0.81053000  1.0 0.1274199495
H  H46  1  0.37600000  0.58520000  0.85613000  1.0 0.1274199495
H  H47  1  0.20920000  0.62400000  0.18947000  1.0 0.1274199495
H  H48  1  0.41480000  0.79080000  0.52280000  1.0 0.1274199495
C  C1  1  0.83200000  0.51250000  0.27760000  1.0 -0.0182527179
C  C2  1  0.48750000  0.31950000  0.94427000  1.0 -0.0182527179
C  C3  1  0.68050000  0.16800000  0.61093000  1.0 -0.0182527179
C  C4  1  0.31950000  0.48750000  0.05573000  1.0 -0.0182527179
C  C5  1  0.16800000  0.68050000  0.38907000  1.0 -0.0182527179
C  C6  1  0.51250000  0.83200000  0.72240000  1.0 -0.0182527179
C  C7  1  0.80770000  0.55860000  0.33430000  1.0 -0.0980856955
C  C8  1  0.44140000  0.24910000  0.00097000  1.0 -0.0980856955
C  C9  1  0.75090000  0.19230000  0.66763000  1.0 -0.0980856955
C  C10  1  0.24910000  0.44140000  0.99903000  1.0 -0.0980856955
C  C11  1  0.19230000  0.75090000  0.33237000  1.0 -0.0980856955
C  C12  1  0.55860000  0.80770000  0.66570000  1.0 -0.0980856955
C  C13  1  0.82000000  0.37550000  0.35510000  1.0 0.1814458131
C  C14  1  0.62450000  0.44450000  0.02177000  1.0 0.1814458131
C  C15  1  0.55550000  0.18000000  0.68843000  1.0 0.1814458131
C  C16  1  0.44450000  0.62450000  0.97823000  1.0 0.1814458131
C  C17  1  0.18000000  0.55550000  0.31157000  1.0 0.1814458131
C  C18  1  0.37550000  0.82000000  0.64490000  1.0 0.1814458131
C  C19  1  0.81330000  0.25980000  0.39000000  1.0 0.1648885667
C  C20  1  0.74020000  0.55350000  0.05667000  1.0 0.1653447955
C  C21  1  0.44650000  0.18670000  0.72333000  1.0 0.1648885667
C  C22  1  0.55350000  0.74020000  0.94333000  1.0 0.1653447955
C  C23  1  0.18670000  0.44650000  0.27667000  1.0 0.1653447955
C  C24  1  0.25980000  0.81330000  0.61000000  1.0 0.1653447955
C  C25  1  0.86540000  0.12470000  0.44360000  1.0 -0.0058013291
C  C26  1  0.87530000  0.74070000  0.11027000  1.0 -0.0058013291
C  C27  1  0.25930000  0.13460000  0.77693000  1.0 -0.0058013291
C  C28  1  0.74070000  0.87530000  0.88973000  1.0 -0.0058013291
C  C29  1  0.13460000  0.25930000  0.22307000  1.0 -0.0058013291
C  C30  1  0.12470000  0.86540000  0.55640000  1.0 -0.0058013291
C  C31  1  0.73750000  0.04890000  0.42200000  1.0 -0.0725682927
C  C32  1  0.95110000  0.68860000  0.08867000  1.0 -0.0725682927
C  C33  1  0.31140000  0.26250000  0.75533000  1.0 -0.0725682927
C  C34  1  0.68860000  0.95110000  0.91133000  1.0 -0.0725682927
C  C35  1  0.26250000  0.31140000  0.24467000  1.0 -0.0725682927
C  C36  1  0.04890000  0.73750000  0.57800000  1.0 -0.0725682927
C  C37  1  0.56940000  0.09450000  0.36470000  1.0 -0.2881134093
C  C38  1  0.90550000  0.47490000  0.03137000  1.0 -0.2881134093
C  C39  1  0.52510000  0.43060000  0.69803000  1.0 -0.2881134093
C  C40  1  0.47490000  0.90550000  0.96863000  1.0 -0.2881134093
C  C41  1  0.43060000  0.52510000  0.30197000  1.0 -0.2881134093
C  C42  1  0.09450000  0.56940000  0.63530000  1.0 -0.2881134093
C  C43  1  0.47010000  0.08410000  0.41820000  1.0 0.5915606379
C  C44  1  0.91590000  0.38600000  0.08487000  1.0 0.5915606379
C  C45  1  0.61400000  0.52990000  0.75153000  1.0 0.5915606379
C  C46  1  0.38600000  0.91590000  0.91513000  1.0 0.5915606379
C  C47  1  0.52990000  0.61400000  0.24847000  1.0 0.5915606379
C  C48  1  0.08410000  0.47010000  0.58180000  1.0 0.5915606379
C  C49  1  0.77590000  0.48240000  0.45490000  1.0 -0.1917018036
C  C50  1  0.51760000  0.29350000  0.12157000  1.0 -0.1917018036
C  C51  1  0.70650000  0.22410000  0.78823000  1.0 -0.1917018036
C  C52  1  0.29350000  0.51760000  0.87843000  1.0 -0.1917018036
C  C53  1  0.22410000  0.70650000  0.21177000  1.0 -0.1917018036
C  C54  1  0.48240000  0.77590000  0.54510000  1.0 -0.1917018036
C  C55  1  0.62120000  0.42530000  0.46440000  1.0 0.2811448485
C  C56  1  0.57470000  0.19590000  0.13107000  1.0 0.2811448485
C  C57  1  0.80410000  0.37880000  0.79773000  1.0 0.2811448485
C  C58  1  0.19590000  0.57470000  0.86893000  1.0 0.2811448485
C  C59  1  0.37880000  0.80410000  0.20227000  1.0 0.2811448485
C  C60  1  0.42530000  0.62120000  0.53560000  1.0 0.2811448485
C  C61  1  0.81630000  0.34560000  0.81990000  1.0 0.2811448485
C  C62  1  0.65440000  0.47070000  0.48657000  1.0 0.2811448485
C  C63  1  0.52930000  0.18370000  0.15323000  1.0 0.2811448485
C  C64  1  0.47070000  0.65440000  0.51343000  1.0 0.2811448485
C  C65  1  0.18370000  0.52930000  0.84677000  1.0 0.2811448485
C  C66  1  0.34560000  0.81630000  0.18010000  1.0 0.2811448485
N  N1  1  0.83920000  0.39880000  0.29000000  1.0 -0.3113196954
N  N2  1  0.60120000  0.44040000  0.95667000  1.0 -0.3113196954
N  N3  1  0.55960000  0.16080000  0.62333000  1.0 -0.3113196954
N  N4  1  0.44040000  0.60120000  0.04333000  1.0 -0.3113196954
N  N5  1  0.16080000  0.55960000  0.37667000  1.0 -0.3113196954
N  N6  1  0.39880000  0.83920000  0.71000000  1.0 -0.3113196954
N  N7  1  0.80150000  0.47240000  0.38530000  1.0 -0.0851939112
N  N8  1  0.52760000  0.32910000  0.05197000  1.0 -0.0851939112
N  N9  1  0.67090000  0.19850000  0.71863000  1.0 -0.0844478399
N  N10  1  0.32910000  0.52760000  0.94803000  1.0 -0.0844478399
N  N11  1  0.19850000  0.67090000  0.28137000  1.0 -0.0844478399
N  N12  1  0.47240000  0.80150000  0.61470000  1.0 -0.0844478399
N  N13  1  0.91700000  0.25950000  0.42370000  1.0 -0.3113196954
N  N14  1  0.74050000  0.65750000  0.09037000  1.0 -0.3113196954
N  N15  1  0.34250000  0.08300000  0.75703000  1.0 -0.3113196954
N  N16  1  0.65750000  0.74050000  0.90963000  1.0 -0.3113196954
N  N17  1  0.08300000  0.34250000  0.24297000  1.0 -0.3113196954
N  N18  1  0.25950000  0.91700000  0.57630000  1.0 -0.3113196954
N  N19  1  0.70350000  0.13280000  0.38930000  1.0 0.0289642305
N  N20  1  0.86720000  0.57070000  0.05597000  1.0 0.0289642305
N  N21  1  0.42930000  0.29650000  0.72263000  1.0 0.0289642305
N  N22  1  0.57070000  0.86720000  0.94403000  1.0 0.0289642305
N  N23  1  0.29650000  0.42930000  0.27737000  1.0 0.0289642305
N  N24  1  0.13280000  0.70350000  0.61070000  1.0 0.0289642305
O  O1  1  0.51690000  0.11160000  0.47800000  1.0 -0.5572440069
O  O2  1  0.88840000  0.40530000  0.14467000  1.0 -0.5572440069
O  O3  1  0.59470000  0.48310000  0.81133000  1.0 -0.5572440069
O  O4  1  0.40530000  0.88840000  0.85533000  1.0 -0.5572440069
O  O5  1  0.48310000  0.59470000  0.18867000  1.0 -0.5572440069
O  O6  1  0.11160000  0.51690000  0.52200000  1.0 -0.5572440069
O  O7  1  0.35450000  0.05240000  0.40080000  1.0 -0.4461944243
O  O8  1  0.94760000  0.30210000  0.06747000  1.0 -0.4461944243
O  O9  1  0.69790000  0.64550000  0.73413000  1.0 -0.4461944243
O  O10  1  0.30210000  0.94760000  0.93253000  1.0 -0.4461944243
O  O11  1  0.64550000  0.69790000  0.26587000  1.0 -0.4461944243
O  O12  1  0.05240000  0.35450000  0.59920000  1.0 -0.4461944243
O  O13  1  0.32690000  0.22010000  0.55710000  1.0 -0.7323639155
O  O14  1  0.77990000  0.10680000  0.22377000  1.0 -0.7323639155
O  O15  1  0.89320000  0.67310000  0.89043000  1.0 -0.7357097507
O  O16  1  0.10680000  0.77990000  0.77623000  1.0 -0.7323639155
O  O17  1  0.67310000  0.89320000  0.10957000  1.0 -0.7323639155
O  O18  1  0.22010000  0.32690000  0.44290000  1.0 -0.7323639155
O  O19  1  0.53670000  0.37770000  0.41540000  1.0 -0.141714567
O  O20  1  0.62230000  0.15900000  0.08207000  1.0 -0.141714567
O  O21  1  0.84100000  0.46330000  0.74873000  1.0 -0.141714567
O  O22  1  0.15900000  0.62230000  0.91793000  1.0 -0.141714567
O  O23  1  0.46330000  0.84100000  0.25127000  1.0 -0.141714567
O  O24  1  0.37770000  0.53670000  0.58460000  1.0 -0.141714567
O  O25  1  0.57840000  0.43250000  0.52250000  1.0 -0.0182527179
O  O26  1  0.56750000  0.14590000  0.18917000  1.0 -0.0182527179
O  O27  1  0.85410000  0.42160000  0.85583000  1.0 -0.0182527179
O  O28  1  0.14590000  0.56750000  0.81083000  1.0 -0.0182527179
O  O29  1  0.42160000  0.85410000  0.14417000  1.0 -0.0182527179
O  O30  1  0.43250000  0.57840000  0.47750000  1.0 -0.0182527179
O  O31  1  0.66320000  0.74380000  0.40660000  1.0 -0.386753583
O  O32  1  0.25620000  0.91940000  0.07327000  1.0 -0.386753583
O  O33  1  0.08060000  0.33680000  0.73993000  1.0 -0.386753583
O  O34  1  0.91940000  0.25620000  0.92673000  1.0 -0.384076798
O  O35  1  0.33680000  0.08060000  0.26007000  1.0 -0.386753583
O  O36  1  0.74380000  0.66320000  0.59340000  1.0 -0.386753583
O  O37  1  0.83100000  0.33100000  0.87920000  1.0 -0.0503787792
O  O38  1  0.66900000  0.50000000  0.54587000  1.0 -0.0503787792
O  O39  1  0.50000000  0.16900000  0.21253000  1.0 -0.0503787792
O  O40  1  0.50000000  0.66900000  0.45413000  1.0 -0.0503787792
O  O41  1  0.16900000  0.50000000  0.78747000  1.0 -0.0503787792
O  O42  1  0.33100000  0.83100000  0.12080000  1.0 -0.0503787792
O  O43  1  0.85800000  0.44100000  0.78040000  1.0 0.0289642305
O  O44  1  0.55900000  0.41700000  0.44707000  1.0 0.0289642305
O  O45  1  0.58300000  0.14200000  0.11373000  1.0 0.0289642305
O  O46  1  0.41700000  0.55900000  0.55293000  1.0 0.0289642305
O  O47  1  0.14200000  0.58300000  0.88627000  1.0 0.0289642305
O  O48  1  0.44100000  0.85800000  0.21960000  1.0 0.0289642305
