# DDEC6 charges by PACMAN v1.1 (https://github.com/mtap-research/PACMAN-charge/)
data_NUDLAB_ASR_pacman
_symmetry_space_group_name_H-M   'P 1'
_cell_length_a   13.10900000
_cell_length_b   16.49800000
_cell_length_c   29.38100000
_cell_angle_alpha   90.00000000
_cell_angle_beta   90.00000000
_cell_angle_gamma   90.00000000
_symmetry_Int_Tables_number   1
_chemical_formula_structural   Zn2Fe2H40C52N4O13
_chemical_formula_sum   'Zn8 Fe8 H160 C208 N16 O52'
_cell_volume   6354.29591744
_cell_formula_units_Z   4
loop_
 _symmetry_equiv_pos_site_id
 _symmetry_equiv_pos_as_xyz
  1  'x, y, z'
loop_
 _atom_site_type_symbol
 _atom_site_label
 _atom_site_symmetry_multiplicity
 _atom_site_fract_x
 _atom_site_fract_y
 _atom_site_fract_z
 _atom_site_occupancy
 _atom_site_charge
Zn  Zn1  1  0.50000000  0.25000000  0.80043000  1.0 0.9585073452
Zn  Zn2  1  0.00000000  0.25000000  0.69957000  1.0 0.9585073452
Zn  Zn3  1  0.50000000  0.75000000  0.19957000  1.0 0.9585073452
Zn  Zn4  1  0.00000000  0.75000000  0.30043000  1.0 0.9585073452
Zn  Zn5  1  0.75000000  0.16108000  0.75000000  1.0 1.0519459258
Zn  Zn6  1  0.25000000  0.33892000  0.75000000  1.0 1.0519459258
Zn  Zn7  1  0.25000000  0.83892000  0.25000000  1.0 1.0519459258
Zn  Zn8  1  0.75000000  0.66108000  0.25000000  1.0 1.0519459258
Fe  Fe1  1  0.45793000  0.84951000  0.55912000  1.0 0.7913571607
Fe  Fe2  1  0.54207000  0.65049000  0.55912000  1.0 0.7913571607
Fe  Fe3  1  0.04207000  0.84951000  0.94088000  1.0 0.7913571607
Fe  Fe4  1  0.95793000  0.65049000  0.94088000  1.0 0.7913571607
Fe  Fe5  1  0.54207000  0.15049000  0.44088000  1.0 0.7913571607
Fe  Fe6  1  0.45793000  0.34951000  0.44088000  1.0 0.7913571607
Fe  Fe7  1  0.95793000  0.15049000  0.05912000  1.0 0.7913571607
Fe  Fe8  1  0.04207000  0.34951000  0.05912000  1.0 0.7913571607
H  H1  1  0.78280000  0.90810000  0.56340000  1.0 0.1104577104
H  H2  1  0.21720000  0.59190000  0.56340000  1.0 0.1104577104
H  H3  1  0.71720000  0.90810000  0.93660000  1.0 0.1104577104
H  H4  1  0.28280000  0.59190000  0.93660000  1.0 0.1104577104
H  H5  1  0.21720000  0.09190000  0.43660000  1.0 0.1104577104
H  H6  1  0.78280000  0.40810000  0.43660000  1.0 0.1104577104
H  H7  1  0.28280000  0.09190000  0.06340000  1.0 0.1104577104
H  H8  1  0.71720000  0.40810000  0.06340000  1.0 0.1104577104
H  H9  1  0.77560000  0.00250000  0.55780000  1.0 0.0986005699
H  H10  1  0.22440000  0.49750000  0.55780000  1.0 0.0986005699
H  H11  1  0.72440000  0.00250000  0.94220000  1.0 0.0986005699
H  H12  1  0.27560000  0.49750000  0.94220000  1.0 0.0986005699
H  H13  1  0.22440000  0.99750000  0.44220000  1.0 0.0986005699
H  H14  1  0.77560000  0.50250000  0.44220000  1.0 0.0986005699
H  H15  1  0.27560000  0.99750000  0.05780000  1.0 0.0986005699
H  H16  1  0.72440000  0.50250000  0.05780000  1.0 0.0986005699
H  H17  1  0.88840000  0.91330000  0.51130000  1.0 0.1104577104
H  H18  1  0.11160000  0.58670000  0.51130000  1.0 0.1104577104
H  H19  1  0.61160000  0.91330000  0.98870000  1.0 0.1104577104
H  H20  1  0.38840000  0.58670000  0.98870000  1.0 0.1104577104
H  H21  1  0.11160000  0.08670000  0.48870000  1.0 0.1104577104
H  H22  1  0.88840000  0.41330000  0.48870000  1.0 0.1104577104
H  H23  1  0.38840000  0.08670000  0.01130000  1.0 0.1104577104
H  H24  1  0.61160000  0.41330000  0.01130000  1.0 0.1104577104
H  H25  1  0.85720000  0.00110000  0.49790000  1.0 0.1195960505
H  H26  1  0.14280000  0.49890000  0.49790000  1.0 0.1195960505
H  H27  1  0.64280000  0.00110000  0.00210000  1.0 0.1195960505
H  H28  1  0.35720000  0.49890000  0.00210000  1.0 0.1195960505
H  H29  1  0.14280000  0.99890000  0.50210000  1.0 0.1195960505
H  H30  1  0.85720000  0.50110000  0.50210000  1.0 0.1195960505
H  H31  1  0.35720000  0.99890000  0.99790000  1.0 0.1195960505
H  H32  1  0.64280000  0.50110000  0.99790000  1.0 0.1195960505
H  H33  1  0.80790000  0.96140000  0.43860000  1.0 0.1311622257
H  H34  1  0.19210000  0.53860000  0.43860000  1.0 0.1311622257
H  H35  1  0.69210000  0.96140000  0.06140000  1.0 0.1311622257
H  H36  1  0.30790000  0.53860000  0.06140000  1.0 0.1311622257
H  H37  1  0.19210000  0.03860000  0.56140000  1.0 0.1311622257
H  H38  1  0.80790000  0.46140000  0.56140000  1.0 0.1311622257
H  H39  1  0.30790000  0.03860000  0.93860000  1.0 0.1311622257
H  H40  1  0.69210000  0.46140000  0.93860000  1.0 0.1311622257
H  H41  1  0.83860000  0.87360000  0.45200000  1.0 0.1195960505
H  H42  1  0.16140000  0.62640000  0.45200000  1.0 0.1195960505
H  H43  1  0.66140000  0.87360000  0.04800000  1.0 0.1195960505
H  H44  1  0.33860000  0.62640000  0.04800000  1.0 0.1195960505
H  H45  1  0.16140000  0.12640000  0.54800000  1.0 0.1195960505
H  H46  1  0.83860000  0.37360000  0.54800000  1.0 0.1195960505
H  H47  1  0.33860000  0.12640000  0.95200000  1.0 0.1195960505
H  H48  1  0.66140000  0.37360000  0.95200000  1.0 0.1195960505
H  H49  1  0.66540000  0.91470000  0.42500000  1.0 0.1104577104
H  H50  1  0.33460000  0.58530000  0.42500000  1.0 0.1104577104
H  H51  1  0.83460000  0.91470000  0.07500000  1.0 0.1104577104
H  H52  1  0.16540000  0.58530000  0.07500000  1.0 0.1104577104
H  H53  1  0.33460000  0.08530000  0.57500000  1.0 0.1104577104
H  H54  1  0.66540000  0.41470000  0.57500000  1.0 0.1104577104
H  H55  1  0.16540000  0.08530000  0.92500000  1.0 0.1104577104
H  H56  1  0.83460000  0.41470000  0.92500000  1.0 0.1104577104
H  H57  1  0.68910000  0.83340000  0.45060000  1.0 0.0986005699
H  H58  1  0.31090000  0.66666667  0.45060000  1.0 0.0986005699
H  H59  1  0.81090000  0.83340000  0.04940000  1.0 0.0986005699
H  H60  1  0.18910000  0.66666667  0.04940000  1.0 0.0986005699
H  H61  1  0.31090000  0.16660000  0.54940000  1.0 0.0986005699
H  H62  1  0.68910000  0.33340000  0.54940000  1.0 0.0986005699
H  H63  1  0.18910000  0.16660000  0.95060000  1.0 0.0986005699
H  H64  1  0.81090000  0.33340000  0.95060000  1.0 0.0986005699
H  H65  1  0.66080000  0.99680000  0.60920000  1.0 0.0884860317
H  H66  1  0.33920000  0.50320000  0.60920000  1.0 0.0884860317
H  H67  1  0.83920000  0.99680000  0.89080000  1.0 0.0884860317
H  H68  1  0.16080000  0.50320000  0.89080000  1.0 0.0884860317
H  H69  1  0.33920000  0.00320000  0.39080000  1.0 0.0884860317
H  H70  1  0.66080000  0.49680000  0.39080000  1.0 0.0884860317
H  H71  1  0.16080000  0.00320000  0.10920000  1.0 0.0884860317
H  H72  1  0.83920000  0.49680000  0.10920000  1.0 0.0884860317
H  H73  1  0.51320000  0.85910000  0.42940000  1.0 0.0884860317
H  H74  1  0.48680000  0.64090000  0.42940000  1.0 0.0884860317
H  H75  1  0.98680000  0.85910000  0.07060000  1.0 0.0884860317
H  H76  1  0.01320000  0.64090000  0.07060000  1.0 0.0884860317
H  H77  1  0.48680000  0.14090000  0.57060000  1.0 0.0884860317
H  H78  1  0.51320000  0.35910000  0.57060000  1.0 0.0884860317
H  H79  1  0.01320000  0.14090000  0.92940000  1.0 0.0884860317
H  H80  1  0.98680000  0.35910000  0.92940000  1.0 0.0884860317
H  H81  1  0.61610000  0.06400000  0.67630000  1.0 0.1195960505
H  H82  1  0.38390000  0.43600000  0.67630000  1.0 0.1195960505
H  H83  1  0.88390000  0.06400000  0.82370000  1.0 0.1195960505
H  H84  1  0.11610000  0.43600000  0.82370000  1.0 0.1195960505
H  H85  1  0.38390000  0.93600000  0.32370000  1.0 0.1195960505
H  H86  1  0.61610000  0.56400000  0.32370000  1.0 0.1195960505
H  H87  1  0.11610000  0.93600000  0.17630000  1.0 0.1195960505
H  H88  1  0.88390000  0.56400000  0.17630000  1.0 0.1195960505
H  H89  1  0.33690000  0.05070000  0.72780000  1.0 0.1311622257
H  H90  1  0.66310000  0.44930000  0.72780000  1.0 0.1311622257
H  H91  1  0.16310000  0.05070000  0.77220000  1.0 0.1311622257
H  H92  1  0.83690000  0.44930000  0.77220000  1.0 0.1311622257
H  H93  1  0.66310000  0.94930000  0.27220000  1.0 0.1311622257
H  H94  1  0.33690000  0.55070000  0.27220000  1.0 0.1311622257
H  H95  1  0.83690000  0.94930000  0.22780000  1.0 0.1311622257
H  H96  1  0.16310000  0.55070000  0.22780000  1.0 0.1311622257
H  H97  1  0.37530000  0.82830000  0.38140000  1.0 0.1195960505
H  H98  1  0.62470000  0.67170000  0.38140000  1.0 0.1195960505
H  H99  1  0.12470000  0.82830000  0.11860000  1.0 0.1195960505
H  H100  1  0.87530000  0.67170000  0.11860000  1.0 0.1195960505
H  H101  1  0.62470000  0.17170000  0.61860000  1.0 0.1195960505
H  H102  1  0.37530000  0.32830000  0.61860000  1.0 0.1195960505
H  H103  1  0.87530000  0.17170000  0.88140000  1.0 0.1195960505
H  H104  1  0.12470000  0.32830000  0.88140000  1.0 0.1195960505
H  H105  1  0.09270000  0.80260000  0.42880000  1.0 0.1311622257
H  H106  1  0.90730000  0.69740000  0.42880000  1.0 0.1311622257
H  H107  1  0.40730000  0.80260000  0.07120000  1.0 0.1311622257
H  H108  1  0.59270000  0.69740000  0.07120000  1.0 0.1311622257
H  H109  1  0.90730000  0.19740000  0.57120000  1.0 0.1311622257
H  H110  1  0.09270000  0.30260000  0.57120000  1.0 0.1311622257
H  H111  1  0.59270000  0.19740000  0.92880000  1.0 0.1311622257
H  H112  1  0.40730000  0.30260000  0.92880000  1.0 0.1311622257
H  H113  1  0.21220000  0.96950000  0.64570000  1.0 0.1311622257
H  H114  1  0.78780000  0.53050000  0.64570000  1.0 0.1311622257
H  H115  1  0.28780000  0.96950000  0.85430000  1.0 0.1311622257
H  H116  1  0.71220000  0.53050000  0.85430000  1.0 0.1311622257
H  H117  1  0.78780000  0.03050000  0.35430000  1.0 0.1311622257
H  H118  1  0.21220000  0.46950000  0.35430000  1.0 0.1311622257
H  H119  1  0.71220000  0.03050000  0.14570000  1.0 0.1311622257
H  H120  1  0.28780000  0.46950000  0.14570000  1.0 0.1311622257
H  H121  1  0.25010000  0.88830000  0.66760000  1.0 0.1463499154
H  H122  1  0.74990000  0.61170000  0.66760000  1.0 0.1463499154
H  H123  1  0.24990000  0.88830000  0.83240000  1.0 0.1463499154
H  H124  1  0.75010000  0.61170000  0.83240000  1.0 0.1463499154
H  H125  1  0.74990000  0.11170000  0.33240000  1.0 0.1463499154
H  H126  1  0.25010000  0.38830000  0.33240000  1.0 0.1463499154
H  H127  1  0.75010000  0.11170000  0.16760000  1.0 0.1463499154
H  H128  1  0.24990000  0.38830000  0.16760000  1.0 0.1463499154
H  H129  1  0.21120000  0.95900000  0.69870000  1.0 0.1311622257
H  H130  1  0.78880000  0.54100000  0.69870000  1.0 0.1311622257
H  H131  1  0.28880000  0.95900000  0.80130000  1.0 0.1311622257
H  H132  1  0.71120000  0.54100000  0.80130000  1.0 0.1311622257
H  H133  1  0.78880000  0.04100000  0.30130000  1.0 0.1311622257
H  H134  1  0.21120000  0.45900000  0.30130000  1.0 0.1311622257
H  H135  1  0.71120000  0.04100000  0.19870000  1.0 0.1311622257
H  H136  1  0.28880000  0.45900000  0.19870000  1.0 0.1311622257
H  H137  1  0.15850000  0.82660000  0.54640000  1.0 0.1613907303
H  H138  1  0.84150000  0.67340000  0.54640000  1.0 0.1613907303
H  H139  1  0.34150000  0.82660000  0.95360000  1.0 0.1613907303
H  H140  1  0.65850000  0.67340000  0.95360000  1.0 0.1613907303
H  H141  1  0.84150000  0.17340000  0.45360000  1.0 0.1613907303
H  H142  1  0.15850000  0.32660000  0.45360000  1.0 0.1613907303
H  H143  1  0.65850000  0.17340000  0.04640000  1.0 0.1613907303
H  H144  1  0.34150000  0.32660000  0.04640000  1.0 0.1613907303
H  H145  1  0.07210000  0.86210000  0.51530000  1.0 0.1311622257
H  H146  1  0.92790000  0.63790000  0.51530000  1.0 0.1311622257
H  H147  1  0.42790000  0.86210000  0.98470000  1.0 0.1311622257
H  H148  1  0.57210000  0.63790000  0.98470000  1.0 0.1311622257
H  H149  1  0.92790000  0.13790000  0.48470000  1.0 0.1311622257
H  H150  1  0.07210000  0.36210000  0.48470000  1.0 0.1311622257
H  H151  1  0.57210000  0.13790000  0.01530000  1.0 0.1311622257
H  H152  1  0.42790000  0.36210000  0.01530000  1.0 0.1311622257
H  H153  1  0.08670000  0.76800000  0.51910000  1.0 0.1311622257
H  H154  1  0.91330000  0.73200000  0.51910000  1.0 0.1311622257
H  H155  1  0.41330000  0.76800000  0.98090000  1.0 0.1311622257
H  H156  1  0.58670000  0.73200000  0.98090000  1.0 0.1311622257
H  H157  1  0.91330000  0.23200000  0.48090000  1.0 0.1311622257
H  H158  1  0.08670000  0.26800000  0.48090000  1.0 0.1311622257
H  H159  1  0.58670000  0.23200000  0.01910000  1.0 0.1311622257
H  H160  1  0.41330000  0.26800000  0.01910000  1.0 0.1311622257
C  C1  1  0.64890000  0.94310000  0.52890000  1.0 0.0816692948
C  C2  1  0.35110000  0.55690000  0.52890000  1.0 0.0816692948
C  C3  1  0.85110000  0.94310000  0.97110000  1.0 0.0816692948
C  C4  1  0.14890000  0.55690000  0.97110000  1.0 0.0816692948
C  C5  1  0.35110000  0.05690000  0.47110000  1.0 0.0816692948
C  C6  1  0.64890000  0.44310000  0.47110000  1.0 0.0816692948
C  C7  1  0.14890000  0.05690000  0.02890000  1.0 0.0816692948
C  C8  1  0.85110000  0.44310000  0.02890000  1.0 0.0816692948
C  C9  1  0.76490000  0.95120000  0.54240000  1.0 -0.1603141817
C  C10  1  0.23510000  0.54880000  0.54240000  1.0 -0.1603141817
C  C11  1  0.73510000  0.95120000  0.95760000  1.0 -0.1603141817
C  C12  1  0.26490000  0.54880000  0.95760000  1.0 -0.1603141817
C  C13  1  0.23510000  0.04880000  0.45760000  1.0 -0.1603141817
C  C14  1  0.76490000  0.45120000  0.45760000  1.0 -0.1603141817
C  C15  1  0.26490000  0.04880000  0.04240000  1.0 -0.1603141817
C  C16  1  0.73510000  0.45120000  0.04240000  1.0 -0.1603141817
C  C17  1  0.83070000  0.94700000  0.50290000  1.0 -0.2020617191
C  C18  1  0.16930000  0.55300000  0.50290000  1.0 -0.2020617191
C  C19  1  0.66930000  0.94700000  0.99710000  1.0 -0.2020617191
C  C20  1  0.33070000  0.55300000  0.99710000  1.0 -0.2020617191
C  C21  1  0.16930000  0.05300000  0.49710000  1.0 -0.2020617191
C  C22  1  0.83070000  0.44700000  0.49710000  1.0 -0.2020617191
C  C23  1  0.33070000  0.05300000  0.00290000  1.0 -0.2020617191
C  C24  1  0.66930000  0.44700000  0.00290000  1.0 -0.2020617191
C  C25  1  0.79500000  0.91860000  0.46050000  1.0 -0.2020617191
C  C26  1  0.20500000  0.58140000  0.46050000  1.0 -0.2020617191
C  C27  1  0.70500000  0.91860000  0.03950000  1.0 -0.2020617191
C  C28  1  0.29500000  0.58140000  0.03950000  1.0 -0.2020617191
C  C29  1  0.20500000  0.08140000  0.53950000  1.0 -0.2020617191
C  C30  1  0.79500000  0.41860000  0.53950000  1.0 -0.2020617191
C  C31  1  0.29500000  0.08140000  0.96050000  1.0 -0.2020617191
C  C32  1  0.70500000  0.41860000  0.96050000  1.0 -0.2020617191
C  C33  1  0.69060000  0.89200000  0.45330000  1.0 -0.1539936642
C  C34  1  0.30940000  0.60800000  0.45330000  1.0 -0.1539936642
C  C35  1  0.80940000  0.89200000  0.04670000  1.0 -0.1539936642
C  C36  1  0.19060000  0.60800000  0.04670000  1.0 -0.1539936642
C  C37  1  0.30940000  0.10800000  0.54670000  1.0 -0.1539936642
C  C38  1  0.69060000  0.39200000  0.54670000  1.0 -0.1539936642
C  C39  1  0.19060000  0.10800000  0.95330000  1.0 -0.1539936642
C  C40  1  0.80940000  0.39200000  0.95330000  1.0 -0.1539936642
C  C41  1  0.61730000  0.91950000  0.49420000  1.0 0.0816692948
C  C42  1  0.38270000  0.58050000  0.49420000  1.0 0.0816692948
C  C43  1  0.88270000  0.91950000  0.00580000  1.0 0.0816692948
C  C44  1  0.11730000  0.58050000  0.00580000  1.0 0.0816692948
C  C45  1  0.38270000  0.08050000  0.50580000  1.0 0.0816692948
C  C46  1  0.61730000  0.41950000  0.50580000  1.0 0.0816692948
C  C47  1  0.11730000  0.08050000  0.99420000  1.0 0.0816692948
C  C48  1  0.88270000  0.41950000  0.99420000  1.0 0.0816692948
C  C49  1  0.59770000  0.97140000  0.60665000  1.0 0.0379566589
C  C50  1  0.40230000  0.52860000  0.60665000  1.0 0.0379566589
C  C51  1  0.90230000  0.97140000  0.89335000  1.0 0.0379566589
C  C52  1  0.09770000  0.52860000  0.89335000  1.0 0.0379566589
C  C53  1  0.40230000  0.02860000  0.39335000  1.0 0.0379566589
C  C54  1  0.59770000  0.47140000  0.39335000  1.0 0.0379566589
C  C55  1  0.09770000  0.02860000  0.10665000  1.0 0.0379566589
C  C56  1  0.90230000  0.47140000  0.10665000  1.0 0.0379566589
C  C57  1  0.47410000  0.85600000  0.45577000  1.0 0.0132319754
C  C58  1  0.52590000  0.64400000  0.45577000  1.0 0.0163748512
C  C59  1  0.02590000  0.85600000  0.04423000  1.0 0.0132319754
C  C60  1  0.97410000  0.64400000  0.04423000  1.0 0.0163748512
C  C61  1  0.52590000  0.14400000  0.54423000  1.0 0.0163748512
C  C62  1  0.47410000  0.35600000  0.54423000  1.0 0.0132319754
C  C63  1  0.97410000  0.14400000  0.95577000  1.0 0.0163748512
C  C64  1  0.02590000  0.35600000  0.95577000  1.0 0.0132319754
C  C65  1  0.52430000  0.98690000  0.64151000  1.0 -0.0592888285
C  C66  1  0.47570000  0.51310000  0.64151000  1.0 -0.0592888285
C  C67  1  0.97570000  0.98690000  0.85849000  1.0 -0.0592888285
C  C68  1  0.02430000  0.51310000  0.85849000  1.0 -0.0592888285
C  C69  1  0.47570000  0.01310000  0.35849000  1.0 -0.0592888285
C  C70  1  0.52430000  0.48690000  0.35849000  1.0 -0.0592888285
C  C71  1  0.02430000  0.01310000  0.14151000  1.0 -0.0592888285
C  C72  1  0.97570000  0.48690000  0.14151000  1.0 -0.0592888285
C  C73  1  0.55030000  0.04290000  0.67554000  1.0 -0.1539936642
C  C74  1  0.44970000  0.45710000  0.67554000  1.0 -0.1539936642
C  C75  1  0.94970000  0.04290000  0.82446000  1.0 -0.1539936642
C  C76  1  0.05030000  0.45710000  0.82446000  1.0 -0.1539936642
C  C77  1  0.44970000  0.95710000  0.32446000  1.0 -0.1539936642
C  C78  1  0.55030000  0.54290000  0.32446000  1.0 -0.1539936642
C  C79  1  0.05030000  0.95710000  0.17554000  1.0 -0.1539936642
C  C80  1  0.94970000  0.54290000  0.17554000  1.0 -0.1539936642
C  C81  1  0.48110000  0.06700000  0.70749000  1.0 -0.0317423324
C  C82  1  0.51890000  0.43300000  0.70749000  1.0 -0.0317423324
C  C83  1  0.01890000  0.06700000  0.79251000  1.0 -0.0317423324
C  C84  1  0.98110000  0.43300000  0.79251000  1.0 -0.0317423324
C  C85  1  0.51890000  0.93300000  0.29251000  1.0 -0.0317423324
C  C86  1  0.48110000  0.56700000  0.29251000  1.0 -0.0317423324
C  C87  1  0.98110000  0.93300000  0.20749000  1.0 -0.0317423324
C  C88  1  0.01890000  0.56700000  0.20749000  1.0 -0.0317423324
C  C89  1  0.38380000  0.03450000  0.70590000  1.0 -0.1603141817
C  C90  1  0.61620000  0.46550000  0.70590000  1.0 -0.1603141817
C  C91  1  0.11620000  0.03450000  0.79410000  1.0 -0.1603141817
C  C92  1  0.88380000  0.46550000  0.79410000  1.0 -0.1603141817
C  C93  1  0.61620000  0.96550000  0.29410000  1.0 -0.1603141817
C  C94  1  0.38380000  0.53450000  0.29410000  1.0 -0.1603141817
C  C95  1  0.88380000  0.96550000  0.20590000  1.0 -0.1603141817
C  C96  1  0.11620000  0.53450000  0.20590000  1.0 -0.1603141817
C  C97  1  0.35330000  0.97960000  0.67370000  1.0 0.0536586504
C  C98  1  0.64670000  0.52040000  0.67370000  1.0 0.0536586504
C  C99  1  0.14670000  0.97960000  0.82630000  1.0 0.0536586504
C  C100  1  0.85330000  0.52040000  0.82630000  1.0 0.0536586504
C  C101  1  0.64670000  0.02040000  0.32630000  1.0 0.0536586504
C  C102  1  0.35330000  0.47960000  0.32630000  1.0 0.0536586504
C  C103  1  0.85330000  0.02040000  0.17370000  1.0 0.0536586504
C  C104  1  0.14670000  0.47960000  0.17370000  1.0 0.0536586504
C  C105  1  0.42460000  0.95410000  0.64084000  1.0 0.2386861538
C  C106  1  0.57540000  0.54590000  0.64084000  1.0 0.2386861538
C  C107  1  0.07540000  0.95410000  0.85916000  1.0 0.2386861538
C  C108  1  0.92460000  0.54590000  0.85916000  1.0 0.2386861538
C  C109  1  0.57540000  0.04590000  0.35916000  1.0 0.2386861538
C  C110  1  0.42460000  0.45410000  0.35916000  1.0 0.2386861538
C  C111  1  0.92460000  0.04590000  0.14084000  1.0 0.2386861538
C  C112  1  0.07540000  0.45410000  0.14084000  1.0 0.2386861538
C  C113  1  0.36830000  0.83660000  0.45047000  1.0 -0.0766721134
C  C114  1  0.63170000  0.66340000  0.45047000  1.0 -0.0766721134
C  C115  1  0.13170000  0.83660000  0.04953000  1.0 -0.0766721134
C  C116  1  0.86830000  0.66340000  0.04953000  1.0 -0.0766721134
C  C117  1  0.63170000  0.16340000  0.54953000  1.0 -0.0766721134
C  C118  1  0.36830000  0.33660000  0.54953000  1.0 -0.0766721134
C  C119  1  0.86830000  0.16340000  0.95047000  1.0 -0.0766721134
C  C120  1  0.13170000  0.33660000  0.95047000  1.0 -0.0766721134
C  C121  1  0.33040000  0.82690000  0.40584000  1.0 -0.1690861293
C  C122  1  0.66960000  0.67310000  0.40584000  1.0 -0.1690861293
C  C123  1  0.16960000  0.82690000  0.09416000  1.0 -0.1690861293
C  C124  1  0.83040000  0.67310000  0.09416000  1.0 -0.1690861293
C  C125  1  0.66960000  0.17310000  0.59416000  1.0 -0.1690861293
C  C126  1  0.33040000  0.32690000  0.59416000  1.0 -0.1690861293
C  C127  1  0.83040000  0.17310000  0.90584000  1.0 -0.1690861293
C  C128  1  0.16960000  0.32690000  0.90584000  1.0 -0.1690861293
C  C129  1  0.22820000  0.81530000  0.39800000  1.0 -0.0367026663
C  C130  1  0.77180000  0.68470000  0.39800000  1.0 -0.0367026663
C  C131  1  0.27180000  0.81530000  0.10200000  1.0 -0.0367026663
C  C132  1  0.72820000  0.68470000  0.10200000  1.0 -0.0367026663
C  C133  1  0.77180000  0.18470000  0.60200000  1.0 -0.0367026663
C  C134  1  0.22820000  0.31530000  0.60200000  1.0 -0.0367026663
C  C135  1  0.72820000  0.18470000  0.89800000  1.0 -0.0367026663
C  C136  1  0.27180000  0.31530000  0.89800000  1.0 -0.0367026663
C  C137  1  0.16150000  0.81180000  0.43447000  1.0 -0.1690861293
C  C138  1  0.83850000  0.68820000  0.43447000  1.0 -0.1690861293
C  C139  1  0.33850000  0.81180000  0.06553000  1.0 -0.1690861293
C  C140  1  0.66150000  0.68820000  0.06553000  1.0 -0.1690861293
C  C141  1  0.83850000  0.18820000  0.56553000  1.0 -0.1690861293
C  C142  1  0.16150000  0.31180000  0.56553000  1.0 -0.1690861293
C  C143  1  0.66150000  0.18820000  0.93447000  1.0 -0.1690861293
C  C144  1  0.33850000  0.31180000  0.93447000  1.0 -0.1690861293
C  C145  1  0.19360000  0.82150000  0.47919000  1.0 0.0563058864
C  C146  1  0.80640000  0.67850000  0.47919000  1.0 0.0563058864
C  C147  1  0.30640000  0.82150000  0.02081000  1.0 0.0563058864
C  C148  1  0.69360000  0.67850000  0.02081000  1.0 0.0563058864
C  C149  1  0.80640000  0.17850000  0.52081000  1.0 0.0563058864
C  C150  1  0.19360000  0.32150000  0.52081000  1.0 0.0563058864
C  C151  1  0.69360000  0.17850000  0.97919000  1.0 0.0563058864
C  C152  1  0.30640000  0.32150000  0.97919000  1.0 0.0563058864
C  C153  1  0.29860000  0.83340000  0.48728000  1.0 0.2386861538
C  C154  1  0.70140000  0.66666667  0.48728000  1.0 0.2386861538
C  C155  1  0.20140000  0.83340000  0.01272000  1.0 0.2386861538
C  C156  1  0.79860000  0.66666667  0.01272000  1.0 0.2386861538
C  C157  1  0.70140000  0.16660000  0.51272000  1.0 0.2386861538
C  C158  1  0.29860000  0.33340000  0.51272000  1.0 0.2386861538
C  C159  1  0.79860000  0.16660000  0.98728000  1.0 0.2386861538
C  C160  1  0.20140000  0.33340000  0.98728000  1.0 0.2386861538
C  C161  1  0.24720000  0.94610000  0.67120000  1.0 -0.4099769582
C  C162  1  0.75280000  0.55390000  0.67120000  1.0 -0.4099769582
C  C163  1  0.25280000  0.94610000  0.82880000  1.0 -0.4099769582
C  C164  1  0.74720000  0.55390000  0.82880000  1.0 -0.4099769582
C  C165  1  0.75280000  0.05390000  0.32880000  1.0 -0.4099769582
C  C166  1  0.24720000  0.44610000  0.32880000  1.0 -0.4099769582
C  C167  1  0.74720000  0.05390000  0.17120000  1.0 -0.4099769582
C  C168  1  0.25280000  0.44610000  0.17120000  1.0 -0.4099769582
C  C169  1  0.12130000  0.81940000  0.51850000  1.0 -0.4377535645
C  C170  1  0.87870000  0.68060000  0.51850000  1.0 -0.4377535645
C  C171  1  0.37870000  0.81940000  0.98150000  1.0 -0.4377535645
C  C172  1  0.62130000  0.68060000  0.98150000  1.0 -0.4377535645
C  C173  1  0.87870000  0.18060000  0.48150000  1.0 -0.4377535645
C  C174  1  0.12130000  0.31940000  0.48150000  1.0 -0.4377535645
C  C175  1  0.62130000  0.18060000  0.01850000  1.0 -0.4377535645
C  C176  1  0.37870000  0.31940000  0.01850000  1.0 -0.4377535645
C  C177  1  0.50620000  0.13130000  0.74130000  1.0 0.5824754919
C  C178  1  0.49380000  0.36870000  0.74130000  1.0 0.5824754919
C  C179  1  0.99380000  0.13130000  0.75870000  1.0 0.5824754919
C  C180  1  0.00620000  0.36870000  0.75870000  1.0 0.5824754919
C  C181  1  0.49380000  0.86870000  0.25870000  1.0 0.5824754919
C  C182  1  0.50620000  0.63130000  0.25870000  1.0 0.5824754919
C  C183  1  0.00620000  0.86870000  0.24130000  1.0 0.5824754919
C  C184  1  0.99380000  0.63130000  0.24130000  1.0 0.5824754919
C  C185  1  0.18730000  0.80950000  0.35011000  1.0 0.6042146991
C  C186  1  0.81270000  0.69050000  0.35011000  1.0 0.6042146991
C  C187  1  0.31270000  0.80950000  0.14989000  1.0 0.6042146991
C  C188  1  0.68730000  0.69050000  0.14989000  1.0 0.6042146991
C  C189  1  0.81270000  0.19050000  0.64989000  1.0 0.6042146991
C  C190  1  0.18730000  0.30950000  0.64989000  1.0 0.6042146991
C  C191  1  0.68730000  0.19050000  0.85011000  1.0 0.6042146991
C  C192  1  0.31270000  0.30950000  0.85011000  1.0 0.6042146991
C  C193  1  0.66810000  0.90160000  0.53930000  1.0 0.0986005699
C  C194  1  0.33190000  0.59840000  0.53930000  1.0 0.0986005699
C  C195  1  0.83190000  0.90160000  0.96070000  1.0 0.0986005699
C  C196  1  0.16810000  0.59840000  0.96070000  1.0 0.0986005699
C  C197  1  0.33190000  0.09840000  0.46070000  1.0 0.0986005699
C  C198  1  0.66810000  0.40160000  0.46070000  1.0 0.0986005699
C  C199  1  0.16810000  0.09840000  0.03930000  1.0 0.0986005699
C  C200  1  0.83190000  0.40160000  0.03930000  1.0 0.0986005699
C  C201  1  0.63520000  0.87130000  0.49700000  1.0 0.0884860317
C  C202  1  0.36480000  0.62870000  0.49700000  1.0 0.0884860317
C  C203  1  0.86480000  0.87130000  0.00300000  1.0 0.0884860317
C  C204  1  0.13520000  0.62870000  0.00300000  1.0 0.0884860317
C  C205  1  0.36480000  0.12870000  0.50300000  1.0 0.0884860317
C  C206  1  0.63520000  0.37130000  0.50300000  1.0 0.0884860317
C  C207  1  0.13520000  0.12870000  0.99700000  1.0 0.0884860317
C  C208  1  0.86480000  0.37130000  0.99700000  1.0 0.0884860317
N  N1  1  0.58320000  0.92480000  0.57166000  1.0 -0.2397199793
N  N2  1  0.41680000  0.57520000  0.57166000  1.0 -0.2397199793
N  N3  1  0.91680000  0.92480000  0.92834000  1.0 -0.2397199793
N  N4  1  0.08320000  0.57520000  0.92834000  1.0 -0.2397199793
N  N5  1  0.41680000  0.07520000  0.42834000  1.0 -0.2397199793
N  N6  1  0.58320000  0.42480000  0.42834000  1.0 -0.2397199793
N  N7  1  0.08320000  0.07520000  0.07166000  1.0 -0.2397199793
N  N8  1  0.91680000  0.42480000  0.07166000  1.0 -0.2397199793
N  N9  1  0.51950000  0.86920000  0.49341000  1.0 -0.2348506312
N  N10  1  0.48050000  0.63080000  0.49341000  1.0 -0.2348506312
N  N11  1  0.98050000  0.86920000  0.00659000  1.0 -0.2348506312
N  N12  1  0.01950000  0.63080000  0.00659000  1.0 -0.2397199793
N  N13  1  0.48050000  0.13080000  0.50659000  1.0 -0.2348506312
N  N14  1  0.51950000  0.36920000  0.50659000  1.0 -0.2348506312
N  N15  1  0.01950000  0.13080000  0.99341000  1.0 -0.2348506312
N  N16  1  0.98050000  0.36920000  0.99341000  1.0 -0.2348506312
O  O1  1  0.39490000  0.90150000  0.61007000  1.0 -0.4583024
O  O2  1  0.60510000  0.59850000  0.61007000  1.0 -0.4583024
O  O3  1  0.10510000  0.90150000  0.88993000  1.0 -0.4583024
O  O4  1  0.89490000  0.59850000  0.88993000  1.0 -0.4583024
O  O5  1  0.60510000  0.09850000  0.38993000  1.0 -0.4583024
O  O6  1  0.39490000  0.40150000  0.38993000  1.0 -0.4583024
O  O7  1  0.89490000  0.09850000  0.11007000  1.0 -0.4583024
O  O8  1  0.10510000  0.40150000  0.11007000  1.0 -0.4583024
O  O9  1  0.32750000  0.84290000  0.52968000  1.0 -0.472619905
O  O10  1  0.67250000  0.65710000  0.52968000  1.0 -0.472619905
O  O11  1  0.17250000  0.84290000  0.97032000  1.0 -0.472619905
O  O12  1  0.82750000  0.65710000  0.97032000  1.0 -0.472619905
O  O13  1  0.67250000  0.15710000  0.47032000  1.0 -0.472619905
O  O14  1  0.32750000  0.34290000  0.47032000  1.0 -0.472619905
O  O15  1  0.82750000  0.15710000  0.02968000  1.0 -0.472619905
O  O16  1  0.17250000  0.34290000  0.02968000  1.0 -0.472619905
O  O17  1  0.59030000  0.16410000  0.74195000  1.0 -0.5567234595
O  O18  1  0.40970000  0.33590000  0.74195000  1.0 -0.5567234595
O  O19  1  0.90970000  0.16410000  0.75805000  1.0 -0.5567234595
O  O20  1  0.09030000  0.33590000  0.75805000  1.0 -0.5567234595
O  O21  1  0.40970000  0.83590000  0.25805000  1.0 -0.5567234595
O  O22  1  0.59030000  0.66410000  0.25805000  1.0 -0.5567234595
O  O23  1  0.09030000  0.83590000  0.24195000  1.0 -0.5567234595
O  O24  1  0.90970000  0.66410000  0.24195000  1.0 -0.5567234595
O  O25  1  0.43790000  0.15440000  0.76882000  1.0 -0.5244085555
O  O26  1  0.56210000  0.34560000  0.76882000  1.0 -0.5244085555
O  O27  1  0.06210000  0.15440000  0.73118000  1.0 -0.5244085555
O  O28  1  0.93790000  0.34560000  0.73118000  1.0 -0.5244085555
O  O29  1  0.56210000  0.84560000  0.23118000  1.0 -0.5244085555
O  O30  1  0.43790000  0.65440000  0.23118000  1.0 -0.5244085555
O  O31  1  0.93790000  0.84560000  0.26882000  1.0 -0.5244085555
O  O32  1  0.06210000  0.65440000  0.26882000  1.0 -0.5244085555
O  O33  1  0.23920000  0.84040000  0.31960000  1.0 -0.5567234595
O  O34  1  0.76080000  0.65960000  0.31960000  1.0 -0.5567234595
O  O35  1  0.26080000  0.84040000  0.18040000  1.0 -0.5567234595
O  O36  1  0.73920000  0.65960000  0.18040000  1.0 -0.5567234595
O  O37  1  0.76080000  0.15960000  0.68040000  1.0 -0.5567234595
O  O38  1  0.23920000  0.34040000  0.68040000  1.0 -0.5567234595
O  O39  1  0.73920000  0.15960000  0.81960000  1.0 -0.5567234595
O  O40  1  0.26080000  0.34040000  0.81960000  1.0 -0.5567234595
O  O41  1  0.10010000  0.77900000  0.34662000  1.0 -0.5498284389
O  O42  1  0.89990000  0.72100000  0.34662000  1.0 -0.5498284389
O  O43  1  0.39990000  0.77900000  0.15338000  1.0 -0.5498284389
O  O44  1  0.60010000  0.72100000  0.15338000  1.0 -0.5498284389
O  O45  1  0.89990000  0.22100000  0.65338000  1.0 -0.5498284389
O  O46  1  0.10010000  0.27900000  0.65338000  1.0 -0.5498284389
O  O47  1  0.60010000  0.22100000  0.84662000  1.0 -0.5498284389
O  O48  1  0.39990000  0.27900000  0.84662000  1.0 -0.5498284389
O  O49  1  0.50000000  0.75000000  0.57327000  1.0 -0.733539014
O  O50  1  0.00000000  0.75000000  0.92673000  1.0 -0.733539014
O  O51  1  0.50000000  0.25000000  0.42673000  1.0 -0.733539014
O  O52  1  0.00000000  0.25000000  0.07327000  1.0 -0.733539014
