# DDEC6 charges by PACMAN v1.1 (https://github.com/mtap-research/PACMAN-charge/)
data_NUDLEF_ASR_pacman
_symmetry_space_group_name_H-M   'P 1'
_cell_length_a   17.55650000
_cell_length_b   17.55650000
_cell_length_c   33.03900000
_cell_angle_alpha   87.20080000
_cell_angle_beta   92.79920000
_cell_angle_gamma   44.07190000
_symmetry_Int_Tables_number   1
_chemical_formula_structural   Cd2Fe2H40C52N4O13
_chemical_formula_sum   'Cd8 Fe8 H160 C208 N16 O52'
_cell_volume   7023.07245213
_cell_formula_units_Z   4
loop_
 _symmetry_equiv_pos_site_id
 _symmetry_equiv_pos_as_xyz
  1  'x, y, z'
loop_
 _atom_site_type_symbol
 _atom_site_label
 _atom_site_symmetry_multiplicity
 _atom_site_fract_x
 _atom_site_fract_y
 _atom_site_fract_z
 _atom_site_occupancy
 _atom_site_charge
Cd  Cd1  1  0.60115000  0.60115000  0.25000000  1.0 1.1196395644
Cd  Cd2  1  0.39885000  0.39885000  0.75000000  1.0 1.1196395644
Cd  Cd3  1  0.89491000  0.36839000  0.24998000  1.0 1.0273145029
Cd  Cd4  1  0.36839000  0.89491000  0.25002000  1.0 1.0273145029
Cd  Cd5  1  0.10509000  0.63161000  0.75002000  1.0 1.0273145029
Cd  Cd6  1  0.63161000  0.10509000  0.74998000  1.0 1.0273145029
Cd  Cd7  1  0.71117000  0.71117000  0.25000000  1.0 1.140163351
Cd  Cd8  1  0.28883000  0.28883000  0.75000000  1.0 1.140163351
Fe  Fe1  1  0.56223000  0.29687000  0.02094000  1.0 0.7725600936
Fe  Fe2  1  0.29687000  0.56223000  0.47906000  1.0 0.7725600936
Fe  Fe3  1  0.43777000  0.70313000  0.97906000  1.0 0.7725600936
Fe  Fe4  1  0.70313000  0.43777000  0.52094000  1.0 0.7725600936
Fe  Fe5  1  0.53998000  0.81488000  0.98279000  1.0 0.7725600936
Fe  Fe6  1  0.81488000  0.53998000  0.51721000  1.0 0.7725600936
Fe  Fe7  1  0.46002000  0.18512000  0.01721000  1.0 0.7725600936
Fe  Fe8  1  0.18512000  0.46002000  0.48279000  1.0 0.7725600936
H  H1  1  0.26740000  0.61480000  0.93440000  1.0 0.1092684595
H  H2  1  0.61480000  0.26740000  0.56560000  1.0 0.1092684595
H  H3  1  0.73260000  0.38520000  0.06560000  1.0 0.1092684595
H  H4  1  0.38520000  0.73260000  0.43440000  1.0 0.1092684595
H  H5  1  0.21900000  0.56760000  0.94070000  1.0 0.1092684595
H  H6  1  0.56760000  0.21900000  0.55930000  1.0 0.1092684595
H  H7  1  0.78100000  0.43240000  0.05930000  1.0 0.1092684595
H  H8  1  0.43240000  0.78100000  0.44070000  1.0 0.1092684595
H  H9  1  0.08140000  0.71560000  0.96500000  1.0 0.1092684595
H  H10  1  0.71560000  0.08140000  0.53500000  1.0 0.1092684595
H  H11  1  0.91860000  0.28440000  0.03500000  1.0 0.1092684595
H  H12  1  0.28440000  0.91860000  0.46500000  1.0 0.1092684595
H  H13  1  0.13090000  0.76110000  0.95960000  1.0 0.1205251294
H  H14  1  0.76110000  0.13090000  0.54040000  1.0 0.1205251294
H  H15  1  0.86910000  0.23890000  0.04040000  1.0 0.1205251294
H  H16  1  0.23890000  0.86910000  0.45960000  1.0 0.1205251294
H  H17  1  0.11450000  0.77890000  0.01720000  1.0 0.1281495125
H  H18  1  0.77890000  0.11450000  0.48280000  1.0 0.1281495125
H  H19  1  0.88550000  0.22110000  0.98280000  1.0 0.1281495125
H  H20  1  0.22110000  0.88550000  0.51720000  1.0 0.1281495125
H  H21  1  0.10550000  0.69730000  0.02420000  1.0 0.1092684595
H  H22  1  0.69730000  0.10550000  0.47580000  1.0 0.1092684595
H  H23  1  0.89450000  0.30270000  0.97580000  1.0 0.1092684595
H  H24  1  0.30270000  0.89450000  0.52420000  1.0 0.1092684595
H  H25  1  0.27270000  0.66870000  0.04280000  1.0 0.1205251294
H  H26  1  0.66870000  0.27270000  0.45720000  1.0 0.1205251294
H  H27  1  0.72730000  0.33130000  0.95720000  1.0 0.1205251294
H  H28  1  0.33130000  0.72730000  0.54280000  1.0 0.1205251294
H  H29  1  0.23880000  0.61780000  0.06500000  1.0 0.1092684595
H  H30  1  0.61780000  0.23880000  0.43500000  1.0 0.1092684595
H  H31  1  0.76120000  0.38220000  0.93500000  1.0 0.1092684595
H  H32  1  0.38220000  0.76120000  0.56500000  1.0 0.1092684595
H  H33  1  0.39210000  0.45110000  0.91520000  1.0 0.088571879
H  H34  1  0.45110000  0.39210000  0.58480000  1.0 0.088571879
H  H35  1  0.60790000  0.54890000  0.08480000  1.0 0.088571879
H  H36  1  0.54890000  0.60790000  0.41520000  1.0 0.088571879
H  H37  1  0.41870000  0.53190000  0.09050000  1.0 0.088571879
H  H38  1  0.53190000  0.41870000  0.40950000  1.0 0.088571879
H  H39  1  0.58130000  0.46810000  0.90950000  1.0 0.088571879
H  H40  1  0.46810000  0.58130000  0.59050000  1.0 0.088571879
H  H41  1  0.48230000  0.34610000  0.86090000  1.0 0.1205251294
H  H42  1  0.34610000  0.48230000  0.63910000  1.0 0.1205251294
H  H43  1  0.51770000  0.65390000  0.13910000  1.0 0.1205251294
H  H44  1  0.65390000  0.51770000  0.36090000  1.0 0.1205251294
H  H45  1  0.80710000  0.06150000  0.87550000  1.0 0.1281495125
H  H46  1  0.06150000  0.80710000  0.62450000  1.0 0.1281495125
H  H47  1  0.19290000  0.93850000  0.12450000  1.0 0.1281495125
H  H48  1  0.93850000  0.19290000  0.37550000  1.0 0.1281495125
H  H49  1  0.52520000  0.49440000  0.14920000  1.0 0.1205251294
H  H50  1  0.49440000  0.52520000  0.35080000  1.0 0.1205251294
H  H51  1  0.47480000  0.50560000  0.85080000  1.0 0.1205251294
H  H52  1  0.50560000  0.47480000  0.64920000  1.0 0.1205251294
H  H53  1  0.84580000  0.21640000  0.17110000  1.0 0.1281495125
H  H54  1  0.21640000  0.84580000  0.32890000  1.0 0.1281495125
H  H55  1  0.15420000  0.78360000  0.82890000  1.0 0.1281495125
H  H56  1  0.78360000  0.15420000  0.67110000  1.0 0.1281495125
H  H57  1  0.85440000  0.07220000  0.98020000  1.0 0.1554504075
H  H58  1  0.07220000  0.85440000  0.51980000  1.0 0.1554504075
H  H59  1  0.14560000  0.92780000  0.01980000  1.0 0.1554504075
H  H60  1  0.92780000  0.14560000  0.48020000  1.0 0.1554504075
H  H61  1  0.89050000  0.97830000  0.95560000  1.0 0.1281495125
H  H62  1  0.97830000  0.89050000  0.54440000  1.0 0.1281495125
H  H63  1  0.10950000  0.02170000  0.04440000  1.0 0.1281495125
H  H64  1  0.02170000  0.10950000  0.45560000  1.0 0.1281495125
H  H65  1  0.91700000  0.04340000  0.94200000  1.0 0.1397059467
H  H66  1  0.04340000  0.91700000  0.55800000  1.0 0.1397059467
H  H67  1  0.08300000  0.95660000  0.05800000  1.0 0.1397059467
H  H68  1  0.95660000  0.08300000  0.44200000  1.0 0.1397059467
H  H69  1  0.85740000  0.08960000  0.08750000  1.0 0.1397059467
H  H70  1  0.08960000  0.85740000  0.41250000  1.0 0.1486771972
H  H71  1  0.14260000  0.91040000  0.91250000  1.0 0.1486771972
H  H72  1  0.91040000  0.14260000  0.58750000  1.0 0.1486771972
H  H73  1  0.93020000  0.10380000  0.10560000  1.0 0.1205251294
H  H74  1  0.10380000  0.93020000  0.39440000  1.0 0.1205251294
H  H75  1  0.06980000  0.89620000  0.89440000  1.0 0.1205251294
H  H76  1  0.89620000  0.06980000  0.60560000  1.0 0.1205251294
H  H77  1  0.90520000  0.05120000  0.13380000  1.0 0.1397059467
H  H78  1  0.05120000  0.90520000  0.36620000  1.0 0.1397059467
H  H79  1  0.09480000  0.94880000  0.86620000  1.0 0.1397059467
H  H80  1  0.94880000  0.09480000  0.63380000  1.0 0.1397059467
H  H81  1  0.31010000  0.06630000  0.07470000  1.0 0.1092684595
H  H82  1  0.06630000  0.31010000  0.42530000  1.0 0.1092684595
H  H83  1  0.68990000  0.93370000  0.92530000  1.0 0.1092684595
H  H84  1  0.93370000  0.68990000  0.57470000  1.0 0.1092684595
H  H85  1  0.25680000  0.02500000  0.06650000  1.0 0.1019322761
H  H86  1  0.02500000  0.25680000  0.43350000  1.0 0.1019322761
H  H87  1  0.74320000  0.97500000  0.93350000  1.0 0.1019322761
H  H88  1  0.97500000  0.74320000  0.56650000  1.0 0.1019322761
H  H89  1  0.16070000  0.22390000  0.05680000  1.0 0.1205251294
H  H90  1  0.22390000  0.16070000  0.44320000  1.0 0.1205251294
H  H91  1  0.83930000  0.77610000  0.94320000  1.0 0.1205251294
H  H92  1  0.77610000  0.83930000  0.55680000  1.0 0.1205251294
H  H93  1  0.10900000  0.18200000  0.04680000  1.0 0.1092684595
H  H94  1  0.18200000  0.10900000  0.45320000  1.0 0.1092684595
H  H95  1  0.89100000  0.81800000  0.95320000  1.0 0.1092684595
H  H96  1  0.81800000  0.89100000  0.54680000  1.0 0.1092684595
H  H97  1  0.08040000  0.23100000  0.98880000  1.0 0.1092684595
H  H98  1  0.23100000  0.08040000  0.51120000  1.0 0.1092684595
H  H99  1  0.91960000  0.76900000  0.01120000  1.0 0.1092684595
H  H100  1  0.76900000  0.91960000  0.48880000  1.0 0.1092684595
H  H101  1  0.11040000  0.29240000  0.00040000  1.0 0.1205251294
H  H102  1  0.29240000  0.11040000  0.49960000  1.0 0.1205251294
H  H103  1  0.88960000  0.70760000  0.99960000  1.0 0.1205251294
H  H104  1  0.70760000  0.88960000  0.50040000  1.0 0.1205251294
H  H105  1  0.25300000  0.19300000  0.96920000  1.0 0.1205251294
H  H106  1  0.19300000  0.25300000  0.53080000  1.0 0.1205251294
H  H107  1  0.74700000  0.80700000  0.03080000  1.0 0.1205251294
H  H108  1  0.80700000  0.74700000  0.46920000  1.0 0.1205251294
H  H109  1  0.19010000  0.17470000  0.94450000  1.0 0.1092684595
H  H110  1  0.17470000  0.19010000  0.55550000  1.0 0.1092684595
H  H111  1  0.80990000  0.82530000  0.05550000  1.0 0.1092684595
H  H112  1  0.82530000  0.80990000  0.44450000  1.0 0.1092684595
H  H113  1  0.45300000  0.88840000  0.09100000  1.0 0.088571879
H  H114  1  0.88840000  0.45300000  0.40900000  1.0 0.088571879
H  H115  1  0.54700000  0.11160000  0.90900000  1.0 0.088571879
H  H116  1  0.11160000  0.54700000  0.59100000  1.0 0.088571879
H  H117  1  0.34320000  0.09700000  0.91670000  1.0 0.088571879
H  H118  1  0.09700000  0.34320000  0.58330000  1.0 0.088571879
H  H119  1  0.65680000  0.90300000  0.08330000  1.0 0.088571879
H  H120  1  0.90300000  0.65680000  0.41670000  1.0 0.088571879
H  H121  1  0.58710000  0.74690000  0.14520000  1.0 0.1281495125
H  H122  1  0.74690000  0.58710000  0.35480000  1.0 0.1281495125
H  H123  1  0.41290000  0.25310000  0.85480000  1.0 0.1281495125
H  H124  1  0.25310000  0.41290000  0.64520000  1.0 0.1281495125
H  H125  1  0.89560000  0.48000000  0.12540000  1.0 0.1281495125
H  H126  1  0.48000000  0.89560000  0.37460000  1.0 0.1281495125
H  H127  1  0.10440000  0.52000000  0.87460000  1.0 0.1281495125
H  H128  1  0.52000000  0.10440000  0.62540000  1.0 0.1281495125
H  H129  1  0.40350000  0.09410000  0.85400000  1.0 0.1205251294
H  H130  1  0.09410000  0.40350000  0.64600000  1.0 0.1205251294
H  H131  1  0.59650000  0.90590000  0.14600000  1.0 0.1205251294
H  H132  1  0.90590000  0.59650000  0.35400000  1.0 0.1205251294
H  H133  1  0.70750000  0.83370000  0.82650000  1.0 0.1281495125
H  H134  1  0.83370000  0.70750000  0.67350000  1.0 0.1281495125
H  H135  1  0.29250000  0.16630000  0.17350000  1.0 0.1281495125
H  H136  1  0.16630000  0.29250000  0.32650000  1.0 0.1281495125
H  H137  1  0.85910000  0.55530000  0.01870000  1.0 0.1486771972
H  H138  1  0.55530000  0.85910000  0.48130000  1.0 0.1486771972
H  H139  1  0.14090000  0.44470000  0.98130000  1.0 0.1486771972
H  H140  1  0.44470000  0.14090000  0.51870000  1.0 0.1486771972
H  H141  1  0.94820000  0.50960000  0.05510000  1.0 0.1397059467
H  H142  1  0.50960000  0.94820000  0.44490000  1.0 0.1397059467
H  H143  1  0.05180000  0.49040000  0.94490000  1.0 0.1397059467
H  H144  1  0.49040000  0.05180000  0.55510000  1.0 0.1397059467
H  H145  1  0.91970000  0.44510000  0.04590000  1.0 0.1205251294
H  H146  1  0.44510000  0.91970000  0.45410000  1.0 0.1205251294
H  H147  1  0.08030000  0.55490000  0.95410000  1.0 0.1205251294
H  H148  1  0.55490000  0.08030000  0.54590000  1.0 0.1205251294
H  H149  1  0.78780000  0.65580000  0.91210000  1.0 0.1486771972
H  H150  1  0.65580000  0.78780000  0.58790000  1.0 0.1486771972
H  H151  1  0.21220000  0.34420000  0.08790000  1.0 0.1486771972
H  H152  1  0.34420000  0.21220000  0.41210000  1.0 0.1486771972
H  H153  1  0.79590000  0.64870000  0.86520000  1.0 0.1397059467
H  H154  1  0.64870000  0.79590000  0.63480000  1.0 0.1397059467
H  H155  1  0.20410000  0.35130000  0.13480000  1.0 0.1397059467
H  H156  1  0.35130000  0.20410000  0.36520000  1.0 0.1397059467
H  H157  1  0.84090000  0.68630000  0.88960000  1.0 0.1281495125
H  H158  1  0.68630000  0.84090000  0.61040000  1.0 0.1281495125
H  H159  1  0.15910000  0.31370000  0.11040000  1.0 0.1281495125
H  H160  1  0.31370000  0.15910000  0.38960000  1.0 0.1281495125
C  C1  1  0.33450000  0.51130000  0.98500000  1.0 0.058007381
C  C2  1  0.51130000  0.33450000  0.51500000  1.0 0.058007381
C  C3  1  0.66550000  0.48870000  0.01500000  1.0 0.058007381
C  C4  1  0.48870000  0.66550000  0.48500000  1.0 0.058007381
C  C5  1  0.24310000  0.59590000  0.95450000  1.0 -0.1665502227
C  C6  1  0.59590000  0.24310000  0.54550000  1.0 -0.1665502227
C  C7  1  0.75690000  0.40410000  0.04550000  1.0 -0.1665502227
C  C8  1  0.40410000  0.75690000  0.45450000  1.0 -0.1665502227
C  C9  1  0.14540000  0.70060000  0.97290000  1.0 -0.1872228972
C  C10  1  0.70060000  0.14540000  0.52710000  1.0 -0.1872228972
C  C11  1  0.85460000  0.29940000  0.02710000  1.0 -0.1872228972
C  C12  1  0.29940000  0.85460000  0.47290000  1.0 -0.1872228972
C  C13  1  0.15050000  0.70510000  0.01350000  1.0 -0.1845845095
C  C14  1  0.70510000  0.15050000  0.48650000  1.0 -0.1845845095
C  C15  1  0.84950000  0.29490000  0.98650000  1.0 -0.1845845095
C  C16  1  0.29490000  0.84950000  0.51350000  1.0 -0.1872228972
C  C17  1  0.25110000  0.63170000  0.03860000  1.0 -0.1990421649
C  C18  1  0.63170000  0.25110000  0.46140000  1.0 -0.1990421649
C  C19  1  0.74890000  0.36830000  0.96140000  1.0 -0.1990421649
C  C20  1  0.36830000  0.74890000  0.53860000  1.0 -0.1990421649
C  C21  1  0.34420000  0.52540000  0.02510000  1.0 0.1019322761
C  C22  1  0.52540000  0.34420000  0.47490000  1.0 0.1019322761
C  C23  1  0.65580000  0.47460000  0.97490000  1.0 0.1019322761
C  C24  1  0.47460000  0.65580000  0.52510000  1.0 0.1019322761
C  C25  1  0.45460000  0.39800000  0.93400000  1.0 0.0335448646
C  C26  1  0.39800000  0.45460000  0.56600000  1.0 0.0406670832
C  C27  1  0.54540000  0.60200000  0.06600000  1.0 0.0335448646
C  C28  1  0.60200000  0.54540000  0.43400000  1.0 0.0406670832
C  C29  1  0.47600000  0.46400000  0.08140000  1.0 0.0488489304
C  C30  1  0.46400000  0.47600000  0.41860000  1.0 0.0488489304
C  C31  1  0.52400000  0.53600000  0.91860000  1.0 0.0488489304
C  C32  1  0.53600000  0.52400000  0.58140000  1.0 0.0488489304
C  C33  1  0.55590000  0.30110000  0.91900000  1.0 -0.0796497742
C  C34  1  0.30110000  0.55590000  0.58100000  1.0 -0.0796497742
C  C35  1  0.44410000  0.69890000  0.08100000  1.0 -0.0796497742
C  C36  1  0.69890000  0.44410000  0.41900000  1.0 -0.0796497742
C  C37  1  0.54870000  0.29090000  0.87770000  1.0 -0.1438814683
C  C38  1  0.29090000  0.54870000  0.62230000  1.0 -0.1438814683
C  C39  1  0.45130000  0.70910000  0.12230000  1.0 -0.1438814683
C  C40  1  0.70910000  0.45130000  0.37770000  1.0 -0.1438814683
C  C41  1  0.64270000  0.19650000  0.86140000  1.0 -0.0796497742
C  C42  1  0.19650000  0.64270000  0.63860000  1.0 -0.0796497742
C  C43  1  0.35730000  0.80350000  0.13860000  1.0 -0.0796497742
C  C44  1  0.80350000  0.35730000  0.36140000  1.0 -0.0796497742
C  C45  1  0.74450000  0.12130000  0.88670000  1.0 -0.1597933675
C  C46  1  0.12130000  0.74450000  0.61330000  1.0 -0.1597933675
C  C47  1  0.25550000  0.87870000  0.11330000  1.0 -0.1597933675
C  C48  1  0.87870000  0.25550000  0.38670000  1.0 -0.1597933675
C  C49  1  0.75650000  0.13150000  0.92670000  1.0 0.0684733969
C  C50  1  0.13150000  0.75650000  0.57330000  1.0 0.0684733969
C  C51  1  0.24350000  0.86850000  0.07330000  1.0 0.0684733969
C  C52  1  0.86850000  0.24350000  0.42670000  1.0 0.0684733969
C  C53  1  0.65720000  0.22260000  0.94500000  1.0 0.2910477409
C  C54  1  0.22260000  0.65720000  0.55500000  1.0 0.2910477409
C  C55  1  0.34280000  0.77740000  0.05500000  1.0 0.2910477409
C  C56  1  0.77740000  0.34280000  0.44500000  1.0 0.2910477409
C  C57  1  0.57960000  0.38920000  0.10550000  1.0 -0.066562008
C  C58  1  0.38920000  0.57960000  0.39450000  1.0 -0.066562008
C  C59  1  0.42040000  0.61080000  0.89450000  1.0 -0.066562008
C  C60  1  0.61080000  0.42040000  0.60550000  1.0 -0.066562008
C  C61  1  0.58800000  0.42720000  0.14120000  1.0 -0.1495165103
C  C62  1  0.42720000  0.58800000  0.35880000  1.0 -0.1495165103
C  C63  1  0.41200000  0.57280000  0.85880000  1.0 -0.1495165103
C  C64  1  0.57280000  0.41200000  0.64120000  1.0 -0.1495165103
C  C65  1  0.68830000  0.36470000  0.16350000  1.0 -0.0396750171
C  C66  1  0.36470000  0.68830000  0.33650000  1.0 -0.0396750171
C  C67  1  0.31170000  0.63530000  0.83650000  1.0 -0.0396750171
C  C68  1  0.63530000  0.31170000  0.66350000  1.0 -0.0396750171
C  C69  1  0.77940000  0.25980000  0.15440000  1.0 -0.1495165103
C  C70  1  0.25980000  0.77940000  0.34560000  1.0 -0.1495165103
C  C71  1  0.22060000  0.74020000  0.84560000  1.0 -0.1495165103
C  C72  1  0.74020000  0.22060000  0.65440000  1.0 -0.1495165103
C  C73  1  0.77540000  0.21680000  0.12130000  1.0 0.058007381
C  C74  1  0.21680000  0.77540000  0.37870000  1.0 0.058007381
C  C75  1  0.22460000  0.78320000  0.87870000  1.0 0.058007381
C  C76  1  0.78320000  0.22460000  0.62130000  1.0 0.058007381
C  C77  1  0.67360000  0.28280000  0.09740000  1.0 0.2247959265
C  C78  1  0.28280000  0.67360000  0.40260000  1.0 0.2247959265
C  C79  1  0.32640000  0.71720000  0.90260000  1.0 0.2251199969
C  C80  1  0.71720000  0.32640000  0.59740000  1.0 0.2247959265
C  C81  1  0.86430000  0.04890000  0.95350000  1.0 -0.4508113375
C  C82  1  0.04890000  0.86430000  0.54650000  1.0 -0.4508113375
C  C83  1  0.13570000  0.95110000  0.04650000  1.0 -0.4508113375
C  C84  1  0.95110000  0.13570000  0.45350000  1.0 -0.4508113375
C  C85  1  0.87590000  0.10550000  0.11120000  1.0 -0.4178954324
C  C86  1  0.10550000  0.87590000  0.38880000  1.0 -0.4178954324
C  C87  1  0.12410000  0.89450000  0.88880000  1.0 -0.4178954324
C  C88  1  0.89450000  0.12410000  0.61120000  1.0 -0.4178954324
C  C89  1  0.63760000  0.17260000  0.82080000  1.0 0.5786125624
C  C90  1  0.17260000  0.63760000  0.67920000  1.0 0.5786125624
C  C91  1  0.36240000  0.82740000  0.17920000  1.0 0.5786125624
C  C92  1  0.82740000  0.36240000  0.32080000  1.0 0.5786125624
C  C93  1  0.70140000  0.40600000  0.19900000  1.0 0.5982763657
C  C94  1  0.40600000  0.70140000  0.30100000  1.0 0.5982763657
C  C95  1  0.29860000  0.59400000  0.80100000  1.0 0.5982763657
C  C96  1  0.59400000  0.29860000  0.69900000  1.0 0.5982763657
C  C97  1  0.34760000  0.99740000  0.02060000  1.0 0.058007381
C  C98  1  0.99740000  0.34760000  0.47940000  1.0 0.058007381
C  C99  1  0.65240000  0.00260000  0.97940000  1.0 0.058007381
C  C100  1  0.00260000  0.65240000  0.52060000  1.0 0.058007381
C  C101  1  0.27090000  0.06430000  0.05380000  1.0 -0.1665502227
C  C102  1  0.06430000  0.27090000  0.44620000  1.0 -0.1665502227
C  C103  1  0.72910000  0.93570000  0.94620000  1.0 -0.1665502227
C  C104  1  0.93570000  0.72910000  0.55380000  1.0 -0.1665502227
C  C105  1  0.16610000  0.17630000  0.04030000  1.0 -0.1990421649
C  C106  1  0.17630000  0.16610000  0.45970000  1.0 -0.1990421649
C  C107  1  0.83390000  0.82370000  0.95970000  1.0 -0.1990421649
C  C108  1  0.82370000  0.83390000  0.54030000  1.0 -0.1990421649
C  C109  1  0.14010000  0.21990000  0.00040000  1.0 -0.1990421649
C  C110  1  0.21990000  0.14010000  0.49960000  1.0 -0.1990421649
C  C111  1  0.85990000  0.78010000  0.99960000  1.0 -0.1990421649
C  C112  1  0.78010000  0.85990000  0.50040000  1.0 -0.1990421649
C  C113  1  0.22610000  0.16030000  0.97120000  1.0 -0.1597933675
C  C114  1  0.16030000  0.22610000  0.52880000  1.0 -0.1597933675
C  C115  1  0.77390000  0.83970000  0.02880000  1.0 -0.1597933675
C  C116  1  0.83970000  0.77390000  0.47120000  1.0 -0.1597933675
C  C117  1  0.32100000  0.04200000  0.98070000  1.0 0.088571879
C  C118  1  0.04200000  0.32100000  0.51930000  1.0 0.088571879
C  C119  1  0.67900000  0.95800000  0.01930000  1.0 0.088571879
C  C120  1  0.95800000  0.67900000  0.48070000  1.0 0.088571879
C  C121  1  0.50140000  0.84980000  0.07150000  1.0 0.0488489304
C  C122  1  0.84980000  0.50140000  0.42850000  1.0 0.0488489304
C  C123  1  0.49860000  0.15020000  0.92850000  1.0 0.0488489304
C  C124  1  0.15020000  0.49860000  0.57150000  1.0 0.0488489304
C  C125  1  0.40860000  0.02360000  0.92530000  1.0 0.0488489304
C  C126  1  0.02360000  0.40860000  0.57470000  1.0 0.0488489304
C  C127  1  0.59140000  0.97640000  0.07470000  1.0 0.0488489304
C  C128  1  0.97640000  0.59140000  0.42530000  1.0 0.0488489304
C  C129  1  0.61180000  0.74540000  0.08590000  1.0 -0.0588339343
C  C130  1  0.74540000  0.61180000  0.41410000  1.0 -0.0588339343
C  C131  1  0.38820000  0.25460000  0.91410000  1.0 -0.0588339343
C  C132  1  0.25460000  0.38820000  0.58590000  1.0 -0.0588339343
C  C133  1  0.63960000  0.70460000  0.12730000  1.0 -0.1291373929
C  C134  1  0.70460000  0.63960000  0.37270000  1.0 -0.1291373929
C  C135  1  0.36040000  0.29540000  0.87270000  1.0 -0.1291373929
C  C136  1  0.29540000  0.36040000  0.62730000  1.0 -0.1291373929
C  C137  1  0.74330000  0.60330000  0.14200000  1.0 -0.0953229385
C  C138  1  0.60330000  0.74330000  0.35800000  1.0 -0.0953229385
C  C139  1  0.25670000  0.39670000  0.85800000  1.0 -0.0953229385
C  C140  1  0.39670000  0.25670000  0.64200000  1.0 -0.0953229385
C  C141  1  0.82380000  0.54560000  0.11500000  1.0 -0.1495165103
C  C142  1  0.54560000  0.82380000  0.38500000  1.0 -0.1495165103
C  C143  1  0.17620000  0.45440000  0.88500000  1.0 -0.1495165103
C  C144  1  0.45440000  0.17620000  0.61500000  1.0 -0.1495165103
C  C145  1  0.80180000  0.58140000  0.07410000  1.0 0.0488489304
C  C146  1  0.58140000  0.80180000  0.42590000  1.0 0.0406670832
C  C147  1  0.19820000  0.41860000  0.92590000  1.0 0.0406670832
C  C148  1  0.41860000  0.19820000  0.57410000  1.0 0.0488489304
C  C149  1  0.69620000  0.68080000  0.05820000  1.0 0.2582259887
C  C150  1  0.68080000  0.69620000  0.44180000  1.0 0.2582259887
C  C151  1  0.30380000  0.31920000  0.94180000  1.0 0.2582259887
C  C152  1  0.31920000  0.30380000  0.55820000  1.0 0.2582259887
C  C153  1  0.49540000  0.96460000  0.89840000  1.0 -0.0796497742
C  C154  1  0.96460000  0.49540000  0.60160000  1.0 -0.0796497742
C  C155  1  0.50460000  0.03540000  0.10160000  1.0 -0.0796497742
C  C156  1  0.03540000  0.50460000  0.39840000  1.0 -0.0796497742
C  C157  1  0.47340000  0.02300000  0.86160000  1.0 -0.1495165103
C  C158  1  0.02300000  0.47340000  0.63840000  1.0 -0.1495165103
C  C159  1  0.52660000  0.97700000  0.13840000  1.0 -0.1495165103
C  C160  1  0.97700000  0.52660000  0.36160000  1.0 -0.1495165103
C  C161  1  0.55760000  0.97440000  0.83560000  1.0 -0.0396750171
C  C162  1  0.97440000  0.55760000  0.66440000  1.0 -0.0453268475
C  C163  1  0.44240000  0.02560000  0.16440000  1.0 -0.0453268475
C  C164  1  0.02560000  0.44240000  0.33560000  1.0 -0.0396750171
C  C165  1  0.65490000  0.86550000  0.84460000  1.0 -0.1438814683
C  C166  1  0.86550000  0.65490000  0.65540000  1.0 -0.1438814683
C  C167  1  0.34510000  0.13450000  0.15540000  1.0 -0.1438814683
C  C168  1  0.13450000  0.34510000  0.34460000  1.0 -0.1495165103
C  C169  1  0.67950000  0.80010000  0.87880000  1.0 0.0488489304
C  C170  1  0.80010000  0.67950000  0.62120000  1.0 0.0488489304
C  C171  1  0.32050000  0.19990000  0.12120000  1.0 0.0488489304
C  C172  1  0.19990000  0.32050000  0.37880000  1.0 0.0488489304
C  C173  1  0.59480000  0.85300000  0.90540000  1.0 0.2582259887
C  C174  1  0.85300000  0.59480000  0.59460000  1.0 0.2582259887
C  C175  1  0.40520000  0.14700000  0.09460000  1.0 0.2582259887
C  C176  1  0.14700000  0.40520000  0.40540000  1.0 0.2582259887
C  C177  1  0.89030000  0.51690000  0.04590000  1.0 -0.4378279334
C  C178  1  0.51690000  0.89030000  0.45410000  1.0 -0.4378279334
C  C179  1  0.10970000  0.48310000  0.95410000  1.0 -0.4378279334
C  C180  1  0.48310000  0.10970000  0.54590000  1.0 -0.4378279334
C  C181  1  0.78450000  0.68870000  0.88710000  1.0 -0.4094145707
C  C182  1  0.68870000  0.78450000  0.61290000  1.0 -0.4094145707
C  C183  1  0.21550000  0.31130000  0.11290000  1.0 -0.4094145707
C  C184  1  0.31130000  0.21550000  0.38710000  1.0 -0.4094145707
C  C185  1  0.77330000  0.55370000  0.18340000  1.0 0.5786125624
C  C186  1  0.55370000  0.77330000  0.31660000  1.0 0.5786125624
C  C187  1  0.22670000  0.44630000  0.81660000  1.0 0.5786125624
C  C188  1  0.44630000  0.22670000  0.68340000  1.0 0.5786125624
C  C189  1  0.53710000  0.04250000  0.79850000  1.0 0.6059460678
C  C190  1  0.04250000  0.53710000  0.70150000  1.0 0.6059460678
C  C191  1  0.46290000  0.95750000  0.20150000  1.0 0.6059460678
C  C192  1  0.95750000  0.46290000  0.29850000  1.0 0.6059460678
C  C193  1  0.35900000  0.53700000  0.98170000  1.0 0.1281495125
C  C194  1  0.53700000  0.35900000  0.51830000  1.0 0.1281495125
C  C195  1  0.64100000  0.46300000  0.01830000  1.0 0.1281495125
C  C196  1  0.46300000  0.64100000  0.48170000  1.0 0.1281495125
C  C197  1  0.36790000  0.53990000  0.00940000  1.0 0.0488489304
C  C198  1  0.53990000  0.36790000  0.49060000  1.0 0.0488489304
C  C199  1  0.63210000  0.46010000  0.99060000  1.0 0.0488489304
C  C200  1  0.46010000  0.63210000  0.50940000  1.0 0.0488489304
C  C201  1  0.36990000  0.02190000  0.02470000  1.0 0.1019322761
C  C202  1  0.02190000  0.36990000  0.47530000  1.0 0.1019322761
C  C203  1  0.63010000  0.97810000  0.97530000  1.0 0.1019322761
C  C204  1  0.97810000  0.63010000  0.52470000  1.0 0.1019322761
C  C205  1  0.34530000  0.06130000  0.99320000  1.0 0.058007381
C  C206  1  0.06130000  0.34530000  0.50680000  1.0 0.058007381
C  C207  1  0.65470000  0.93870000  0.00680000  1.0 0.058007381
C  C208  1  0.93870000  0.65470000  0.49320000  1.0 0.058007381
N  N1  1  0.44710000  0.41410000  0.97150000  1.0 -0.2201234902
N  N2  1  0.41410000  0.44710000  0.52850000  1.0 -0.2201234902
N  N3  1  0.55290000  0.58590000  0.02850000  1.0 -0.2201234902
N  N4  1  0.58590000  0.55290000  0.47150000  1.0 -0.2201234902
N  N5  1  0.45490000  0.44510000  0.04730000  1.0 -0.2291922997
N  N6  1  0.44510000  0.45490000  0.45270000  1.0 -0.2291922997
N  N7  1  0.54510000  0.55490000  0.95270000  1.0 -0.2291922997
N  N8  1  0.55490000  0.54510000  0.54730000  1.0 -0.2291922997
N  N9  1  0.46360000  0.89440000  0.03490000  1.0 -0.2201234902
N  N10  1  0.89440000  0.46360000  0.46510000  1.0 -0.2201234902
N  N11  1  0.53640000  0.10560000  0.96510000  1.0 -0.2201234902
N  N12  1  0.10560000  0.53640000  0.53490000  1.0 -0.2201234902
N  N13  1  0.41690000  0.98130000  0.95930000  1.0 -0.2291922997
N  N14  1  0.98130000  0.41690000  0.54070000  1.0 -0.2291922997
N  N15  1  0.58310000  0.01870000  0.04070000  1.0 -0.2291922997
N  N16  1  0.01870000  0.58310000  0.45930000  1.0 -0.2291922997
O  O1  1  0.67091000  0.22591000  0.98290000  1.0 -0.4716527573
O  O2  1  0.22591000  0.67091000  0.51710000  1.0 -0.4716527573
O  O3  1  0.32909000  0.77409000  0.01710000  1.0 -0.4716527573
O  O4  1  0.77409000  0.32909000  0.48290000  1.0 -0.4716527573
O  O5  1  0.67140000  0.24260000  0.06500000  1.0 -0.4756399504
O  O6  1  0.24260000  0.67140000  0.43500000  1.0 -0.4756399504
O  O7  1  0.32860000  0.75740000  0.93500000  1.0 -0.4756399504
O  O8  1  0.75740000  0.32860000  0.56500000  1.0 -0.4756399504
O  O9  1  0.67565000  0.71265000  0.01890000  1.0 -0.4922429494
O  O10  1  0.71265000  0.67565000  0.48110000  1.0 -0.4955037943
O  O11  1  0.32435000  0.28735000  0.98110000  1.0 -0.4955037943
O  O12  1  0.28735000  0.32435000  0.51890000  1.0 -0.4955037943
O  O13  1  0.62010000  0.79510000  0.93880000  1.0 -0.4508113375
O  O14  1  0.79510000  0.62010000  0.56120000  1.0 -0.4508113375
O  O15  1  0.37990000  0.20490000  0.06120000  1.0 -0.4508113375
O  O16  1  0.20490000  0.37990000  0.43880000  1.0 -0.4508113375
O  O17  1  0.54400000  0.24320000  0.79730000  1.0 -0.6154922358
O  O18  1  0.24320000  0.54400000  0.70270000  1.0 -0.6149581185
O  O19  1  0.45600000  0.75680000  0.20270000  1.0 -0.6149581185
O  O20  1  0.75680000  0.45600000  0.29730000  1.0 -0.6149581185
O  O21  1  0.72080000  0.08320000  0.80740000  1.0 -0.537266194
O  O22  1  0.08320000  0.72080000  0.69260000  1.0 -0.537266194
O  O23  1  0.27920000  0.91680000  0.19260000  1.0 -0.537266194
O  O24  1  0.91680000  0.27920000  0.30740000  1.0 -0.537266194
O  O25  1  0.61540000  0.50320000  0.20530000  1.0 -0.5545107237
O  O26  1  0.50320000  0.61540000  0.29470000  1.0 -0.5545107237
O  O27  1  0.38460000  0.49680000  0.79470000  1.0 -0.5545107237
O  O28  1  0.49680000  0.38460000  0.70530000  1.0 -0.5545107237
O  O29  1  0.79220000  0.34880000  0.21800000  1.0 -0.537266194
O  O30  1  0.34880000  0.79220000  0.28200000  1.0 -0.537266194
O  O31  1  0.20780000  0.65120000  0.78200000  1.0 -0.537266194
O  O32  1  0.65120000  0.20780000  0.71800000  1.0 -0.537266194
O  O33  1  0.70680000  0.60700000  0.21100000  1.0 -0.6418964377
O  O34  1  0.60700000  0.70680000  0.28900000  1.0 -0.6418964377
O  O35  1  0.29320000  0.39300000  0.78900000  1.0 -0.6418964377
O  O36  1  0.39300000  0.29320000  0.71100000  1.0 -0.6418964377
O  O37  1  0.86050000  0.45610000  0.19290000  1.0 -0.4922429494
O  O38  1  0.45610000  0.86050000  0.30710000  1.0 -0.4922429494
O  O39  1  0.13950000  0.54390000  0.80710000  1.0 -0.4922429494
O  O40  1  0.54390000  0.13950000  0.69290000  1.0 -0.4922429494
O  O41  1  0.43700000  0.14000000  0.78950000  1.0 -0.6418964377
O  O42  1  0.14000000  0.43700000  0.71050000  1.0 -0.6418964377
O  O43  1  0.56300000  0.86000000  0.21050000  1.0 -0.6418964377
O  O44  1  0.86000000  0.56300000  0.28950000  1.0 -0.6418964377
O  O45  1  0.61600000  0.00300000  0.77960000  1.0 -0.5345865003
O  O46  1  0.00300000  0.61600000  0.72040000  1.0 -0.537266194
O  O47  1  0.38400000  0.99700000  0.22040000  1.0 -0.537266194
O  O48  1  0.99700000  0.38400000  0.27960000  1.0 -0.5345865003
O  O49  1  0.51561000  0.23521000  0.02840000  1.0 -0.7275337837
O  O50  1  0.23521000  0.51561000  0.47160000  1.0 -0.7275337837
O  O51  1  0.48439000  0.76479000  0.97160000  1.0 -0.7275337837
O  O52  1  0.76479000  0.48439000  0.52840000  1.0 -0.7275337837
