# DDEC6 charges by PACMAN v1.1 (https://github.com/mtap-research/PACMAN-charge/)
data_NUFHUU_ion_pacman
_symmetry_space_group_name_H-M   'P 1'
_cell_length_a   26.32480000
_cell_length_b   26.32480000
_cell_length_c   23.83990000
_cell_angle_alpha   71.10080000
_cell_angle_beta   108.89900000
_cell_angle_gamma   138.60800000
_symmetry_Int_Tables_number   1
_chemical_formula_structural   Cu3BH135C148S4N18(O3F)4
_chemical_formula_sum   'Cu6 B2 H270 C296 S8 N36 O24 F8'
_cell_volume   10248.05527137
_cell_formula_units_Z   2
loop_
 _symmetry_equiv_pos_site_id
 _symmetry_equiv_pos_as_xyz
  1  'x, y, z'
loop_
 _atom_site_type_symbol
 _atom_site_label
 _atom_site_symmetry_multiplicity
 _atom_site_fract_x
 _atom_site_fract_y
 _atom_site_fract_z
 _atom_site_occupancy
 _atom_site_charge
Cu  Cu1  1  0.93080000  0.59510000  0.01127000  1.0 0.4808471707
Cu  Cu2  1  0.16714000  0.85644000  0.50005000  1.0 0.3691532371
Cu  Cu3  1  0.59510000  0.93080000  0.98873000  1.0 0.4808471707
Cu  Cu4  1  0.85644000  0.16714000  0.49995000  1.0 0.3691532371
Cu  Cu5  1  0.27765000  0.27765000  0.00000000  1.0 0.2199020711
Cu  Cu6  1  0.53106000  0.53106000  0.50000000  1.0 0.3635617849
B  B1  1  0.81880000  0.29760000  0.96950000  1.0 1.0509252307
B  B2  1  0.29760000  0.81880000  0.03050000  1.0 1.0509252307
H  H1  1  0.07407000  0.76241000  0.60413000  1.0 0.1191917583
H  H2  1  0.81904000  0.28084000  0.30037000  1.0 0.1191917583
H  H3  1  0.12156000  0.18462000  0.01975000  1.0 0.1000209603
H  H4  1  0.03944000  0.09992000  0.08851000  1.0 0.1286587429
H  H5  1  0.26944000  0.18048000  0.11729000  1.0 0.1000209603
H  H6  1  0.18530000  0.08852000  0.18589000  1.0 0.1191917583
H  H7  1  0.66273000  0.17131000  0.40503000  1.0 0.1402670574
H  H8  1  0.17931000  0.03231000  0.32801000  1.0 0.1286587429
H  H9  1  0.96143000  0.01573000  0.15079000  1.0 0.1107587501
H  H10  1  0.52042000  0.27608000  0.18729000  1.0 0.1000209603
H  H11  1  0.78211000  0.50437000  0.04251000  1.0 0.1000209603
H  H12  1  0.67615000  0.52067000  0.69115000  1.0 0.1286587429
H  H13  1  0.96476000  0.63962000  0.13086000  1.0 0.1000209603
H  H14  1  0.12910000  0.79384000  0.30527000  1.0 0.1286587429
H  H15  1  0.20363000  0.97897000  0.53586000  1.0 0.1000209603
H  H16  1  0.06862000  0.71526000  0.20027000  1.0 0.1191917583
H  H17  1  0.18548000  0.00174000  0.60639000  1.0 0.1402670574
H  H18  1  0.01967000  0.80751000  0.45342000  1.0 0.1191917583
H  H19  1  0.84401000  0.38949000  0.18714000  1.0 0.1286587429
H  H20  1  0.40270000  0.86418000  0.18635000  1.0 0.1191917583
H  H21  1  0.06471000  0.85797000  0.90693000  1.0 0.1286587429
H  H22  1  0.30507000  0.91593000  0.46857000  1.0 0.1000209603
H  H23  1  0.47042000  0.09504000  0.29770000  1.0 0.1000209603
H  H24  1  0.70143000  0.40937000  0.11582000  1.0 0.1286587429
H  H25  1  0.34460000  0.02862000  0.28732000  1.0 0.1107587501
H  H26  1  0.09725000  0.79411000  0.38522000  1.0 0.1107587501
H  H27  1  0.20612000  0.78918000  0.09118000  1.0 0.1402670574
H  H28  1  0.80460000  0.57074000  0.91525000  1.0 0.1000209603
H  H29  1  0.72851000  0.15045000  0.48058000  1.0 0.1191917583
H  H30  1  0.04149000  0.73715000  0.81662000  1.0 0.1191917583
H  H31  1  0.05351000  0.78005000  0.67847000  1.0 0.1286587429
H  H32  1  0.15509000  0.01419000  0.66902000  1.0 0.1191917583
H  H33  1  0.96427000  0.83827000  0.37242000  1.0 0.1402670574
H  H34  1  0.68205000  0.30425000  0.83560000  1.0 0.1286587429
H  H35  1  0.11909000  0.94901000  0.84034000  1.0 0.1107587501
H  H36  1  0.72334000  0.50224000  0.83463000  1.0 0.1191917583
H  H37  1  0.50820000  0.17428000  0.68019000  1.0 0.1000209603
H  H38  1  0.22620000  0.99276000  0.40879000  1.0 0.0896452715
H  H39  1  0.93323000  0.89759000  0.31658000  1.0 0.1191917583
H  H40  1  0.64152000  0.57276000  0.61505000  1.0 0.1000209603
H  H41  1  0.98593000  0.63545000  0.89566000  1.0 0.1107587501
H  H42  1  0.92675000  0.48961000  0.11805000  1.0 0.1191917583
H  H43  1  0.88158000  0.25778000  0.37716000  1.0 0.1000209603
H  H44  1  0.37917000  0.93255000  0.31451000  1.0 0.1107587501
H  H45  1  0.30178000  0.84576000  0.16283000  1.0 0.1286587429
H  H46  1  0.39403000  0.20957000  0.17566000  1.0 0.1191917583
H  H47  1  0.52391000  0.33037000  0.61100000  1.0 0.1402670574
H  H48  1  0.68945000  0.43783000  0.56537000  1.0 0.1191917583
H  H49  1  0.69428000  0.50388000  0.53263000  1.0 0.1191917583
H  H50  1  0.10153000  0.71083000  0.02701000  1.0 0.1107587501
H  H51  1  0.69874000  0.84742000  0.14212000  1.0 0.1191917583
H  H52  1  0.00659000  0.75375000  0.98280000  1.0 0.1000209603
H  H53  1  0.49801000  0.39151000  0.53336000  1.0 0.1000209603
H  H54  1  0.22654000  0.08450000  0.84081000  1.0 0.1107587501
H  H55  1  0.52326000  0.92558000  0.18133000  1.0 0.1286587429
H  H56  1  0.81330000  0.89202000  0.14410000  1.0 0.1107587501
H  H57  1  0.46561000  0.06199000  0.67639000  1.0 0.1107587501
H  H58  1  0.28024000  0.20612000  0.84135000  1.0 0.1191917583
H  H59  1  0.16735000  0.19375000  0.67688000  1.0 0.1191917583
H  H60  1  0.75998000  0.90470000  0.30378000  1.0 0.1191917583
H  H61  1  0.34557000  0.92529000  0.38897000  1.0 0.1286587429
H  H62  1  0.76850000  0.52524000  0.63829000  1.0 0.079780788
H  H63  1  0.77548000  0.38336000  0.89452000  1.0 0.1402670574
H  H64  1  0.87425000  0.93999000  0.30960000  1.0 0.1107587501
H  H65  1  0.65174000  0.90422000  0.25040000  1.0 0.1286587429
H  H66  1  0.57475000  0.81537000  0.25659000  1.0 0.1286587429
H  H67  1  0.65171000  0.84619000  0.29665000  1.0 0.1107587501
H  H68  1  0.61861000  0.30471000  0.16784000  1.0 0.1191917583
H  H69  1  0.17292000  0.97424000  0.22942000  1.0 0.1286587429
H  H70  1  0.22991000  0.96725000  0.24235000  1.0 0.1191917583
H  H71  1  0.22763000  0.99443000  0.29025000  1.0 0.1000209603
H  H72  1  0.59497000  0.17491000  0.32490000  1.0 0.1191917583
H  H73  1  0.12244000  0.07812000  0.67391000  1.0 0.1107587501
H  H74  1  0.57299000  0.29329000  0.67031000  1.0 0.1191917583
H  H75  1  0.85528000  0.45514000  0.97326000  1.0 0.1191917583
H  H76  1  0.84529000  0.46247000  0.60878000  1.0 0.1286587429
H  H77  1  0.80934000  0.44602000  0.66137000  1.0 0.1191917583
H  H78  1  0.76103000  0.42459000  0.59786000  1.0 0.1191917583
H  H79  1  0.61570000  0.09608000  0.26093000  1.0 0.1107587501
H  H80  1  0.49303000  0.02875000  0.27200000  1.0 0.1000209603
H  H81  1  0.76299000  0.15305000  0.21309000  1.0 0.1286587429
H  H82  1  0.70761000  0.15751000  0.21547000  1.0 0.1107587501
H  H83  1  0.72689000  0.12057000  0.27175000  1.0 0.1000209603
H  H84  1  0.92282000  0.55900000  0.54152000  1.0 0.1402670574
H  H85  1  0.86483000  0.53363000  0.48289000  1.0 0.1402670574
H  H86  1  0.47100000  0.97956000  0.66371000  1.0 0.1107587501
H  H87  1  0.43921000  0.90685000  0.71134000  1.0 0.1286587429
H  H88  1  0.41202000  0.94526000  0.70414000  1.0 0.1000209603
H  H89  1  0.86487000  0.66291000  0.48907000  1.0 0.1000209603
H  H90  1  0.93546000  0.69256000  0.53955000  1.0 0.1000209603
H  H91  1  0.94243000  0.64433000  0.63708000  1.0 0.1107587501
H  H92  1  0.91095000  0.57181000  0.68486000  1.0 0.1191917583
H  H93  1  0.95983000  0.59867000  0.63802000  1.0 0.1286587429
H  H94  1  0.61959000  0.10229000  0.81704000  1.0 0.1191917583
H  H95  1  0.20988000  0.28438000  0.68302000  1.0 0.1107587501
H  H96  1  0.19755000  0.30459000  0.72902000  1.0 0.1191917583
H  H97  1  0.27853000  0.36523000  0.70661000  1.0 0.1191917583
H  H98  1  0.87054000  0.66242000  0.60618000  1.0 0.079780788
H  H99  1  0.80143000  0.63607000  0.55512000  1.0 0.0896452715
H  H100  1  0.66698000  0.21912000  0.81800000  1.0 0.1191917583
H  H101  1  0.66106000  0.57874000  0.46370000  1.0 0.0896452715
H  H102  1  0.46420000  0.42016000  0.32404000  1.0 0.1286587429
H  H103  1  0.44260000  0.44024000  0.39709000  1.0 0.1107587501
H  H104  1  0.68554000  0.55664000  0.39676000  1.0 0.1502492336
H  H105  1  0.69566000  0.51378000  0.34262000  1.0 0.1286587429
H  H106  1  0.61856000  0.44226000  0.18276000  1.0 0.1107587501
H  H107  1  0.76949000  0.49735000  0.35534000  1.0 0.1191917583
H  H108  1  0.41328000  0.38570000  0.19545000  1.0 0.1286587429
H  H109  1  0.86047000  0.57455000  0.17872000  1.0 0.1107587501
H  H110  1  0.53669000  0.41369000  0.10283000  1.0 0.1286587429
H  H111  1  0.89248000  0.55470000  0.35844000  1.0 0.1286587429
H  H112  1  0.73850000  0.51886000  0.17729000  1.0 0.1000209603
H  H113  1  0.06018000  0.66558000  0.31567000  1.0 0.1107587501
H  H114  1  0.99073000  0.61117000  0.35242000  1.0 0.1107587501
H  H115  1  0.01059000  0.57715000  0.33211000  1.0 0.1107587501
H  H116  1  0.31628000  0.33520000  0.11384000  1.0 0.1000209603
H  H117  1  0.44175000  0.36797000  0.02641000  1.0 0.1000209603
H  H118  1  0.68008000  0.67826000  0.41207000  1.0 0.1107587501
H  H119  1  0.69340000  0.75012000  0.38972000  1.0 0.1402670574
H  H120  1  0.76449000  0.76231000  0.41379000  1.0 0.0896452715
H  H121  1  0.12812000  0.55560000  0.08846000  1.0 0.16746003
H  H122  1  0.14123000  0.62483000  0.08668000  1.0 0.1402670574
H  H123  1  0.07640000  0.54370000  0.12132000  1.0 0.1402670574
H  H124  1  0.04989000  0.54567000  0.93143000  1.0 0.1402670574
H  H125  1  0.06424000  0.49958000  0.98026000  1.0 0.16746003
H  H126  1  0.98190000  0.46664000  0.96567000  1.0 0.1502492336
H  H127  1  0.69558000  0.74988000  0.56014000  1.0 0.1000209603
H  H128  1  0.64627000  0.74125000  0.49806000  1.0 0.1107587501
H  H129  1  0.73613000  0.81495000  0.50598000  1.0 0.1286587429
H  H130  1  0.40658000  0.30300000  0.58615000  1.0 0.1286587429
H  H131  1  0.35799000  0.23487000  0.54965000  1.0 0.1402670574
H  H132  1  0.31584000  0.23992000  0.57773000  1.0 0.0498478548
H  H133  1  0.27962000  0.31460000  0.41578000  1.0 0.0701627695
H  H134  1  0.22025000  0.24553000  0.46076000  1.0 0.079780788
H  H135  1  0.26240000  0.24048000  0.43269000  1.0 0.1402670574
H  H136  1  0.76241000  0.07407000  0.39587000  1.0 0.1191917583
H  H137  1  0.28084000  0.81904000  0.69963000  1.0 0.1191917583
H  H138  1  0.18462000  0.12156000  0.98025000  1.0 0.1000209603
H  H139  1  0.09992000  0.03944000  0.91149000  1.0 0.1286587429
H  H140  1  0.18048000  0.26944000  0.88271000  1.0 0.1000209603
H  H141  1  0.08852000  0.18530000  0.81411000  1.0 0.1191917583
H  H142  1  0.17131000  0.66273000  0.59497000  1.0 0.1402670574
H  H143  1  0.03231000  0.17931000  0.67199000  1.0 0.1286587429
H  H144  1  0.01573000  0.96143000  0.84921000  1.0 0.1107587501
H  H145  1  0.27608000  0.52042000  0.81271000  1.0 0.1000209603
H  H146  1  0.50437000  0.78211000  0.95749000  1.0 0.1000209603
H  H147  1  0.52067000  0.67615000  0.30885000  1.0 0.1286587429
H  H148  1  0.63962000  0.96476000  0.86914000  1.0 0.1000209603
H  H149  1  0.79384000  0.12910000  0.69473000  1.0 0.1286587429
H  H150  1  0.97897000  0.20363000  0.46414000  1.0 0.1000209603
H  H151  1  0.71526000  0.06862000  0.79973000  1.0 0.1191917583
H  H152  1  0.00174000  0.18548000  0.39361000  1.0 0.1402670574
H  H153  1  0.80751000  0.01967000  0.54658000  1.0 0.1191917583
H  H154  1  0.38949000  0.84401000  0.81286000  1.0 0.1286587429
H  H155  1  0.86418000  0.40270000  0.81365000  1.0 0.1191917583
H  H156  1  0.85797000  0.06471000  0.09307000  1.0 0.1286587429
H  H157  1  0.91593000  0.30507000  0.53143000  1.0 0.1000209603
H  H158  1  0.09504000  0.47042000  0.70230000  1.0 0.1000209603
H  H159  1  0.40937000  0.70143000  0.88418000  1.0 0.1286587429
H  H160  1  0.02862000  0.34460000  0.71268000  1.0 0.1107587501
H  H161  1  0.79411000  0.09725000  0.61478000  1.0 0.1107587501
H  H162  1  0.78918000  0.20612000  0.90882000  1.0 0.1402670574
H  H163  1  0.57074000  0.80460000  0.08475000  1.0 0.1000209603
H  H164  1  0.15045000  0.72851000  0.51942000  1.0 0.1107587501
H  H165  1  0.73715000  0.04149000  0.18338000  1.0 0.1191917583
H  H166  1  0.78005000  0.05351000  0.32153000  1.0 0.1286587429
H  H167  1  0.01419000  0.15509000  0.33098000  1.0 0.1191917583
H  H168  1  0.83827000  0.96427000  0.62758000  1.0 0.1402670574
H  H169  1  0.30425000  0.68205000  0.16440000  1.0 0.1286587429
H  H170  1  0.94901000  0.11909000  0.15966000  1.0 0.1107587501
H  H171  1  0.50224000  0.72334000  0.16537000  1.0 0.1191917583
H  H172  1  0.17428000  0.50820000  0.31981000  1.0 0.1000209603
H  H173  1  0.99276000  0.22620000  0.59121000  1.0 0.0896452715
H  H174  1  0.89759000  0.93323000  0.68342000  1.0 0.1191917583
H  H175  1  0.57276000  0.64152000  0.38495000  1.0 0.1000209603
H  H176  1  0.63545000  0.98593000  0.10434000  1.0 0.1107587501
H  H177  1  0.48961000  0.92675000  0.88195000  1.0 0.1191917583
H  H178  1  0.25778000  0.88158000  0.62284000  1.0 0.1000209603
H  H179  1  0.93255000  0.37917000  0.68549000  1.0 0.1107587501
H  H180  1  0.84576000  0.30178000  0.83717000  1.0 0.1286587429
H  H181  1  0.20957000  0.39403000  0.82434000  1.0 0.1191917583
H  H182  1  0.33037000  0.52391000  0.38900000  1.0 0.1402670574
H  H183  1  0.43783000  0.68945000  0.43463000  1.0 0.1191917583
H  H184  1  0.50388000  0.69428000  0.46737000  1.0 0.1191917583
H  H185  1  0.71083000  0.10153000  0.97299000  1.0 0.1107587501
H  H186  1  0.84742000  0.69874000  0.85788000  1.0 0.1191917583
H  H187  1  0.75375000  0.00659000  0.01720000  1.0 0.1000209603
H  H188  1  0.39151000  0.49801000  0.46664000  1.0 0.1000209603
H  H189  1  0.08450000  0.22654000  0.15919000  1.0 0.1107587501
H  H190  1  0.92558000  0.52326000  0.81867000  1.0 0.1286587429
H  H191  1  0.89202000  0.81330000  0.85590000  1.0 0.1107587501
H  H192  1  0.06199000  0.46561000  0.32361000  1.0 0.1107587501
H  H193  1  0.20612000  0.28024000  0.15865000  1.0 0.1191917583
H  H194  1  0.19375000  0.16735000  0.32312000  1.0 0.1191917583
H  H195  1  0.90470000  0.75998000  0.69622000  1.0 0.1191917583
H  H196  1  0.92529000  0.34557000  0.61103000  1.0 0.1286587429
H  H197  1  0.52524000  0.76850000  0.36171000  1.0 0.079780788
H  H198  1  0.38336000  0.77548000  0.10548000  1.0 0.1402670574
H  H199  1  0.93999000  0.87425000  0.69040000  1.0 0.1107587501
H  H200  1  0.90422000  0.65174000  0.74960000  1.0 0.1286587429
H  H201  1  0.81537000  0.57475000  0.74341000  1.0 0.1286587429
H  H202  1  0.84619000  0.65171000  0.70335000  1.0 0.1107587501
H  H203  1  0.30471000  0.61861000  0.83216000  1.0 0.1191917583
H  H204  1  0.97424000  0.17292000  0.77058000  1.0 0.1286587429
H  H205  1  0.96725000  0.22991000  0.75765000  1.0 0.1191917583
H  H206  1  0.99443000  0.22763000  0.70975000  1.0 0.1000209603
H  H207  1  0.17491000  0.59497000  0.67510000  1.0 0.1191917583
H  H208  1  0.07812000  0.12244000  0.32609000  1.0 0.1107587501
H  H209  1  0.29329000  0.57299000  0.32969000  1.0 0.1191917583
H  H210  1  0.45514000  0.85528000  0.02674000  1.0 0.1191917583
H  H211  1  0.46247000  0.84529000  0.39122000  1.0 0.1286587429
H  H212  1  0.44602000  0.80934000  0.33863000  1.0 0.1191917583
H  H213  1  0.42459000  0.76103000  0.40214000  1.0 0.1191917583
H  H214  1  0.09608000  0.61570000  0.73907000  1.0 0.1107587501
H  H215  1  0.02875000  0.49303000  0.72800000  1.0 0.1000209603
H  H216  1  0.15305000  0.76299000  0.78691000  1.0 0.1286587429
H  H217  1  0.15751000  0.70761000  0.78453000  1.0 0.1107587501
H  H218  1  0.12057000  0.72689000  0.72825000  1.0 0.1000209603
H  H219  1  0.55900000  0.92282000  0.45848000  1.0 0.1402670574
H  H220  1  0.53363000  0.86483000  0.51711000  1.0 0.1402670574
H  H221  1  0.97956000  0.47100000  0.33629000  1.0 0.1107587501
H  H222  1  0.90685000  0.43921000  0.28866000  1.0 0.1286587429
H  H223  1  0.94526000  0.41202000  0.29586000  1.0 0.1000209603
H  H224  1  0.66291000  0.86487000  0.51093000  1.0 0.1000209603
H  H225  1  0.69256000  0.93546000  0.46045000  1.0 0.1000209603
H  H226  1  0.64433000  0.94243000  0.36292000  1.0 0.1107587501
H  H227  1  0.57181000  0.91095000  0.31514000  1.0 0.1191917583
H  H228  1  0.59867000  0.95983000  0.36198000  1.0 0.1286587429
H  H229  1  0.10229000  0.61959000  0.18296000  1.0 0.1191917583
H  H230  1  0.28438000  0.20988000  0.31698000  1.0 0.1107587501
H  H231  1  0.30459000  0.19755000  0.27098000  1.0 0.1191917583
H  H232  1  0.36523000  0.27853000  0.29339000  1.0 0.1191917583
H  H233  1  0.66242000  0.87054000  0.39382000  1.0 0.079780788
H  H234  1  0.63607000  0.80143000  0.44488000  1.0 0.0896452715
H  H235  1  0.21912000  0.66698000  0.18200000  1.0 0.1191917583
H  H236  1  0.57874000  0.66106000  0.53630000  1.0 0.0896452715
H  H237  1  0.42016000  0.46420000  0.67596000  1.0 0.1286587429
H  H238  1  0.44024000  0.44260000  0.60291000  1.0 0.1107587501
H  H239  1  0.55664000  0.68554000  0.60324000  1.0 0.1502492336
H  H240  1  0.51378000  0.69566000  0.65738000  1.0 0.1286587429
H  H241  1  0.44226000  0.61856000  0.81724000  1.0 0.1107587501
H  H242  1  0.49735000  0.76949000  0.64466000  1.0 0.1191917583
H  H243  1  0.38570000  0.41328000  0.80455000  1.0 0.1286587429
H  H244  1  0.57455000  0.86047000  0.82128000  1.0 0.1107587501
H  H245  1  0.41369000  0.53669000  0.89717000  1.0 0.1286587429
H  H246  1  0.55470000  0.89248000  0.64156000  1.0 0.1286587429
H  H247  1  0.51886000  0.73850000  0.82271000  1.0 0.1000209603
H  H248  1  0.66558000  0.06018000  0.68433000  1.0 0.1107587501
H  H249  1  0.61117000  0.99073000  0.64758000  1.0 0.1107587501
H  H250  1  0.57715000  0.01059000  0.66789000  1.0 0.1107587501
H  H251  1  0.33520000  0.31628000  0.88616000  1.0 0.1000209603
H  H252  1  0.36797000  0.44175000  0.97359000  1.0 0.1000209603
H  H253  1  0.67826000  0.68008000  0.58793000  1.0 0.1107587501
H  H254  1  0.75012000  0.69340000  0.61028000  1.0 0.1402670574
H  H255  1  0.76231000  0.76449000  0.58621000  1.0 0.0896452715
H  H256  1  0.55560000  0.12812000  0.91154000  1.0 0.16746003
H  H257  1  0.62483000  0.14123000  0.91332000  1.0 0.1402670574
H  H258  1  0.54370000  0.07640000  0.87868000  1.0 0.1402670574
H  H259  1  0.54567000  0.04989000  0.06857000  1.0 0.1402670574
H  H260  1  0.49958000  0.06424000  0.01974000  1.0 0.16746003
H  H261  1  0.46664000  0.98190000  0.03433000  1.0 0.1502492336
H  H262  1  0.74988000  0.69558000  0.43986000  1.0 0.1000209603
H  H263  1  0.74125000  0.64627000  0.50194000  1.0 0.1107587501
H  H264  1  0.81495000  0.73613000  0.49402000  1.0 0.1286587429
H  H265  1  0.30300000  0.40658000  0.41385000  1.0 0.1286587429
H  H266  1  0.23487000  0.35799000  0.45035000  1.0 0.1402670574
H  H267  1  0.23992000  0.31584000  0.42227000  1.0 0.0498478548
H  H268  1  0.31460000  0.27962000  0.58422000  1.0 0.0701627695
H  H269  1  0.24553000  0.22025000  0.53924000  1.0 0.079780788
H  H270  1  0.24048000  0.26240000  0.56731000  1.0 0.1402670574
C  C1  1  0.10251000  0.08409000  0.14490000  1.0 0.079780788
C  C2  1  0.76400000  0.38920000  0.15860000  1.0 0.1000209603
C  C3  1  0.09065000  0.87175000  0.80140000  1.0 0.1989277658
C  C4  1  0.93445000  0.95275000  0.23160000  1.0 0.1191917583
C  C5  1  0.09756000  0.81144000  0.60550000  1.0 0.0594426929
C  C6  1  0.73640000  0.23300000  0.34630000  1.0 0.0896452715
C  C7  1  0.80052000  0.25548000  0.33720000  1.0 -0.2013644538
C  C8  1  0.13578000  0.16642000  0.05440000  1.0 0.0409272838
C  C9  1  0.05990000  0.80750000  0.85480000  1.0 0.0896452715
C  C10  1  0.50865000  0.19055000  0.24160000  1.0 0.0316638187
C  C11  1  0.05179000  0.02841000  0.19310000  1.0 0.2199020711
C  C12  1  0.15159000  0.76281000  0.15520000  1.0 0.0896452715
C  C13  1  0.26437000  0.86083000  0.28800000  1.0 0.1923873519
C  C14  1  0.08570000  0.11470000  0.09480000  1.0 -0.1812527206
C  C15  1  0.22200000  0.16340000  0.11090000  1.0 0.0594426929
C  C16  1  0.17214000  0.10886000  0.15250000  1.0 -0.171078072
C  C17  1  0.70840000  0.19100000  0.39880000  1.0 -0.1812527206
C  C18  1  0.69780000  0.25000000  0.29500000  1.0 0.1923873519
C  C19  1  0.71172000  0.32608000  0.20730000  1.0 0.2079014135
C  C20  1  0.21852000  0.81168000  0.19980000  1.0 0.2079014135
C  C21  1  0.14521000  0.98559000  0.35190000  1.0 -0.2111346466
C  C22  1  0.97862000  0.00098000  0.18590000  1.0 -0.2585375749
C  C23  1  0.12051000  0.89489000  0.65330000  1.0 0.0896452715
C  C24  1  0.48470000  0.22570000  0.20630000  1.0 -0.1300940354
C  C25  1  0.79630000  0.48250000  0.07260000  1.0 0.0701627695
C  C26  1  0.06521000  0.93859000  0.33910000  1.0 0.079780788
C  C27  1  0.63840000  0.49260000  0.65980000  1.0 -0.1910664631
C  C28  1  0.01400000  0.66860000  0.12360000  1.0 0.0594426929
C  C29  1  0.58988000  0.23172000  0.24540000  1.0 0.1286587429
C  C30  1  0.16620000  0.81960000  0.33760000  1.0 -0.1812527206
C  C31  1  0.17340000  0.93860000  0.56530000  1.0 0.0316638187
C  C32  1  0.07670000  0.71550000  0.16500000  1.0 -0.171078072
C  C33  1  0.16350000  0.95270000  0.60760000  1.0 -0.1910664631
C  C34  1  0.24195000  0.85925000  0.33940000  1.0 0.0896452715
C  C35  1  0.11446000  0.90914000  0.70510000  1.0 0.2079014135
C  C36  1  0.14220000  0.99580000  0.75510000  1.0 0.1191917583
C  C37  1  0.05109000  0.85211000  0.42680000  1.0 0.0896452715
C  C38  1  0.83100000  0.41320000  0.15860000  1.0 -0.1616957653
C  C39  1  0.44570000  0.91070000  0.20220000  1.0 -0.102374548
C  C40  1  0.04890000  0.81330000  0.90370000  1.0 -0.1910664631
C  C41  1  0.68800000  0.38940000  0.80390000  1.0 0.1989277658
C  C42  1  0.74080000  0.43480000  0.85560000  1.0 0.0896452715
C  C43  1  0.26950000  0.89170000  0.43530000  1.0 0.0498478548
C  C44  1  0.45470000  0.11770000  0.27230000  1.0 -0.107758956
C  C45  1  0.74648000  0.42392000  0.11640000  1.0 -0.1910664631
C  C46  1  0.37942000  0.07798000  0.26650000  1.0 -0.2279479777
C  C47  1  0.14767000  0.81953000  0.38640000  1.0 0.1000209603
C  C48  1  0.15740000  0.75840000  0.10090000  1.0 -0.171078072
C  C49  1  0.85640000  0.57340000  0.53400000  1.0 0.0498478548
C  C50  1  0.80070000  0.53450000  0.90970000  1.0 0.0498478548
C  C51  1  0.62660000  0.38480000  0.71000000  1.0 0.2079014135
C  C52  1  0.74710000  0.17710000  0.44380000  1.0 0.0896452715
C  C53  1  0.03550000  0.74170000  0.85040000  1.0 -0.1616957653
C  C54  1  0.03397000  0.95983000  0.28690000  1.0 0.1923873519
C  C55  1  0.08520000  0.82160000  0.65020000  1.0 -0.1812527206
C  C56  1  0.13990000  0.97910000  0.70380000  1.0 -0.2503060517
C  C57  1  0.01740000  0.87060000  0.37830000  1.0 -0.2013644538
C  C58  1  0.71800000  0.87420000  0.22120000  1.0 0.2395207641
C  C59  1  0.66666667  0.32300000  0.80280000  1.0 -0.2215753006
C  C60  1  0.11760000  0.94020000  0.80480000  1.0 -0.242225768
C  C61  1  0.75030000  0.49230000  0.86190000  1.0 -0.171078072
C  C62  1  0.53250000  0.16110000  0.70720000  1.0 -0.1201089638
C  C63  1  0.59370000  0.21090000  0.74830000  1.0 0.0316638187
C  C64  1  0.17328000  0.96172000  0.40090000  1.0 0.0701627695
C  C65  1  0.60120000  0.41700000  0.65970000  1.0 0.079780788
C  C66  1  0.35450000  0.89650000  0.23670000  1.0 0.1286587429
C  C67  1  0.96201000  0.93039000  0.28470000  1.0 -0.2682829144
C  C68  1  0.43540000  0.94080000  0.23050000  1.0 0.0498478548
C  C69  1  0.58210000  0.02010000  0.21650000  1.0 0.2199020711
C  C70  1  0.61850000  0.52390000  0.61400000  1.0 0.0701627695
C  C71  1  0.00065000  0.67995000  0.89750000  1.0 0.0896452715
C  C72  1  0.88020000  0.47280000  0.11660000  1.0 0.079780788
C  C73  1  0.84810000  0.54330000  0.60180000  1.0 0.1923873519
C  C74  1  0.83685000  0.24015000  0.38300000  1.0 0.0594426929
C  C75  1  0.85870000  0.92490000  0.22820000  1.0 0.0316638187
C  C76  1  0.22750000  0.21110000  0.75860000  1.0 0.2338761074
C  C77  1  0.33931000  0.90189000  0.28510000  1.0 -0.2503060517
C  C78  1  0.35331000  0.11069000  0.22930000  1.0 0.2800284383
C  C79  1  0.29377000  0.85103000  0.19490000  1.0 -0.2111346466
C  C80  1  0.40900000  0.18600000  0.20000000  1.0 -0.2215753006
C  C81  1  0.54930000  0.38010000  0.61270000  1.0 -0.1616957653
C  C82  1  0.72420000  0.49260000  0.55050000  1.0 -0.3571039977
C  C83  1  0.09450000  0.71110000  0.06270000  1.0 0.079780788
C  C84  1  0.62160000  0.28420000  0.75220000  1.0 0.1286587429
C  C85  1  0.73570000  0.86930000  0.17550000  1.0 -0.2215753006
C  C86  1  0.17080000  0.07000000  0.75520000  1.0 0.0316638187
C  C87  1  0.01320000  0.75000000  0.94890000  1.0 0.079780788
C  C88  1  0.53350000  0.41690000  0.56640000  1.0 0.0594426929
C  C89  1  0.21670000  0.10770000  0.80720000  1.0 -0.1411389279
C  C90  1  0.51740000  0.94840000  0.19760000  1.0 -0.1910664631
C  C91  1  0.80330000  0.89450000  0.17660000  1.0 -0.1300940354
C  C92  1  0.50660000  0.09360000  0.70500000  1.0 -0.2111346466
C  C93  1  0.24730000  0.17970000  0.80830000  1.0 -0.2279479777
C  C94  1  0.18080000  0.17300000  0.70940000  1.0 -0.2279479777
C  C95  1  0.76990000  0.90130000  0.27180000  1.0 -0.242225768
C  C96  1  0.29400000  0.89660000  0.38760000  1.0 -0.2013644538
C  C97  1  0.78680000  0.54260000  0.60000000  1.0 -0.0221347976
C  C98  1  0.54050000  0.07130000  0.74510000  1.0 0.2338761074
C  C99  1  0.78120000  0.42180000  0.89740000  1.0 -0.171078072
C  C100  1  0.84010000  0.92450000  0.27430000  1.0 -0.1300940354
C  C101  1  0.62990000  0.85310000  0.25790000  1.0 -0.2215753006
C  C102  1  0.63760000  0.29020000  0.20140000  1.0 -0.2503060517
C  C103  1  0.77190000  0.51690000  0.50610000  1.0 0.3988764045
C  C104  1  0.22320000  0.99620000  0.24820000  1.0 -0.2503060517
C  C105  1  0.62330000  0.21270000  0.29370000  1.0 -0.2503060517
C  C106  1  0.15330000  0.10290000  0.70790000  1.0 -0.1411389279
C  C107  1  0.60220000  0.31640000  0.70520000  1.0 -0.2585375749
C  C108  1  0.83060000  0.46660000  0.94390000  1.0 0.1000209603
C  C109  1  0.81200000  0.46120000  0.61910000  1.0 -0.4691718164
C  C110  1  0.57270000  0.04930000  0.24560000  1.0 -0.2279479777
C  C111  1  0.49890000  0.00850000  0.25210000  1.0 -0.1201089638
C  C112  1  0.71790000  0.12710000  0.22890000  1.0 -0.2279479777
C  C113  1  0.90160000  0.57420000  0.50850000  1.0 -0.4610991347
C  C114  1  0.45480000  0.95500000  0.70280000  1.0 -0.2279479777
C  C115  1  0.88000000  0.64960000  0.52920000  1.0 -0.2215753006
C  C116  1  0.92220000  0.59400000  0.64440000  1.0 -0.5003369394
C  C117  1  0.59840000  0.11780000  0.78810000  1.0 -0.2013644538
C  C118  1  0.23380000  0.31100000  0.71700000  1.0 -0.242225768
C  C119  1  0.83520000  0.62960000  0.57450000  1.0 -0.2279479777
C  C120  1  0.62620000  0.18760000  0.78930000  1.0 -0.107758956
C  C121  1  0.62080000  0.54580000  0.43540000  1.0 0.0409272838
C  C122  1  0.57801000  0.48819000  0.35090000  1.0 0.0896452715
C  C123  1  0.50500000  0.45260000  0.35230000  1.0 -0.171078072
C  C124  1  0.49240000  0.46520000  0.39610000  1.0 0.0594426929
C  C125  1  0.63620000  0.53400000  0.39500000  1.0 -0.171078072
C  C126  1  0.54860000  0.43680000  0.21110000  1.0 0.1989277658
C  C127  1  0.65870000  0.49330000  0.30910000  1.0 -0.242225768
C  C128  1  0.61372000  0.45208000  0.21380000  1.0 -0.2585375749
C  C129  1  0.59078000  0.47342000  0.30430000  1.0 0.2079014135
C  C130  1  0.67002000  0.48178000  0.26310000  1.0 0.1286587429
C  C131  1  0.78860000  0.51440000  0.31980000  1.0 -0.107758956
C  C132  1  0.48685000  0.40695000  0.15830000  1.0 0.0896452715
C  C133  1  0.42000000  0.38200000  0.16150000  1.0 -0.1616957653
C  C134  1  0.74380000  0.50740000  0.26560000  1.0 0.0316638187
C  C135  1  0.88610000  0.56450000  0.27110000  1.0 0.2395207641
C  C136  1  0.84150000  0.55810000  0.21420000  1.0 -0.2215753006
C  C137  1  0.49250000  0.39870000  0.10620000  1.0 -0.2013644538
C  C138  1  0.86130000  0.54610000  0.32200000  1.0 -0.2013644538
C  C139  1  0.76970000  0.52690000  0.21350000  1.0 -0.1411389279
C  C140  1  0.00910000  0.61450000  0.32120000  1.0 -0.2503060517
C  C141  1  0.36120000  0.35040000  0.11250000  1.0 0.0594426929
C  C142  1  0.43460000  0.36920000  0.06160000  1.0 0.0409272838
C  C143  1  0.71190000  0.73010000  0.41840000  1.0 -0.509666765
C  C144  1  0.10260000  0.56940000  0.08700000  1.0 -0.5630790237
C  C145  1  0.03680000  0.51320000  0.96900000  1.0 -0.5401506963
C  C146  1  0.69550000  0.76050000  0.51800000  1.0 -0.5003369394
C  C147  1  0.36050000  0.26950000  0.55900000  1.0 -0.5491948667
C  C148  1  0.26770000  0.27430000  0.44700000  1.0 -0.4409296406
C  C149  1  0.08409000  0.10251000  0.85510000  1.0 0.079780788
C  C150  1  0.38920000  0.76400000  0.84140000  1.0 0.1000209603
C  C151  1  0.87175000  0.09065000  0.19860000  1.0 0.1989277658
C  C152  1  0.95275000  0.93445000  0.76840000  1.0 0.1191917583
C  C153  1  0.81144000  0.09756000  0.39450000  1.0 0.0594426929
C  C154  1  0.23300000  0.73640000  0.65370000  1.0 0.0896452715
C  C155  1  0.25548000  0.80052000  0.66280000  1.0 -0.2013644538
C  C156  1  0.16642000  0.13578000  0.94560000  1.0 0.0409272838
C  C157  1  0.80750000  0.05990000  0.14520000  1.0 0.0896452715
C  C158  1  0.19055000  0.50865000  0.75840000  1.0 0.0316638187
C  C159  1  0.02841000  0.05179000  0.80690000  1.0 0.2199020711
C  C160  1  0.76281000  0.15159000  0.84480000  1.0 0.0896452715
C  C161  1  0.86083000  0.26437000  0.71200000  1.0 0.1923873519
C  C162  1  0.11470000  0.08570000  0.90520000  1.0 -0.1812527206
C  C163  1  0.16340000  0.22200000  0.88910000  1.0 0.0594426929
C  C164  1  0.10886000  0.17214000  0.84750000  1.0 -0.171078072
C  C165  1  0.19100000  0.70840000  0.60120000  1.0 -0.1812527206
C  C166  1  0.25000000  0.69780000  0.70500000  1.0 0.1923873519
C  C167  1  0.32608000  0.71172000  0.79270000  1.0 0.2079014135
C  C168  1  0.81168000  0.21852000  0.80020000  1.0 0.2079014135
C  C169  1  0.98559000  0.14521000  0.64810000  1.0 -0.2111346466
C  C170  1  0.00098000  0.97862000  0.81410000  1.0 -0.2585375749
C  C171  1  0.89489000  0.12051000  0.34670000  1.0 0.0896452715
C  C172  1  0.22570000  0.48470000  0.79370000  1.0 -0.1300940354
C  C173  1  0.48250000  0.79630000  0.92740000  1.0 0.0701627695
C  C174  1  0.93859000  0.06521000  0.66090000  1.0 0.079780788
C  C175  1  0.49260000  0.63840000  0.34020000  1.0 -0.1910664631
C  C176  1  0.66860000  0.01400000  0.87640000  1.0 0.0594426929
C  C177  1  0.23172000  0.58988000  0.75460000  1.0 0.1286587429
C  C178  1  0.81960000  0.16620000  0.66240000  1.0 -0.1812527206
C  C179  1  0.93860000  0.17340000  0.43470000  1.0 0.0316638187
C  C180  1  0.71550000  0.07670000  0.83500000  1.0 -0.171078072
C  C181  1  0.95270000  0.16350000  0.39240000  1.0 -0.1812527206
C  C182  1  0.85925000  0.24195000  0.66060000  1.0 0.0896452715
C  C183  1  0.90914000  0.11446000  0.29490000  1.0 0.2079014135
C  C184  1  0.99580000  0.14220000  0.24490000  1.0 0.1191917583
C  C185  1  0.85211000  0.05109000  0.57320000  1.0 0.0896452715
C  C186  1  0.41320000  0.83100000  0.84140000  1.0 -0.1616957653
C  C187  1  0.91070000  0.44570000  0.79780000  1.0 -0.102374548
C  C188  1  0.81330000  0.04890000  0.09630000  1.0 -0.1910664631
C  C189  1  0.38940000  0.68800000  0.19610000  1.0 0.1989277658
C  C190  1  0.43480000  0.74080000  0.14440000  1.0 0.0896452715
C  C191  1  0.89170000  0.26950000  0.56470000  1.0 0.0498478548
C  C192  1  0.11770000  0.45470000  0.72770000  1.0 -0.107758956
C  C193  1  0.42392000  0.74648000  0.88360000  1.0 -0.1910664631
C  C194  1  0.07798000  0.37942000  0.73350000  1.0 -0.2279479777
C  C195  1  0.81953000  0.14767000  0.61360000  1.0 0.1000209603
C  C196  1  0.75840000  0.15740000  0.89910000  1.0 -0.171078072
C  C197  1  0.57340000  0.85640000  0.46600000  1.0 0.0498478548
C  C198  1  0.53450000  0.80070000  0.09030000  1.0 0.0498478548
C  C199  1  0.38480000  0.62660000  0.29000000  1.0 0.2079014135
C  C200  1  0.17710000  0.74710000  0.55620000  1.0 0.0896452715
C  C201  1  0.74170000  0.03550000  0.14960000  1.0 -0.1616957653
C  C202  1  0.95983000  0.03397000  0.71310000  1.0 0.1923873519
C  C203  1  0.82160000  0.08520000  0.34980000  1.0 -0.1812527206
C  C204  1  0.97910000  0.13990000  0.29620000  1.0 -0.2503060517
C  C205  1  0.87060000  0.01740000  0.62170000  1.0 -0.2013644538
C  C206  1  0.87420000  0.71800000  0.77880000  1.0 0.2395207641
C  C207  1  0.32300000  0.66666667  0.19720000  1.0 -0.2279479777
C  C208  1  0.94020000  0.11760000  0.19520000  1.0 -0.242225768
C  C209  1  0.49230000  0.75030000  0.13810000  1.0 -0.171078072
C  C210  1  0.16110000  0.53250000  0.29280000  1.0 -0.1201089638
C  C211  1  0.21090000  0.59370000  0.25170000  1.0 0.0316638187
C  C212  1  0.96172000  0.17328000  0.59910000  1.0 0.0701627695
C  C213  1  0.41700000  0.60120000  0.34030000  1.0 0.079780788
C  C214  1  0.89650000  0.35450000  0.76330000  1.0 0.1286587429
C  C215  1  0.93039000  0.96201000  0.71530000  1.0 -0.2682829144
C  C216  1  0.94080000  0.43540000  0.76950000  1.0 0.0409272838
C  C217  1  0.02010000  0.58210000  0.78350000  1.0 0.2199020711
C  C218  1  0.52390000  0.61850000  0.38600000  1.0 0.0701627695
C  C219  1  0.67995000  0.00065000  0.10250000  1.0 0.0896452715
C  C220  1  0.47280000  0.88020000  0.88340000  1.0 0.079780788
C  C221  1  0.54330000  0.84810000  0.39820000  1.0 0.1923873519
C  C222  1  0.24015000  0.83685000  0.61700000  1.0 0.0594426929
C  C223  1  0.92490000  0.85870000  0.77180000  1.0 0.0316638187
C  C224  1  0.21110000  0.22750000  0.24140000  1.0 0.2338761074
C  C225  1  0.90189000  0.33931000  0.71490000  1.0 -0.2503060517
C  C226  1  0.11069000  0.35331000  0.77070000  1.0 0.2800284383
C  C227  1  0.85103000  0.29377000  0.80510000  1.0 -0.2111346466
C  C228  1  0.18600000  0.40900000  0.80000000  1.0 -0.2215753006
C  C229  1  0.38010000  0.54930000  0.38730000  1.0 -0.1616957653
C  C230  1  0.49260000  0.72420000  0.44950000  1.0 -0.3571039977
C  C231  1  0.71110000  0.09450000  0.93730000  1.0 0.079780788
C  C232  1  0.28420000  0.62160000  0.24780000  1.0 0.1286587429
C  C233  1  0.86930000  0.73570000  0.82450000  1.0 -0.2215753006
C  C234  1  0.07000000  0.17080000  0.24480000  1.0 0.0316638187
C  C235  1  0.75000000  0.01320000  0.05110000  1.0 0.079780788
C  C236  1  0.41690000  0.53350000  0.43360000  1.0 0.0594426929
C  C237  1  0.10770000  0.21670000  0.19280000  1.0 -0.1411389279
C  C238  1  0.94840000  0.51740000  0.80240000  1.0 -0.1910664631
C  C239  1  0.89450000  0.80330000  0.82340000  1.0 -0.1300940354
C  C240  1  0.09360000  0.50660000  0.29500000  1.0 -0.2111346466
C  C241  1  0.17970000  0.24730000  0.19170000  1.0 -0.2279479777
C  C242  1  0.17300000  0.18080000  0.29060000  1.0 -0.2279479777
C  C243  1  0.90130000  0.76990000  0.72820000  1.0 -0.242225768
C  C244  1  0.89660000  0.29400000  0.61240000  1.0 -0.2013644538
C  C245  1  0.54260000  0.78680000  0.40000000  1.0 -0.0221347976
C  C246  1  0.07130000  0.54050000  0.25490000  1.0 0.2338761074
C  C247  1  0.42180000  0.78120000  0.10260000  1.0 -0.171078072
C  C248  1  0.92450000  0.84010000  0.72570000  1.0 -0.1300940354
C  C249  1  0.85310000  0.62990000  0.74210000  1.0 -0.2215753006
C  C250  1  0.29020000  0.63760000  0.79860000  1.0 -0.2503060517
C  C251  1  0.51690000  0.77190000  0.49390000  1.0 0.3988764045
C  C252  1  0.99620000  0.22320000  0.75180000  1.0 -0.2503060517
C  C253  1  0.21270000  0.62330000  0.70630000  1.0 -0.2503060517
C  C254  1  0.10290000  0.15330000  0.29210000  1.0 -0.1411389279
C  C255  1  0.31640000  0.60220000  0.29480000  1.0 -0.2585375749
C  C256  1  0.46660000  0.83060000  0.05610000  1.0 0.1000209603
C  C257  1  0.46120000  0.81200000  0.38090000  1.0 -0.4691718164
C  C258  1  0.04930000  0.57270000  0.75440000  1.0 -0.2279479777
C  C259  1  0.00850000  0.49890000  0.74790000  1.0 -0.1201089638
C  C260  1  0.12710000  0.71790000  0.77110000  1.0 -0.2279479777
C  C261  1  0.57420000  0.90160000  0.49150000  1.0 -0.4610991347
C  C262  1  0.95500000  0.45480000  0.29720000  1.0 -0.2279479777
C  C263  1  0.64960000  0.88000000  0.47080000  1.0 -0.2215753006
C  C264  1  0.59400000  0.92220000  0.35560000  1.0 -0.5003369394
C  C265  1  0.11780000  0.59840000  0.21190000  1.0 -0.2013644538
C  C266  1  0.31100000  0.23380000  0.28300000  1.0 -0.242225768
C  C267  1  0.62960000  0.83520000  0.42550000  1.0 -0.2279479777
C  C268  1  0.18760000  0.62620000  0.21070000  1.0 -0.107758956
C  C269  1  0.54580000  0.62080000  0.56460000  1.0 0.0409272838
C  C270  1  0.48819000  0.57801000  0.64910000  1.0 0.0896452715
C  C271  1  0.45260000  0.50500000  0.64770000  1.0 -0.171078072
C  C272  1  0.46520000  0.49240000  0.60390000  1.0 0.0594426929
C  C273  1  0.53400000  0.63620000  0.60500000  1.0 -0.171078072
C  C274  1  0.43680000  0.54860000  0.78890000  1.0 0.1989277658
C  C275  1  0.49330000  0.65870000  0.69090000  1.0 -0.242225768
C  C276  1  0.45208000  0.61372000  0.78620000  1.0 -0.2585375749
C  C277  1  0.47342000  0.59078000  0.69570000  1.0 0.2079014135
C  C278  1  0.48178000  0.67002000  0.73690000  1.0 0.1286587429
C  C279  1  0.51440000  0.78860000  0.68020000  1.0 -0.107758956
C  C280  1  0.40695000  0.48685000  0.84170000  1.0 0.0896452715
C  C281  1  0.38200000  0.42000000  0.83850000  1.0 -0.1616957653
C  C282  1  0.50740000  0.74380000  0.73440000  1.0 0.0316638187
C  C283  1  0.56450000  0.88610000  0.72890000  1.0 0.2395207641
C  C284  1  0.55810000  0.84150000  0.78580000  1.0 -0.2215753006
C  C285  1  0.39870000  0.49250000  0.89380000  1.0 -0.2111346466
C  C286  1  0.54610000  0.86130000  0.67800000  1.0 -0.2013644538
C  C287  1  0.52690000  0.76970000  0.78650000  1.0 -0.1411389279
C  C288  1  0.61450000  0.00910000  0.67880000  1.0 -0.2503060517
C  C289  1  0.35040000  0.36120000  0.88750000  1.0 0.0594426929
C  C290  1  0.36920000  0.43460000  0.93840000  1.0 0.0409272838
C  C291  1  0.73010000  0.71190000  0.58160000  1.0 -0.509666765
C  C292  1  0.56940000  0.10260000  0.91300000  1.0 -0.5630790237
C  C293  1  0.51320000  0.03680000  0.03100000  1.0 -0.5401506963
C  C294  1  0.76050000  0.69550000  0.48200000  1.0 -0.5003369394
C  C295  1  0.26950000  0.36050000  0.44100000  1.0 -0.5491948667
C  C296  1  0.27430000  0.26770000  0.55300000  1.0 -0.4409296406
S  S1  1  0.97849000  0.65855000  0.46711000  1.0 1.215724921
S  S2  1  0.04547000  0.56033000  0.01660000  1.0 0.6195917186
S  S3  1  0.71730000  0.73250000  0.48580000  1.0 0.521050131
S  S4  1  0.34080000  0.31800000  0.50670000  1.0 0.4087422845
S  S5  1  0.65855000  0.97849000  0.53289000  1.0 1.215724921
S  S6  1  0.56033000  0.04547000  0.98340000  1.0 0.6195917186
S  S7  1  0.73250000  0.71730000  0.51420000  1.0 0.521050131
S  S8  1  0.31800000  0.34080000  0.49330000  1.0 0.4087422845
N  N1  1  0.20537000  0.19363000  0.06080000  1.0 -0.2111346466
N  N2  1  0.86203000  0.50697000  0.07340000  1.0 -0.2013644538
N  N3  1  0.14232000  0.86948000  0.56310000  1.0 -0.2111346466
N  N4  1  0.84420000  0.52520000  0.94830000  1.0 -0.2279479777
N  N5  1  0.09192000  0.85708000  0.75300000  1.0 -0.3266820255
N  N6  1  0.20597000  0.81703000  0.24690000  1.0 -0.322030479
N  N7  1  0.74142000  0.30578000  0.25180000  1.0 -0.3125221672
N  N8  1  0.12663000  0.89677000  0.43560000  1.0 -0.2111346466
N  N9  1  0.07714000  0.00746000  0.24200000  1.0 -0.3266820255
N  N10  1  0.19732000  0.85328000  0.43370000  1.0 -0.2111346466
N  N11  1  0.66751000  0.41889000  0.75830000  1.0 -0.3266820255
N  N12  1  0.81020000  0.20120000  0.43510000  1.0 -0.2013644538
N  N13  1  0.98866000  0.68534000  0.94520000  1.0 -0.2111346466
N  N14  1  0.02162000  0.66358000  0.07290000  1.0 -0.2279479777
N  N15  1  0.56781000  0.48699000  0.56830000  1.0 -0.2279479777
N  N16  1  0.54951000  0.51209000  0.43670000  1.0 -0.2279479777
N  N17  1  0.53580000  0.44460000  0.25660000  1.0 -0.3571039977
N  N18  1  0.36786000  0.34154000  0.06380000  1.0 -0.2111346466
N  N19  1  0.19363000  0.20537000  0.93920000  1.0 -0.2111346466
N  N20  1  0.50697000  0.86203000  0.92660000  1.0 -0.2013644538
N  N21  1  0.86948000  0.14232000  0.43690000  1.0 -0.2111346466
N  N22  1  0.52520000  0.84420000  0.05170000  1.0 -0.2279479777
N  N23  1  0.85708000  0.09192000  0.24700000  1.0 -0.3266820255
N  N24  1  0.81703000  0.20597000  0.75310000  1.0 -0.322030479
N  N25  1  0.30578000  0.74142000  0.74820000  1.0 -0.3125221672
N  N26  1  0.89677000  0.12663000  0.56440000  1.0 -0.2111346466
N  N27  1  0.00746000  0.07714000  0.75800000  1.0 -0.3266820255
N  N28  1  0.85328000  0.19732000  0.56630000  1.0 -0.2013644538
N  N29  1  0.41889000  0.66751000  0.24170000  1.0 -0.3266820255
N  N30  1  0.20120000  0.81020000  0.56490000  1.0 -0.2013644538
N  N31  1  0.68534000  0.98866000  0.05480000  1.0 -0.2111346466
N  N32  1  0.66358000  0.02162000  0.92710000  1.0 -0.2279479777
N  N33  1  0.48699000  0.56781000  0.43170000  1.0 -0.2279479777
N  N34  1  0.51209000  0.54951000  0.56330000  1.0 -0.2279479777
N  N35  1  0.44460000  0.53580000  0.74340000  1.0 -0.3571039977
N  N36  1  0.34154000  0.36786000  0.93620000  1.0 -0.2111346466
O  O1  1  0.03589000  0.72151000  0.50300000  1.0 -0.6703786495
O  O2  1  0.00926000  0.63694000  0.45250000  1.0 -0.6493153813
O  O3  1  0.28184000  0.07696000  0.22240000  1.0 -0.1489160153
O  O4  1  0.64939000  0.84821000  0.21390000  1.0 -0.1300940354
O  O5  1  0.25948000  0.28072000  0.76410000  1.0 -0.171078072
O  O6  1  0.51679000  0.00381000  0.74560000  1.0 -0.1411389279
O  O7  1  0.65310000  0.05450000  0.20830000  1.0 -0.1616957653
O  O8  1  0.94140000  0.67320000  0.41770000  1.0 -0.6036289576
O  O9  1  0.74350000  0.49050000  0.45850000  1.0 -0.4409296406
O  O10  1  0.95780000  0.60000000  0.26510000  1.0 -0.171078072
O  O11  1  0.99068000  0.56072000  0.01120000  1.0 -0.5491948667
O  O12  1  0.72151000  0.03589000  0.49700000  1.0 -0.6703786495
O  O13  1  0.63694000  0.00926000  0.54750000  1.0 -0.6493153813
O  O14  1  0.07696000  0.28184000  0.77760000  1.0 -0.1489160153
O  O15  1  0.84821000  0.64939000  0.78610000  1.0 -0.1300940354
O  O16  1  0.28072000  0.25948000  0.23590000  1.0 -0.171078072
O  O17  1  0.00381000  0.51679000  0.25440000  1.0 -0.1411389279
O  O18  1  0.05450000  0.65310000  0.79170000  1.0 -0.1616957653
O  O19  1  0.67320000  0.94140000  0.58230000  1.0 -0.6036289576
O  O20  1  0.49050000  0.74350000  0.54150000  1.0 -0.4409296406
O  O21  1  0.60000000  0.95780000  0.73490000  1.0 -0.171078072
O  O22  1  0.56072000  0.99068000  0.98880000  1.0 -0.5491948667
O  O23  1  0.65480000  0.65480000  0.50000000  1.0 -0.3019345048
O  O24  1  0.40120000  0.40120000  0.50000000  1.0 -0.4283864143
F  F1  1  0.78700000  0.23020000  0.00260000  1.0 -0.4610991347
F  F2  1  0.88120000  0.32720000  0.95080000  1.0 -0.4409296406
F  F3  1  0.77230000  0.28910000  0.91580000  1.0 -0.4894589204
F  F4  1  0.83880000  0.34680000  0.00260000  1.0 -0.4894589204
F  F5  1  0.23020000  0.78700000  0.99740000  1.0 -0.4610991347
F  F6  1  0.32720000  0.88120000  0.04920000  1.0 -0.4409296406
F  F7  1  0.28910000  0.77230000  0.08420000  1.0 -0.4894589204
F  F8  1  0.34680000  0.83880000  0.99740000  1.0 -0.4894589204
