# DDEC6 charges by PACMAN v1.1 (https://github.com/mtap-research/PACMAN-charge/)
data_NUFHOO_FSR_pacman
_symmetry_space_group_name_H-M   'P 1'
_cell_length_a   24.29190000
_cell_length_b   23.93020000
_cell_length_c   12.60590000
_cell_angle_alpha   76.43880000
_cell_angle_beta   73.26530000
_cell_angle_gamma   30.29590000
_symmetry_Int_Tables_number   1
_chemical_formula_structural   CuH58C52S4(NO)6
_chemical_formula_sum   'Cu2 H116 C104 S8 N12 O12'
_cell_volume   3538.61685720
_cell_formula_units_Z   2
loop_
 _symmetry_equiv_pos_site_id
 _symmetry_equiv_pos_as_xyz
  1  'x, y, z'
loop_
 _atom_site_type_symbol
 _atom_site_label
 _atom_site_symmetry_multiplicity
 _atom_site_fract_x
 _atom_site_fract_y
 _atom_site_fract_z
 _atom_site_occupancy
 _atom_site_charge
Cu  Cu1  1  0.25000000  0.25000000  0.25000000  1.0 0.7859833043
Cu  Cu2  1  0.00000000  0.00000000  0.00000000  1.0 0.665263335
H  H1  1  0.52114000  0.17220000  0.21758000  1.0 0.1498187186
H  H2  1  0.69606000  0.11704000  0.16280000  1.0 0.1309434236
H  H3  1  0.38382000  0.21342000  0.52372000  1.0 0.1309434236
H  H4  1  0.80765000  0.08589000  0.02097000  1.0 0.1199363848
H  H5  1  0.44529000  0.16875000  0.15663000  1.0 0.1199363848
H  H6  1  0.29035000  0.23629000  0.45855000  1.0 0.089431167
H  H7  1  0.92198000  0.04826000  0.23996000  1.0 0.109119322
H  H8  1  0.80807000  0.08433000  0.38629000  1.0 0.1309434236
H  H9  1  0.64657000  0.19091000  0.50365000  1.0 0.1309434236
H  H10  1  0.51268000  0.14680000  0.74576000  1.0 0.109119322
H  H11  1  0.47346000  0.18294000  0.93154000  1.0 0.0834201079
H  H12  1  0.51720000  0.31678000  0.84800000  1.0 0.1309434236
H  H13  1  0.55642000  0.28064000  0.66222000  1.0 0.109119322
H  H14  1  0.45099000  0.21837000  0.57815000  1.0 0.1309434236
H  H15  1  0.44356000  0.35280000  0.12324000  1.0 0.089431167
H  H16  1  0.50735000  0.32511000  0.00383000  1.0 0.1008334633
H  H17  1  0.56897000  0.23097000  0.08985000  1.0 0.1008334633
H  H18  1  0.34759000  0.61061000  0.17129000  1.0 0.1498187186
H  H19  1  0.31900000  0.65092000  0.05150000  1.0 0.1685929399
H  H20  1  0.23492000  0.68698000  0.15002000  1.0 0.1309434236
H  H21  1  0.27608000  0.82606000  0.19004000  1.0 0.1309434236
H  H22  1  0.28491000  0.82441000  0.06229000  1.0 0.1685929399
H  H23  1  0.37701000  0.71273000  0.12413000  1.0 0.1611042719
H  H24  1  0.49611000  0.94419000  0.96789000  1.0 0.089431167
H  H25  1  0.45165000  0.02469000  0.87009000  1.0 0.1409506451
H  H26  1  0.36993000  0.06801000  0.97951000  1.0 0.1498187186
H  H27  1  0.47786000  0.13754000  0.89988000  1.0 0.0738526013
H  H28  1  0.39158000  0.20812000  0.00912000  1.0 0.1309434236
H  H29  1  0.36052000  0.21102000  0.91248000  1.0 0.1409506451
H  H30  1  0.21758000  0.08908000  0.52114000  1.0 0.1498187186
H  H31  1  0.16280000  0.02410000  0.69606000  1.0 0.1309434236
H  H32  1  0.52372000  0.87904000  0.38382000  1.0 0.1309434236
H  H33  1  0.02097000  0.08549000  0.80765000  1.0 0.1199363848
H  H34  1  0.15663000  0.22933000  0.44529000  1.0 0.1199363848
H  H35  1  0.45855000  0.01481000  0.29035000  1.0 0.089431167
H  H36  1  0.23996000  0.78980000  0.92198000  1.0 0.109119322
H  H37  1  0.38629000  0.72131000  0.80807000  1.0 0.1309434236
H  H38  1  0.50365000  0.65887000  0.64657000  1.0 0.1309434236
H  H39  1  0.74576000  0.59476000  0.51268000  1.0 0.109119322
H  H40  1  0.93154000  0.41206000  0.47346000  1.0 0.0834201079
H  H41  1  0.84800000  0.31802000  0.51720000  1.0 0.1309434236
H  H42  1  0.66222000  0.50072000  0.55642000  1.0 0.109119322
H  H43  1  0.57815000  0.75249000  0.45099000  1.0 0.1309434236
H  H44  1  0.12324000  0.08040000  0.44356000  1.0 0.089431167
H  H45  1  0.00383000  0.16371000  0.50735000  1.0 0.1008334633
H  H46  1  0.08985000  0.11021000  0.56897000  1.0 0.1008334633
H  H47  1  0.17129000  0.87051000  0.34759000  1.0 0.1498187186
H  H48  1  0.05150000  0.97858000  0.31900000  1.0 0.1685929399
H  H49  1  0.15002000  0.92808000  0.23492000  1.0 0.1309434236
H  H50  1  0.19004000  0.70782000  0.27608000  1.0 0.1309434236
H  H51  1  0.06229000  0.82839000  0.28491000  1.0 0.1685929399
H  H52  1  0.12413000  0.78613000  0.37701000  1.0 0.1611042719
H  H53  1  0.96789000  0.59181000  0.49611000  1.0 0.089431167
H  H54  1  0.87009000  0.65357000  0.45165000  1.0 0.1409506451
H  H55  1  0.97951000  0.58255000  0.36993000  1.0 0.1498187186
H  H56  1  0.89988000  0.48472000  0.47786000  1.0 0.0738526013
H  H57  1  0.00912000  0.39118000  0.39158000  1.0 0.1309434236
H  H58  1  0.91248000  0.51598000  0.36052000  1.0 0.1409506451
H  H59  1  0.17220000  0.52114000  0.08908000  1.0 0.1498187186
H  H60  1  0.11704000  0.69606000  0.02410000  1.0 0.1309434236
H  H61  1  0.21342000  0.38382000  0.87904000  1.0 0.1309434236
H  H62  1  0.08589000  0.80765000  0.08549000  1.0 0.1199363848
H  H63  1  0.16875000  0.44529000  0.22933000  1.0 0.1199363848
H  H64  1  0.23629000  0.29035000  0.01481000  1.0 0.089431167
H  H65  1  0.04826000  0.92198000  0.78980000  1.0 0.109119322
H  H66  1  0.08433000  0.80807000  0.72131000  1.0 0.1309434236
H  H67  1  0.19091000  0.64657000  0.65887000  1.0 0.1309434236
H  H68  1  0.14680000  0.51268000  0.59476000  1.0 0.109119322
H  H69  1  0.18294000  0.47346000  0.41206000  1.0 0.0834201079
H  H70  1  0.31678000  0.51720000  0.31802000  1.0 0.1309434236
H  H71  1  0.28064000  0.55642000  0.50072000  1.0 0.109119322
H  H72  1  0.21837000  0.45099000  0.75249000  1.0 0.1309434236
H  H73  1  0.35280000  0.44356000  0.08040000  1.0 0.089431167
H  H74  1  0.32511000  0.50735000  0.16371000  1.0 0.1008334633
H  H75  1  0.23097000  0.56897000  0.11021000  1.0 0.1008334633
H  H76  1  0.61061000  0.34759000  0.87051000  1.0 0.1498187186
H  H77  1  0.65092000  0.31900000  0.97858000  1.0 0.1685929399
H  H78  1  0.68698000  0.23492000  0.92808000  1.0 0.1309434236
H  H79  1  0.82606000  0.27608000  0.70782000  1.0 0.1309434236
H  H80  1  0.82441000  0.28491000  0.82839000  1.0 0.1685929399
H  H81  1  0.71273000  0.37701000  0.78613000  1.0 0.1611042719
H  H82  1  0.94419000  0.49611000  0.59181000  1.0 0.089431167
H  H83  1  0.02469000  0.45165000  0.65357000  1.0 0.1409506451
H  H84  1  0.06801000  0.36993000  0.58255000  1.0 0.1498187186
H  H85  1  0.13754000  0.47786000  0.48472000  1.0 0.0738526013
H  H86  1  0.20812000  0.39158000  0.39118000  1.0 0.1309434236
H  H87  1  0.21102000  0.36052000  0.51598000  1.0 0.1409506451
H  H88  1  0.08908000  0.21758000  0.17220000  1.0 0.1498187186
H  H89  1  0.02410000  0.16280000  0.11704000  1.0 0.1309434236
H  H90  1  0.87904000  0.52372000  0.21342000  1.0 0.1309434236
H  H91  1  0.08549000  0.02097000  0.08589000  1.0 0.1199363848
H  H92  1  0.22933000  0.15663000  0.16875000  1.0 0.1199363848
H  H93  1  0.01481000  0.45855000  0.23629000  1.0 0.089431167
H  H94  1  0.78980000  0.23996000  0.04826000  1.0 0.109119322
H  H95  1  0.72131000  0.38629000  0.08433000  1.0 0.1309434236
H  H96  1  0.65887000  0.50365000  0.19091000  1.0 0.1309434236
H  H97  1  0.59476000  0.74576000  0.14680000  1.0 0.109119322
H  H98  1  0.41206000  0.93154000  0.18294000  1.0 0.0834201079
H  H99  1  0.31802000  0.84800000  0.31678000  1.0 0.1309434236
H  H100  1  0.50072000  0.66222000  0.28064000  1.0 0.109119322
H  H101  1  0.75249000  0.57815000  0.21837000  1.0 0.1309434236
H  H102  1  0.08040000  0.12324000  0.35280000  1.0 0.089431167
H  H103  1  0.16371000  0.00383000  0.32511000  1.0 0.1008334633
H  H104  1  0.11021000  0.08985000  0.23097000  1.0 0.1008334633
H  H105  1  0.87051000  0.17129000  0.61061000  1.0 0.1498187186
H  H106  1  0.97858000  0.05150000  0.65092000  1.0 0.1685929399
H  H107  1  0.92808000  0.15002000  0.68698000  1.0 0.1309434236
H  H108  1  0.70782000  0.19004000  0.82606000  1.0 0.1309434236
H  H109  1  0.82839000  0.06229000  0.82441000  1.0 0.1685929399
H  H110  1  0.78613000  0.12413000  0.71273000  1.0 0.1611042719
H  H111  1  0.59181000  0.96789000  0.94419000  1.0 0.089431167
H  H112  1  0.65357000  0.87009000  0.02469000  1.0 0.1409506451
H  H113  1  0.58255000  0.97951000  0.06801000  1.0 0.1498187186
H  H114  1  0.48472000  0.89988000  0.13754000  1.0 0.0738526013
H  H115  1  0.39118000  0.00912000  0.20812000  1.0 0.1309434236
H  H116  1  0.51598000  0.91248000  0.21102000  1.0 0.1409506451
C  C1  1  0.46967000  0.18387000  0.37833000  1.0 0.089431167
C  C2  1  0.47921000  0.17881000  0.26819000  1.0 -0.1520730901
C  C3  1  0.73986000  0.10546000  0.18114000  1.0 -0.1581416626
C  C4  1  0.39494000  0.20694000  0.44766000  1.0 -0.1823038656
C  C5  1  0.73205000  0.11305000  0.28895000  1.0 0.0834201079
C  C6  1  0.81175000  0.08055000  0.09465000  1.0 0.0566351943
C  C7  1  0.42867000  0.18347000  0.23133000  1.0 0.0566351943
C  C8  1  0.34034000  0.21954000  0.40906000  1.0 0.089431167
C  C9  1  0.64817000  0.14977000  0.37623000  1.0 0.2160571467
C  C10  1  0.52194000  0.18274000  0.42046000  1.0 0.1891955946
C  C11  1  0.87853000  0.05873000  0.22347000  1.0 0.109119322
C  C12  1  0.80586000  0.08546000  0.31334000  1.0 -0.2097318916
C  C13  1  0.62440000  0.17720000  0.48520000  1.0 -0.2564260263
C  C14  1  0.56610000  0.18270000  0.56490000  1.0 0.1199363848
C  C15  1  0.53839000  0.21019000  0.68561000  1.0 0.0375798706
C  C16  1  0.51353000  0.18093000  0.76627000  1.0 -0.1395170923
C  C17  1  0.49010000  0.20250000  0.87750000  1.0 -0.2097318916
C  C18  1  0.49140000  0.25340000  0.90820000  1.0 0.2381920617
C  C19  1  0.51630000  0.28270000  0.82750000  1.0 -0.2097318916
C  C20  1  0.53983000  0.26103000  0.71617000  1.0 -0.1395170923
C  C21  1  0.50340000  0.19820000  0.52840000  1.0 -0.2419198415
C  C22  1  0.49970000  0.29810000  0.06390000  1.0 -0.2682768304
C  C23  1  0.28900000  0.67100000  0.12900000  1.0 -0.5826557774
C  C24  1  0.29900000  0.78760000  0.13040000  1.0 -0.587028702
C  C25  1  0.44380000  0.01900000  0.94920000  1.0 -0.4594091672
C  C26  1  0.41940000  0.16520000  0.95080000  1.0 -0.5643329818
C  C27  1  0.37833000  0.96813000  0.46967000  1.0 0.089431167
C  C28  1  0.26819000  0.07379000  0.47921000  1.0 -0.1520730901
C  C29  1  0.18114000  0.97354000  0.73986000  1.0 -0.1581416626
C  C30  1  0.44766000  0.95046000  0.39494000  1.0 -0.1823038656
C  C31  1  0.28895000  0.86595000  0.73205000  1.0 0.0834201079
C  C32  1  0.09465000  0.01305000  0.81175000  1.0 0.0566351943
C  C33  1  0.23133000  0.15653000  0.42867000  1.0 0.0566351943
C  C34  1  0.40906000  0.03106000  0.34034000  1.0 0.089431167
C  C35  1  0.37623000  0.82583000  0.64817000  1.0 0.2160571467
C  C36  1  0.42046000  0.87486000  0.52194000  1.0 0.1891955946
C  C37  1  0.22347000  0.83927000  0.87853000  1.0 0.109119322
C  C38  1  0.31334000  0.79534000  0.80586000  1.0 -0.2097318916
C  C39  1  0.48520000  0.71320000  0.62440000  1.0 -0.2564260263
C  C40  1  0.56490000  0.68630000  0.56610000  1.0 0.1199363848
C  C41  1  0.68561000  0.56581000  0.53839000  1.0 0.0375798706
C  C42  1  0.76627000  0.53927000  0.51353000  1.0 -0.1395170923
C  C43  1  0.87750000  0.42990000  0.49010000  1.0 -0.2097318916
C  C44  1  0.90820000  0.34700000  0.49140000  1.0 0.2381920617
C  C45  1  0.82750000  0.37350000  0.51630000  1.0 -0.2097318916
C  C46  1  0.71617000  0.48297000  0.53983000  1.0 -0.1395170923
C  C47  1  0.52840000  0.77000000  0.50340000  1.0 -0.2419198415
C  C48  1  0.06390000  0.13830000  0.49970000  1.0 -0.2682768304
C  C49  1  0.12900000  0.91100000  0.28900000  1.0 -0.5826557774
C  C50  1  0.13040000  0.78300000  0.29900000  1.0 -0.587028702
C  C51  1  0.94920000  0.58800000  0.44380000  1.0 -0.4594091672
C  C52  1  0.95080000  0.46460000  0.41940000  1.0 -0.5643329818
C  C53  1  0.18387000  0.46967000  0.96813000  1.0 0.089431167
C  C54  1  0.17881000  0.47921000  0.07379000  1.0 -0.1520730901
C  C55  1  0.10546000  0.73986000  0.97354000  1.0 -0.1581416626
C  C56  1  0.20694000  0.39494000  0.95046000  1.0 -0.1823038656
C  C57  1  0.11305000  0.73205000  0.86595000  1.0 0.0834201079
C  C58  1  0.08055000  0.81175000  0.01305000  1.0 0.0566351943
C  C59  1  0.18347000  0.42867000  0.15653000  1.0 0.0566351943
C  C60  1  0.21954000  0.34034000  0.03106000  1.0 0.089431167
C  C61  1  0.14977000  0.64817000  0.82583000  1.0 0.2160571467
C  C62  1  0.18274000  0.52194000  0.87486000  1.0 0.1891955946
C  C63  1  0.05873000  0.87853000  0.83927000  1.0 0.109119322
C  C64  1  0.08546000  0.80586000  0.79534000  1.0 -0.2097318916
C  C65  1  0.17720000  0.62440000  0.71320000  1.0 -0.2564260263
C  C66  1  0.18270000  0.56610000  0.68630000  1.0 0.1199363848
C  C67  1  0.21019000  0.53839000  0.56581000  1.0 0.0375798706
C  C68  1  0.18093000  0.51353000  0.53927000  1.0 -0.1395170923
C  C69  1  0.20250000  0.49010000  0.42990000  1.0 -0.2097318916
C  C70  1  0.25340000  0.49140000  0.34700000  1.0 0.2381920617
C  C71  1  0.28270000  0.51630000  0.37350000  1.0 -0.2097318916
C  C72  1  0.26103000  0.53983000  0.48297000  1.0 -0.1395170923
C  C73  1  0.19820000  0.50340000  0.77000000  1.0 -0.2419198415
C  C74  1  0.29810000  0.49970000  0.13830000  1.0 -0.2682768304
C  C75  1  0.67100000  0.28900000  0.91100000  1.0 -0.5826557774
C  C76  1  0.78760000  0.29900000  0.78300000  1.0 -0.587028702
C  C77  1  0.01900000  0.44380000  0.58800000  1.0 -0.4594091672
C  C78  1  0.16520000  0.41940000  0.46460000  1.0 -0.5643329818
C  C79  1  0.96813000  0.37833000  0.18387000  1.0 0.089431167
C  C80  1  0.07379000  0.26819000  0.17881000  1.0 -0.1520730901
C  C81  1  0.97354000  0.18114000  0.10546000  1.0 -0.1581416626
C  C82  1  0.95046000  0.44766000  0.20694000  1.0 -0.1823038656
C  C83  1  0.86595000  0.28895000  0.11305000  1.0 0.0834201079
C  C84  1  0.01305000  0.09465000  0.08055000  1.0 0.0566351943
C  C85  1  0.15653000  0.23133000  0.18347000  1.0 0.0566351943
C  C86  1  0.03106000  0.40906000  0.21954000  1.0 0.089431167
C  C87  1  0.82583000  0.37623000  0.14977000  1.0 0.2160571467
C  C88  1  0.87486000  0.42046000  0.18274000  1.0 0.1891955946
C  C89  1  0.83927000  0.22347000  0.05873000  1.0 0.109119322
C  C90  1  0.79534000  0.31334000  0.08546000  1.0 -0.2097318916
C  C91  1  0.71320000  0.48520000  0.17720000  1.0 -0.2564260263
C  C92  1  0.68630000  0.56490000  0.18270000  1.0 0.1309434236
C  C93  1  0.56581000  0.68561000  0.21019000  1.0 0.0375798706
C  C94  1  0.53927000  0.76627000  0.18093000  1.0 -0.1395170923
C  C95  1  0.42990000  0.87750000  0.20250000  1.0 -0.2097318916
C  C96  1  0.34700000  0.90820000  0.25340000  1.0 0.2381920617
C  C97  1  0.37350000  0.82750000  0.28270000  1.0 -0.2097318916
C  C98  1  0.48297000  0.71617000  0.26103000  1.0 -0.1395170923
C  C99  1  0.77000000  0.52840000  0.19820000  1.0 -0.2419198415
C  C100  1  0.13830000  0.06390000  0.29810000  1.0 -0.2682768304
C  C101  1  0.91100000  0.12900000  0.67100000  1.0 -0.5826557774
C  C102  1  0.78300000  0.13040000  0.78760000  1.0 -0.587028702
C  C103  1  0.58800000  0.94920000  0.01900000  1.0 -0.4594091672
C  C104  1  0.46460000  0.95080000  0.16520000  1.0 -0.5643329818
S  S1  1  0.22580000  0.78700000  0.16240000  1.0 0.5410730641
S  S2  1  0.46831000  0.05531000  0.00349000  1.0 0.4771281507
S  S3  1  0.16240000  0.82480000  0.22580000  1.0 0.5410730641
S  S4  1  0.00349000  0.47289000  0.46831000  1.0 0.4771281507
S  S5  1  0.78700000  0.22580000  0.82480000  1.0 0.5410730641
S  S6  1  0.05531000  0.46831000  0.47289000  1.0 0.4771281507
S  S7  1  0.82480000  0.16240000  0.78700000  1.0 0.5410730641
S  S8  1  0.47289000  0.00349000  0.05531000  1.0 0.4771281507
N  N1  1  0.35337000  0.20937000  0.30063000  1.0 -0.2482994396
N  N2  1  0.88770000  0.04830000  0.12090000  1.0 -0.2419198415
N  N3  1  0.59644000  0.15384000  0.34336000  1.0 -0.3189292747
N  N4  1  0.30063000  0.13663000  0.35337000  1.0 -0.2482994396
N  N5  1  0.12090000  0.94310000  0.88770000  1.0 -0.2419198415
N  N6  1  0.34336000  0.90636000  0.59644000  1.0 -0.3189292747
N  N7  1  0.20937000  0.35337000  0.13663000  1.0 -0.2482994396
N  N8  1  0.04830000  0.88770000  0.94310000  1.0 -0.2419198415
N  N9  1  0.15384000  0.59644000  0.90636000  1.0 -0.3189292747
N  N10  1  0.13663000  0.30063000  0.20937000  1.0 -0.2482994396
N  N11  1  0.94310000  0.12090000  0.04830000  1.0 -0.2419198415
N  N12  1  0.90636000  0.34336000  0.15384000  1.0 -0.3189292747
O  O1  1  0.46670000  0.27510000  0.02370000  1.0 -0.2419198415
O  O2  1  0.12790000  0.87550000  0.13450000  1.0 -0.4199214775
O  O3  1  0.10570000  0.39470000  0.38750000  1.0 -0.4402124483
O  O4  1  0.02370000  0.23450000  0.46670000  1.0 -0.2419198415
O  O5  1  0.13450000  0.86210000  0.12790000  1.0 -0.4199214775
O  O6  1  0.38750000  0.11210000  0.10570000  1.0 -0.4402124483
O  O7  1  0.27510000  0.46670000  0.23450000  1.0 -0.2419198415
O  O8  1  0.87550000  0.12790000  0.86210000  1.0 -0.4199214775
O  O9  1  0.39470000  0.10570000  0.11210000  1.0 -0.4402124483
O  O10  1  0.23450000  0.02370000  0.27510000  1.0 -0.2419198415
O  O11  1  0.86210000  0.13450000  0.87550000  1.0 -0.4199214775
O  O12  1  0.11210000  0.38750000  0.39470000  1.0 -0.4402124483
