# DDEC6 charges by PACMAN v1.1 (https://github.com/mtap-research/PACMAN-charge/)
data_NUFJAC_ion_pacman
_symmetry_space_group_name_H-M   'P 1'
_cell_length_a   26.26040000
_cell_length_b   26.26040000
_cell_length_c   23.83890000
_cell_angle_alpha   71.07720000
_cell_angle_beta   108.92300000
_cell_angle_gamma   138.54300000
_symmetry_Int_Tables_number   1
_chemical_formula_structural   Cu6B2H268C296S7N36(O3F)8
_chemical_formula_sum   'Cu6 B2 H268 C296 S7 N36 O24 F8'
_cell_volume   10208.67946983
_cell_formula_units_Z   1
loop_
 _symmetry_equiv_pos_site_id
 _symmetry_equiv_pos_as_xyz
  1  'x, y, z'
loop_
 _atom_site_type_symbol
 _atom_site_label
 _atom_site_symmetry_multiplicity
 _atom_site_fract_x
 _atom_site_fract_y
 _atom_site_fract_z
 _atom_site_occupancy
 _atom_site_charge
Cu  Cu1  1  0.76168000  0.09784000  0.48963000  1.0 0.5431016177
Cu  Cu2  1  0.83683000  0.52619000  0.99985000  1.0 0.372391501
Cu  Cu3  1  0.09784000  0.76168000  0.51037000  1.0 0.5431016177
Cu  Cu4  1  0.52619000  0.83683000  0.00015000  1.0 0.372391501
Cu  Cu5  1  0.41690000  0.41690000  0.50000000  1.0 0.2373487293
Cu  Cu6  1  0.16401000  0.16401000  0.00000000  1.0 0.4368810743
B  B1  1  0.39760000  0.87500000  0.47110000  1.0 1.0024827212
B  B2  1  0.87500000  0.39760000  0.52890000  1.0 1.0024827212
H  H1  1  0.27438000  0.22960000  0.82271000  1.0 0.1299471303
H  H2  1  0.59812000  0.89958000  0.11573000  1.0 0.1108048503
H  H3  1  0.67333000  0.88441000  0.04584000  1.0 0.1108048503
H  H4  1  0.73577000  0.68151000  0.35074000  1.0 0.1198994696
H  H5  1  0.17216000  0.41664000  0.31283000  1.0 0.1008393174
H  H6  1  0.51539000  0.66243000  0.17391000  1.0 0.1299471303
H  H7  1  0.53783000  0.67797000  0.83107000  1.0 0.1198994696
H  H8  1  0.63890000  0.91372000  0.82023000  1.0 0.1389321882
H  H9  1  0.57269000  0.50979000  0.48192000  1.0 0.1008393174
H  H10  1  0.56285000  0.89637000  0.19496000  1.0 0.1389321882
H  H11  1  0.50827000  0.60549000  0.31362000  1.0 0.1198994696
H  H12  1  0.61881000  0.93017000  0.89664000  1.0 0.1198994696
H  H13  1  0.19510000  0.30486000  0.96615000  1.0 0.1108048503
H  H14  1  0.46706000  0.69814000  0.09027000  1.0 0.1008393174
H  H15  1  0.62340000  0.97718000  0.29881000  1.0 0.1198994696
H  H16  1  0.96679000  0.54293000  0.01985000  1.0 0.1198994696
H  H17  1  0.27710000  0.15610000  0.60030000  1.0 0.1299471303
H  H18  1  0.62460000  0.83310000  0.59140000  1.0 0.1198994696
H  H19  1  0.57215000  0.74187000  0.65997000  1.0 0.1108048503
H  H20  1  0.87552000  0.41326000  0.20024000  1.0 0.1198994696
H  H21  1  0.18308000  0.99922000  0.84372000  1.0 0.1299471303
H  H22  1  0.24799000  0.07347000  0.68113000  1.0 0.1108048503
H  H23  1  0.65498000  0.59226000  0.41304000  1.0 0.1299471303
H  H24  1  0.01213000  0.17023000  0.81101000  1.0 0.1299471303
H  H25  1  0.91070000  0.18968000  0.45726000  1.0 0.1008393174
H  H26  1  0.29224000  0.83292000  0.31009000  1.0 0.1198994696
H  H27  1  0.25392000  0.25152000  0.89754000  1.0 0.1008393174
H  H28  1  0.42403000  0.51309000  0.38352000  1.0 0.1008393174
H  H29  1  0.33059000  0.25369000  0.52787000  1.0 0.1008393174
H  H30  1  0.75980000  0.79512000  0.18310000  1.0 0.1198994696
H  H31  1  0.80852000  0.43244000  0.12051000  1.0 0.1008393174
H  H32  1  0.30998000  0.28232000  0.69366000  1.0 0.1299471303
H  H33  1  0.68137000  0.93535000  0.51635000  1.0 0.1108048503
H  H34  1  0.05550000  0.12220000  0.88547000  1.0 0.1008393174
H  H35  1  0.39034000  0.78104000  0.03155000  1.0 0.1008393174
H  H36  1  0.22223000  0.59708000  0.20193000  1.0 0.1008393174
H  H37  1  0.99210000  0.28340000  0.38728000  1.0 0.1299471303
H  H38  1  0.01027000  0.38817000  0.66552000  1.0 0.1299471303
H  H39  1  0.72857000  0.05489000  0.36958000  1.0 0.1008393174
H  H40  1  0.48516000  0.90282000  0.40671000  1.0 0.1299471303
H  H41  1  0.38895000  0.84497000  0.33795000  1.0 0.1299471303
H  H42  1  0.16972000  0.95264000  0.67525000  1.0 0.1008393174
H  H43  1  0.84935000  0.30617000  0.31518000  1.0 0.1389321882
H  H44  1  0.03322000  0.52444000  0.09617000  1.0 0.1389321882
H  H45  1  0.46797000  0.60762000  0.66041000  1.0 0.1108048503
H  H46  1  0.18359000  0.51907000  0.82027000  1.0 0.1008393174
H  H47  1  0.13367000  0.00645000  0.89402000  1.0 0.1496305168
H  H48  1  0.16957000  0.76651000  0.32161000  1.0 0.1299471303
H  H49  1  0.09706000  0.51840000  0.17546000  1.0 0.1198994696
H  H50  1  0.07492000  0.39090000  0.33440000  1.0 0.1198994696
H  H51  1  0.41445000  0.48661000  0.65849000  1.0 0.1198994696
H  H52  1  0.11624000  0.03192000  0.96460000  1.0 0.1008393174
H  H53  1  0.59064000  0.98278000  0.47262000  1.0 0.1108048503
H  H54  1  0.50824000  0.69088000  0.89410000  1.0 0.1389321882
H  H55  1  0.76544000  0.20304000  0.38124000  1.0 0.1198994696
H  H56  1  0.17497000  0.36579000  0.88849000  1.0 0.1389321882
H  H57  1  0.57038000  0.61400000  0.82520000  1.0 0.1108048503
H  H58  1  0.52517000  0.49817000  0.82338000  1.0 0.1198994696
H  H59  1  0.22945000  0.63413000  0.82272000  1.0 0.1198994696
H  H60  1  0.96905000  0.19023000  0.66632000  1.0 0.1198994696
H  H61  1  0.34980000  0.66556000  0.21282000  1.0 0.1108048503
H  H62  1  0.12057000  0.40077000  0.82947000  1.0 0.1198994696
H  H63  1  0.72971000  0.85637000  0.12923000  1.0 0.1389321882
H  H64  1  0.26796000  0.92784000  0.09357000  1.0 0.1299471303
H  H65  1  0.23115000  0.84381000  0.11517000  1.0 0.1299471303
H  H66  1  0.25080000  0.89064000  0.15989000  1.0 0.1198994696
H  H67  1  0.12253000  0.83327000  0.67943000  1.0 0.1108048503
H  H68  1  0.88677000  0.12199000  0.58380000  1.0 0.1008393174
H  H69  1  0.49328000  0.71414000  0.96680000  1.0 0.1008393174
H  H70  1  0.93499000  0.78943000  0.19605000  1.0 0.1198994696
H  H71  1  0.25132000  0.78674000  0.79124000  1.0 0.1198994696
H  H72  1  0.28447000  0.75531000  0.79360000  1.0 0.1008393174
H  H73  1  0.22468000  0.71392000  0.83654000  1.0 0.1108048503
H  H74  1  0.30037000  0.48419000  0.32673000  1.0 0.1299471303
H  H75  1  0.99659000  0.84609000  0.35823000  1.0 0.1198994696
H  H76  1  0.34543000  0.76565000  0.10975000  1.0 0.1299471303
H  H77  1  0.14027000  0.80031000  0.85877000  1.0 0.1299471303
H  H78  1  0.88363000  0.80615000  0.35522000  1.0 0.1198994696
H  H79  1  0.51904000  0.71430000  0.25916000  1.0 0.1299471303
H  H80  1  0.47263000  0.72729000  0.26725000  1.0 0.1198994696
H  H81  1  0.45413000  0.69839000  0.20866000  1.0 0.1108048503
H  H82  1  0.20109000  0.66179000  0.23470000  1.0 0.1008393174
H  H83  1  0.31141000  0.75599000  0.18739000  1.0 0.1198994696
H  H84  1  0.84304000  0.24266000  0.52573000  1.0 0.1198994696
H  H85  1  0.16806000  0.92658000  0.13658000  1.0 0.0800868911
H  H86  1  0.82156000  0.75590000  0.18882000  1.0 0.1108048503
H  H87  1  0.70637000  0.05631000  0.60607000  1.0 0.1198994696
H  H88  1  0.05286000  0.63516000  0.81144000  1.0 0.1198994696
H  H89  1  0.04396000  0.67424000  0.83943000  1.0 0.1198994696
H  H90  1  0.12543000  0.70699000  0.84570000  1.0 0.1108048503
H  H91  1  0.18332000  0.99390000  0.03074000  1.0 0.1198994696
H  H92  1  0.25108000  0.00124000  0.06300000  1.0 0.1198994696
H  H93  1  0.15913000  0.82423000  0.98305000  1.0 0.1496305168
H  H94  1  0.13063000  0.76571000  0.04150000  1.0 0.1389321882
H  H95  1  0.35942000  0.37738000  0.61532000  1.0 0.1008393174
H  H96  1  0.91488000  0.30868000  0.60564000  1.0 0.1389321882
H  H97  1  0.07519000  0.59623000  0.23918000  1.0 0.1108048503
H  H98  1  0.43298000  0.33374000  0.77184000  1.0 0.1299471303
H  H99  1  0.44900000  0.37546000  0.81926000  1.0 0.1198994696
H  H100  1  0.51505000  0.41755000  0.78297000  1.0 0.1198994696
H  H101  1  0.19226000  0.92366000  0.85476000  1.0 0.1198994696
H  H102  1  0.11596000  0.86114000  0.25261000  1.0 0.1299471303
H  H103  1  0.06589000  0.87211000  0.20601000  1.0 0.1108048503
H  H104  1  0.02718000  0.78864000  0.23575000  1.0 0.1299471303
H  H105  1  0.92334000  0.53660000  0.28095000  1.0 0.1299471303
H  H106  1  0.97734000  0.52492000  0.29927000  1.0 0.1198994696
H  H107  1  0.97065000  0.56075000  0.23402000  1.0 0.1008393174
H  H108  1  0.04741000  0.74757000  0.13689000  1.0 0.1108048503
H  H109  1  0.12125000  0.78373000  0.18441000  1.0 0.1299471303
H  H110  1  0.09785000  0.73513000  0.13917000  1.0 0.1299471303
H  H111  1  0.02896000  0.47774000  0.68245000  1.0 0.1198994696
H  H112  1  0.08182000  0.59858000  0.68202000  1.0 0.1198994696
H  H113  1  0.02407000  0.82075000  0.98880000  1.0 0.1108048503
H  H114  1  0.00108000  0.75576000  0.04357000  1.0 0.0901508592
H  H115  1  0.06127000  0.89715000  0.04945000  1.0 0.0688669229
H  H116  1  0.03144000  0.82940000  0.10284000  1.0 0.0800868911
H  H117  1  0.61153000  0.16199000  0.53744000  1.0 0.1603977918
H  H118  1  0.70076000  0.21914000  0.53871000  1.0 0.1496305168
H  H119  1  0.65353000  0.13973000  0.58053000  1.0 0.1496305168
H  H120  1  0.01312000  0.94834000  0.09085000  1.0 0.1008393174
H  H121  1  0.93615000  0.92229000  0.08963000  1.0 0.1389321882
H  H122  1  0.01624000  0.00866000  0.09603000  1.0 0.1496305168
H  H123  1  0.93806000  0.02518000  0.91814000  1.0 0.1108048503
H  H124  1  0.96723000  0.05953000  0.97700000  1.0 0.1299471303
H  H125  1  0.88712000  0.97316000  0.97061000  1.0 0.1299471303
H  H126  1  0.53074000  0.08930000  0.43256000  1.0 0.1720884979
H  H127  1  0.53900000  0.03862000  0.42524000  1.0 0.1603977918
H  H128  1  0.59475000  0.12579000  0.39676000  1.0 0.1299471303
H  H129  1  0.40940000  0.38912000  0.92989000  1.0 0.0688669229
H  H130  1  0.46809000  0.47051000  0.95111000  1.0 0.1299471303
H  H131  1  0.38849000  0.43509000  0.91317000  1.0 0.1198994696
H  H132  1  0.31353000  0.38541000  0.05459000  1.0 0.1198994696
H  H133  1  0.31182000  0.42988000  0.99275000  1.0 0.1389321882
H  H134  1  0.39141000  0.46529000  0.03069000  1.0 0.1008393174
H  H135  1  0.22960000  0.27438000  0.17729000  1.0 0.1299471303
H  H136  1  0.89958000  0.59812000  0.88427000  1.0 0.1108048503
H  H137  1  0.88441000  0.67333000  0.95416000  1.0 0.1108048503
H  H138  1  0.68151000  0.73577000  0.64926000  1.0 0.1198994696
H  H139  1  0.41664000  0.17216000  0.68717000  1.0 0.1008393174
H  H140  1  0.66243000  0.51539000  0.82609000  1.0 0.1299471303
H  H141  1  0.67797000  0.53783000  0.16893000  1.0 0.1198994696
H  H142  1  0.91372000  0.63890000  0.17977000  1.0 0.1389321882
H  H143  1  0.50979000  0.57269000  0.51808000  1.0 0.1008393174
H  H144  1  0.89637000  0.56285000  0.80504000  1.0 0.1389321882
H  H145  1  0.60549000  0.50827000  0.68638000  1.0 0.1198994696
H  H146  1  0.93017000  0.61881000  0.10336000  1.0 0.1198994696
H  H147  1  0.30486000  0.19510000  0.03385000  1.0 0.1108048503
H  H148  1  0.69814000  0.46706000  0.90973000  1.0 0.1008393174
H  H149  1  0.97718000  0.62340000  0.70119000  1.0 0.1198994696
H  H150  1  0.54293000  0.96679000  0.98015000  1.0 0.1198994696
H  H151  1  0.15610000  0.27710000  0.39970000  1.0 0.1299471303
H  H152  1  0.83310000  0.62460000  0.40860000  1.0 0.1198994696
H  H153  1  0.74187000  0.57215000  0.34003000  1.0 0.1108048503
H  H154  1  0.41326000  0.87552000  0.79976000  1.0 0.1198994696
H  H155  1  0.99922000  0.18308000  0.15628000  1.0 0.1299471303
H  H156  1  0.07347000  0.24799000  0.31887000  1.0 0.1108048503
H  H157  1  0.59226000  0.65498000  0.58696000  1.0 0.1299471303
H  H158  1  0.17023000  0.01213000  0.18899000  1.0 0.1299471303
H  H159  1  0.18968000  0.91070000  0.54274000  1.0 0.1008393174
H  H160  1  0.83292000  0.29224000  0.68991000  1.0 0.1198994696
H  H161  1  0.25152000  0.25392000  0.10246000  1.0 0.1008393174
H  H162  1  0.51309000  0.42403000  0.61648000  1.0 0.1008393174
H  H163  1  0.25369000  0.33059000  0.47213000  1.0 0.1008393174
H  H164  1  0.79511000  0.75979000  0.81690000  1.0 0.1198994696
H  H165  1  0.43244000  0.80852000  0.87949000  1.0 0.1008393174
H  H166  1  0.28232000  0.30998000  0.30634000  1.0 0.1299471303
H  H167  1  0.93535000  0.68137000  0.48365000  1.0 0.1108048503
H  H168  1  0.12220000  0.05550000  0.11453000  1.0 0.1008393174
H  H169  1  0.78104000  0.39034000  0.96845000  1.0 0.1008393174
H  H170  1  0.59708000  0.22224000  0.79807000  1.0 0.1008393174
H  H171  1  0.28340000  0.99210000  0.61272000  1.0 0.1299471303
H  H172  1  0.38817000  0.01027000  0.33448000  1.0 0.1299471303
H  H173  1  0.05489000  0.72857000  0.63042000  1.0 0.1008393174
H  H174  1  0.90282000  0.48516000  0.59329000  1.0 0.1299471303
H  H175  1  0.84497000  0.38895000  0.66205000  1.0 0.1299471303
H  H176  1  0.95264000  0.16972000  0.32475000  1.0 0.1008393174
H  H177  1  0.30617000  0.84935000  0.68482000  1.0 0.1389321882
H  H178  1  0.52444000  0.03322000  0.90383000  1.0 0.1389321882
H  H179  1  0.60762000  0.46797000  0.33959000  1.0 0.1108048503
H  H180  1  0.51907000  0.18359000  0.17973000  1.0 0.1008393174
H  H181  1  0.00645000  0.13367000  0.10598000  1.0 0.1496305168
H  H182  1  0.76651000  0.16957000  0.67839000  1.0 0.1299471303
H  H183  1  0.51840000  0.09706000  0.82454000  1.0 0.1198994696
H  H184  1  0.39090000  0.07492000  0.66560000  1.0 0.1198994696
H  H185  1  0.48661000  0.41445000  0.34151000  1.0 0.1198994696
H  H186  1  0.03192000  0.11624000  0.03540000  1.0 0.1008393174
H  H187  1  0.98278000  0.59064000  0.52738000  1.0 0.1108048503
H  H188  1  0.69088000  0.50824000  0.10590000  1.0 0.1389321882
H  H189  1  0.20304000  0.76544000  0.61876000  1.0 0.1198994696
H  H190  1  0.36579000  0.17497000  0.11151000  1.0 0.1389321882
H  H191  1  0.61400000  0.57038000  0.17480000  1.0 0.1108048503
H  H192  1  0.49817000  0.52517000  0.17662000  1.0 0.1198994696
H  H193  1  0.63413000  0.22945000  0.17728000  1.0 0.1198994696
H  H194  1  0.19023000  0.96905000  0.33368000  1.0 0.1198994696
H  H195  1  0.66556000  0.34980000  0.78718000  1.0 0.1108048503
H  H196  1  0.40077000  0.12057000  0.17053000  1.0 0.1198994696
H  H197  1  0.85637000  0.72971000  0.87077000  1.0 0.1389321882
H  H198  1  0.92784000  0.26796000  0.90643000  1.0 0.1299471303
H  H199  1  0.84381000  0.23115000  0.88483000  1.0 0.1299471303
H  H200  1  0.89064000  0.25080000  0.84011000  1.0 0.1198994696
H  H201  1  0.83327000  0.12253000  0.32057000  1.0 0.1108048503
H  H202  1  0.12199000  0.88677000  0.41620000  1.0 0.1008393174
H  H203  1  0.71414000  0.49328000  0.03320000  1.0 0.1008393174
H  H204  1  0.78943000  0.93499000  0.80395000  1.0 0.1198994696
H  H205  1  0.78674000  0.25132000  0.20876000  1.0 0.1198994696
H  H206  1  0.75531000  0.28447000  0.20640000  1.0 0.1008393174
H  H207  1  0.71392000  0.22468000  0.16346000  1.0 0.1108048503
H  H208  1  0.48419000  0.30037000  0.67327000  1.0 0.1299471303
H  H209  1  0.84609000  0.99659000  0.64177000  1.0 0.1198994696
H  H210  1  0.76565000  0.34543000  0.89025000  1.0 0.1299471303
H  H211  1  0.80031000  0.14027000  0.14123000  1.0 0.1299471303
H  H212  1  0.80615000  0.88363000  0.64478000  1.0 0.1198994696
H  H213  1  0.71430000  0.51904000  0.74084000  1.0 0.1299471303
H  H214  1  0.72729000  0.47263000  0.73275000  1.0 0.1198994696
H  H215  1  0.69839000  0.45413000  0.79134000  1.0 0.1108048503
H  H216  1  0.66179000  0.20109000  0.76530000  1.0 0.1008393174
H  H217  1  0.75599000  0.31141000  0.81261000  1.0 0.1198994696
H  H218  1  0.24266000  0.84304000  0.47427000  1.0 0.1198994696
H  H219  1  0.92658000  0.16806000  0.86342000  1.0 0.0800868911
H  H220  1  0.75590000  0.82156000  0.81118000  1.0 0.1108048503
H  H221  1  0.05631000  0.70637000  0.39393000  1.0 0.1198994696
H  H222  1  0.63516000  0.05286000  0.18856000  1.0 0.1198994696
H  H223  1  0.67424000  0.04396000  0.16057000  1.0 0.1198994696
H  H224  1  0.70699000  0.12543000  0.15430000  1.0 0.1108048503
H  H225  1  0.99390000  0.18332000  0.96926000  1.0 0.1198994696
H  H226  1  0.00124000  0.25108000  0.93700000  1.0 0.1198994696
H  H227  1  0.82423000  0.15913000  0.01695000  1.0 0.1496305168
H  H228  1  0.76571000  0.13063000  0.95850000  1.0 0.1389321882
H  H229  1  0.37738000  0.35942000  0.38468000  1.0 0.1008393174
H  H230  1  0.30868000  0.91488000  0.39436000  1.0 0.1389321882
H  H231  1  0.59623000  0.07519000  0.76082000  1.0 0.1108048503
H  H232  1  0.33374000  0.43298000  0.22816000  1.0 0.1299471303
H  H233  1  0.37546000  0.44900000  0.18074000  1.0 0.1198994696
H  H234  1  0.41755000  0.51505000  0.21703000  1.0 0.1198994696
H  H235  1  0.92366000  0.19226000  0.14524000  1.0 0.1198994696
H  H236  1  0.86114000  0.11596000  0.74739000  1.0 0.1299471303
H  H237  1  0.87211000  0.06589000  0.79399000  1.0 0.1108048503
H  H238  1  0.78864000  0.02718000  0.76425000  1.0 0.1299471303
H  H239  1  0.53660000  0.92334000  0.71905000  1.0 0.1299471303
H  H240  1  0.52492000  0.97734000  0.70073000  1.0 0.1198994696
H  H241  1  0.56075000  0.97065000  0.76598000  1.0 0.1008393174
H  H242  1  0.74757000  0.04741000  0.86311000  1.0 0.1108048503
H  H243  1  0.78373000  0.12125000  0.81559000  1.0 0.1299471303
H  H244  1  0.73513000  0.09785000  0.86083000  1.0 0.1299471303
H  H245  1  0.47774000  0.02896000  0.31755000  1.0 0.1198994696
H  H246  1  0.59858000  0.08182000  0.31798000  1.0 0.1198994696
H  H247  1  0.82075000  0.02407000  0.01120000  1.0 0.1108048503
H  H248  1  0.75576000  0.00108000  0.95643000  1.0 0.0901508592
H  H249  1  0.89715000  0.06127000  0.95055000  1.0 0.0688669229
H  H250  1  0.82940000  0.03144000  0.89716000  1.0 0.0800868911
H  H251  1  0.16199000  0.61153000  0.46256000  1.0 0.1603977918
H  H252  1  0.21914000  0.70076000  0.46129000  1.0 0.1496305168
H  H253  1  0.13973000  0.65353000  0.41947000  1.0 0.1496305168
H  H254  1  0.94834000  0.01312000  0.90915000  1.0 0.1008393174
H  H255  1  0.92229000  0.93615000  0.91037000  1.0 0.1389321882
H  H256  1  0.00866000  0.01624000  0.90397000  1.0 0.1496305168
H  H257  1  0.02518000  0.93806000  0.08186000  1.0 0.1108048503
H  H258  1  0.05953000  0.96723000  0.02300000  1.0 0.1299471303
H  H259  1  0.97316000  0.88712000  0.02939000  1.0 0.1299471303
H  H260  1  0.08930000  0.53074000  0.56744000  1.0 0.1720884979
H  H261  1  0.03862000  0.53900000  0.57476000  1.0 0.1603977918
H  H262  1  0.12579000  0.59475000  0.60324000  1.0 0.1299471303
H  H263  1  0.38912000  0.40940000  0.07011000  1.0 0.0688669229
H  H264  1  0.47051000  0.46809000  0.04889000  1.0 0.1299471303
H  H265  1  0.43509000  0.38849000  0.08683000  1.0 0.1198994696
H  H266  1  0.38541000  0.31353000  0.94541000  1.0 0.1198994696
H  H267  1  0.42988000  0.31182000  0.00725000  1.0 0.1389321882
H  H268  1  0.46529000  0.39141000  0.96931000  1.0 0.1008393174
C  C1  1  0.92950000  0.30470000  0.34120000  1.0 0.1008393174
C  C2  1  0.20600000  0.11520000  0.85040000  1.0 0.0800868911
C  C3  1  0.59150000  0.61090000  0.35390000  1.0 0.0800868911
C  C4  1  0.98190000  0.36770000  0.29380000  1.0 0.2005215349
C  C5  1  0.99540000  0.44240000  0.20550000  1.0 0.191731596
C  C6  1  0.54200000  0.93220000  0.34580000  1.0 0.0901508592
C  C7  1  0.24200000  0.18900000  0.85110000  1.0 -0.180903519
C  C8  1  0.55020000  0.69720000  0.74430000  1.0 0.1108048503
C  C9  1  0.64170000  0.66410000  0.30710000  1.0 0.2082552339
C  C10  1  0.47340000  0.88080000  0.29990000  1.0 0.2373487293
C  C11  1  0.66070000  0.73410000  0.21290000  1.0 0.1839591652
C  C12  1  0.00390000  0.30390000  0.69620000  1.0 0.1839591652
C  C13  1  0.54760000  0.87420000  0.11450000  1.0 0.0901508592
C  C14  1  0.64210000  0.84090000  0.07330000  1.0 0.1108048503
C  C15  1  0.71690000  0.69390000  0.31500000  1.0 -0.2585839143
C  C16  1  0.20850000  0.46730000  0.29440000  1.0 -0.12498433
C  C17  1  0.10460000  0.46280000  0.25540000  1.0 0.1299471303
C  C18  1  0.54890000  0.70830000  0.14890000  1.0 -0.1889301136
C  C19  1  0.55310000  0.71330000  0.79640000  1.0 -0.2585839143
C  C20  1  0.60800000  0.87220000  0.84890000  1.0 -0.180903519
C  C21  1  0.95460000  0.26060000  0.64530000  1.0 0.0800868911
C  C22  1  0.28630000  0.20650000  0.65710000  1.0 0.0901508592
C  C23  1  0.55870000  0.52750000  0.44660000  1.0 0.0475312673
C  C24  1  0.06750000  0.30970000  0.79100000  1.0 0.191731596
C  C25  1  0.52610000  0.87170000  0.16210000  1.0 -0.180903519
C  C26  1  0.52200000  0.58560000  0.34710000  1.0 -0.1699862046
C  C27  1  0.18580000  0.50340000  0.25930000  1.0 0.0287824926
C  C28  1  0.59600000  0.88140000  0.89500000  1.0 0.0901508592
C  C29  1  0.16080000  0.27940000  0.93290000  1.0 0.0040932771
C  C30  1  0.75960000  0.74080000  0.26800000  1.0 0.1198994696
C  C31  1  0.52030000  0.73070000  0.09950000  1.0 0.0396047932
C  C32  1  0.61600000  0.97800000  0.33400000  1.0 -0.1699862046
C  C33  1  0.94770000  0.51650000  0.05650000  1.0 0.0800868911
C  C34  1  0.29440000  0.20120000  0.60470000  1.0 -0.1889301136
C  C35  1  0.60320000  0.82160000  0.69810000  1.0 0.2005215349
C  C36  1  0.63260000  0.88400000  0.64670000  1.0 0.0688669229
C  C37  1  0.64180000  0.87840000  0.59540000  1.0 -0.1889301136
C  C38  1  0.57460000  0.75160000  0.69550000  1.0 -0.2400225861
C  C39  1  0.89360000  0.43800000  0.16320000  1.0 -0.1994456232
C  C40  1  0.21160000  0.02220000  0.76260000  1.0 0.1299471303
C  C41  1  0.57090000  0.79530000  0.84640000  1.0 0.0800868911
C  C42  1  0.20170000  0.03510000  0.80940000  1.0 -0.2400225861
C  C43  1  0.24040000  0.07900000  0.71330000  1.0 -0.2664695293
C  C44  1  0.62740000  0.75480000  0.16030000  1.0 0.0901508592
C  C45  1  0.60910000  0.57830000  0.40660000  1.0 -0.1994456232
C  C46  1  0.05230000  0.19990000  0.84080000  1.0 -0.1994456232
C  C47  1  0.89660000  0.21160000  0.42700000  1.0 0.0688669229
C  C48  1  0.25820000  0.14500000  0.71170000  1.0 0.2005215349
C  C49  1  0.24890000  0.78510000  0.29620000  1.0 -0.1096266493
C  C50  1  0.18590000  0.94810000  0.76530000  1.0 0.0396047932
C  C51  1  0.22850000  0.20170000  0.89620000  1.0 0.0800868911
C  C52  1  0.47150000  0.53030000  0.38940000  1.0 0.0606830996
C  C53  1  0.65810000  0.95210000  0.64880000  1.0 -0.1304402173
C  C54  1  0.32630000  0.25970000  0.56190000  1.0 0.0287824926
C  C55  1  0.45110000  0.83330000  0.16180000  1.0 0.1008393174
C  C56  1  0.73130000  0.76250000  0.21520000  1.0 -0.2585839143
C  C57  1  0.85450000  0.45190000  0.11530000  1.0 0.0800868911
C  C58  1  0.15150000  0.84670000  0.10110000  1.0 0.2005215349
C  C59  1  0.31310000  0.27530000  0.65960000  1.0 -0.1699862046
C  C60  1  0.57950000  0.78430000  0.79510000  1.0 0.2082552339
C  C61  1  0.67650000  0.94010000  0.55080000  1.0 0.0396047932
C  C62  1  0.07620000  0.17000000  0.88700000  1.0 0.0901508592
C  C63  1  0.42470000  0.80330000  0.06580000  1.0 0.0606830996
C  C64  1  0.09090000  0.27650000  0.84040000  1.0 0.0901508592
C  C65  1  0.23870000  0.57530000  0.22790000  1.0 -0.1096266493
C  C66  1  0.94670000  0.26890000  0.38550000  1.0 -0.1889301136
C  C67  1  0.02670000  0.36990000  0.69780000  1.0 -0.1994456232
C  C68  1  0.67920000  0.02540000  0.37680000  1.0 0.0688669229
C  C69  1  0.53440000  0.93440000  0.39750000  1.0 -0.1637231469
C  C70  1  0.42610000  0.83070000  0.21110000  1.0 0.1720884979
C  C71  1  0.10010000  0.48390000  0.75070000  1.0 0.0287824926
C  C72  1  0.39730000  0.84090000  0.30530000  1.0 -0.2400225861
C  C73  1  0.16490000  0.92290000  0.71170000  1.0 -0.1409981161
C  C74  1  0.95790000  0.46130000  0.15460000  1.0 0.0901508592
C  C75  1  0.86160000  0.28100000  0.34230000  1.0 -0.1637231469
C  C76  1  0.98690000  0.50390000  0.10170000  1.0 -0.180903519
C  C77  1  0.21970000  0.10230000  0.80450000  1.0 0.2005215349
C  C78  1  0.47790000  0.58450000  0.69400000  1.0 -0.1506398082
C  C79  1  0.16050000  0.53330000  0.79250000  1.0 -0.1304402173
C  C80  1  0.46550000  0.48230000  0.74160000  1.0 0.2082552339
C  C81  1  0.15830000  0.05650000  0.89360000  1.0 -0.1699862046
C  C82  1  0.07440000  0.41100000  0.74690000  1.0 0.1198994696
C  C83  1  0.52400000  0.62340000  0.74520000  1.0 0.0396047932
C  C84  1  0.17510000  0.74490000  0.30320000  1.0 -0.1994456232
C  C85  1  0.06920000  0.48040000  0.20680000  1.0 -0.2400225861
C  C86  1  0.05560000  0.40420000  0.30000000  1.0 -0.2400225861
C  C87  1  0.44660000  0.51260000  0.69190000  1.0 -0.2130479475
C  C88  1  0.14750000  0.07190000  0.93540000  1.0 0.0287824926
C  C89  1  0.33710000  0.79690000  0.26210000  1.0 0.1299471303
C  C90  1  0.59850000  0.98290000  0.43720000  1.0 0.0800868911
C  C91  1  0.53050000  0.74010000  0.89280000  1.0 -0.180903519
C  C92  1  0.81250000  0.22070000  0.38330000  1.0 0.0800868911
C  C93  1  0.14670000  0.31470000  0.88790000  1.0 -0.1637231469
C  C94  1  0.11960000  0.83800000  0.03290000  1.0 0.0606830996
C  C95  1  0.53950000  0.58930000  0.79110000  1.0 -0.1409981161
C  C96  1  0.51200000  0.51920000  0.79070000  1.0 -0.2130479475
C  C97  1  0.25710000  0.75370000  0.26870000  1.0 0.0396047932
C  C98  1  0.83550000  0.76850000  0.27170000  1.0 0.0396047932
C  C99  1  0.18760000  0.60160000  0.79490000  1.0 -0.1994456232
C  C100  1  0.94290000  0.20130000  0.63890000  1.0 -0.1699862046
C  C101  1  0.31490000  0.61610000  0.23350000  1.0 -0.2289206583
C  C102  1  0.34030000  0.58230000  0.27110000  1.0 0.2769316375
C  C103  1  0.97530000  0.81810000  0.27930000  1.0 0.2214397231
C  C104  1  0.09200000  0.37780000  0.79450000  1.0 -0.2400225861
C  C105  1  0.67640000  0.82340000  0.12240000  1.0 -0.1994456232
C  C106  1  0.23300000  0.88040000  0.11910000  1.0 -0.471633783
C  C107  1  0.13650000  0.85170000  0.71450000  1.0 -0.2289206583
C  C108  1  0.89060000  0.15800000  0.59000000  1.0 0.0688669229
C  C109  1  0.52180000  0.75400000  0.93640000  1.0 0.0188267656
C  C110  1  0.92430000  0.79230000  0.22790000  1.0 -0.2289206583
C  C111  1  0.23950000  0.74090000  0.79730000  1.0 -0.2476190195
C  C112  1  0.28500000  0.50720000  0.30140000  1.0 -0.2289206583
C  C113  1  0.95940000  0.82460000  0.32490000  1.0 -0.1994456232
C  C114  1  0.39750000  0.79530000  0.11170000  1.0 -0.2130479475
C  C115  1  0.14730000  0.83110000  0.82240000  1.0 -0.1994456232
C  C116  1  0.11050000  0.67450000  0.28370000  1.0 0.229553917
C  C117  1  0.89260000  0.80120000  0.32360000  1.0 -0.1304402173
C  C118  1  0.46930000  0.69570000  0.25110000  1.0 -0.2476190195
C  C119  1  0.19440000  0.68420000  0.25080000  1.0 -0.1304402173
C  C120  1  0.12860000  0.80740000  0.76960000  1.0 0.229553917
C  C121  1  0.35210000  0.78930000  0.21530000  1.0 -0.2400225861
C  C122  1  0.15210000  0.62070000  0.75600000  1.0 0.2082552339
C  C123  1  0.86450000  0.22850000  0.55670000  1.0 0.0901508592
C  C124  1  0.15010000  0.90670000  0.09890000  1.0 -0.0315251373
C  C125  1  0.85500000  0.77000000  0.22460000  1.0 -0.1409981161
C  C126  1  0.69180000  0.01200000  0.60360000  1.0 0.0606830996
C  C127  1  0.07750000  0.68350000  0.82000000  1.0 -0.2400225861
C  C128  1  0.19590000  0.96510000  0.04900000  1.0 -0.3412042246
C  C129  1  0.11760000  0.78860000  0.00780000  1.0 -0.4570620269
C  C130  1  0.34400000  0.33260000  0.61290000  1.0 0.0475312673
C  C131  1  0.91130000  0.27170000  0.60260000  1.0 -0.1699862046
C  C132  1  0.11830000  0.64270000  0.25500000  1.0 -0.2198570179
C  C133  1  0.46020000  0.38280000  0.78120000  1.0 -0.2289206583
C  C134  1  0.17780000  0.90480000  0.81980000  1.0 -0.1096266493
C  C135  1  0.06590000  0.84210000  0.24200000  1.0 -0.2130479475
C  C136  1  0.97130000  0.55770000  0.27540000  1.0 -0.2476190195
C  C137  1  0.09920000  0.77100000  0.14430000  1.0 -0.4980427533
C  C138  1  0.07020000  0.50880000  0.71120000  1.0 -0.1096266493
C  C139  1  0.09950000  0.58010000  0.71220000  1.0 -0.1889301136
C  C140  1  0.17410000  0.92010000  0.00670000  1.0 0.3377063066
C  C141  1  0.04140000  0.81060000  0.02930000  1.0 -0.2198570179
C  C142  1  0.06480000  0.86160000  0.07170000  1.0 -0.2198570179
C  C143  1  0.65210000  0.16590000  0.54200000  1.0 -0.5570544362
C  C144  1  0.98770000  0.96430000  0.07790000  1.0 -0.4101959229
C  C145  1  0.93970000  0.01430000  0.96100000  1.0 -0.4101959229
C  C146  1  0.56660000  0.08940000  0.43000000  1.0 -0.5845218808
C  C147  1  0.41440000  0.42360000  0.94300000  1.0 -0.4570620269
C  C148  1  0.33950000  0.41850000  0.01900000  1.0 -0.5570544362
C  C149  1  0.30470000  0.92950000  0.65880000  1.0 0.1008393174
C  C150  1  0.11520000  0.20600000  0.14960000  1.0 0.0800868911
C  C151  1  0.61090000  0.59150000  0.64610000  1.0 0.0800868911
C  C152  1  0.36770000  0.98190000  0.70620000  1.0 0.2005215349
C  C153  1  0.44240000  0.99540000  0.79450000  1.0 0.191731596
C  C154  1  0.93220000  0.54200000  0.65420000  1.0 0.0901508592
C  C155  1  0.18900000  0.24200000  0.14890000  1.0 -0.180903519
C  C156  1  0.69720000  0.55020000  0.25570000  1.0 0.1108048503
C  C157  1  0.66410000  0.64170000  0.69290000  1.0 0.2082552339
C  C158  1  0.88080000  0.47340000  0.70010000  1.0 0.2373487293
C  C159  1  0.73410000  0.66070000  0.78710000  1.0 0.1839591652
C  C160  1  0.30390000  0.00390000  0.30380000  1.0 0.1839591652
C  C161  1  0.87420000  0.54760000  0.88550000  1.0 0.0901508592
C  C162  1  0.84090000  0.64210000  0.92670000  1.0 0.1108048503
C  C163  1  0.69390000  0.71690000  0.68500000  1.0 -0.2585839143
C  C164  1  0.46730000  0.20850000  0.70560000  1.0 -0.12498433
C  C165  1  0.46280000  0.10460000  0.74460000  1.0 0.1299471303
C  C166  1  0.70830000  0.54890000  0.85110000  1.0 -0.1889301136
C  C167  1  0.71330000  0.55310000  0.20360000  1.0 -0.2585839143
C  C168  1  0.87220000  0.60800000  0.15110000  1.0 -0.180903519
C  C169  1  0.26060000  0.95460000  0.35470000  1.0 0.0800868911
C  C170  1  0.20650000  0.28630000  0.34290000  1.0 0.0901508592
C  C171  1  0.52750000  0.55870000  0.55340000  1.0 0.0475312673
C  C172  1  0.30970000  0.06750000  0.20900000  1.0 0.191731596
C  C173  1  0.87170000  0.52610000  0.83790000  1.0 -0.180903519
C  C174  1  0.58560000  0.52200000  0.65290000  1.0 -0.1699862046
C  C175  1  0.50340000  0.18580000  0.74070000  1.0 0.0287824926
C  C176  1  0.88140000  0.59600000  0.10500000  1.0 0.0901508592
C  C177  1  0.27940000  0.16080000  0.06710000  1.0 0.0040932771
C  C178  1  0.74080000  0.75960000  0.73200000  1.0 0.1198994696
C  C179  1  0.73070000  0.52030000  0.90050000  1.0 0.0396047932
C  C180  1  0.97800000  0.61600000  0.66600000  1.0 -0.1699862046
C  C181  1  0.51650000  0.94770000  0.94350000  1.0 0.0800868911
C  C182  1  0.20120000  0.29440000  0.39530000  1.0 -0.1889301136
C  C183  1  0.82160000  0.60320000  0.30190000  1.0 0.2005215349
C  C184  1  0.88400000  0.63260000  0.35330000  1.0 0.0688669229
C  C185  1  0.87840000  0.64180000  0.40460000  1.0 -0.1889301136
C  C186  1  0.75160000  0.57460000  0.30450000  1.0 -0.2400225861
C  C187  1  0.43800000  0.89360000  0.83680000  1.0 -0.1994456232
C  C188  1  0.02220000  0.21160000  0.23740000  1.0 0.1299471303
C  C189  1  0.79530000  0.57090000  0.15360000  1.0 0.0800868911
C  C190  1  0.03510000  0.20170000  0.19060000  1.0 -0.2400225861
C  C191  1  0.07900000  0.24040000  0.28670000  1.0 -0.2664695293
C  C192  1  0.75480000  0.62740000  0.83970000  1.0 0.0901508592
C  C193  1  0.57830000  0.60910000  0.59340000  1.0 -0.1994456232
C  C194  1  0.19990000  0.05230000  0.15920000  1.0 -0.1994456232
C  C195  1  0.21160000  0.89660000  0.57300000  1.0 0.0688669229
C  C196  1  0.14500000  0.25820000  0.28830000  1.0 0.2005215349
C  C197  1  0.78510000  0.24890000  0.70380000  1.0 -0.1096266493
C  C198  1  0.94810000  0.18590000  0.23470000  1.0 0.0396047932
C  C199  1  0.20170000  0.22850000  0.10380000  1.0 0.0800868911
C  C200  1  0.53030000  0.47150000  0.61060000  1.0 0.0606830996
C  C201  1  0.95210000  0.65810000  0.35120000  1.0 -0.1304402173
C  C202  1  0.25970000  0.32630000  0.43810000  1.0 0.0287824926
C  C203  1  0.83330000  0.45110000  0.83820000  1.0 0.1008393174
C  C204  1  0.76250000  0.73130000  0.78480000  1.0 -0.2585839143
C  C205  1  0.45190000  0.85450000  0.88470000  1.0 0.0800868911
C  C206  1  0.84670000  0.15150000  0.89890000  1.0 0.2005215349
C  C207  1  0.27530000  0.31310000  0.34040000  1.0 -0.1699862046
C  C208  1  0.78430000  0.57950000  0.20490000  1.0 0.2082552339
C  C209  1  0.94010000  0.67650000  0.44920000  1.0 0.0396047932
C  C210  1  0.17000000  0.07620000  0.11300000  1.0 0.0901508592
C  C211  1  0.80330000  0.42470000  0.93420000  1.0 0.0606830996
C  C212  1  0.27650000  0.09090000  0.15960000  1.0 0.0901508592
C  C213  1  0.57530000  0.23870000  0.77210000  1.0 -0.1096266493
C  C214  1  0.26890000  0.94670000  0.61450000  1.0 -0.1994456232
C  C215  1  0.36990000  0.02670000  0.30220000  1.0 -0.1994456232
C  C216  1  0.02540000  0.67920000  0.62320000  1.0 0.0606830996
C  C217  1  0.93440000  0.53440000  0.60250000  1.0 -0.1637231469
C  C218  1  0.83070000  0.42610000  0.78890000  1.0 0.1720884979
C  C219  1  0.48390000  0.10010000  0.24930000  1.0 0.0287824926
C  C220  1  0.84090000  0.39730000  0.69470000  1.0 -0.2400225861
C  C221  1  0.92290000  0.16490000  0.28830000  1.0 -0.1409981161
C  C222  1  0.46130000  0.95790000  0.84540000  1.0 0.0901508592
C  C223  1  0.28100000  0.86160000  0.65770000  1.0 -0.1637231469
C  C224  1  0.50390000  0.98690000  0.89830000  1.0 -0.180903519
C  C225  1  0.10230000  0.21970000  0.19550000  1.0 0.2005215349
C  C226  1  0.58450000  0.47790000  0.30600000  1.0 -0.1506398082
C  C227  1  0.53330000  0.16050000  0.20750000  1.0 -0.1304402173
C  C228  1  0.48230000  0.46550000  0.25840000  1.0 0.2082552339
C  C229  1  0.05650000  0.15830000  0.10640000  1.0 -0.1699862046
C  C230  1  0.41100000  0.07440000  0.25310000  1.0 0.1198994696
C  C231  1  0.62340000  0.52400000  0.25480000  1.0 0.0396047932
C  C232  1  0.74490000  0.17510000  0.69680000  1.0 -0.1994456232
C  C233  1  0.48040000  0.06920000  0.79320000  1.0 -0.2400225861
C  C234  1  0.40420000  0.05560000  0.70000000  1.0 -0.2400225861
C  C235  1  0.51260000  0.44660000  0.30810000  1.0 -0.2130479475
C  C236  1  0.07190000  0.14750000  0.06460000  1.0 0.0287824926
C  C237  1  0.79690000  0.33710000  0.73790000  1.0 0.1299471303
C  C238  1  0.98290000  0.59850000  0.56280000  1.0 0.0800868911
C  C239  1  0.74010000  0.53050000  0.10720000  1.0 -0.180903519
C  C240  1  0.22070000  0.81250000  0.61670000  1.0 0.0800868911
C  C241  1  0.31470000  0.14670000  0.11210000  1.0 -0.1637231469
C  C242  1  0.83800000  0.11960000  0.96710000  1.0 0.0606830996
C  C243  1  0.58930000  0.53950000  0.20890000  1.0 -0.1409981161
C  C244  1  0.51920000  0.51200000  0.20930000  1.0 -0.2130479475
C  C245  1  0.75370000  0.25710000  0.73130000  1.0 0.0396047932
C  C246  1  0.76850000  0.83550000  0.72830000  1.0 0.0396047932
C  C247  1  0.60160000  0.18760000  0.20510000  1.0 -0.1994456232
C  C248  1  0.20130000  0.94290000  0.36110000  1.0 -0.1699862046
C  C249  1  0.61610000  0.31490000  0.76650000  1.0 -0.2289206583
C  C250  1  0.58230000  0.34030000  0.72890000  1.0 0.2769316375
C  C251  1  0.81810000  0.97530000  0.72070000  1.0 0.2214397231
C  C252  1  0.37780000  0.09200000  0.20550000  1.0 -0.2400225861
C  C253  1  0.82340000  0.67640000  0.87760000  1.0 -0.1994456232
C  C254  1  0.88040000  0.23300000  0.88090000  1.0 -0.471633783
C  C255  1  0.85170000  0.13650000  0.28550000  1.0 -0.2198570179
C  C256  1  0.15800000  0.89060000  0.41000000  1.0 0.0688669229
C  C257  1  0.75400000  0.52180000  0.06360000  1.0 0.0188267656
C  C258  1  0.79230000  0.92430000  0.77210000  1.0 -0.2289206583
C  C259  1  0.74090000  0.23950000  0.20270000  1.0 -0.2476190195
C  C260  1  0.50720000  0.28500000  0.69860000  1.0 -0.2289206583
C  C261  1  0.82460000  0.95940000  0.67510000  1.0 -0.1994456232
C  C262  1  0.79530000  0.39750000  0.88830000  1.0 -0.2130479475
C  C263  1  0.83110000  0.14730000  0.17760000  1.0 -0.1994456232
C  C264  1  0.67450000  0.11050000  0.71630000  1.0 0.2214397231
C  C265  1  0.80120000  0.89260000  0.67640000  1.0 -0.1304402173
C  C266  1  0.69570000  0.46930000  0.74890000  1.0 -0.2476190195
C  C267  1  0.68420000  0.19440000  0.74920000  1.0 -0.1304402173
C  C268  1  0.80740000  0.12860000  0.23040000  1.0 0.229553917
C  C269  1  0.78930000  0.35210000  0.78470000  1.0 -0.2400225861
C  C270  1  0.62070000  0.15210000  0.24400000  1.0 0.2005215349
C  C271  1  0.22850000  0.86450000  0.44330000  1.0 0.0901508592
C  C272  1  0.90670000  0.15010000  0.90110000  1.0 -0.0315251373
C  C273  1  0.77000000  0.85500000  0.77540000  1.0 -0.1409981161
C  C274  1  0.01200000  0.69180000  0.39640000  1.0 0.0606830996
C  C275  1  0.68350000  0.07750000  0.18000000  1.0 -0.2400225861
C  C276  1  0.96510000  0.19590000  0.95100000  1.0 -0.3412042246
C  C277  1  0.78860000  0.11760000  0.99220000  1.0 -0.4570620269
C  C278  1  0.33260000  0.34400000  0.38710000  1.0 0.0475312673
C  C279  1  0.27170000  0.91130000  0.39740000  1.0 -0.1699862046
C  C280  1  0.64270000  0.11830000  0.74500000  1.0 -0.2198570179
C  C281  1  0.38280000  0.46020000  0.21880000  1.0 -0.2289206583
C  C282  1  0.90480000  0.17780000  0.18020000  1.0 -0.1096266493
C  C283  1  0.84210000  0.06590000  0.75800000  1.0 -0.2130479475
C  C284  1  0.55770000  0.97130000  0.72460000  1.0 -0.2476190195
C  C285  1  0.77100000  0.09920000  0.85570000  1.0 -0.4980427533
C  C286  1  0.50880000  0.07020000  0.28880000  1.0 -0.1096266493
C  C287  1  0.58010000  0.09950000  0.28780000  1.0 -0.1889301136
C  C288  1  0.92010000  0.17410000  0.99330000  1.0 0.3377063066
C  C289  1  0.81060000  0.04140000  0.97070000  1.0 -0.2198570179
C  C290  1  0.86160000  0.06480000  0.92830000  1.0 -0.2198570179
C  C291  1  0.16590000  0.65210000  0.45800000  1.0 -0.5570544362
C  C292  1  0.96430000  0.98770000  0.92210000  1.0 -0.4101959229
C  C293  1  0.01430000  0.93970000  0.03900000  1.0 -0.4101959229
C  C294  1  0.08940000  0.56660000  0.57000000  1.0 -0.5845218808
C  C295  1  0.42360000  0.41440000  0.05700000  1.0 -0.4570620269
C  C296  1  0.41850000  0.33950000  0.98100000  1.0 -0.5570544362
S  S1  1  0.03404000  0.71436000  0.96616000  1.0 1.214456746
S  S2  1  0.64827000  0.13453000  0.48440000  1.0 0.6766774147
S  S3  1  0.34720000  0.37120000  0.99210000  1.0 0.372391501
S  S4  1  0.71436000  0.03404000  0.03384000  1.0 1.214456746
S  S5  1  0.13453000  0.64827000  0.51560000  1.0 0.6708451003
S  S6  1  0.37120000  0.34720000  0.00790000  1.0 0.3765027612
S  S7  1  0.97050000  0.97050000  0.00000000  1.0 0.8288146347
N  N1  1  0.95190000  0.38830000  0.24940000  1.0 -0.3121844739
N  N2  1  0.56857000  0.79843000  0.06500000  1.0 -0.2130479475
N  N3  1  0.02570000  0.27490000  0.74180000  1.0 -0.316736041
N  N4  1  0.61534000  0.68506000  0.25820000  1.0 -0.3526848763
N  N5  1  0.48961000  0.50079000  0.43900000  1.0 -0.2198570179
N  N6  1  0.83015000  0.18565000  0.42680000  1.0 -0.2130479475
N  N7  1  0.84696000  0.16684000  0.55290000  1.0 -0.2289206583
N  N8  1  0.49588000  0.84012000  0.06740000  1.0 -0.2130479475
N  N9  1  0.48655000  0.87545000  0.25370000  1.0 -0.3412042246
N  N10  1  0.70415000  0.00805000  0.55520000  1.0 -0.2198570179
N  N11  1  0.60130000  0.83610000  0.74690000  1.0 -0.316736041
N  N12  1  0.88226000  0.49214000  0.06300000  1.0 -0.2198570179
N  N13  1  0.55338000  0.82442000  0.93740000  1.0 -0.2198570179
N  N14  1  0.67234000  0.03086000  0.42800000  1.0 -0.2476190195
N  N15  1  0.24750000  0.15610000  0.75620000  1.0 -0.3558823973
N  N16  1  0.18104000  0.14436000  0.93610000  1.0 -0.2476190195
N  N17  1  0.12707000  0.20753000  0.93250000  1.0 -0.2289206583
N  N18  1  0.35350000  0.32790000  0.56280000  1.0 -0.2198570179
N  N19  1  0.38830000  0.95190000  0.75060000  1.0 -0.3121844739
N  N20  1  0.79843000  0.56857000  0.93500000  1.0 -0.2130479475
N  N21  1  0.27490000  0.02570000  0.25820000  1.0 -0.316736041
N  N22  1  0.68506000  0.61534000  0.74180000  1.0 -0.3526848763
N  N23  1  0.50079000  0.48961000  0.56100000  1.0 -0.2198570179
N  N24  1  0.18565000  0.83015000  0.57320000  1.0 -0.2130479475
N  N25  1  0.16684000  0.84696000  0.44710000  1.0 -0.2289206583
N  N26  1  0.84012000  0.49588000  0.93260000  1.0 -0.2130479475
N  N27  1  0.87545000  0.48655000  0.74630000  1.0 -0.3412042246
N  N28  1  0.00805000  0.70415000  0.44480000  1.0 -0.2198570179
N  N29  1  0.83610000  0.60130000  0.25310000  1.0 -0.316736041
N  N30  1  0.49214000  0.88226000  0.93700000  1.0 -0.2198570179
N  N31  1  0.82442000  0.55338000  0.06260000  1.0 -0.2130479475
N  N32  1  0.03086000  0.67234000  0.57200000  1.0 -0.2476190195
N  N33  1  0.15610000  0.24750000  0.24380000  1.0 -0.3558823973
N  N34  1  0.14436000  0.18104000  0.06390000  1.0 -0.2476190195
N  N35  1  0.20753000  0.12707000  0.06750000  1.0 -0.2289206583
N  N36  1  0.32790000  0.35350000  0.43720000  1.0 -0.2198570179
O  O1  1  0.97219000  0.65681000  0.00170000  1.0 -0.6503165871
O  O2  1  0.41221000  0.61579000  0.27870000  1.0 -0.1506398082
O  O3  1  0.43400000  0.41160000  0.73740000  1.0 -0.1699862046
O  O4  1  0.09290000  0.73450000  0.76520000  1.0 -0.1699862046
O  O5  1  0.17610000  0.69070000  0.75270000  1.0 -0.1889301136
O  O6  1  0.04630000  0.84590000  0.28600000  1.0 -0.1304402173
O  O7  1  0.70040000  0.13180000  0.48850000  1.0 -0.5390141219
O  O8  1  0.05640000  0.68380000  0.95220000  1.0 -0.6449791104
O  O9  1  0.03780000  0.63840000  0.29060000  1.0 -0.180903519
O  O10  1  0.01800000  0.75100000  0.91730000  1.0 -0.6026959926
O  O11  1  0.20700000  0.95200000  0.95690000  1.0 -0.5390141219
O  O12  1  0.65681000  0.97219000  0.99830000  1.0 -0.6503165871
O  O13  1  0.61579000  0.41221000  0.72130000  1.0 -0.1506398082
O  O14  1  0.41160000  0.43400000  0.26260000  1.0 -0.1699862046
O  O15  1  0.73450000  0.09290000  0.23480000  1.0 -0.1699862046
O  O16  1  0.69070000  0.17610000  0.24730000  1.0 -0.1994456232
O  O17  1  0.84590000  0.04630000  0.71400000  1.0 -0.1304402173
O  O18  1  0.13180000  0.70040000  0.51150000  1.0 -0.5390141219
O  O19  1  0.68380000  0.05640000  0.04780000  1.0 -0.6503165871
O  O20  1  0.63840000  0.03780000  0.70940000  1.0 -0.180903519
O  O21  1  0.75100000  0.01800000  0.08270000  1.0 -0.6026959926
O  O22  1  0.95200000  0.20700000  0.04310000  1.0 -0.5390141219
O  O23  1  0.29010000  0.29010000  0.00000000  1.0 -0.4172538132
O  O24  1  0.04380000  0.04380000  0.00000000  1.0 -0.3857800573
F  F1  1  0.46010000  0.90170000  0.50370000  1.0 -0.4305292279
F  F2  1  0.34630000  0.85470000  0.50420000  1.0 -0.5064365179
F  F3  1  0.40500000  0.92000000  0.41900000  1.0 -0.4418609947
F  F4  1  0.36600000  0.81640000  0.44780000  1.0 -0.4023764938
F  F5  1  0.90170000  0.46010000  0.49630000  1.0 -0.4305292279
F  F6  1  0.85470000  0.34630000  0.49580000  1.0 -0.5064365179
F  F7  1  0.92000000  0.40500000  0.58100000  1.0 -0.4418609947
F  F8  1  0.81640000  0.36600000  0.55220000  1.0 -0.4023764938
