# DDEC6 charges by PACMAN v1.1 (https://github.com/mtap-research/PACMAN-charge/)
data_NUGRIR_FSR_pacman
_symmetry_space_group_name_H-M   'P 1'
_cell_length_a   26.06430000
_cell_length_b   26.06430000
_cell_length_c   26.06430000
_cell_angle_alpha   109.47100000
_cell_angle_beta   109.47100000
_cell_angle_gamma   109.47100000
_symmetry_Int_Tables_number   1
_chemical_formula_structural   Cu6H24WC32S4(BrN6)4
_chemical_formula_sum   'Cu36 H144 W6 C192 S24 Br24 N144'
_cell_volume   13630.75318536
_cell_formula_units_Z   6
loop_
 _symmetry_equiv_pos_site_id
 _symmetry_equiv_pos_as_xyz
  1  'x, y, z'
loop_
 _atom_site_type_symbol
 _atom_site_label
 _atom_site_symmetry_multiplicity
 _atom_site_fract_x
 _atom_site_fract_y
 _atom_site_fract_z
 _atom_site_occupancy
 _atom_site_charge
Cu  Cu1  1  0.55982000  0.43643000  0.23571000  1.0 0.3979811401
Cu  Cu2  1  0.70072000  0.32411000  0.26429000  1.0 0.3979811401
Cu  Cu3  1  0.79928000  0.06357000  0.62339000  1.0 0.3979811401
Cu  Cu4  1  0.94018000  0.17589000  0.87661000  1.0 0.3979811401
Cu  Cu5  1  0.23571000  0.55982000  0.43643000  1.0 0.3979811401
Cu  Cu6  1  0.26429000  0.70072000  0.32411000  1.0 0.3979811401
Cu  Cu7  1  0.62339000  0.79928000  0.06357000  1.0 0.3979811401
Cu  Cu8  1  0.87661000  0.94018000  0.17589000  1.0 0.3979811401
Cu  Cu9  1  0.43643000  0.23571000  0.55982000  1.0 0.3979811401
Cu  Cu10  1  0.32411000  0.26429000  0.70072000  1.0 0.3979811401
Cu  Cu11  1  0.06357000  0.62339000  0.79928000  1.0 0.3937701613
Cu  Cu12  1  0.17589000  0.87661000  0.94018000  1.0 0.3979811401
Cu  Cu13  1  0.93643000  0.05982000  0.73571000  1.0 0.3979811401
Cu  Cu14  1  0.82411000  0.20072000  0.76429000  1.0 0.3979811401
Cu  Cu15  1  0.56357000  0.29928000  0.12339000  1.0 0.3979811401
Cu  Cu16  1  0.67589000  0.44018000  0.37661000  1.0 0.3979811401
Cu  Cu17  1  0.05982000  0.73571000  0.93643000  1.0 0.3979811401
Cu  Cu18  1  0.20072000  0.76429000  0.82411000  1.0 0.3937701613
Cu  Cu19  1  0.29928000  0.12339000  0.56357000  1.0 0.3979811401
Cu  Cu20  1  0.44018000  0.37661000  0.67589000  1.0 0.3979811401
Cu  Cu21  1  0.73571000  0.93643000  0.05982000  1.0 0.3979811401
Cu  Cu22  1  0.76429000  0.82411000  0.20072000  1.0 0.3979811401
Cu  Cu23  1  0.12339000  0.56357000  0.29928000  1.0 0.3979811401
Cu  Cu24  1  0.37661000  0.67589000  0.44018000  1.0 0.3979811401
Cu  Cu25  1  0.53629000  0.28629000  0.25000000  1.0 0.2918238968
Cu  Cu26  1  0.96371000  0.21371000  0.75000000  1.0 0.2918238968
Cu  Cu27  1  0.25000000  0.53629000  0.28629000  1.0 0.2918238968
Cu  Cu28  1  0.75000000  0.96371000  0.21371000  1.0 0.2918238968
Cu  Cu29  1  0.28629000  0.25000000  0.53629000  1.0 0.2918238968
Cu  Cu30  1  0.21371000  0.75000000  0.96371000  1.0 0.2918238968
Cu  Cu31  1  0.78629000  0.03629000  0.75000000  1.0 0.2918238968
Cu  Cu32  1  0.71371000  0.46371000  0.25000000  1.0 0.2918238968
Cu  Cu33  1  0.03629000  0.75000000  0.78629000  1.0 0.2918238968
Cu  Cu34  1  0.46371000  0.25000000  0.71371000  1.0 0.2918238968
Cu  Cu35  1  0.75000000  0.78629000  0.03629000  1.0 0.2918238968
Cu  Cu36  1  0.25000000  0.71371000  0.46371000  1.0 0.2918238968
H  H1  1  0.51430000  0.41730000  0.09200000  1.0 0.1210796192
H  H2  1  0.82530000  0.42230000  0.40800000  1.0 0.1210796192
H  H3  1  0.67470000  0.08270000  0.59700000  1.0 0.1210796192
H  H4  1  0.98570000  0.07770000  0.90300000  1.0 0.1210796192
H  H5  1  0.09200000  0.51430000  0.41730000  1.0 0.1210796192
H  H6  1  0.40800000  0.82530000  0.42230000  1.0 0.1210796192
H  H7  1  0.59700000  0.67470000  0.08270000  1.0 0.1210796192
H  H8  1  0.90300000  0.98570000  0.07770000  1.0 0.1210796192
H  H9  1  0.41730000  0.09200000  0.51430000  1.0 0.1210796192
H  H10  1  0.42230000  0.40800000  0.82530000  1.0 0.1210796192
H  H11  1  0.08270000  0.59700000  0.67470000  1.0 0.1210796192
H  H12  1  0.07770000  0.90300000  0.98570000  1.0 0.1210796192
H  H13  1  0.91730000  0.01430000  0.59200000  1.0 0.1210796192
H  H14  1  0.92230000  0.32530000  0.90800000  1.0 0.1210796192
H  H15  1  0.58270000  0.17470000  0.09700000  1.0 0.1210796192
H  H16  1  0.57770000  0.48570000  0.40300000  1.0 0.1210796192
H  H17  1  0.01430000  0.59200000  0.91730000  1.0 0.1210796192
H  H18  1  0.32530000  0.90800000  0.92230000  1.0 0.1210796192
H  H19  1  0.17470000  0.09700000  0.58270000  1.0 0.1210796192
H  H20  1  0.48570000  0.40300000  0.57770000  1.0 0.1210796192
H  H21  1  0.59200000  0.91730000  0.01430000  1.0 0.1210796192
H  H22  1  0.90800000  0.92230000  0.32530000  1.0 0.1210796192
H  H23  1  0.09700000  0.58270000  0.17470000  1.0 0.1210796192
H  H24  1  0.40300000  0.57770000  0.48570000  1.0 0.1210796192
H  H25  1  0.61730000  0.57270000  0.25600000  1.0 0.1306630189
H  H26  1  0.81670000  0.36130000  0.24400000  1.0 0.1306630189
H  H27  1  0.68330000  0.92730000  0.54460000  1.0 0.1306630189
H  H28  1  0.88270000  0.13870000  0.95540000  1.0 0.1306630189
H  H29  1  0.25600000  0.61730000  0.57270000  1.0 0.1306630189
H  H30  1  0.24400000  0.81670000  0.36130000  1.0 0.1306630189
H  H31  1  0.54460000  0.68330000  0.92730000  1.0 0.1306630189
H  H32  1  0.95540000  0.88270000  0.13870000  1.0 0.1306630189
H  H33  1  0.57270000  0.25600000  0.61730000  1.0 0.1306630189
H  H34  1  0.36130000  0.24400000  0.81670000  1.0 0.1306630189
H  H35  1  0.92730000  0.54460000  0.68330000  1.0 0.1306630189
H  H36  1  0.13870000  0.95540000  0.88270000  1.0 0.1306630189
H  H37  1  0.07270000  0.11730000  0.75600000  1.0 0.1306630189
H  H38  1  0.86130000  0.31670000  0.74400000  1.0 0.1306630189
H  H39  1  0.42730000  0.18330000  0.04460000  1.0 0.1306630189
H  H40  1  0.63870000  0.38270000  0.45540000  1.0 0.1306630189
H  H41  1  0.11730000  0.75600000  0.07270000  1.0 0.1306630189
H  H42  1  0.31670000  0.74400000  0.86130000  1.0 0.1306630189
H  H43  1  0.18330000  0.04460000  0.42730000  1.0 0.1306630189
H  H44  1  0.38270000  0.45540000  0.63870000  1.0 0.1306630189
H  H45  1  0.75600000  0.07270000  0.11730000  1.0 0.1306630189
H  H46  1  0.74400000  0.86130000  0.31670000  1.0 0.1306630189
H  H47  1  0.04460000  0.42730000  0.18330000  1.0 0.1306630189
H  H48  1  0.45540000  0.63870000  0.38270000  1.0 0.1306630189
H  H49  1  0.60410000  0.60480000  0.17570000  1.0 0.1306630189
H  H50  1  0.92910000  0.42840000  0.32430000  1.0 0.1306630189
H  H51  1  0.57090000  0.89520000  0.49930000  1.0 0.1306630189
H  H52  1  0.89590000  0.07160000  0.00070000  1.0 0.1306630189
H  H53  1  0.17570000  0.60410000  0.60480000  1.0 0.1306630189
H  H54  1  0.32430000  0.92910000  0.42840000  1.0 0.1306630189
H  H55  1  0.49930000  0.57090000  0.89520000  1.0 0.1306630189
H  H56  1  0.00070000  0.89590000  0.07160000  1.0 0.1306630189
H  H57  1  0.60480000  0.17570000  0.60410000  1.0 0.1306630189
H  H58  1  0.42840000  0.32430000  0.92910000  1.0 0.1306630189
H  H59  1  0.89520000  0.49930000  0.57090000  1.0 0.1306630189
H  H60  1  0.07160000  0.00070000  0.89590000  1.0 0.1306630189
H  H61  1  0.10480000  0.10410000  0.67570000  1.0 0.1306630189
H  H62  1  0.92840000  0.42910000  0.82430000  1.0 0.1306630189
H  H63  1  0.39520000  0.07090000  0.99930000  1.0 0.1306630189
H  H64  1  0.57160000  0.39590000  0.50070000  1.0 0.1306630189
H  H65  1  0.10410000  0.67570000  0.10480000  1.0 0.1306630189
H  H66  1  0.42910000  0.82430000  0.92840000  1.0 0.1306630189
H  H67  1  0.07090000  0.99930000  0.39520000  1.0 0.1306630189
H  H68  1  0.39590000  0.50070000  0.57160000  1.0 0.1306630189
H  H69  1  0.67570000  0.10480000  0.10410000  1.0 0.1306630189
H  H70  1  0.82430000  0.92840000  0.42910000  1.0 0.1306630189
H  H71  1  0.99930000  0.39520000  0.07090000  1.0 0.1306630189
H  H72  1  0.50070000  0.57160000  0.39590000  1.0 0.1306630189
H  H73  1  0.45300000  0.34660000  0.28300000  1.0 0.1210796192
H  H74  1  0.56360000  0.17000000  0.21700000  1.0 0.1210796192
H  H75  1  0.93640000  0.15340000  0.60640000  1.0 0.1210796192
H  H76  1  0.04700000  0.33000000  0.89360000  1.0 0.1210796192
H  H77  1  0.28300000  0.45300000  0.34660000  1.0 0.1210796192
H  H78  1  0.21700000  0.56360000  0.17000000  1.0 0.1210796192
H  H79  1  0.60640000  0.93640000  0.15340000  1.0 0.1210796192
H  H80  1  0.89360000  0.04700000  0.33000000  1.0 0.1210796192
H  H81  1  0.34660000  0.28300000  0.45300000  1.0 0.1210796192
H  H82  1  0.17000000  0.21700000  0.56360000  1.0 0.1210796192
H  H83  1  0.15340000  0.60640000  0.93640000  1.0 0.1210796192
H  H84  1  0.33000000  0.89360000  0.04700000  1.0 0.1210796192
H  H85  1  0.84660000  0.95300000  0.78300000  1.0 0.1210796192
H  H86  1  0.67000000  0.06360000  0.71700000  1.0 0.1210796192
H  H87  1  0.65340000  0.43640000  0.10640000  1.0 0.1210796192
H  H88  1  0.83000000  0.54700000  0.39360000  1.0 0.1210796192
H  H89  1  0.95300000  0.78300000  0.84660000  1.0 0.1210796192
H  H90  1  0.06360000  0.71700000  0.67000000  1.0 0.1210796192
H  H91  1  0.43640000  0.10640000  0.65340000  1.0 0.1210796192
H  H92  1  0.54700000  0.39360000  0.83000000  1.0 0.1210796192
H  H93  1  0.78300000  0.84660000  0.95300000  1.0 0.1210796192
H  H94  1  0.71700000  0.67000000  0.06360000  1.0 0.1210796192
H  H95  1  0.10640000  0.65340000  0.43640000  1.0 0.1210796192
H  H96  1  0.39360000  0.83000000  0.54700000  1.0 0.1210796192
H  H97  1  0.49250000  0.23230000  0.32960000  1.0 0.1210796192
H  H98  1  0.40270000  0.16290000  0.17040000  1.0 0.1210796192
H  H99  1  0.09730000  0.26770000  0.76020000  1.0 0.1210796192
H  H100  1  0.00750000  0.33710000  0.73980000  1.0 0.1210796192
H  H101  1  0.32960000  0.49250000  0.23230000  1.0 0.1210796192
H  H102  1  0.17040000  0.40270000  0.16290000  1.0 0.1210796192
H  H103  1  0.76020000  0.09730000  0.26770000  1.0 0.1210796192
H  H104  1  0.73980000  0.00750000  0.33710000  1.0 0.1210796192
H  H105  1  0.23230000  0.32960000  0.49250000  1.0 0.1210796192
H  H106  1  0.16290000  0.17040000  0.40270000  1.0 0.1210796192
H  H107  1  0.26770000  0.76020000  0.09730000  1.0 0.1210796192
H  H108  1  0.33710000  0.73980000  0.00750000  1.0 0.1210796192
H  H109  1  0.73230000  0.99250000  0.82960000  1.0 0.1210796192
H  H110  1  0.66290000  0.90270000  0.67040000  1.0 0.1210796192
H  H111  1  0.76770000  0.59730000  0.26020000  1.0 0.1210796192
H  H112  1  0.83710000  0.50750000  0.23980000  1.0 0.1210796192
H  H113  1  0.99250000  0.82960000  0.73230000  1.0 0.1210796192
H  H114  1  0.90270000  0.67040000  0.66290000  1.0 0.1210796192
H  H115  1  0.59730000  0.26020000  0.76770000  1.0 0.1210796192
H  H116  1  0.50750000  0.23980000  0.83710000  1.0 0.1210796192
H  H117  1  0.82960000  0.73230000  0.99250000  1.0 0.1210796192
H  H118  1  0.67040000  0.66290000  0.90270000  1.0 0.1210796192
H  H119  1  0.26020000  0.76770000  0.59730000  1.0 0.1210796192
H  H120  1  0.23980000  0.83710000  0.50750000  1.0 0.1210796192
H  H121  1  0.43230000  0.25860000  0.37750000  1.0 0.1409886193
H  H122  1  0.38110000  0.05480000  0.12250000  1.0 0.1409886193
H  H123  1  0.11890000  0.24140000  0.67370000  1.0 0.1409886193
H  H124  1  0.06770000  0.44520000  0.82630000  1.0 0.1409886193
H  H125  1  0.37750000  0.43230000  0.25860000  1.0 0.1409886193
H  H126  1  0.12250000  0.38110000  0.05480000  1.0 0.1409886193
H  H127  1  0.67370000  0.11890000  0.24140000  1.0 0.1409886193
H  H128  1  0.82630000  0.06770000  0.44520000  1.0 0.1409886193
H  H129  1  0.25860000  0.37750000  0.43230000  1.0 0.1409886193
H  H130  1  0.05480000  0.12250000  0.38110000  1.0 0.1409886193
H  H131  1  0.24140000  0.67370000  0.11890000  1.0 0.1409886193
H  H132  1  0.44520000  0.82630000  0.06770000  1.0 0.1409886193
H  H133  1  0.75860000  0.93230000  0.87750000  1.0 0.1409886193
H  H134  1  0.55480000  0.88110000  0.62250000  1.0 0.1409886193
H  H135  1  0.74140000  0.61890000  0.17370000  1.0 0.1409886193
H  H136  1  0.94520000  0.56770000  0.32630000  1.0 0.1409886193
H  H137  1  0.93230000  0.87750000  0.75860000  1.0 0.1409886193
H  H138  1  0.88110000  0.62250000  0.55480000  1.0 0.1409886193
H  H139  1  0.61890000  0.17370000  0.74140000  1.0 0.1409886193
H  H140  1  0.56770000  0.32630000  0.94520000  1.0 0.1409886193
H  H141  1  0.87750000  0.75860000  0.93230000  1.0 0.1409886193
H  H142  1  0.62250000  0.55480000  0.88110000  1.0 0.1409886193
H  H143  1  0.17370000  0.74140000  0.61890000  1.0 0.1409886193
H  H144  1  0.32630000  0.94520000  0.56770000  1.0 0.1409886193
W  W1  1  0.62500000  0.37500000  0.25000000  1.0 0.6084792049
W  W2  1  0.87500000  0.12500000  0.75000000  1.0 0.6016658575
W  W3  1  0.25000000  0.62500000  0.37500000  1.0 0.6016658575
W  W4  1  0.75000000  0.87500000  0.12500000  1.0 0.6016658575
W  W5  1  0.37500000  0.25000000  0.62500000  1.0 0.6016658575
W  W6  1  0.12500000  0.75000000  0.87500000  1.0 0.6084792049
C  C1  1  0.53640000  0.45920000  0.12300000  1.0 0.1210796192
C  C2  1  0.83620000  0.41340000  0.37700000  1.0 0.1210796192
C  C3  1  0.66380000  0.04080000  0.57720000  1.0 0.1210796192
C  C4  1  0.96360000  0.08660000  0.92280000  1.0 0.1210796192
C  C5  1  0.12300000  0.53640000  0.45920000  1.0 0.1210796192
C  C6  1  0.37700000  0.83620000  0.41340000  1.0 0.1210796192
C  C7  1  0.57720000  0.66380000  0.04080000  1.0 0.1210796192
C  C8  1  0.92280000  0.96360000  0.08660000  1.0 0.1210796192
C  C9  1  0.45920000  0.12300000  0.53640000  1.0 0.1210796192
C  C10  1  0.41340000  0.37700000  0.83620000  1.0 0.1210796192
C  C11  1  0.04080000  0.57720000  0.66380000  1.0 0.1210796192
C  C12  1  0.08660000  0.92280000  0.96360000  1.0 0.1210796192
C  C13  1  0.95920000  0.03640000  0.62300000  1.0 0.1210796192
C  C14  1  0.91340000  0.33620000  0.87700000  1.0 0.1210796192
C  C15  1  0.54080000  0.16380000  0.07720000  1.0 0.1210796192
C  C16  1  0.58660000  0.46360000  0.42280000  1.0 0.1210796192
C  C17  1  0.03640000  0.62300000  0.95920000  1.0 0.1210796192
C  C18  1  0.33620000  0.87700000  0.91340000  1.0 0.1210796192
C  C19  1  0.16380000  0.07720000  0.54080000  1.0 0.1210796192
C  C20  1  0.46360000  0.42280000  0.58660000  1.0 0.1210796192
C  C21  1  0.62300000  0.95920000  0.03640000  1.0 0.1210796192
C  C22  1  0.87700000  0.91340000  0.33620000  1.0 0.1210796192
C  C23  1  0.07720000  0.54080000  0.16380000  1.0 0.1210796192
C  C24  1  0.42280000  0.58660000  0.46360000  1.0 0.1210796192
C  C25  1  0.59400000  0.54510000  0.21290000  1.0 -0.0032251102
C  C26  1  0.83220000  0.38110000  0.28710000  1.0 -0.0032251102
C  C27  1  0.66780000  0.95490000  0.54890000  1.0 -0.0032251102
C  C28  1  0.90600000  0.11890000  0.95110000  1.0 -0.0032251102
C  C29  1  0.21290000  0.59400000  0.54510000  1.0 -0.0032251102
C  C30  1  0.28710000  0.83220000  0.38110000  1.0 -0.0032251102
C  C31  1  0.54890000  0.66780000  0.95490000  1.0 -0.0032251102
C  C32  1  0.95110000  0.90600000  0.11890000  1.0 -0.0032251102
C  C33  1  0.54510000  0.21290000  0.59400000  1.0 -0.0032251102
C  C34  1  0.38110000  0.28710000  0.83220000  1.0 -0.0032251102
C  C35  1  0.95490000  0.54890000  0.66780000  1.0 -0.0032251102
C  C36  1  0.11890000  0.95110000  0.90600000  1.0 -0.0032251102
C  C37  1  0.04510000  0.09400000  0.71290000  1.0 -0.0032251102
C  C38  1  0.88110000  0.33220000  0.78710000  1.0 -0.0032251102
C  C39  1  0.45490000  0.16780000  0.04890000  1.0 -0.0032251102
C  C40  1  0.61890000  0.40600000  0.45110000  1.0 -0.0032251102
C  C41  1  0.09400000  0.71290000  0.04510000  1.0 -0.0032251102
C  C42  1  0.33220000  0.78710000  0.88110000  1.0 -0.0032251102
C  C43  1  0.16780000  0.04890000  0.45490000  1.0 -0.0032251102
C  C44  1  0.40600000  0.45110000  0.61890000  1.0 -0.0032251102
C  C45  1  0.71290000  0.04510000  0.09400000  1.0 -0.0032251102
C  C46  1  0.78710000  0.88110000  0.33220000  1.0 -0.0032251102
C  C47  1  0.04890000  0.45490000  0.16780000  1.0 -0.0032251102
C  C48  1  0.45110000  0.61890000  0.40600000  1.0 -0.0032251102
C  C49  1  0.58660000  0.56420000  0.16920000  1.0 -0.079977025
C  C50  1  0.89500000  0.41740000  0.33080000  1.0 -0.079977025
C  C51  1  0.60500000  0.93580000  0.52240000  1.0 -0.079977025
C  C52  1  0.91340000  0.08260000  0.97760000  1.0 -0.079977025
C  C53  1  0.16920000  0.58660000  0.56420000  1.0 -0.079977025
C  C54  1  0.33080000  0.89500000  0.41740000  1.0 -0.079977025
C  C55  1  0.52240000  0.60500000  0.93580000  1.0 -0.079977025
C  C56  1  0.97760000  0.91340000  0.08260000  1.0 -0.079977025
C  C57  1  0.56420000  0.16920000  0.58660000  1.0 -0.079977025
C  C58  1  0.41740000  0.33080000  0.89500000  1.0 -0.079977025
C  C59  1  0.93580000  0.52240000  0.60500000  1.0 -0.079977025
C  C60  1  0.08260000  0.97760000  0.91340000  1.0 -0.079977025
C  C61  1  0.06420000  0.08660000  0.66920000  1.0 -0.079977025
C  C62  1  0.91740000  0.39500000  0.83080000  1.0 -0.079977025
C  C63  1  0.43580000  0.10500000  0.02240000  1.0 -0.079977025
C  C64  1  0.58260000  0.41340000  0.47760000  1.0 -0.079977025
C  C65  1  0.08660000  0.66920000  0.06420000  1.0 -0.079977025
C  C66  1  0.39500000  0.83080000  0.91740000  1.0 -0.079977025
C  C67  1  0.10500000  0.02240000  0.43580000  1.0 -0.079977025
C  C68  1  0.41340000  0.47760000  0.58260000  1.0 -0.079977025
C  C69  1  0.66920000  0.06420000  0.08660000  1.0 -0.079977025
C  C70  1  0.83080000  0.91740000  0.39500000  1.0 -0.079977025
C  C71  1  0.02240000  0.43580000  0.10500000  1.0 -0.079977025
C  C72  1  0.47760000  0.58260000  0.41340000  1.0 -0.079977025
C  C73  1  0.52500000  0.50170000  0.05410000  1.0 0.4799567964
C  C74  1  0.94760000  0.47090000  0.44590000  1.0 0.4799567964
C  C75  1  0.55240000  0.99830000  0.52330000  1.0 0.4799567964
C  C76  1  0.97500000  0.02910000  0.97670000  1.0 0.4799567964
C  C77  1  0.05410000  0.52500000  0.50170000  1.0 0.4799567964
C  C78  1  0.44590000  0.94760000  0.47090000  1.0 0.4799567964
C  C79  1  0.52330000  0.55240000  0.99830000  1.0 0.4799567964
C  C80  1  0.97670000  0.97500000  0.02910000  1.0 0.4799567964
C  C81  1  0.50170000  0.05410000  0.52500000  1.0 0.4799567964
C  C82  1  0.47090000  0.44590000  0.94760000  1.0 0.4799567964
C  C83  1  0.99830000  0.52330000  0.55240000  1.0 0.4799567964
C  C84  1  0.02910000  0.97670000  0.97500000  1.0 0.4799567964
C  C85  1  0.00170000  0.02500000  0.55410000  1.0 0.4799567964
C  C86  1  0.97090000  0.44760000  0.94590000  1.0 0.4799567964
C  C87  1  0.49830000  0.05240000  0.02330000  1.0 0.4799567964
C  C88  1  0.52910000  0.47500000  0.47670000  1.0 0.4799567964
C  C89  1  0.02500000  0.55410000  0.00170000  1.0 0.4799567964
C  C90  1  0.44760000  0.94590000  0.97090000  1.0 0.4799567964
C  C91  1  0.05240000  0.02330000  0.49830000  1.0 0.4799567964
C  C92  1  0.47500000  0.47670000  0.52910000  1.0 0.4799567964
C  C93  1  0.55410000  0.00170000  0.02500000  1.0 0.4799567964
C  C94  1  0.94590000  0.97090000  0.44760000  1.0 0.4799567964
C  C95  1  0.02330000  0.49830000  0.05240000  1.0 0.4799567964
C  C96  1  0.47670000  0.52910000  0.47500000  1.0 0.4799567964
C  C97  1  0.45610000  0.32200000  0.30150000  1.0 0.1409886193
C  C98  1  0.52050000  0.15460000  0.19850000  1.0 0.1409886193
C  C99  1  0.97950000  0.17800000  0.63410000  1.0 0.1409886193
C  C100  1  0.04390000  0.34540000  0.86590000  1.0 0.1409886193
C  C101  1  0.30150000  0.45610000  0.32200000  1.0 0.1409886193
C  C102  1  0.19850000  0.52050000  0.15460000  1.0 0.1409886193
C  C103  1  0.63410000  0.97950000  0.17800000  1.0 0.1409886193
C  C104  1  0.86590000  0.04390000  0.34540000  1.0 0.1409886193
C  C105  1  0.32200000  0.30150000  0.45610000  1.0 0.1409886193
C  C106  1  0.15460000  0.19850000  0.52050000  1.0 0.1409886193
C  C107  1  0.17800000  0.63410000  0.97950000  1.0 0.1409886193
C  C108  1  0.34540000  0.86590000  0.04390000  1.0 0.1409886193
C  C109  1  0.82200000  0.95610000  0.80150000  1.0 0.1409886193
C  C110  1  0.65460000  0.02050000  0.69850000  1.0 0.1409886193
C  C111  1  0.67800000  0.47950000  0.13410000  1.0 0.1409886193
C  C112  1  0.84540000  0.54390000  0.36590000  1.0 0.1409886193
C  C113  1  0.95610000  0.80150000  0.82200000  1.0 0.1409886193
C  C114  1  0.02050000  0.69850000  0.65460000  1.0 0.1409886193
C  C115  1  0.47950000  0.13410000  0.67800000  1.0 0.1409886193
C  C116  1  0.54390000  0.36590000  0.84540000  1.0 0.1409886193
C  C117  1  0.80150000  0.82200000  0.95610000  1.0 0.1409886193
C  C118  1  0.69850000  0.65460000  0.02050000  1.0 0.1409886193
C  C119  1  0.13410000  0.67800000  0.47950000  1.0 0.1409886193
C  C120  1  0.36590000  0.84540000  0.54390000  1.0 0.1409886193
C  C121  1  0.47800000  0.26020000  0.32760000  1.0 -0.0278564807
C  C122  1  0.43260000  0.15040000  0.17240000  1.0 -0.0278564807
C  C123  1  0.06740000  0.23980000  0.71780000  1.0 -0.0278564807
C  C124  1  0.02200000  0.34960000  0.78220000  1.0 -0.0278564807
C  C125  1  0.32760000  0.47800000  0.26020000  1.0 -0.0278564807
C  C126  1  0.17240000  0.43260000  0.15040000  1.0 -0.0278564807
C  C127  1  0.71780000  0.06740000  0.23980000  1.0 -0.0278564807
C  C128  1  0.78220000  0.02200000  0.34960000  1.0 -0.0278564807
C  C129  1  0.26020000  0.32760000  0.47800000  1.0 -0.0278564807
C  C130  1  0.15040000  0.17240000  0.43260000  1.0 -0.0278564807
C  C131  1  0.23980000  0.71780000  0.06740000  1.0 -0.0278564807
C  C132  1  0.34960000  0.78220000  0.02200000  1.0 -0.0278564807
C  C133  1  0.76020000  0.97800000  0.82760000  1.0 -0.0278564807
C  C134  1  0.65040000  0.93260000  0.67240000  1.0 -0.0278564807
C  C135  1  0.73980000  0.56740000  0.21780000  1.0 -0.0278564807
C  C136  1  0.84960000  0.52200000  0.28220000  1.0 -0.0278564807
C  C137  1  0.97800000  0.82760000  0.76020000  1.0 -0.0278564807
C  C138  1  0.93260000  0.67240000  0.65040000  1.0 -0.0278564807
C  C139  1  0.56740000  0.21780000  0.73980000  1.0 -0.0278564807
C  C140  1  0.52200000  0.28220000  0.84960000  1.0 -0.0278564807
C  C141  1  0.82760000  0.76020000  0.97800000  1.0 -0.0278564807
C  C142  1  0.67240000  0.65040000  0.93260000  1.0 -0.0278564807
C  C143  1  0.21780000  0.73980000  0.56740000  1.0 -0.0278564807
C  C144  1  0.28220000  0.84960000  0.52200000  1.0 -0.0278564807
C  C145  1  0.44380000  0.27270000  0.35250000  1.0 -0.0989783637
C  C146  1  0.42020000  0.09130000  0.14750000  1.0 -0.0989783637
C  C147  1  0.07980000  0.22730000  0.67110000  1.0 -0.0989783637
C  C148  1  0.05620000  0.40870000  0.82890000  1.0 -0.0989783637
C  C149  1  0.35250000  0.44380000  0.27270000  1.0 -0.0989783637
C  C150  1  0.14750000  0.42020000  0.09130000  1.0 -0.0989783637
C  C151  1  0.67110000  0.07980000  0.22730000  1.0 -0.0989783637
C  C152  1  0.82890000  0.05620000  0.40870000  1.0 -0.0989783637
C  C153  1  0.27270000  0.35250000  0.44380000  1.0 -0.0989783637
C  C154  1  0.09130000  0.14750000  0.42020000  1.0 -0.0989783637
C  C155  1  0.22730000  0.67110000  0.07980000  1.0 -0.0989783637
C  C156  1  0.40870000  0.82890000  0.05620000  1.0 -0.0989783637
C  C157  1  0.77270000  0.94380000  0.85250000  1.0 -0.0989783637
C  C158  1  0.59130000  0.92020000  0.64750000  1.0 -0.0989783637
C  C159  1  0.72730000  0.57980000  0.17110000  1.0 -0.0989783637
C  C160  1  0.90870000  0.55620000  0.32890000  1.0 -0.0989783637
C  C161  1  0.94380000  0.85250000  0.77270000  1.0 -0.0989783637
C  C162  1  0.92020000  0.64750000  0.59130000  1.0 -0.0989783637
C  C163  1  0.57980000  0.17110000  0.72730000  1.0 -0.0989783637
C  C164  1  0.55620000  0.32890000  0.90870000  1.0 -0.0989783637
C  C165  1  0.85250000  0.77270000  0.94380000  1.0 -0.0989783637
C  C166  1  0.64750000  0.59130000  0.92020000  1.0 -0.0989783637
C  C167  1  0.17110000  0.72730000  0.57980000  1.0 -0.0989783637
C  C168  1  0.32890000  0.90870000  0.55620000  1.0 -0.0989783637
C  C169  1  0.39250000  0.33710000  0.34580000  1.0 0.4326977065
C  C170  1  0.49130000  0.04670000  0.15420000  1.0 0.4326977065
C  C171  1  0.00870000  0.16290000  0.55540000  1.0 0.4326977065
C  C172  1  0.10750000  0.45330000  0.94460000  1.0 0.4326977065
C  C173  1  0.34580000  0.39250000  0.33710000  1.0 0.4326977065
C  C174  1  0.15420000  0.49130000  0.04670000  1.0 0.4326977065
C  C175  1  0.55540000  0.00870000  0.16290000  1.0 0.4326977065
C  C176  1  0.94460000  0.10750000  0.45330000  1.0 0.4326977065
C  C177  1  0.33710000  0.34580000  0.39250000  1.0 0.4326977065
C  C178  1  0.04670000  0.15420000  0.49130000  1.0 0.4326977065
C  C179  1  0.16290000  0.55540000  0.00870000  1.0 0.4326977065
C  C180  1  0.45330000  0.94460000  0.10750000  1.0 0.4326977065
C  C181  1  0.83710000  0.89250000  0.84580000  1.0 0.4326977065
C  C182  1  0.54670000  0.99130000  0.65420000  1.0 0.4326977065
C  C183  1  0.66290000  0.50870000  0.05540000  1.0 0.4326977065
C  C184  1  0.95330000  0.60750000  0.44460000  1.0 0.4326977065
C  C185  1  0.89250000  0.84580000  0.83710000  1.0 0.4326977065
C  C186  1  0.99130000  0.65420000  0.54670000  1.0 0.4326977065
C  C187  1  0.50870000  0.05540000  0.66290000  1.0 0.4326977065
C  C188  1  0.60750000  0.44460000  0.95330000  1.0 0.4326977065
C  C189  1  0.84580000  0.83710000  0.89250000  1.0 0.4326977065
C  C190  1  0.65420000  0.54670000  0.99130000  1.0 0.4326977065
C  C191  1  0.05540000  0.66290000  0.50870000  1.0 0.4326977065
C  C192  1  0.44460000  0.95330000  0.60750000  1.0 0.4326977065
S  S1  1  0.52039000  0.32952000  0.18523000  1.0 -0.4972891231
S  S2  1  0.64429000  0.33516000  0.31477000  1.0 -0.4972891231
S  S3  1  0.85571000  0.17048000  0.69087000  1.0 -0.4972891231
S  S4  1  0.97961000  0.16484000  0.80913000  1.0 -0.4972891231
S  S5  1  0.18523000  0.52039000  0.32952000  1.0 -0.4972891231
S  S6  1  0.31477000  0.64429000  0.33516000  1.0 -0.4972891231
S  S7  1  0.69087000  0.85571000  0.17048000  1.0 -0.4972891231
S  S8  1  0.80913000  0.97961000  0.16484000  1.0 -0.4972891231
S  S9  1  0.32952000  0.18523000  0.52039000  1.0 -0.4972891231
S  S10  1  0.33516000  0.31477000  0.64429000  1.0 -0.4972891231
S  S11  1  0.17048000  0.69087000  0.85571000  1.0 -0.4972891231
S  S12  1  0.16484000  0.80913000  0.97961000  1.0 -0.4972891231
S  S13  1  0.82952000  0.02039000  0.68523000  1.0 -0.4972891231
S  S14  1  0.83516000  0.14429000  0.81477000  1.0 -0.4972891231
S  S15  1  0.67048000  0.35571000  0.19087000  1.0 -0.4972891231
S  S16  1  0.66484000  0.47961000  0.30913000  1.0 -0.4972891231
S  S17  1  0.02039000  0.68523000  0.82952000  1.0 -0.4972891231
S  S18  1  0.14429000  0.81477000  0.83516000  1.0 -0.4972891231
S  S19  1  0.35571000  0.19087000  0.67048000  1.0 -0.4972891231
S  S20  1  0.47961000  0.30913000  0.66484000  1.0 -0.4972891231
S  S21  1  0.68523000  0.82952000  0.02039000  1.0 -0.4972891231
S  S22  1  0.81477000  0.83516000  0.14429000  1.0 -0.4972891231
S  S23  1  0.19087000  0.67048000  0.35571000  1.0 -0.4972891231
S  S24  1  0.30913000  0.66484000  0.47961000  1.0 -0.4972891231
Br  Br1  1  0.50570000  0.46953000  0.28757000  1.0 -0.5152877539
Br  Br2  1  0.68196000  0.21813000  0.21243000  1.0 -0.5135697493
Br  Br3  1  0.81804000  0.03047000  0.53617000  1.0 -0.5152877539
Br  Br4  1  0.99430000  0.28187000  0.96383000  1.0 -0.5152877539
Br  Br5  1  0.28757000  0.50570000  0.46953000  1.0 -0.5152877539
Br  Br6  1  0.21243000  0.68196000  0.21813000  1.0 -0.5152877539
Br  Br7  1  0.53617000  0.81804000  0.03047000  1.0 -0.5135697493
Br  Br8  1  0.96383000  0.99430000  0.28187000  1.0 -0.5152877539
Br  Br9  1  0.46953000  0.28757000  0.50570000  1.0 -0.5152877539
Br  Br10  1  0.21813000  0.21243000  0.68196000  1.0 -0.5152877539
Br  Br11  1  0.03047000  0.53617000  0.81804000  1.0 -0.5135697493
Br  Br12  1  0.28187000  0.96383000  0.99430000  1.0 -0.5152877539
Br  Br13  1  0.96953000  0.00570000  0.78757000  1.0 -0.5135697493
Br  Br14  1  0.71813000  0.18196000  0.71243000  1.0 -0.5152877539
Br  Br15  1  0.53047000  0.31804000  0.03617000  1.0 -0.5152877539
Br  Br16  1  0.78187000  0.49430000  0.46383000  1.0 -0.5135697493
Br  Br17  1  0.00570000  0.78757000  0.96953000  1.0 -0.5135697493
Br  Br18  1  0.18196000  0.71243000  0.71813000  1.0 -0.5135697493
Br  Br19  1  0.31804000  0.03617000  0.53047000  1.0 -0.5135697493
Br  Br20  1  0.49430000  0.46383000  0.78187000  1.0 -0.5152877539
Br  Br21  1  0.78757000  0.96953000  0.00570000  1.0 -0.5135697493
Br  Br22  1  0.71243000  0.71813000  0.18196000  1.0 -0.5135697493
Br  Br23  1  0.03617000  0.53047000  0.31804000  1.0 -0.5135697493
Br  Br24  1  0.46383000  0.78187000  0.49430000  1.0 -0.5135697493
N  N1  1  0.56370000  0.48140000  0.18650000  1.0 -0.2342496484
N  N2  1  0.79490000  0.37720000  0.31350000  1.0 -0.2342496484
N  N3  1  0.70510000  0.01860000  0.58230000  1.0 -0.2355603191
N  N4  1  0.93630000  0.12280000  0.91770000  1.0 -0.2355603191
N  N5  1  0.18650000  0.56370000  0.48140000  1.0 -0.2342496484
N  N6  1  0.31350000  0.79490000  0.37720000  1.0 -0.2342496484
N  N7  1  0.58230000  0.70510000  0.01860000  1.0 -0.2342496484
N  N8  1  0.91770000  0.93630000  0.12280000  1.0 -0.2355603191
N  N9  1  0.48140000  0.18650000  0.56370000  1.0 -0.2355603191
N  N10  1  0.37720000  0.31350000  0.79490000  1.0 -0.2342496484
N  N11  1  0.01860000  0.58230000  0.70510000  1.0 -0.2342496484
N  N12  1  0.12280000  0.91770000  0.93630000  1.0 -0.2355603191
N  N13  1  0.98140000  0.06370000  0.68650000  1.0 -0.2342496484
N  N14  1  0.87720000  0.29490000  0.81350000  1.0 -0.2342496484
N  N15  1  0.51860000  0.20510000  0.08230000  1.0 -0.2355603191
N  N16  1  0.62280000  0.43630000  0.41770000  1.0 -0.2342496484
N  N17  1  0.06370000  0.68650000  0.98140000  1.0 -0.2342496484
N  N18  1  0.29490000  0.81350000  0.87720000  1.0 -0.2342496484
N  N19  1  0.20510000  0.08230000  0.51860000  1.0 -0.2342496484
N  N20  1  0.43630000  0.41770000  0.62280000  1.0 -0.2342496484
N  N21  1  0.68650000  0.98140000  0.06370000  1.0 -0.2355603191
N  N22  1  0.81350000  0.87720000  0.29490000  1.0 -0.2355603191
N  N23  1  0.08230000  0.51860000  0.20510000  1.0 -0.2342496484
N  N24  1  0.41770000  0.62280000  0.43630000  1.0 -0.2342496484
N  N25  1  0.54720000  0.50840000  0.11340000  1.0 -0.0353896856
N  N26  1  0.89500000  0.43380000  0.38660000  1.0 -0.0353896856
N  N27  1  0.60500000  0.99160000  0.53880000  1.0 -0.0353896856
N  N28  1  0.95280000  0.06620000  0.96120000  1.0 -0.0353896856
N  N29  1  0.11340000  0.54720000  0.50840000  1.0 -0.0353896856
N  N30  1  0.38660000  0.89500000  0.43380000  1.0 -0.0353896856
N  N31  1  0.53880000  0.60500000  0.99160000  1.0 -0.0353896856
N  N32  1  0.96120000  0.95280000  0.06620000  1.0 -0.0353896856
N  N33  1  0.50840000  0.11340000  0.54720000  1.0 -0.0353896856
N  N34  1  0.43380000  0.38660000  0.89500000  1.0 -0.0353896856
N  N35  1  0.99160000  0.53880000  0.60500000  1.0 -0.0353896856
N  N36  1  0.06620000  0.96120000  0.95280000  1.0 -0.0353896856
N  N37  1  0.00840000  0.04720000  0.61340000  1.0 -0.0353896856
N  N38  1  0.93380000  0.39500000  0.88660000  1.0 -0.0353896856
N  N39  1  0.49160000  0.10500000  0.03880000  1.0 -0.0353896856
N  N40  1  0.56620000  0.45280000  0.46120000  1.0 -0.0353896856
N  N41  1  0.04720000  0.61340000  0.00840000  1.0 -0.0353896856
N  N42  1  0.39500000  0.88660000  0.93380000  1.0 -0.0353896856
N  N43  1  0.10500000  0.03880000  0.49160000  1.0 -0.0353896856
N  N44  1  0.45280000  0.46120000  0.56620000  1.0 -0.0353896856
N  N45  1  0.61340000  0.00840000  0.04720000  1.0 -0.0353896856
N  N46  1  0.88660000  0.93380000  0.39500000  1.0 -0.0353896856
N  N47  1  0.03880000  0.49160000  0.10500000  1.0 -0.0278564807
N  N48  1  0.46120000  0.56620000  0.45280000  1.0 -0.0353896856
N  N49  1  0.49010000  0.44580000  0.00470000  1.0 -0.4799423771
N  N50  1  0.94110000  0.48540000  0.49530000  1.0 -0.4799423771
N  N51  1  0.55890000  0.05420000  0.54430000  1.0 -0.4799423771
N  N52  1  0.00990000  0.01460000  0.95570000  1.0 -0.4799423771
N  N53  1  0.00470000  0.49010000  0.44580000  1.0 -0.4799423771
N  N54  1  0.49530000  0.94110000  0.48540000  1.0 -0.4799423771
N  N55  1  0.54430000  0.55890000  0.05420000  1.0 -0.4799423771
N  N56  1  0.95570000  0.00990000  0.01460000  1.0 -0.4799423771
N  N57  1  0.44580000  0.00470000  0.49010000  1.0 -0.4799423771
N  N58  1  0.48540000  0.49530000  0.94110000  1.0 -0.4799423771
N  N59  1  0.05420000  0.54430000  0.55890000  1.0 -0.4799423771
N  N60  1  0.01460000  0.95570000  0.00990000  1.0 -0.4799423771
N  N61  1  0.94580000  0.99010000  0.50470000  1.0 -0.4799423771
N  N62  1  0.98540000  0.44110000  0.99530000  1.0 -0.4799423771
N  N63  1  0.55420000  0.05890000  0.04430000  1.0 -0.4799423771
N  N64  1  0.51460000  0.50990000  0.45570000  1.0 -0.4799423771
N  N65  1  0.99010000  0.50470000  0.94580000  1.0 -0.4799423771
N  N66  1  0.44110000  0.99530000  0.98540000  1.0 -0.4799423771
N  N67  1  0.05890000  0.04430000  0.55420000  1.0 -0.4799423771
N  N68  1  0.50990000  0.45570000  0.51460000  1.0 -0.4799423771
N  N69  1  0.50470000  0.94580000  0.99010000  1.0 -0.4799423771
N  N70  1  0.99530000  0.98540000  0.44110000  1.0 -0.4799423771
N  N71  1  0.04430000  0.55420000  0.05890000  1.0 -0.4799423771
N  N72  1  0.45570000  0.51460000  0.50990000  1.0 -0.4799423771
N  N73  1  0.48850000  0.29380000  0.29910000  1.0 -0.2106892076
N  N74  1  0.49470000  0.18940000  0.20090000  1.0 -0.2106892076
N  N75  1  0.00530000  0.20620000  0.69470000  1.0 -0.2106892076
N  N76  1  0.01150000  0.31060000  0.80530000  1.0 -0.2106892076
N  N77  1  0.29910000  0.48850000  0.29380000  1.0 -0.2106892076
N  N78  1  0.20090000  0.49470000  0.18940000  1.0 -0.2106892076
N  N79  1  0.69470000  0.00530000  0.20620000  1.0 -0.2106892076
N  N80  1  0.80530000  0.01150000  0.31060000  1.0 -0.2106892076
N  N81  1  0.29380000  0.29910000  0.48850000  1.0 -0.2106892076
N  N82  1  0.18940000  0.20090000  0.49470000  1.0 -0.2106892076
N  N83  1  0.20620000  0.69470000  0.00530000  1.0 -0.2106892076
N  N84  1  0.31060000  0.80530000  0.01150000  1.0 -0.2106892076
N  N85  1  0.79380000  0.98850000  0.79910000  1.0 -0.2106892076
N  N86  1  0.68940000  0.99470000  0.70090000  1.0 -0.2106892076
N  N87  1  0.70620000  0.50530000  0.19470000  1.0 -0.2106892076
N  N88  1  0.81060000  0.51150000  0.30530000  1.0 -0.2106892076
N  N89  1  0.98850000  0.79910000  0.79380000  1.0 -0.2106892076
N  N90  1  0.99470000  0.70090000  0.68940000  1.0 -0.2106892076
N  N91  1  0.50530000  0.19470000  0.70620000  1.0 -0.2106892076
N  N92  1  0.51150000  0.30530000  0.81060000  1.0 -0.2106892076
N  N93  1  0.79910000  0.79380000  0.98850000  1.0 -0.2106892076
N  N94  1  0.70090000  0.68940000  0.99470000  1.0 -0.2106892076
N  N95  1  0.19470000  0.70620000  0.50530000  1.0 -0.2106892076
N  N96  1  0.30530000  0.81060000  0.51150000  1.0 -0.2106892076
N  N97  1  0.42900000  0.31190000  0.33270000  1.0 -0.0278564807
N  N98  1  0.47920000  0.09630000  0.16730000  1.0 -0.0278564807
N  N99  1  0.02080000  0.18810000  0.61710000  1.0 -0.0278564807
N  N100  1  0.07100000  0.40370000  0.88290000  1.0 -0.0278564807
N  N101  1  0.33270000  0.42900000  0.31190000  1.0 -0.0278564807
N  N102  1  0.16730000  0.47920000  0.09630000  1.0 -0.0278564807
N  N103  1  0.61710000  0.02080000  0.18810000  1.0 -0.0278564807
N  N104  1  0.88290000  0.07100000  0.40370000  1.0 -0.0278564807
N  N105  1  0.31190000  0.33270000  0.42900000  1.0 -0.0278564807
N  N106  1  0.09630000  0.16730000  0.47920000  1.0 -0.0278564807
N  N107  1  0.18810000  0.61710000  0.02080000  1.0 -0.0278564807
N  N108  1  0.40370000  0.88290000  0.07100000  1.0 -0.0278564807
N  N109  1  0.81190000  0.92900000  0.83270000  1.0 -0.0278564807
N  N110  1  0.59630000  0.97920000  0.66730000  1.0 -0.0278564807
N  N111  1  0.68810000  0.52080000  0.11710000  1.0 -0.0278564807
N  N112  1  0.90370000  0.57100000  0.38290000  1.0 -0.0278564807
N  N113  1  0.92900000  0.83270000  0.81190000  1.0 -0.0278564807
N  N114  1  0.97920000  0.66730000  0.59630000  1.0 -0.0278564807
N  N115  1  0.52080000  0.11710000  0.68810000  1.0 -0.0278564807
N  N116  1  0.57100000  0.38290000  0.90370000  1.0 -0.0278564807
N  N117  1  0.83270000  0.81190000  0.92900000  1.0 -0.0278564807
N  N118  1  0.66730000  0.59630000  0.97920000  1.0 -0.0278564807
N  N119  1  0.11710000  0.68810000  0.52080000  1.0 -0.0278564807
N  N120  1  0.38290000  0.90370000  0.57100000  1.0 -0.0278564807
N  N121  1  0.38670000  0.37340000  0.32550000  1.0 -0.4243947833
N  N122  1  0.54790000  0.06120000  0.17450000  1.0 -0.4243947833
N  N123  1  0.95210000  0.12660000  0.51330000  1.0 -0.4250389903
N  N124  1  0.11330000  0.43880000  0.98670000  1.0 -0.4250389903
N  N125  1  0.32550000  0.38670000  0.37340000  1.0 -0.4250389903
N  N126  1  0.17450000  0.54790000  0.06120000  1.0 -0.4250389903
N  N127  1  0.51330000  0.95210000  0.12660000  1.0 -0.4250389903
N  N128  1  0.98670000  0.11330000  0.43880000  1.0 -0.4243947833
N  N129  1  0.37340000  0.32550000  0.38670000  1.0 -0.4250389903
N  N130  1  0.06120000  0.17450000  0.54790000  1.0 -0.4250389903
N  N131  1  0.12660000  0.51330000  0.95210000  1.0 -0.4250389903
N  N132  1  0.43880000  0.98670000  0.11330000  1.0 -0.4250389903
N  N133  1  0.87340000  0.88670000  0.82550000  1.0 -0.4250389903
N  N134  1  0.56120000  0.04790000  0.67450000  1.0 -0.4243947833
N  N135  1  0.62660000  0.45210000  0.01330000  1.0 -0.4243947833
N  N136  1  0.93880000  0.61330000  0.48670000  1.0 -0.4250389903
N  N137  1  0.88670000  0.82550000  0.87340000  1.0 -0.4250389903
N  N138  1  0.04790000  0.67450000  0.56120000  1.0 -0.4250389903
N  N139  1  0.45210000  0.01330000  0.62660000  1.0 -0.4250389903
N  N140  1  0.61330000  0.48670000  0.93880000  1.0 -0.4243947833
N  N141  1  0.82550000  0.87340000  0.88670000  1.0 -0.4243947833
N  N142  1  0.67450000  0.56120000  0.04790000  1.0 -0.4243947833
N  N143  1  0.01330000  0.62660000  0.45210000  1.0 -0.4243947833
N  N144  1  0.48670000  0.93880000  0.61330000  1.0 -0.4250389903
