# DDEC6 charges by PACMAN v1.1 (https://github.com/mtap-research/PACMAN-charge/)
data_NUJCIE_ASR_pacman
_symmetry_space_group_name_H-M   'P 1'
_cell_length_a   13.89500000
_cell_length_b   7.61300000
_cell_length_c   30.04750000
_cell_angle_alpha   90.00000000
_cell_angle_beta   116.47900000
_cell_angle_gamma   90.00000000
_symmetry_Int_Tables_number   1
_chemical_formula_structural   CdNiC7N6
_chemical_formula_sum   'Cd8 Ni8 C56 N48'
_cell_volume   2845.07182368
_cell_formula_units_Z   8
loop_
 _symmetry_equiv_pos_site_id
 _symmetry_equiv_pos_as_xyz
  1  'x, y, z'
loop_
 _atom_site_type_symbol
 _atom_site_label
 _atom_site_symmetry_multiplicity
 _atom_site_fract_x
 _atom_site_fract_y
 _atom_site_fract_z
 _atom_site_occupancy
 _atom_site_charge
Cd  Cd1  1  0.10308000  0.61713000  0.36989000  1.0 1.0231399379
Cd  Cd2  1  0.89692000  0.11713000  0.13011000  1.0 1.0231399379
Cd  Cd3  1  0.89692000  0.38287000  0.63011000  1.0 1.0231399379
Cd  Cd4  1  0.10308000  0.88287000  0.86989000  1.0 1.0231399379
Cd  Cd5  1  0.44575000  0.62103000  0.63635000  1.0 1.0058670482
Cd  Cd6  1  0.55425000  0.12103000  0.86365000  1.0 1.0058670482
Cd  Cd7  1  0.55425000  0.37897000  0.36365000  1.0 1.0058670482
Cd  Cd8  1  0.44575000  0.87897000  0.13635000  1.0 1.0058670482
Ni  Ni1  1  0.30244000  0.12720000  0.49967000  1.0 0.0929339631
Ni  Ni2  1  0.69756000  0.62720000  0.00033000  1.0 0.0929339631
Ni  Ni3  1  0.69756000  0.87280000  0.50033000  1.0 0.0929339631
Ni  Ni4  1  0.30244000  0.37280000  0.99967000  1.0 0.0929339631
Ni  Ni5  1  0.24032000  0.73360000  0.23630000  1.0 0.0838075495
Ni  Ni6  1  0.75968000  0.23360000  0.26370000  1.0 0.0838075495
Ni  Ni7  1  0.75968000  0.26640000  0.76370000  1.0 0.0838075495
Ni  Ni8  1  0.24032000  0.76640000  0.73630000  1.0 0.0838075495
C  C1  1  0.23720000  0.95700000  0.45090000  1.0 0.1466636668
C  C2  1  0.76280000  0.45700000  0.04910000  1.0 0.1466636668
C  C3  1  0.76280000  0.04300000  0.54910000  1.0 0.1466636668
C  C4  1  0.23720000  0.54300000  0.95090000  1.0 0.1466636668
C  C5  1  0.25100000  0.30400000  0.45200000  1.0 0.1900825219
C  C6  1  0.74900000  0.80400000  0.04800000  1.0 0.1900825219
C  C7  1  0.74900000  0.69600000  0.54800000  1.0 0.1900825219
C  C8  1  0.25100000  0.19600000  0.95200000  1.0 0.1900825219
C  C9  1  0.20830000  0.66200000  0.28780000  1.0 0.1815519716
C  C10  1  0.79170000  0.16200000  0.21220000  1.0 0.1815519716
C  C11  1  0.79170000  0.33800000  0.71220000  1.0 0.1815519716
C  C12  1  0.20830000  0.83800000  0.78780000  1.0 0.1815519716
C  C13  1  0.89680000  0.32900000  0.29720000  1.0 0.1223880332
C  C14  1  0.10320000  0.82900000  0.20280000  1.0 0.1223880332
C  C15  1  0.10320000  0.67100000  0.70280000  1.0 0.1223880332
C  C16  1  0.89680000  0.17100000  0.79720000  1.0 0.1223880332
C  C17  1  0.34740000  0.94800000  0.54700000  1.0 0.1315107244
C  C18  1  0.65260000  0.44800000  0.95300000  1.0 0.1315107244
C  C19  1  0.65260000  0.05200000  0.45300000  1.0 0.1315107244
C  C20  1  0.34740000  0.55200000  0.04700000  1.0 0.1315107244
C  C21  1  0.36290000  0.29500000  0.55070000  1.0 0.1815519716
C  C22  1  0.63710000  0.79500000  0.94930000  1.0 0.1815519716
C  C23  1  0.63710000  0.70500000  0.44930000  1.0 0.1815519716
C  C24  1  0.36290000  0.20500000  0.05070000  1.0 0.1815519716
C  C25  1  0.27830000  0.81200000  0.18730000  1.0 0.1673695883
C  C26  1  0.72170000  0.31200000  0.31270000  1.0 0.1673695883
C  C27  1  0.72170000  0.18800000  0.81270000  1.0 0.1673695883
C  C28  1  0.27830000  0.68800000  0.68730000  1.0 0.1673695883
C  C29  1  0.37810000  0.63800000  0.27140000  1.0 0.1367419558
C  C30  1  0.62190000  0.13800000  0.22860000  1.0 0.1367419558
C  C31  1  0.62190000  0.36200000  0.72860000  1.0 0.1367419558
C  C32  1  0.37810000  0.86200000  0.77140000  1.0 0.1367419558
C  C33  1  0.88720000  0.83600000  0.31660000  1.0 0.1986781708
C  C34  1  0.11280000  0.33600000  0.18340000  1.0 0.1986781708
C  C35  1  0.11280000  0.16400000  0.68340000  1.0 0.1986781708
C  C36  1  0.88720000  0.66400000  0.81660000  1.0 0.1986781708
C  C37  1  0.89240000  0.80000000  0.36270000  1.0 0.1986781708
C  C38  1  0.10760000  0.30000000  0.13730000  1.0 0.1900825219
C  C39  1  0.10760000  0.20000000  0.63730000  1.0 0.1900825219
C  C40  1  0.89240000  0.70000000  0.86270000  1.0 0.1986781708
C  C41  1  0.78450000  0.81200000  0.36590000  1.0 0.057932214
C  C42  1  0.21550000  0.31200000  0.13410000  1.0 0.057932214
C  C43  1  0.21550000  0.18800000  0.63410000  1.0 0.057932214
C  C44  1  0.78450000  0.68800000  0.86590000  1.0 0.057932214
C  C45  1  0.62810000  0.89400000  0.69610000  1.0 0.1466636668
C  C46  1  0.37190000  0.39400000  0.80390000  1.0 0.1466636668
C  C47  1  0.37190000  0.10600000  0.30390000  1.0 0.1466636668
C  C48  1  0.62810000  0.60600000  0.19610000  1.0 0.1466636668
C  C49  1  0.66950000  0.81400000  0.66930000  1.0 0.1986781708
C  C50  1  0.33050000  0.31400000  0.83070000  1.0 0.1986781708
C  C51  1  0.33050000  0.18600000  0.33070000  1.0 0.1986781708
C  C52  1  0.66950000  0.68600000  0.16930000  1.0 0.1986781708
C  C53  1  0.77920000  0.86000000  0.67490000  1.0 0.1223880332
C  C54  1  0.22080000  0.36000000  0.82510000  1.0 0.1223880332
C  C55  1  0.22080000  0.14000000  0.32510000  1.0 0.1223880332
C  C56  1  0.77920000  0.64000000  0.17490000  1.0 0.1223880332
N  N1  1  0.19560000  0.85100000  0.42210000  1.0 -0.3920286679
N  N2  1  0.80440000  0.35100000  0.07790000  1.0 -0.3920286679
N  N3  1  0.80440000  0.14900000  0.57790000  1.0 -0.3920286679
N  N4  1  0.19560000  0.64900000  0.92210000  1.0 -0.3920286679
N  N5  1  0.21210000  0.41320000  0.42270000  1.0 -0.3920286679
N  N6  1  0.78790000  0.91320000  0.07730000  1.0 -0.3920286679
N  N7  1  0.78790000  0.58680000  0.57730000  1.0 -0.3920286679
N  N8  1  0.21210000  0.08680000  0.92270000  1.0 -0.3920286679
N  N9  1  0.18920000  0.62000000  0.31940000  1.0 -0.411573884
N  N10  1  0.81080000  0.12000000  0.18060000  1.0 -0.411573884
N  N11  1  0.81080000  0.38000000  0.68060000  1.0 -0.411573884
N  N12  1  0.18920000  0.88000000  0.81940000  1.0 -0.411573884
N  N13  1  0.98160000  0.38800000  0.31620000  1.0 -0.3774475017
N  N14  1  0.01840000  0.88800000  0.18380000  1.0 -0.3695640788
N  N15  1  0.01840000  0.61200000  0.68380000  1.0 -0.3695640788
N  N16  1  0.98160000  0.11200000  0.81620000  1.0 -0.3695640788
N  N17  1  0.98710000  0.83000000  0.31170000  1.0 -0.2725320219
N  N18  1  0.01290000  0.33000000  0.18830000  1.0 -0.2725320219
N  N19  1  0.01290000  0.17000000  0.68830000  1.0 -0.2725320219
N  N20  1  0.98710000  0.67000000  0.81170000  1.0 -0.2758178869
N  N21  1  0.96000000  0.65300000  0.39070000  1.0 -0.4515055948
N  N22  1  0.04000000  0.15300000  0.10930000  1.0 -0.4515055948
N  N23  1  0.04000000  0.34700000  0.60930000  1.0 -0.4515055948
N  N24  1  0.96000000  0.84700000  0.89070000  1.0 -0.4515055948
N  N25  1  0.37180000  0.83800000  0.57520000  1.0 -0.3532476657
N  N26  1  0.62820000  0.33800000  0.92480000  1.0 -0.3532476657
N  N27  1  0.62820000  0.16200000  0.42480000  1.0 -0.3532476657
N  N28  1  0.37180000  0.66200000  0.07520000  1.0 -0.3532476657
N  N29  1  0.39510000  0.39500000  0.58160000  1.0 -0.3774475017
N  N30  1  0.60490000  0.89500000  0.91840000  1.0 -0.3774475017
N  N31  1  0.60490000  0.60500000  0.41840000  1.0 -0.3774475017
N  N32  1  0.39510000  0.10500000  0.08160000  1.0 -0.3774475017
N  N33  1  0.30470000  0.86000000  0.15840000  1.0 -0.411573884
N  N34  1  0.69530000  0.36000000  0.34160000  1.0 -0.411573884
N  N35  1  0.69530000  0.14000000  0.84160000  1.0 -0.411573884
N  N36  1  0.30470000  0.64000000  0.65840000  1.0 -0.411573884
N  N37  1  0.46010000  0.57300000  0.29380000  1.0 -0.3695640788
N  N38  1  0.53990000  0.07300000  0.20620000  1.0 -0.3695640788
N  N39  1  0.53990000  0.42700000  0.70620000  1.0 -0.3695640788
N  N40  1  0.46010000  0.92700000  0.79380000  1.0 -0.3695640788
N  N41  1  0.52360000  0.86000000  0.69290000  1.0 -0.2120668375
N  N42  1  0.47640000  0.36000000  0.80710000  1.0 -0.2120668375
N  N43  1  0.47640000  0.14000000  0.30710000  1.0 -0.2120668375
N  N44  1  0.52360000  0.64000000  0.19290000  1.0 -0.2120668375
N  N45  1  0.61180000  0.67740000  0.63430000  1.0 -0.3695640788
N  N46  1  0.38820000  0.17740000  0.86570000  1.0 -0.3695640788
N  N47  1  0.38820000  0.32260000  0.36570000  1.0 -0.3632445791
N  N48  1  0.61180000  0.82260000  0.13430000  1.0 -0.3632445791
