# DDEC6 charges by PACMAN v1.1 (https://github.com/mtap-research/PACMAN-charge/)
data_NULQIX_FSR_pacman
_chemical_formula_sum              "C896 N448 Cu96"
_cell_length_a       37.091
_cell_length_b       37.091
_cell_length_c       37.091
_cell_angle_alpha    90
_cell_angle_beta     90
_cell_angle_gamma    90

_symmetry_space_group_name_H-M    "P 1"
_symmetry_Int_Tables_number       1

loop_
  _symmetry_equiv_pos_as_xyz
  'x, y, z'

loop_
  _atom_site_type_symbol
  _atom_site_label
  _atom_site_symmetry_multiplicity
  _atom_site_fract_x
  _atom_site_fract_y
  _atom_site_fract_z
  _atom_site_occupancy
 _atom_site_charge
C   C1        1.0  0.33690  0.61630  0.33690  1.0000 -0.0105540436
C   C2        1.0  0.32230  0.63127  0.36873  1.0000 -0.0105540436
C   C3        1.0  0.32260  0.58540  0.32260  1.0000 0.1318055797
N   N1        1.0  0.28320  0.54070  0.31770  1.0000 -0.0844960104
N   N2        1.0  0.30860  0.53560  0.29270  1.0000 -0.0243746745
C   C4        1.0  0.33330  0.56330  0.29550  1.0000 -0.1989605955
C   C5        1.0  0.29010  0.57140  0.33750  1.0000 0.0185348517
N   N3        1.0  0.43670  0.70450  0.33330  1.0000 0.0083904664
C   C6        1.0  0.33690  0.11630  0.83690  1.0000 -0.0105540436
C   C7        1.0  0.32230  0.13127  0.86873  1.0000 -0.0105540436
C   C8        1.0  0.32260  0.08540  0.82260  1.0000 0.1318055797
N   N4        1.0  0.28320  0.04070  0.81770  1.0000 -0.0844960104
N   N5        1.0  0.30860  0.03560  0.79270  1.0000 -0.0308373807
C   C9        1.0  0.33330  0.06330  0.79550  1.0000 -0.1989605955
C   C10       1.0  0.29010  0.07140  0.83750  1.0000 0.0185348517
N   N6        1.0  0.43670  0.20450  0.83330  1.0000 0.0083904664
C   C11       1.0  0.83690  0.61630  0.83690  1.0000 -0.0105540436
C   C12       1.0  0.82230  0.63127  0.86873  1.0000 -0.0105540436
C   C13       1.0  0.82260  0.58540  0.82260  1.0000 0.1318055797
N   N7        1.0  0.78320  0.54070  0.81770  1.0000 -0.0844960104
N   N8        1.0  0.80860  0.53560  0.79270  1.0000 -0.0243746745
C   C14       1.0  0.83330  0.56330  0.79550  1.0000 -0.1989605955
C   C15       1.0  0.79010  0.57140  0.83750  1.0000 0.0185348517
N   N9        1.0  0.93670  0.70450  0.83330  1.0000 0.0083904664
C   C16       1.0  0.83690  0.11630  0.33690  1.0000 -0.0105540436
C   C17       1.0  0.82230  0.13127  0.36873  1.0000 -0.0105540436
C   C18       1.0  0.82260  0.08540  0.32260  1.0000 0.1318055797
N   N10       1.0  0.78320  0.04070  0.31770  1.0000 -0.0844960104
N   N11       1.0  0.80860  0.03560  0.29270  1.0000 -0.0243746745
C   C19       1.0  0.83330  0.06330  0.29550  1.0000 -0.1989605955
C   C20       1.0  0.79010  0.07140  0.33750  1.0000 0.0185348517
N   N12       1.0  0.93670  0.20450  0.33330  1.0000 0.0083904664
C   C21       1.0  0.66310  0.38370  0.33690  1.0000 -0.0105540436
C   C22       1.0  0.67770  0.36873  0.36873  1.0000 -0.0105540436
C   C23       1.0  0.67740  0.41460  0.32260  1.0000 0.1318055797
N   N13       1.0  0.71680  0.45930  0.31770  1.0000 -0.0844960104
N   N14       1.0  0.69140  0.46440  0.29270  1.0000 -0.0243746745
C   C24       1.0  0.66670  0.43670  0.29550  1.0000 -0.1989605955
C   C25       1.0  0.70990  0.42860  0.33750  1.0000 0.0185348517
N   N15       1.0  0.56330  0.29550  0.33330  1.0000 0.0083904664
C   C26       1.0  0.66310  0.88370  0.83690  1.0000 -0.0105540436
C   C27       1.0  0.67770  0.86873  0.86873  1.0000 -0.0105540436
C   C28       1.0  0.67740  0.91460  0.82260  1.0000 0.1318055797
N   N16       1.0  0.71680  0.95930  0.81770  1.0000 -0.0844960104
N   N17       1.0  0.69140  0.96440  0.79270  1.0000 -0.0243746745
C   C29       1.0  0.66670  0.93670  0.79550  1.0000 -0.1989605955
C   C30       1.0  0.70990  0.92860  0.83750  1.0000 0.0185348517
N   N18       1.0  0.56330  0.79550  0.83330  1.0000 0.0083904664
C   C31       1.0  0.16310  0.38370  0.83690  1.0000 -0.0105540436
C   C32       1.0  0.17770  0.36873  0.86873  1.0000 -0.0105540436
C   C33       1.0  0.17740  0.41460  0.82260  1.0000 0.1318055797
N   N19       1.0  0.21680  0.45930  0.81770  1.0000 -0.0854894258
N   N20       1.0  0.19140  0.46440  0.79270  1.0000 -0.0243746745
C   C34       1.0  0.16670  0.43670  0.79550  1.0000 -0.1989605955
C   C35       1.0  0.20990  0.42860  0.83750  1.0000 0.0185348517
N   N21       1.0  0.06330  0.29550  0.83330  1.0000 0.0083904664
C   C36       1.0  0.16310  0.88370  0.33690  1.0000 -0.0105540436
C   C37       1.0  0.17770  0.86873  0.36873  1.0000 -0.0105540436
C   C38       1.0  0.17740  0.91460  0.32260  1.0000 0.1318055797
N   N22       1.0  0.21680  0.95930  0.31770  1.0000 -0.0854894258
N   N23       1.0  0.19140  0.96440  0.29270  1.0000 -0.0243746745
C   C39       1.0  0.16670  0.93670  0.29550  1.0000 -0.1989605955
C   C40       1.0  0.20990  0.92860  0.33750  1.0000 0.0185348517
N   N24       1.0  0.06330  0.79550  0.33330  1.0000 0.0083904664
C   C41       1.0  0.66310  0.61630  0.66310  1.0000 -0.0105540436
C   C42       1.0  0.67770  0.63127  0.63127  1.0000 -0.0105540436
C   C43       1.0  0.67740  0.58540  0.67740  1.0000 0.1318055797
N   N25       1.0  0.71680  0.54070  0.68230  1.0000 -0.0844960104
N   N26       1.0  0.69140  0.53560  0.70730  1.0000 -0.0243746745
C   C44       1.0  0.66670  0.56330  0.70450  1.0000 -0.1989605955
C   C45       1.0  0.70990  0.57140  0.66250  1.0000 0.0185348517
N   N27       1.0  0.56330  0.70450  0.66670  1.0000 0.0083904664
C   C46       1.0  0.66310  0.11630  0.16310  1.0000 -0.0105540436
C   C47       1.0  0.67770  0.13127  0.13127  1.0000 -0.0105540436
C   C48       1.0  0.67740  0.08540  0.17740  1.0000 0.1318055797
N   N28       1.0  0.71680  0.04070  0.18230  1.0000 -0.0844960104
N   N29       1.0  0.69140  0.03560  0.20730  1.0000 -0.0243746745
C   C49       1.0  0.66670  0.06330  0.20450  1.0000 -0.1989605955
C   C50       1.0  0.70990  0.07140  0.16250  1.0000 0.0185348517
N   N30       1.0  0.56330  0.20450  0.16670  1.0000 0.0083904664
C   C51       1.0  0.16310  0.61630  0.16310  1.0000 -0.0105540436
C   C52       1.0  0.17770  0.63127  0.13127  1.0000 -0.0105540436
C   C53       1.0  0.17740  0.58540  0.17740  1.0000 0.1318055797
N   N31       1.0  0.21680  0.54070  0.18230  1.0000 -0.0854894258
N   N32       1.0  0.19140  0.53560  0.20730  1.0000 -0.0243746745
C   C54       1.0  0.16670  0.56330  0.20450  1.0000 -0.1989605955
C   C55       1.0  0.20990  0.57140  0.16250  1.0000 0.0185348517
N   N33       1.0  0.06330  0.70450  0.16670  1.0000 0.0083904664
C   C56       1.0  0.16310  0.11630  0.66310  1.0000 -0.0105540436
C   C57       1.0  0.17770  0.13127  0.63127  1.0000 -0.0105540436
C   C58       1.0  0.17740  0.08540  0.67740  1.0000 0.1318055797
N   N34       1.0  0.21680  0.04070  0.68230  1.0000 -0.0854894258
N   N35       1.0  0.19140  0.03560  0.70730  1.0000 -0.0243746745
C   C59       1.0  0.16670  0.06330  0.70450  1.0000 -0.1989605955
C   C60       1.0  0.20990  0.07140  0.66250  1.0000 0.0185348517
N   N36       1.0  0.06330  0.20450  0.66670  1.0000 0.0083904664
C   C61       1.0  0.33690  0.38370  0.66310  1.0000 -0.0105540436
C   C62       1.0  0.32230  0.36873  0.63127  1.0000 -0.0105540436
C   C63       1.0  0.32260  0.41460  0.67740  1.0000 0.1318055797
N   N37       1.0  0.28320  0.45930  0.68230  1.0000 -0.0844960104
N   N38       1.0  0.30860  0.46440  0.70730  1.0000 -0.0308373807
C   C64       1.0  0.33330  0.43670  0.70450  1.0000 -0.1989605955
C   C65       1.0  0.29010  0.42860  0.66250  1.0000 0.0185348517
N   N39       1.0  0.43670  0.29550  0.66670  1.0000 0.0083904664
C   C66       1.0  0.33690  0.88370  0.16310  1.0000 -0.0105540436
C   C67       1.0  0.32230  0.86873  0.13127  1.0000 -0.0105540436
C   C68       1.0  0.32260  0.91460  0.17740  1.0000 0.1318055797
N   N40       1.0  0.28320  0.95930  0.18230  1.0000 -0.0854894258
N   N41       1.0  0.30860  0.96440  0.20730  1.0000 -0.0243746745
C   C69       1.0  0.33330  0.93670  0.20450  1.0000 -0.1989605955
C   C70       1.0  0.29010  0.92860  0.16250  1.0000 0.0185348517
N   N42       1.0  0.43670  0.79550  0.16670  1.0000 0.0083904664
C   C71       1.0  0.83690  0.38370  0.16310  1.0000 -0.0105540436
C   C72       1.0  0.82230  0.36873  0.13127  1.0000 -0.0105540436
C   C73       1.0  0.82260  0.41460  0.17740  1.0000 0.1318055797
N   N43       1.0  0.78320  0.45930  0.18230  1.0000 -0.0844960104
N   N44       1.0  0.80860  0.46440  0.20730  1.0000 -0.0243746745
C   C74       1.0  0.83330  0.43670  0.20450  1.0000 -0.1989605955
C   C75       1.0  0.79010  0.42860  0.16250  1.0000 0.0185348517
N   N45       1.0  0.93670  0.29550  0.16670  1.0000 0.0083904664
C   C76       1.0  0.83690  0.88370  0.66310  1.0000 -0.0105540436
C   C77       1.0  0.82230  0.86873  0.63127  1.0000 -0.0105540436
C   C78       1.0  0.82260  0.91460  0.67740  1.0000 0.1318055797
N   N46       1.0  0.78320  0.95930  0.68230  1.0000 -0.0844960104
N   N47       1.0  0.80860  0.96440  0.70730  1.0000 -0.0243746745
C   C79       1.0  0.83330  0.93670  0.70450  1.0000 -0.1989605955
C   C80       1.0  0.79010  0.92860  0.66250  1.0000 0.0185348517
N   N48       1.0  0.93670  0.79550  0.66670  1.0000 0.0083904664
C   C81       1.0  0.33690  0.33690  0.61630  1.0000 -0.0105540436
C   C82       1.0  0.36873  0.32230  0.63127  1.0000 -0.0490220883
C   C83       1.0  0.32260  0.32260  0.58540  1.0000 0.1245899171
N   N49       1.0  0.31770  0.28320  0.54070  1.0000 -0.0972911859
N   N50       1.0  0.29270  0.30860  0.53560  1.0000 -0.0308373807
C   C84       1.0  0.29550  0.33330  0.56330  1.0000 -0.1898333711
C   C85       1.0  0.33750  0.29010  0.57140  1.0000 0.0321980071
C   C86       1.0  0.33690  0.83690  0.11630  1.0000 -0.004253197
C   C87       1.0  0.36873  0.82230  0.13127  1.0000 -0.0490220883
C   C88       1.0  0.32260  0.82260  0.08540  1.0000 0.1245899171
N   N51       1.0  0.31770  0.78320  0.04070  1.0000 -0.0972911859
N   N52       1.0  0.29270  0.80860  0.03560  1.0000 -0.0308373807
C   C89       1.0  0.29550  0.83330  0.06330  1.0000 -0.1898333711
C   C90       1.0  0.33750  0.79010  0.07140  1.0000 0.0321980071
C   C91       1.0  0.83690  0.33690  0.11630  1.0000 -0.004253197
C   C92       1.0  0.86873  0.32230  0.13127  1.0000 -0.0490220883
C   C93       1.0  0.82260  0.32260  0.08540  1.0000 0.1245899171
N   N53       1.0  0.81770  0.28320  0.04070  1.0000 -0.0972911859
N   N54       1.0  0.79270  0.30860  0.03560  1.0000 -0.0308373807
C   C94       1.0  0.79550  0.33330  0.06330  1.0000 -0.1898333711
C   C95       1.0  0.83750  0.29010  0.07140  1.0000 0.0321980071
C   C96       1.0  0.83690  0.83690  0.61630  1.0000 -0.004253197
C   C97       1.0  0.86873  0.82230  0.63127  1.0000 -0.0490220883
C   C98       1.0  0.82260  0.82260  0.58540  1.0000 0.1245899171
N   N55       1.0  0.81770  0.78320  0.54070  1.0000 -0.0972911859
N   N56       1.0  0.79270  0.80860  0.53560  1.0000 -0.0308373807
C   C99       1.0  0.79550  0.83330  0.56330  1.0000 -0.1898333711
C   C100      1.0  0.83750  0.79010  0.57140  1.0000 0.0321980071
C   C101      1.0  0.33690  0.66310  0.38370  1.0000 -0.0105540436
C   C102      1.0  0.36873  0.67770  0.36873  1.0000 -0.0490220883
C   C103      1.0  0.32260  0.67740  0.41460  1.0000 0.1245899171
N   N57       1.0  0.31770  0.71680  0.45930  1.0000 -0.0972911859
N   N58       1.0  0.29270  0.69140  0.46440  1.0000 -0.0308373807
C   C104      1.0  0.29550  0.66670  0.43670  1.0000 -0.1898333711
C   C105      1.0  0.33750  0.70990  0.42860  1.0000 0.0321980071
C   C106      1.0  0.33690  0.16310  0.88370  1.0000 -0.0105540436
C   C107      1.0  0.36873  0.17770  0.86873  1.0000 -0.0490220883
C   C108      1.0  0.32260  0.17740  0.91460  1.0000 0.1245899171
N   N59       1.0  0.31770  0.21680  0.95930  1.0000 -0.0972911859
N   N60       1.0  0.29270  0.19140  0.96440  1.0000 -0.0308373807
C   C109      1.0  0.29550  0.16670  0.93670  1.0000 -0.1898333711
C   C110      1.0  0.33750  0.20990  0.92860  1.0000 0.0321980071
C   C111      1.0  0.83690  0.66310  0.88370  1.0000 -0.004253197
C   C112      1.0  0.86873  0.67770  0.86873  1.0000 -0.0490220883
C   C113      1.0  0.82260  0.67740  0.91460  1.0000 0.1245899171
N   N61       1.0  0.81770  0.71680  0.95930  1.0000 -0.0972911859
N   N62       1.0  0.79270  0.69140  0.96440  1.0000 -0.0308373807
C   C114      1.0  0.79550  0.66670  0.93670  1.0000 -0.1898333711
C   C115      1.0  0.83750  0.70990  0.92860  1.0000 0.0321980071
C   C116      1.0  0.83690  0.16310  0.38370  1.0000 -0.004253197
C   C117      1.0  0.86873  0.17770  0.36873  1.0000 -0.0490220883
C   C118      1.0  0.82260  0.17740  0.41460  1.0000 0.1245899171
N   N63       1.0  0.81770  0.21680  0.45930  1.0000 -0.0972911859
N   N64       1.0  0.79270  0.19140  0.46440  1.0000 -0.0308373807
C   C119      1.0  0.79550  0.16670  0.43670  1.0000 -0.1898333711
C   C120      1.0  0.83750  0.20990  0.42860  1.0000 0.0321980071
C   C121      1.0  0.66310  0.66310  0.61630  1.0000 -0.004253197
C   C122      1.0  0.63127  0.67770  0.63127  1.0000 -0.0490220883
C   C123      1.0  0.67740  0.67740  0.58540  1.0000 0.1245899171
N   N65       1.0  0.68230  0.71680  0.54070  1.0000 -0.0972911859
N   N66       1.0  0.70730  0.69140  0.53560  1.0000 -0.0308373807
C   C124      1.0  0.70450  0.66670  0.56330  1.0000 -0.1898333711
C   C125      1.0  0.66250  0.70990  0.57140  1.0000 0.0321980071
C   C126      1.0  0.66310  0.16310  0.11630  1.0000 -0.004253197
C   C127      1.0  0.63127  0.17770  0.13127  1.0000 -0.0490220883
C   C128      1.0  0.67740  0.17740  0.08540  1.0000 0.1245899171
N   N67       1.0  0.68230  0.21680  0.04070  1.0000 -0.0972911859
N   N68       1.0  0.70730  0.19140  0.03560  1.0000 -0.0308373807
C   C129      1.0  0.70450  0.16670  0.06330  1.0000 -0.1898333711
C   C130      1.0  0.66250  0.20990  0.07140  1.0000 0.0321980071
C   C131      1.0  0.16310  0.66310  0.11630  1.0000 -0.0105540436
C   C132      1.0  0.13127  0.67770  0.13127  1.0000 -0.0490220883
C   C133      1.0  0.17740  0.67740  0.08540  1.0000 0.1245899171
N   N69       1.0  0.18230  0.71680  0.04070  1.0000 -0.0972911859
N   N70       1.0  0.20730  0.69140  0.03560  1.0000 -0.0308373807
C   C134      1.0  0.20450  0.66670  0.06330  1.0000 -0.1898333711
C   C135      1.0  0.16250  0.70990  0.07140  1.0000 0.0321980071
C   C136      1.0  0.16310  0.16310  0.61630  1.0000 -0.0105540436
C   C137      1.0  0.13127  0.17770  0.63127  1.0000 -0.0490220883
C   C138      1.0  0.17740  0.17740  0.58540  1.0000 0.1245899171
N   N71       1.0  0.18230  0.21680  0.54070  1.0000 -0.0972911859
N   N72       1.0  0.20730  0.19140  0.53560  1.0000 -0.0308373807
C   C139      1.0  0.20450  0.16670  0.56330  1.0000 -0.1898333711
C   C140      1.0  0.16250  0.20990  0.57140  1.0000 0.0321980071
C   C141      1.0  0.66310  0.33690  0.38370  1.0000 -0.004253197
C   C142      1.0  0.63127  0.32230  0.36873  1.0000 -0.0490220883
C   C143      1.0  0.67740  0.32260  0.41460  1.0000 0.1245899171
N   N73       1.0  0.68230  0.28320  0.45930  1.0000 -0.0972911859
N   N74       1.0  0.70730  0.30860  0.46440  1.0000 -0.0308373807
C   C144      1.0  0.70450  0.33330  0.43670  1.0000 -0.1898333711
C   C145      1.0  0.66250  0.29010  0.42860  1.0000 0.0321980071
C   C146      1.0  0.66310  0.83690  0.88370  1.0000 -0.004253197
C   C147      1.0  0.63127  0.82230  0.86873  1.0000 -0.0490220883
C   C148      1.0  0.67740  0.82260  0.91460  1.0000 0.1245899171
N   N75       1.0  0.68230  0.78320  0.95930  1.0000 -0.0972911859
N   N76       1.0  0.70730  0.80860  0.96440  1.0000 -0.0308373807
C   C149      1.0  0.70450  0.83330  0.93670  1.0000 -0.1898333711
C   C150      1.0  0.66250  0.79010  0.92860  1.0000 0.0321980071
C   C151      1.0  0.16310  0.33690  0.88370  1.0000 -0.0105540436
C   C152      1.0  0.13127  0.32230  0.86873  1.0000 -0.0490220883
C   C153      1.0  0.17740  0.32260  0.91460  1.0000 0.1245899171
N   N77       1.0  0.18230  0.28320  0.95930  1.0000 -0.0972911859
N   N78       1.0  0.20730  0.30860  0.96440  1.0000 -0.0308373807
C   C154      1.0  0.20450  0.33330  0.93670  1.0000 -0.1898333711
C   C155      1.0  0.16250  0.29010  0.92860  1.0000 0.0321980071
C   C156      1.0  0.16310  0.83690  0.38370  1.0000 -0.0105540436
C   C157      1.0  0.13127  0.82230  0.36873  1.0000 -0.0490220883
C   C158      1.0  0.17740  0.82260  0.41460  1.0000 0.1245899171
N   N79       1.0  0.18230  0.78320  0.45930  1.0000 -0.0972911859
N   N80       1.0  0.20730  0.80860  0.46440  1.0000 -0.0308373807
C   C159      1.0  0.20450  0.83330  0.43670  1.0000 -0.1898333711
C   C160      1.0  0.16250  0.79010  0.42860  1.0000 0.0321980071
C   C161      1.0  0.61630  0.33690  0.33690  1.0000 0.042566651
C   C162      1.0  0.63127  0.36873  0.32230  1.0000 -0.0308373807
C   C163      1.0  0.58540  0.32260  0.32260  1.0000 -0.0308373807
N   N81       1.0  0.54070  0.31770  0.28320  1.0000 -0.0490220883
N   N82       1.0  0.53560  0.29270  0.30860  1.0000 -0.1357478067
C   C164      1.0  0.57140  0.33750  0.29010  1.0000 0.0735608559
C   C165      1.0  0.61630  0.83690  0.83690  1.0000 0.042566651
C   C166      1.0  0.63127  0.86873  0.82230  1.0000 -0.0308373807
C   C167      1.0  0.58540  0.82260  0.82260  1.0000 -0.0308373807
N   N83       1.0  0.54070  0.81770  0.78320  1.0000 -0.0490220883
N   N84       1.0  0.53560  0.79270  0.80860  1.0000 -0.1357478067
C   C168      1.0  0.57140  0.83750  0.79010  1.0000 0.0735608559
C   C169      1.0  0.11630  0.33690  0.83690  1.0000 0.042566651
C   C170      1.0  0.13127  0.36873  0.82230  1.0000 -0.0308373807
C   C171      1.0  0.08540  0.32260  0.82260  1.0000 -0.0308373807
N   N85       1.0  0.04070  0.31770  0.78320  1.0000 -0.0490220883
N   N86       1.0  0.03560  0.29270  0.80860  1.0000 -0.1357478067
C   C172      1.0  0.07140  0.33750  0.79010  1.0000 0.0735608559
C   C173      1.0  0.11630  0.83690  0.33690  1.0000 0.042566651
C   C174      1.0  0.13127  0.86873  0.32230  1.0000 -0.0308373807
C   C175      1.0  0.08540  0.82260  0.32260  1.0000 -0.0308373807
N   N87       1.0  0.04070  0.81770  0.28320  1.0000 -0.0490220883
N   N88       1.0  0.03560  0.79270  0.30860  1.0000 -0.1357478067
C   C176      1.0  0.07140  0.83750  0.29010  1.0000 0.0735608559
C   C177      1.0  0.38370  0.33690  0.66310  1.0000 0.042566651
C   C178      1.0  0.36873  0.36873  0.67770  1.0000 -0.0308373807
C   C179      1.0  0.41460  0.32260  0.67740  1.0000 -0.0308373807
N   N89       1.0  0.45930  0.31770  0.71680  1.0000 -0.0490220883
N   N90       1.0  0.46440  0.29270  0.69140  1.0000 -0.1357478067
C   C180      1.0  0.42860  0.33750  0.70990  1.0000 0.0735608559
C   C181      1.0  0.38370  0.83690  0.16310  1.0000 0.042566651
C   C182      1.0  0.36873  0.86873  0.17770  1.0000 -0.0308373807
C   C183      1.0  0.41460  0.82260  0.17740  1.0000 -0.0308373807
N   N91       1.0  0.45930  0.81770  0.21680  1.0000 -0.0490220883
N   N92       1.0  0.46440  0.79270  0.19140  1.0000 -0.1357478067
C   C184      1.0  0.42860  0.83750  0.20990  1.0000 0.0735608559
C   C185      1.0  0.88370  0.33690  0.16310  1.0000 0.042566651
C   C186      1.0  0.86873  0.36873  0.17770  1.0000 -0.0308373807
C   C187      1.0  0.91460  0.32260  0.17740  1.0000 -0.0308373807
N   N93       1.0  0.95930  0.31770  0.21680  1.0000 -0.0490220883
N   N94       1.0  0.96440  0.29270  0.19140  1.0000 -0.1349771201
C   C188      1.0  0.92860  0.33750  0.20990  1.0000 0.0735608559
C   C189      1.0  0.88370  0.83690  0.66310  1.0000 0.042566651
C   C190      1.0  0.86873  0.86873  0.67770  1.0000 -0.0308373807
C   C191      1.0  0.91460  0.82260  0.67740  1.0000 -0.0308373807
N   N95       1.0  0.95930  0.81770  0.71680  1.0000 -0.0490220883
N   N96       1.0  0.96440  0.79270  0.69140  1.0000 -0.1357478067
C   C192      1.0  0.92860  0.83750  0.70990  1.0000 0.0735608559
C   C193      1.0  0.61630  0.66310  0.66310  1.0000 0.042566651
C   C194      1.0  0.63127  0.63127  0.67770  1.0000 -0.0308373807
C   C195      1.0  0.58540  0.67740  0.67740  1.0000 -0.0308373807
N   N97       1.0  0.54070  0.68230  0.71680  1.0000 -0.0490220883
N   N98       1.0  0.53560  0.70730  0.69140  1.0000 -0.1357478067
C   C196      1.0  0.57140  0.66250  0.70990  1.0000 0.0735608559
C   C197      1.0  0.61630  0.16310  0.16310  1.0000 0.042566651
C   C198      1.0  0.63127  0.13127  0.17770  1.0000 -0.0308373807
C   C199      1.0  0.58540  0.17740  0.17740  1.0000 -0.0308373807
N   N99       1.0  0.54070  0.18230  0.21680  1.0000 -0.0490220883
N   N100      1.0  0.53560  0.20730  0.19140  1.0000 -0.1349771201
C   C200      1.0  0.57140  0.16250  0.20990  1.0000 0.0735608559
C   C201      1.0  0.11630  0.66310  0.16310  1.0000 0.042566651
C   C202      1.0  0.13127  0.63127  0.17770  1.0000 -0.0308373807
C   C203      1.0  0.08540  0.67740  0.17740  1.0000 -0.0308373807
N   N101      1.0  0.04070  0.68230  0.21680  1.0000 -0.0490220883
N   N102      1.0  0.03560  0.70730  0.19140  1.0000 -0.1357478067
C   C204      1.0  0.07140  0.66250  0.20990  1.0000 0.0735608559
C   C205      1.0  0.11630  0.16310  0.66310  1.0000 0.042566651
C   C206      1.0  0.13127  0.13127  0.67770  1.0000 -0.0308373807
C   C207      1.0  0.08540  0.17740  0.67740  1.0000 -0.0308373807
N   N103      1.0  0.04070  0.18230  0.71680  1.0000 -0.0490220883
N   N104      1.0  0.03560  0.20730  0.69140  1.0000 -0.1357478067
C   C208      1.0  0.07140  0.16250  0.70990  1.0000 0.0735608559
C   C209      1.0  0.38370  0.66310  0.33690  1.0000 0.042566651
C   C210      1.0  0.36873  0.63127  0.32230  1.0000 -0.0308373807
C   C211      1.0  0.41460  0.67740  0.32260  1.0000 -0.0308373807
N   N105      1.0  0.45930  0.68230  0.28320  1.0000 -0.0490220883
N   N106      1.0  0.46440  0.70730  0.30860  1.0000 -0.1357478067
C   C212      1.0  0.42860  0.66250  0.29010  1.0000 0.0735608559
C   C213      1.0  0.38370  0.16310  0.83690  1.0000 0.042566651
C   C214      1.0  0.36873  0.13127  0.82230  1.0000 -0.0308373807
C   C215      1.0  0.41460  0.17740  0.82260  1.0000 -0.0308373807
N   N107      1.0  0.45930  0.18230  0.78320  1.0000 -0.0490220883
N   N108      1.0  0.46440  0.20730  0.80860  1.0000 -0.1357478067
C   C216      1.0  0.42860  0.16250  0.79010  1.0000 0.0735608559
C   C217      1.0  0.88370  0.66310  0.83690  1.0000 0.042566651
C   C218      1.0  0.86873  0.63127  0.82230  1.0000 -0.0308373807
C   C219      1.0  0.91460  0.67740  0.82260  1.0000 -0.0308373807
N   N109      1.0  0.95930  0.68230  0.78320  1.0000 -0.0490220883
N   N110      1.0  0.96440  0.70730  0.80860  1.0000 -0.1357478067
C   C220      1.0  0.92860  0.66250  0.79010  1.0000 0.0735608559
C   C221      1.0  0.88370  0.16310  0.33690  1.0000 0.042566651
C   C222      1.0  0.86873  0.13127  0.32230  1.0000 -0.0308373807
C   C223      1.0  0.91460  0.17740  0.32260  1.0000 -0.0308373807
N   N111      1.0  0.95930  0.18230  0.28320  1.0000 -0.0490220883
N   N112      1.0  0.96440  0.20730  0.30860  1.0000 -0.1357478067
C   C224      1.0  0.92860  0.16250  0.29010  1.0000 0.0735608559
C   C225      1.0  0.11630  0.83690  0.16310  1.0000 -0.0105540436
C   C226      1.0  0.13127  0.82230  0.13127  1.0000 -0.0105540436
C   C227      1.0  0.08540  0.82260  0.17740  1.0000 0.1318055797
N   N113      1.0  0.04070  0.78320  0.18230  1.0000 -0.0844960104
N   N114      1.0  0.03560  0.80860  0.20730  1.0000 -0.0243746745
C   C228      1.0  0.06330  0.83330  0.20450  1.0000 -0.1989605955
C   C229      1.0  0.07140  0.79010  0.16250  1.0000 0.0185348517
N   N115      1.0  0.20450  0.93670  0.16670  1.0000 0.0083904664
C   C230      1.0  0.11630  0.33690  0.66310  1.0000 -0.0105540436
C   C231      1.0  0.13127  0.32230  0.63127  1.0000 -0.0105540436
C   C232      1.0  0.08540  0.32260  0.67740  1.0000 0.1318055797
N   N116      1.0  0.04070  0.28320  0.68230  1.0000 -0.0844960104
N   N117      1.0  0.03560  0.30860  0.70730  1.0000 -0.0308373807
C   C233      1.0  0.06330  0.33330  0.70450  1.0000 -0.1989605955
C   C234      1.0  0.07140  0.29010  0.66250  1.0000 0.0185348517
N   N118      1.0  0.20450  0.43670  0.66670  1.0000 0.0083904664
C   C235      1.0  0.61630  0.83690  0.66310  1.0000 -0.0105540436
C   C236      1.0  0.63127  0.82230  0.63127  1.0000 -0.0105540436
C   C237      1.0  0.58540  0.82260  0.67740  1.0000 0.1318055797
N   N119      1.0  0.54070  0.78320  0.68230  1.0000 -0.0844960104
N   N120      1.0  0.53560  0.80860  0.70730  1.0000 -0.0243746745
C   C238      1.0  0.56330  0.83330  0.70450  1.0000 -0.1989605955
C   C239      1.0  0.57140  0.79010  0.66250  1.0000 0.0185348517
N   N121      1.0  0.70450  0.93670  0.66670  1.0000 0.0083904664
C   C240      1.0  0.61630  0.33690  0.16310  1.0000 -0.0105540436
C   C241      1.0  0.63127  0.32230  0.13127  1.0000 -0.0105540436
C   C242      1.0  0.58540  0.32260  0.17740  1.0000 0.1318055797
N   N122      1.0  0.54070  0.28320  0.18230  1.0000 -0.0844960104
N   N123      1.0  0.53560  0.30860  0.20730  1.0000 -0.0243746745
C   C243      1.0  0.56330  0.33330  0.20450  1.0000 -0.1989605955
C   C244      1.0  0.57140  0.29010  0.16250  1.0000 0.0185348517
N   N124      1.0  0.70450  0.43670  0.16670  1.0000 0.0083904664
C   C245      1.0  0.88370  0.16310  0.16310  1.0000 -0.0105540436
C   C246      1.0  0.86873  0.17770  0.13127  1.0000 -0.0105540436
C   C247      1.0  0.91460  0.17740  0.17740  1.0000 0.1318055797
N   N125      1.0  0.95930  0.21680  0.18230  1.0000 -0.0854894258
N   N126      1.0  0.96440  0.19140  0.20730  1.0000 -0.0243746745
C   C248      1.0  0.93670  0.16670  0.20450  1.0000 -0.1989605955
C   C249      1.0  0.92860  0.20990  0.16250  1.0000 0.0185348517
N   N127      1.0  0.79550  0.06330  0.16670  1.0000 0.0083904664
C   C250      1.0  0.88370  0.66310  0.66310  1.0000 -0.0105540436
C   C251      1.0  0.86873  0.67770  0.63127  1.0000 -0.0105540436
C   C252      1.0  0.91460  0.67740  0.67740  1.0000 0.1318055797
N   N128      1.0  0.95930  0.71680  0.68230  1.0000 -0.0844960104
N   N129      1.0  0.96440  0.69140  0.70730  1.0000 -0.0243746745
C   C253      1.0  0.93670  0.66670  0.70450  1.0000 -0.1989605955
C   C254      1.0  0.92860  0.70990  0.66250  1.0000 0.0185348517
N   N130      1.0  0.79550  0.56330  0.66670  1.0000 0.0083904664
C   C255      1.0  0.38370  0.16310  0.66310  1.0000 -0.0105540436
C   C256      1.0  0.36873  0.17770  0.63127  1.0000 -0.0105540436
C   C257      1.0  0.41460  0.17740  0.67740  1.0000 0.1318055797
N   N131      1.0  0.45930  0.21680  0.68230  1.0000 -0.0854894258
N   N132      1.0  0.46440  0.19140  0.70730  1.0000 -0.0243746745
C   C258      1.0  0.43670  0.16670  0.70450  1.0000 -0.1989605955
C   C259      1.0  0.42860  0.20990  0.66250  1.0000 0.0185348517
N   N133      1.0  0.29550  0.06330  0.66670  1.0000 0.0083904664
C   C260      1.0  0.38370  0.66310  0.16310  1.0000 -0.0105540436
C   C261      1.0  0.36873  0.67770  0.13127  1.0000 -0.0105540436
C   C262      1.0  0.41460  0.67740  0.17740  1.0000 0.1318055797
N   N134      1.0  0.45930  0.71680  0.18230  1.0000 -0.0854894258
N   N135      1.0  0.46440  0.69140  0.20730  1.0000 -0.0243746745
C   C263      1.0  0.43670  0.66670  0.20450  1.0000 -0.1989605955
C   C264      1.0  0.42860  0.70990  0.16250  1.0000 0.0185348517
N   N136      1.0  0.29550  0.56330  0.16670  1.0000 0.0083904664
C   C265      1.0  0.11630  0.16310  0.83690  1.0000 -0.0105540436
C   C266      1.0  0.13127  0.17770  0.86873  1.0000 -0.0105540436
C   C267      1.0  0.08540  0.17740  0.82260  1.0000 0.1318055797
N   N137      1.0  0.04070  0.21680  0.81770  1.0000 -0.0844960104
N   N138      1.0  0.03560  0.19140  0.79270  1.0000 -0.0243746745
C   C268      1.0  0.06330  0.16670  0.79550  1.0000 -0.1989605955
C   C269      1.0  0.07140  0.20990  0.83750  1.0000 0.0185348517
N   N139      1.0  0.20450  0.06330  0.83330  1.0000 0.0083904664
C   C270      1.0  0.11630  0.66310  0.33690  1.0000 -0.0105540436
C   C271      1.0  0.13127  0.67770  0.36873  1.0000 -0.0105540436
C   C272      1.0  0.08540  0.67740  0.32260  1.0000 0.1318055797
N   N140      1.0  0.04070  0.71680  0.31770  1.0000 -0.0844960104
N   N141      1.0  0.03560  0.69140  0.29270  1.0000 -0.0243746745
C   C273      1.0  0.06330  0.66670  0.29550  1.0000 -0.1989605955
C   C274      1.0  0.07140  0.70990  0.33750  1.0000 0.0185348517
N   N142      1.0  0.20450  0.56330  0.33330  1.0000 0.0083904664
C   C275      1.0  0.61630  0.16310  0.33690  1.0000 -0.0105540436
C   C276      1.0  0.63127  0.17770  0.36873  1.0000 -0.0105540436
C   C277      1.0  0.58540  0.17740  0.32260  1.0000 0.1318055797
N   N143      1.0  0.54070  0.21680  0.31770  1.0000 -0.0854894258
N   N144      1.0  0.53560  0.19140  0.29270  1.0000 -0.0243746745
C   C278      1.0  0.56330  0.16670  0.29550  1.0000 -0.1989605955
C   C279      1.0  0.57140  0.20990  0.33750  1.0000 0.0185348517
N   N145      1.0  0.70450  0.06330  0.33330  1.0000 0.0083904664
C   C280      1.0  0.61630  0.66310  0.83690  1.0000 -0.0105540436
C   C281      1.0  0.63127  0.67770  0.86873  1.0000 -0.0105540436
C   C282      1.0  0.58540  0.67740  0.82260  1.0000 0.1318055797
N   N146      1.0  0.54070  0.71680  0.81770  1.0000 -0.0844960104
N   N147      1.0  0.53560  0.69140  0.79270  1.0000 -0.0243746745
C   C283      1.0  0.56330  0.66670  0.79550  1.0000 -0.1989605955
C   C284      1.0  0.57140  0.70990  0.83750  1.0000 0.0185348517
N   N148      1.0  0.70450  0.56330  0.83330  1.0000 0.0083904664
C   C285      1.0  0.88370  0.83690  0.83690  1.0000 -0.0105540436
C   C286      1.0  0.86873  0.82230  0.86873  1.0000 -0.0105540436
C   C287      1.0  0.91460  0.82260  0.82260  1.0000 0.1318055797
N   N149      1.0  0.95930  0.78320  0.81770  1.0000 -0.0844960104
N   N150      1.0  0.96440  0.80860  0.79270  1.0000 -0.0243746745
C   C288      1.0  0.93670  0.83330  0.79550  1.0000 -0.1989605955
C   C289      1.0  0.92860  0.79010  0.83750  1.0000 0.0185348517
N   N151      1.0  0.79550  0.93670  0.83330  1.0000 0.0083904664
C   C290      1.0  0.88370  0.33690  0.33690  1.0000 -0.0105540436
C   C291      1.0  0.86873  0.32230  0.36873  1.0000 -0.0105540436
C   C292      1.0  0.91460  0.32260  0.32260  1.0000 0.1318055797
N   N152      1.0  0.95930  0.28320  0.31770  1.0000 -0.0844960104
N   N153      1.0  0.96440  0.30860  0.29270  1.0000 -0.0243746745
C   C293      1.0  0.93670  0.33330  0.29550  1.0000 -0.1989605955
C   C294      1.0  0.92860  0.29010  0.33750  1.0000 0.0185348517
N   N154      1.0  0.79550  0.43670  0.33330  1.0000 0.0083904664
C   C295      1.0  0.38370  0.83690  0.33690  1.0000 -0.0105540436
C   C296      1.0  0.36873  0.82230  0.36873  1.0000 -0.0105540436
C   C297      1.0  0.41460  0.82260  0.32260  1.0000 0.1318055797
N   N155      1.0  0.45930  0.78320  0.31770  1.0000 -0.0844960104
N   N156      1.0  0.46440  0.80860  0.29270  1.0000 -0.0243746745
C   C298      1.0  0.43670  0.83330  0.29550  1.0000 -0.1989605955
C   C299      1.0  0.42860  0.79010  0.33750  1.0000 0.0185348517
N   N157      1.0  0.29550  0.93670  0.33330  1.0000 0.0083904664
C   C300      1.0  0.38370  0.33690  0.83690  1.0000 -0.0105540436
C   C301      1.0  0.36873  0.32230  0.86873  1.0000 -0.0105540436
C   C302      1.0  0.41460  0.32260  0.82260  1.0000 0.1318055797
N   N158      1.0  0.45930  0.28320  0.81770  1.0000 -0.0844960104
N   N159      1.0  0.46440  0.30860  0.79270  1.0000 -0.0308373807
C   C303      1.0  0.43670  0.33330  0.79550  1.0000 -0.1989605955
C   C304      1.0  0.42860  0.29010  0.83750  1.0000 0.0185348517
N   N160      1.0  0.29550  0.43670  0.83330  1.0000 0.0083904664
C   C305      1.0  0.83690  0.83690  0.88370  1.0000 -0.004253197
C   C306      1.0  0.82230  0.86873  0.86873  1.0000 -0.0490220883
C   C307      1.0  0.82260  0.82260  0.91460  1.0000 0.1245899171
N   N161      1.0  0.78320  0.81770  0.95930  1.0000 -0.0972911859
N   N162      1.0  0.80860  0.79270  0.96440  1.0000 -0.0308373807
C   C308      1.0  0.83330  0.79550  0.93670  1.0000 -0.1898333711
C   C309      1.0  0.79010  0.83750  0.92860  1.0000 0.0321980071
C   C310      1.0  0.83690  0.33690  0.38370  1.0000 -0.004253197
C   C311      1.0  0.82230  0.36873  0.36873  1.0000 -0.0490220883
C   C312      1.0  0.82260  0.32260  0.41460  1.0000 0.1245899171
N   N163      1.0  0.78320  0.31770  0.45930  1.0000 -0.0972911859
N   N164      1.0  0.80860  0.29270  0.46440  1.0000 -0.0308373807
C   C313      1.0  0.83330  0.29550  0.43670  1.0000 -0.1898333711
C   C314      1.0  0.79010  0.33750  0.42860  1.0000 0.0321980071
C   C315      1.0  0.33690  0.83690  0.38370  1.0000 -0.004253197
C   C316      1.0  0.32230  0.86873  0.36873  1.0000 -0.0490220883
C   C317      1.0  0.32260  0.82260  0.41460  1.0000 0.1245899171
N   N165      1.0  0.28320  0.81770  0.45930  1.0000 -0.0972911859
N   N166      1.0  0.30860  0.79270  0.46440  1.0000 -0.0308373807
C   C318      1.0  0.33330  0.79550  0.43670  1.0000 -0.1898333711
C   C319      1.0  0.29010  0.83750  0.42860  1.0000 0.0321980071
C   C320      1.0  0.33690  0.33690  0.88370  1.0000 -0.0105540436
C   C321      1.0  0.32230  0.36873  0.86873  1.0000 -0.0490220883
C   C322      1.0  0.32260  0.32260  0.91460  1.0000 0.1245899171
N   N167      1.0  0.28320  0.31770  0.95930  1.0000 -0.0972911859
N   N168      1.0  0.30860  0.29270  0.96440  1.0000 -0.0308373807
C   C323      1.0  0.33330  0.29550  0.93670  1.0000 -0.1898333711
C   C324      1.0  0.29010  0.33750  0.92860  1.0000 0.0321980071
C   C325      1.0  0.16310  0.83690  0.11630  1.0000 -0.004253197
C   C326      1.0  0.17770  0.86873  0.13127  1.0000 -0.0490220883
C   C327      1.0  0.17740  0.82260  0.08540  1.0000 0.1245899171
N   N169      1.0  0.21680  0.81770  0.04070  1.0000 -0.0972911859
N   N170      1.0  0.19140  0.79270  0.03560  1.0000 -0.0308373807
C   C328      1.0  0.16670  0.79550  0.06330  1.0000 -0.1898333711
C   C329      1.0  0.20990  0.83750  0.07140  1.0000 0.0321980071
C   C330      1.0  0.16310  0.33690  0.61630  1.0000 -0.0105540436
C   C331      1.0  0.17770  0.36873  0.63127  1.0000 -0.0490220883
C   C332      1.0  0.17740  0.32260  0.58540  1.0000 0.1245899171
N   N171      1.0  0.21680  0.31770  0.54070  1.0000 -0.0972911859
N   N172      1.0  0.19140  0.29270  0.53560  1.0000 -0.0308373807
C   C333      1.0  0.16670  0.29550  0.56330  1.0000 -0.1898333711
C   C334      1.0  0.20990  0.33750  0.57140  1.0000 0.0321980071
C   C335      1.0  0.66310  0.83690  0.61630  1.0000 -0.004253197
C   C336      1.0  0.67770  0.86873  0.63127  1.0000 -0.0490220883
C   C337      1.0  0.67740  0.82260  0.58540  1.0000 0.1245899171
N   N173      1.0  0.71680  0.81770  0.54070  1.0000 -0.0972911859
N   N174      1.0  0.69140  0.79270  0.53560  1.0000 -0.0308373807
C   C338      1.0  0.66670  0.79550  0.56330  1.0000 -0.1898333711
C   C339      1.0  0.70990  0.83750  0.57140  1.0000 0.0321980071
C   C340      1.0  0.66310  0.33690  0.11630  1.0000 -0.004253197
C   C341      1.0  0.67770  0.36873  0.13127  1.0000 -0.0490220883
C   C342      1.0  0.67740  0.32260  0.08540  1.0000 0.1245899171
N   N175      1.0  0.71680  0.31770  0.04070  1.0000 -0.0972911859
N   N176      1.0  0.69140  0.29270  0.03560  1.0000 -0.0308373807
C   C343      1.0  0.66670  0.29550  0.06330  1.0000 -0.1898333711
C   C344      1.0  0.70990  0.33750  0.07140  1.0000 0.0321980071
C   C345      1.0  0.16310  0.16310  0.88370  1.0000 -0.0105540436
C   C346      1.0  0.17770  0.13127  0.86873  1.0000 -0.0490220883
C   C347      1.0  0.17740  0.17740  0.91460  1.0000 0.1245899171
N   N177      1.0  0.21680  0.18230  0.95930  1.0000 -0.0972911859
N   N178      1.0  0.19140  0.20730  0.96440  1.0000 -0.0308373807
C   C348      1.0  0.16670  0.20450  0.93670  1.0000 -0.1898333711
C   C349      1.0  0.20990  0.16250  0.92860  1.0000 0.0321980071
C   C350      1.0  0.16310  0.66310  0.38370  1.0000 -0.0105540436
C   C351      1.0  0.17770  0.63127  0.36873  1.0000 -0.0490220883
C   C352      1.0  0.17740  0.67740  0.41460  1.0000 0.1245899171
N   N179      1.0  0.21680  0.68230  0.45930  1.0000 -0.0972911859
N   N180      1.0  0.19140  0.70730  0.46440  1.0000 -0.0308373807
C   C353      1.0  0.16670  0.70450  0.43670  1.0000 -0.1898333711
C   C354      1.0  0.20990  0.66250  0.42860  1.0000 0.0321980071
C   C355      1.0  0.66310  0.16310  0.38370  1.0000 -0.0105540436
C   C356      1.0  0.67770  0.13127  0.36873  1.0000 -0.0490220883
C   C357      1.0  0.67740  0.17740  0.41460  1.0000 0.1245899171
N   N181      1.0  0.71680  0.18230  0.45930  1.0000 -0.0972911859
N   N182      1.0  0.69140  0.20730  0.46440  1.0000 -0.0308373807
C   C358      1.0  0.66670  0.20450  0.43670  1.0000 -0.1898333711
C   C359      1.0  0.70990  0.16250  0.42860  1.0000 0.0321980071
C   C360      1.0  0.66310  0.66310  0.88370  1.0000 -0.004253197
C   C361      1.0  0.67770  0.63127  0.86873  1.0000 -0.0490220883
C   C362      1.0  0.67740  0.67740  0.91460  1.0000 0.1245899171
N   N183      1.0  0.71680  0.68230  0.95930  1.0000 -0.0972911859
N   N184      1.0  0.69140  0.70730  0.96440  1.0000 -0.0308373807
C   C363      1.0  0.66670  0.70450  0.93670  1.0000 -0.1898333711
C   C364      1.0  0.70990  0.66250  0.92860  1.0000 0.0321980071
C   C365      1.0  0.83690  0.16310  0.11630  1.0000 -0.004253197
C   C366      1.0  0.82230  0.13127  0.13127  1.0000 -0.0490220883
C   C367      1.0  0.82260  0.17740  0.08540  1.0000 0.1245899171
N   N185      1.0  0.78320  0.18230  0.04070  1.0000 -0.0972911859
N   N186      1.0  0.80860  0.20730  0.03560  1.0000 -0.0308373807
C   C368      1.0  0.83330  0.20450  0.06330  1.0000 -0.1898333711
C   C369      1.0  0.79010  0.16250  0.07140  1.0000 0.0321980071
C   C370      1.0  0.83690  0.66310  0.61630  1.0000 -0.004253197
C   C371      1.0  0.82230  0.63127  0.63127  1.0000 -0.0490220883
C   C372      1.0  0.82260  0.67740  0.58540  1.0000 0.1245899171
N   N187      1.0  0.78320  0.68230  0.54070  1.0000 -0.0972911859
N   N188      1.0  0.80860  0.70730  0.53560  1.0000 -0.0308373807
C   C373      1.0  0.83330  0.70450  0.56330  1.0000 -0.1898333711
C   C374      1.0  0.79010  0.66250  0.57140  1.0000 0.0321980071
C   C375      1.0  0.33690  0.16310  0.61630  1.0000 -0.0105540436
C   C376      1.0  0.32230  0.13127  0.63127  1.0000 -0.0446474246
C   C377      1.0  0.32260  0.17740  0.58540  1.0000 0.1245899171
N   N189      1.0  0.28320  0.18230  0.54070  1.0000 -0.0972911859
N   N190      1.0  0.30860  0.20730  0.53560  1.0000 -0.0308373807
C   C378      1.0  0.33330  0.20450  0.56330  1.0000 -0.1898333711
C   C379      1.0  0.29010  0.16250  0.57140  1.0000 0.0321980071
C   C380      1.0  0.33690  0.66310  0.11630  1.0000 -0.004253197
C   C381      1.0  0.32230  0.63127  0.13127  1.0000 -0.0490220883
C   C382      1.0  0.32260  0.67740  0.08540  1.0000 0.1245899171
N   N191      1.0  0.28320  0.68230  0.04070  1.0000 -0.0972911859
N   N192      1.0  0.30860  0.70730  0.03560  1.0000 -0.0308373807
C   C383      1.0  0.33330  0.70450  0.06330  1.0000 -0.1898333711
C   C384      1.0  0.29010  0.66250  0.07140  1.0000 0.0321980071
C   C385      1.0  0.83690  0.11630  0.16310  1.0000 0.042566651
C   C386      1.0  0.86873  0.13127  0.17770  1.0000 -0.0308373807
C   C387      1.0  0.82260  0.08540  0.17740  1.0000 -0.0308373807
N   N193      1.0  0.81770  0.04070  0.21680  1.0000 -0.0490220883
N   N194      1.0  0.79270  0.03560  0.19140  1.0000 -0.1349771201
C   C388      1.0  0.83750  0.07140  0.20990  1.0000 0.0735608559
C   C389      1.0  0.83690  0.61630  0.66310  1.0000 0.042566651
C   C390      1.0  0.86873  0.63127  0.67770  1.0000 -0.0308373807
C   C391      1.0  0.82260  0.58540  0.67740  1.0000 -0.0308373807
N   N195      1.0  0.81770  0.54070  0.71680  1.0000 -0.0490220883
N   N196      1.0  0.79270  0.53560  0.69140  1.0000 -0.1357478067
C   C392      1.0  0.83750  0.57140  0.70990  1.0000 0.0735608559
C   C393      1.0  0.33690  0.11630  0.66310  1.0000 0.042566651
C   C394      1.0  0.36873  0.13127  0.67770  1.0000 -0.0308373807
C   C395      1.0  0.32260  0.08540  0.67740  1.0000 -0.0308373807
N   N197      1.0  0.31770  0.04070  0.71680  1.0000 -0.0490220883
N   N198      1.0  0.29270  0.03560  0.69140  1.0000 -0.1357478067
C   C396      1.0  0.33750  0.07140  0.70990  1.0000 0.0735608559
C   C397      1.0  0.33690  0.61630  0.16310  1.0000 0.042566651
C   C398      1.0  0.36873  0.63127  0.17770  1.0000 -0.0308373807
C   C399      1.0  0.32260  0.58540  0.17740  1.0000 -0.0308373807
N   N199      1.0  0.31770  0.54070  0.21680  1.0000 -0.0490220883
N   N200      1.0  0.29270  0.53560  0.19140  1.0000 -0.1357478067
C   C400      1.0  0.33750  0.57140  0.20990  1.0000 0.0735608559
C   C401      1.0  0.83690  0.88370  0.83690  1.0000 0.042566651
C   C402      1.0  0.86873  0.86873  0.82230  1.0000 -0.0308373807
C   C403      1.0  0.82260  0.91460  0.82260  1.0000 -0.0308373807
N   N201      1.0  0.81770  0.95930  0.78320  1.0000 -0.0490220883
N   N202      1.0  0.79270  0.96440  0.80860  1.0000 -0.1357478067
C   C404      1.0  0.83750  0.92860  0.79010  1.0000 0.0735608559
C   C405      1.0  0.83690  0.38370  0.33690  1.0000 0.042566651
C   C406      1.0  0.86873  0.36873  0.32230  1.0000 -0.0308373807
C   C407      1.0  0.82260  0.41460  0.32260  1.0000 -0.0308373807
N   N203      1.0  0.81770  0.45930  0.28320  1.0000 -0.0490220883
N   N204      1.0  0.79270  0.46440  0.30860  1.0000 -0.1357478067
C   C408      1.0  0.83750  0.42860  0.29010  1.0000 0.0735608559
C   C409      1.0  0.33690  0.88370  0.33690  1.0000 0.042566651
C   C410      1.0  0.36873  0.86873  0.32230  1.0000 -0.0308373807
C   C411      1.0  0.32260  0.91460  0.32260  1.0000 -0.0308373807
N   N205      1.0  0.31770  0.95930  0.28320  1.0000 -0.0490220883
N   N206      1.0  0.29270  0.96440  0.30860  1.0000 -0.1357478067
C   C412      1.0  0.33750  0.92860  0.29010  1.0000 0.0735608559
C   C413      1.0  0.33690  0.38370  0.83690  1.0000 0.042566651
C   C414      1.0  0.36873  0.36873  0.82230  1.0000 -0.0308373807
C   C415      1.0  0.32260  0.41460  0.82260  1.0000 -0.0308373807
N   N207      1.0  0.31770  0.45930  0.78320  1.0000 -0.0490220883
N   N208      1.0  0.29270  0.46440  0.80860  1.0000 -0.1357478067
C   C416      1.0  0.33750  0.42860  0.79010  1.0000 0.0735608559
C   C417      1.0  0.16310  0.11630  0.83690  1.0000 0.042566651
C   C418      1.0  0.13127  0.13127  0.82230  1.0000 -0.0308373807
C   C419      1.0  0.17740  0.08540  0.82260  1.0000 -0.0308373807
N   N209      1.0  0.18230  0.04070  0.78320  1.0000 -0.0490220883
N   N210      1.0  0.20730  0.03560  0.80860  1.0000 -0.1357478067
C   C420      1.0  0.16250  0.07140  0.79010  1.0000 0.0735608559
C   C421      1.0  0.16310  0.61630  0.33690  1.0000 0.042566651
C   C422      1.0  0.13127  0.63127  0.32230  1.0000 -0.0308373807
C   C423      1.0  0.17740  0.58540  0.32260  1.0000 -0.0308373807
N   N211      1.0  0.18230  0.54070  0.28320  1.0000 -0.0490220883
N   N212      1.0  0.20730  0.53560  0.30860  1.0000 -0.1357478067
C   C424      1.0  0.16250  0.57140  0.29010  1.0000 0.0735608559
C   C425      1.0  0.66310  0.11630  0.33690  1.0000 0.042566651
C   C426      1.0  0.63127  0.13127  0.32230  1.0000 -0.0308373807
C   C427      1.0  0.67740  0.08540  0.32260  1.0000 -0.0308373807
N   N213      1.0  0.68230  0.04070  0.28320  1.0000 -0.0490220883
N   N214      1.0  0.70730  0.03560  0.30860  1.0000 -0.1357478067
C   C428      1.0  0.66250  0.07140  0.29010  1.0000 0.0735608559
C   C429      1.0  0.66310  0.61630  0.83690  1.0000 0.042566651
C   C430      1.0  0.63127  0.63127  0.82230  1.0000 -0.0308373807
C   C431      1.0  0.67740  0.58540  0.82260  1.0000 -0.0308373807
N   N215      1.0  0.68230  0.54070  0.78320  1.0000 -0.0490220883
N   N216      1.0  0.70730  0.53560  0.80860  1.0000 -0.1357478067
C   C432      1.0  0.66250  0.57140  0.79010  1.0000 0.0735608559
C   C433      1.0  0.16310  0.88370  0.16310  1.0000 0.042566651
C   C434      1.0  0.13127  0.86873  0.17770  1.0000 -0.0308373807
C   C435      1.0  0.17740  0.91460  0.17740  1.0000 -0.0308373807
N   N217      1.0  0.18230  0.95930  0.21680  1.0000 -0.0490220883
N   N218      1.0  0.20730  0.96440  0.19140  1.0000 -0.1357478067
C   C436      1.0  0.16250  0.92860  0.20990  1.0000 0.0735608559
C   C437      1.0  0.16310  0.38370  0.66310  1.0000 0.042566651
C   C438      1.0  0.13127  0.36873  0.67770  1.0000 -0.0308373807
C   C439      1.0  0.17740  0.41460  0.67740  1.0000 -0.0308373807
N   N219      1.0  0.18230  0.45930  0.71680  1.0000 -0.0490220883
N   N220      1.0  0.20730  0.46440  0.69140  1.0000 -0.1357478067
C   C440      1.0  0.16250  0.42860  0.70990  1.0000 0.0735608559
C   C441      1.0  0.66310  0.88370  0.66310  1.0000 0.042566651
C   C442      1.0  0.63127  0.86873  0.67770  1.0000 -0.0308373807
C   C443      1.0  0.67740  0.91460  0.67740  1.0000 -0.0308373807
N   N221      1.0  0.68230  0.95930  0.71680  1.0000 -0.0490220883
N   N222      1.0  0.70730  0.96440  0.69140  1.0000 -0.1357478067
C   C444      1.0  0.66250  0.92860  0.70990  1.0000 0.0735608559
C   C445      1.0  0.66310  0.38370  0.16310  1.0000 0.042566651
C   C446      1.0  0.63127  0.36873  0.17770  1.0000 -0.0308373807
C   C447      1.0  0.67740  0.41460  0.17740  1.0000 -0.0308373807
N   N223      1.0  0.68230  0.45930  0.21680  1.0000 -0.0490220883
N   N224      1.0  0.70730  0.46440  0.19140  1.0000 -0.1357478067
C   C448      1.0  0.66250  0.42860  0.20990  1.0000 0.0735608559
C   C449      1.0  0.66310  0.38370  0.66310  1.0000 -0.0105540436
C   C450      1.0  0.67770  0.36873  0.63127  1.0000 -0.0105540436
C   C451      1.0  0.67740  0.41460  0.67740  1.0000 0.1318055797
N   N225      1.0  0.71680  0.45930  0.68230  1.0000 -0.0844960104
N   N226      1.0  0.69140  0.46440  0.70730  1.0000 -0.0243746745
C   C452      1.0  0.66670  0.43670  0.70450  1.0000 -0.1989605955
C   C453      1.0  0.70990  0.42860  0.66250  1.0000 0.0185348517
N   N227      1.0  0.56330  0.29550  0.66670  1.0000 0.0083904664
C   C454      1.0  0.66310  0.88370  0.16310  1.0000 -0.0105540436
C   C455      1.0  0.67770  0.86873  0.13127  1.0000 -0.0105540436
C   C456      1.0  0.67740  0.91460  0.17740  1.0000 0.1318055797
N   N228      1.0  0.71680  0.95930  0.18230  1.0000 -0.0854894258
N   N229      1.0  0.69140  0.96440  0.20730  1.0000 -0.0243746745
C   C457      1.0  0.66670  0.93670  0.20450  1.0000 -0.1989605955
C   C458      1.0  0.70990  0.92860  0.16250  1.0000 0.0185348517
N   N230      1.0  0.56330  0.79550  0.16670  1.0000 0.0083904664
C   C459      1.0  0.16310  0.38370  0.16310  1.0000 -0.0105540436
C   C460      1.0  0.17770  0.36873  0.13127  1.0000 -0.0105540436
C   C461      1.0  0.17740  0.41460  0.17740  1.0000 0.1318055797
N   N231      1.0  0.21680  0.45930  0.18230  1.0000 -0.0854894258
N   N232      1.0  0.19140  0.46440  0.20730  1.0000 -0.0243746745
C   C462      1.0  0.16670  0.43670  0.20450  1.0000 -0.1989605955
C   C463      1.0  0.20990  0.42860  0.16250  1.0000 0.0185348517
N   N233      1.0  0.06330  0.29550  0.16670  1.0000 0.0083904664
C   C464      1.0  0.16310  0.88370  0.66310  1.0000 -0.0105540436
C   C465      1.0  0.17770  0.86873  0.63127  1.0000 -0.0105540436
C   C466      1.0  0.17740  0.91460  0.67740  1.0000 0.1318055797
N   N234      1.0  0.21680  0.95930  0.68230  1.0000 -0.0854894258
N   N235      1.0  0.19140  0.96440  0.70730  1.0000 -0.0243746745
C   C467      1.0  0.16670  0.93670  0.70450  1.0000 -0.1989605955
C   C468      1.0  0.20990  0.92860  0.66250  1.0000 0.0185348517
N   N236      1.0  0.06330  0.79550  0.66670  1.0000 0.0083904664
C   C469      1.0  0.33690  0.61630  0.66310  1.0000 -0.0105540436
C   C470      1.0  0.32230  0.63127  0.63127  1.0000 -0.0105540436
C   C471      1.0  0.32260  0.58540  0.67740  1.0000 0.1318055797
N   N237      1.0  0.28320  0.54070  0.68230  1.0000 -0.0844960104
N   N238      1.0  0.30860  0.53560  0.70730  1.0000 -0.0308373807
C   C472      1.0  0.33330  0.56330  0.70450  1.0000 -0.1989605955
C   C473      1.0  0.29010  0.57140  0.66250  1.0000 0.0185348517
N   N239      1.0  0.43670  0.70450  0.66670  1.0000 0.0083904664
C   C474      1.0  0.33690  0.11630  0.16310  1.0000 -0.0105540436
C   C475      1.0  0.32230  0.13127  0.13127  1.0000 -0.0105540436
C   C476      1.0  0.32260  0.08540  0.17740  1.0000 0.1318055797
N   N240      1.0  0.28320  0.04070  0.18230  1.0000 -0.0844960104
N   N241      1.0  0.30860  0.03560  0.20730  1.0000 -0.0243746745
C   C477      1.0  0.33330  0.06330  0.20450  1.0000 -0.1989605955
C   C478      1.0  0.29010  0.07140  0.16250  1.0000 0.0185348517
N   N242      1.0  0.43670  0.20450  0.16670  1.0000 0.0083904664
C   C479      1.0  0.83690  0.61630  0.16310  1.0000 -0.0105540436
C   C480      1.0  0.82230  0.63127  0.13127  1.0000 -0.0105540436
C   C481      1.0  0.82260  0.58540  0.17740  1.0000 0.1318055797
N   N243      1.0  0.78320  0.54070  0.18230  1.0000 -0.0844960104
N   N244      1.0  0.80860  0.53560  0.20730  1.0000 -0.0243746745
C   C482      1.0  0.83330  0.56330  0.20450  1.0000 -0.1989605955
C   C483      1.0  0.79010  0.57140  0.16250  1.0000 0.0185348517
N   N245      1.0  0.93670  0.70450  0.16670  1.0000 0.0083904664
C   C484      1.0  0.83690  0.11630  0.66310  1.0000 -0.0105540436
C   C485      1.0  0.82230  0.13127  0.63127  1.0000 -0.0105540436
C   C486      1.0  0.82260  0.08540  0.67740  1.0000 0.1318055797
N   N246      1.0  0.78320  0.04070  0.68230  1.0000 -0.0844960104
N   N247      1.0  0.80860  0.03560  0.70730  1.0000 -0.0243746745
C   C487      1.0  0.83330  0.06330  0.70450  1.0000 -0.1989605955
C   C488      1.0  0.79010  0.07140  0.66250  1.0000 0.0185348517
N   N248      1.0  0.93670  0.20450  0.66670  1.0000 0.0083904664
C   C489      1.0  0.33690  0.38370  0.33690  1.0000 -0.0105540436
C   C490      1.0  0.32230  0.36873  0.36873  1.0000 -0.0105540436
C   C491      1.0  0.32260  0.41460  0.32260  1.0000 0.1318055797
N   N249      1.0  0.28320  0.45930  0.31770  1.0000 -0.0844960104
N   N250      1.0  0.30860  0.46440  0.29270  1.0000 -0.0243746745
C   C492      1.0  0.33330  0.43670  0.29550  1.0000 -0.1989605955
C   C493      1.0  0.29010  0.42860  0.33750  1.0000 0.0185348517
N   N251      1.0  0.43670  0.29550  0.33330  1.0000 0.0083904664
C   C494      1.0  0.33690  0.88370  0.83690  1.0000 -0.0105540436
C   C495      1.0  0.32230  0.86873  0.86873  1.0000 -0.0105540436
C   C496      1.0  0.32260  0.91460  0.82260  1.0000 0.1318055797
N   N252      1.0  0.28320  0.95930  0.81770  1.0000 -0.0844960104
N   N253      1.0  0.30860  0.96440  0.79270  1.0000 -0.0308373807
C   C497      1.0  0.33330  0.93670  0.79550  1.0000 -0.1989605955
C   C498      1.0  0.29010  0.92860  0.83750  1.0000 0.0185348517
N   N254      1.0  0.43670  0.79550  0.83330  1.0000 0.0083904664
C   C499      1.0  0.83690  0.38370  0.83690  1.0000 -0.0105540436
C   C500      1.0  0.82230  0.36873  0.86873  1.0000 -0.0105540436
C   C501      1.0  0.82260  0.41460  0.82260  1.0000 0.1318055797
N   N255      1.0  0.78320  0.45930  0.81770  1.0000 -0.0844960104
N   N256      1.0  0.80860  0.46440  0.79270  1.0000 -0.0243746745
C   C502      1.0  0.83330  0.43670  0.79550  1.0000 -0.1989605955
C   C503      1.0  0.79010  0.42860  0.83750  1.0000 0.0185348517
N   N257      1.0  0.93670  0.29550  0.83330  1.0000 0.0083904664
C   C504      1.0  0.83690  0.88370  0.33690  1.0000 -0.0105540436
C   C505      1.0  0.82230  0.86873  0.36873  1.0000 -0.0105540436
C   C506      1.0  0.82260  0.91460  0.32260  1.0000 0.1318055797
N   N258      1.0  0.78320  0.95930  0.31770  1.0000 -0.0854894258
N   N259      1.0  0.80860  0.96440  0.29270  1.0000 -0.0243746745
C   C507      1.0  0.83330  0.93670  0.29550  1.0000 -0.1989605955
C   C508      1.0  0.79010  0.92860  0.33750  1.0000 0.0185348517
N   N260      1.0  0.93670  0.79550  0.33330  1.0000 0.0083904664
C   C509      1.0  0.66310  0.61630  0.33690  1.0000 -0.0105540436
C   C510      1.0  0.67770  0.63127  0.36873  1.0000 -0.0105540436
C   C511      1.0  0.67740  0.58540  0.32260  1.0000 0.1318055797
N   N261      1.0  0.71680  0.54070  0.31770  1.0000 -0.0844960104
N   N262      1.0  0.69140  0.53560  0.29270  1.0000 -0.0243746745
C   C512      1.0  0.66670  0.56330  0.29550  1.0000 -0.1989605955
C   C513      1.0  0.70990  0.57140  0.33750  1.0000 0.0185348517
N   N263      1.0  0.56330  0.70450  0.33330  1.0000 0.0083904664
C   C514      1.0  0.66310  0.11630  0.83690  1.0000 -0.0105540436
C   C515      1.0  0.67770  0.13127  0.86873  1.0000 -0.0105540436
C   C516      1.0  0.67740  0.08540  0.82260  1.0000 0.1318055797
N   N264      1.0  0.71680  0.04070  0.81770  1.0000 -0.0844960104
N   N265      1.0  0.69140  0.03560  0.79270  1.0000 -0.0243746745
C   C517      1.0  0.66670  0.06330  0.79550  1.0000 -0.1989605955
C   C518      1.0  0.70990  0.07140  0.83750  1.0000 0.0185348517
N   N266      1.0  0.56330  0.20450  0.83330  1.0000 0.0083904664
C   C519      1.0  0.16310  0.61630  0.83690  1.0000 -0.0105540436
C   C520      1.0  0.17770  0.63127  0.86873  1.0000 -0.0105540436
C   C521      1.0  0.17740  0.58540  0.82260  1.0000 0.1318055797
N   N267      1.0  0.21680  0.54070  0.81770  1.0000 -0.0854894258
N   N268      1.0  0.19140  0.53560  0.79270  1.0000 -0.0243746745
C   C522      1.0  0.16670  0.56330  0.79550  1.0000 -0.1989605955
C   C523      1.0  0.20990  0.57140  0.83750  1.0000 0.0185348517
N   N269      1.0  0.06330  0.70450  0.83330  1.0000 0.0083904664
C   C524      1.0  0.16310  0.11630  0.33690  1.0000 -0.0105540436
C   C525      1.0  0.17770  0.13127  0.36873  1.0000 -0.0105540436
C   C526      1.0  0.17740  0.08540  0.32260  1.0000 0.1318055797
N   N270      1.0  0.21680  0.04070  0.31770  1.0000 -0.0854894258
N   N271      1.0  0.19140  0.03560  0.29270  1.0000 -0.0243746745
C   C527      1.0  0.16670  0.06330  0.29550  1.0000 -0.1989605955
C   C528      1.0  0.20990  0.07140  0.33750  1.0000 0.0185348517
N   N272      1.0  0.06330  0.20450  0.33330  1.0000 0.0083904664
C   C529      1.0  0.66310  0.66310  0.38370  1.0000 -0.004253197
C   C530      1.0  0.63127  0.67770  0.36873  1.0000 -0.0490220883
C   C531      1.0  0.67740  0.67740  0.41460  1.0000 0.1245899171
N   N273      1.0  0.68230  0.71680  0.45930  1.0000 -0.0972911859
N   N274      1.0  0.70730  0.69140  0.46440  1.0000 -0.0308373807
C   C532      1.0  0.70450  0.66670  0.43670  1.0000 -0.1898333711
C   C533      1.0  0.66250  0.70990  0.42860  1.0000 0.0321980071
C   C534      1.0  0.66310  0.16310  0.88370  1.0000 -0.0105540436
C   C535      1.0  0.63127  0.17770  0.86873  1.0000 -0.0490220883
C   C536      1.0  0.67740  0.17740  0.91460  1.0000 0.1245899171
N   N275      1.0  0.68230  0.21680  0.95930  1.0000 -0.0972911859
N   N276      1.0  0.70730  0.19140  0.96440  1.0000 -0.0308373807
C   C537      1.0  0.70450  0.16670  0.93670  1.0000 -0.1898333711
C   C538      1.0  0.66250  0.20990  0.92860  1.0000 0.0321980071
C   C539      1.0  0.16310  0.66310  0.88370  1.0000 -0.0105540436
C   C540      1.0  0.13127  0.67770  0.86873  1.0000 -0.0490220883
C   C541      1.0  0.17740  0.67740  0.91460  1.0000 0.1245899171
N   N277      1.0  0.18230  0.71680  0.95930  1.0000 -0.0972911859
N   N278      1.0  0.20730  0.69140  0.96440  1.0000 -0.0308373807
C   C542      1.0  0.20450  0.66670  0.93670  1.0000 -0.1898333711
C   C543      1.0  0.16250  0.70990  0.92860  1.0000 0.0321980071
C   C544      1.0  0.16310  0.16310  0.38370  1.0000 -0.0105540436
C   C545      1.0  0.13127  0.17770  0.36873  1.0000 -0.0446474246
C   C546      1.0  0.17740  0.17740  0.41460  1.0000 0.1245899171
N   N279      1.0  0.18230  0.21680  0.45930  1.0000 -0.0972911859
N   N280      1.0  0.20730  0.19140  0.46440  1.0000 -0.0308373807
C   C547      1.0  0.20450  0.16670  0.43670  1.0000 -0.1898333711
C   C548      1.0  0.16250  0.20990  0.42860  1.0000 0.0321980071
C   C549      1.0  0.66310  0.33690  0.61630  1.0000 -0.004253197
C   C550      1.0  0.63127  0.32230  0.63127  1.0000 -0.0490220883
C   C551      1.0  0.67740  0.32260  0.58540  1.0000 0.1245899171
N   N281      1.0  0.68230  0.28320  0.54070  1.0000 -0.0972911859
N   N282      1.0  0.70730  0.30860  0.53560  1.0000 -0.0308373807
C   C552      1.0  0.70450  0.33330  0.56330  1.0000 -0.1898333711
C   C553      1.0  0.66250  0.29010  0.57140  1.0000 0.0321980071
C   C554      1.0  0.66310  0.83690  0.11630  1.0000 -0.004253197
C   C555      1.0  0.63127  0.82230  0.13127  1.0000 -0.0490220883
C   C556      1.0  0.67740  0.82260  0.08540  1.0000 0.1245899171
N   N283      1.0  0.68230  0.78320  0.04070  1.0000 -0.0972911859
N   N284      1.0  0.70730  0.80860  0.03560  1.0000 -0.0308373807
C   C557      1.0  0.70450  0.83330  0.06330  1.0000 -0.1898333711
C   C558      1.0  0.66250  0.79010  0.07140  1.0000 0.0321980071
C   C559      1.0  0.16310  0.33690  0.11630  1.0000 -0.0105540436
C   C560      1.0  0.13127  0.32230  0.13127  1.0000 -0.0446474246
C   C561      1.0  0.17740  0.32260  0.08540  1.0000 0.1245899171
N   N285      1.0  0.18230  0.28320  0.04070  1.0000 -0.0972911859
N   N286      1.0  0.20730  0.30860  0.03560  1.0000 -0.0308373807
C   C562      1.0  0.20450  0.33330  0.06330  1.0000 -0.1898333711
C   C563      1.0  0.16250  0.29010  0.07140  1.0000 0.0321980071
C   C564      1.0  0.16310  0.83690  0.61630  1.0000 -0.0105540436
C   C565      1.0  0.13127  0.82230  0.63127  1.0000 -0.0490220883
C   C566      1.0  0.17740  0.82260  0.58540  1.0000 0.1245899171
N   N287      1.0  0.18230  0.78320  0.54070  1.0000 -0.0972911859
N   N288      1.0  0.20730  0.80860  0.53560  1.0000 -0.0308373807
C   C567      1.0  0.20450  0.83330  0.56330  1.0000 -0.1898333711
C   C568      1.0  0.16250  0.79010  0.57140  1.0000 0.0321980071
C   C569      1.0  0.33690  0.33690  0.38370  1.0000 -0.0105540436
C   C570      1.0  0.36873  0.32230  0.36873  1.0000 -0.0490220883
C   C571      1.0  0.32260  0.32260  0.41460  1.0000 0.1245899171
N   N289      1.0  0.31770  0.28320  0.45930  1.0000 -0.0972911859
N   N290      1.0  0.29270  0.30860  0.46440  1.0000 -0.0308373807
C   C572      1.0  0.29550  0.33330  0.43670  1.0000 -0.1898333711
C   C573      1.0  0.33750  0.29010  0.42860  1.0000 0.0321980071
C   C574      1.0  0.33690  0.83690  0.88370  1.0000 -0.0105540436
C   C575      1.0  0.36873  0.82230  0.86873  1.0000 -0.0490220883
C   C576      1.0  0.32260  0.82260  0.91460  1.0000 0.1245899171
N   N291      1.0  0.31770  0.78320  0.95930  1.0000 -0.0972911859
N   N292      1.0  0.29270  0.80860  0.96440  1.0000 -0.0308373807
C   C577      1.0  0.29550  0.83330  0.93670  1.0000 -0.1898333711
C   C578      1.0  0.33750  0.79010  0.92860  1.0000 0.0321980071
C   C579      1.0  0.83690  0.33690  0.88370  1.0000 -0.004253197
C   C580      1.0  0.86873  0.32230  0.86873  1.0000 -0.0490220883
C   C581      1.0  0.82260  0.32260  0.91460  1.0000 0.1245899171
N   N293      1.0  0.81770  0.28320  0.95930  1.0000 -0.0972911859
N   N294      1.0  0.79270  0.30860  0.96440  1.0000 -0.0308373807
C   C582      1.0  0.79550  0.33330  0.93670  1.0000 -0.1898333711
C   C583      1.0  0.83750  0.29010  0.92860  1.0000 0.0321980071
C   C584      1.0  0.83690  0.83690  0.38370  1.0000 -0.004253197
C   C585      1.0  0.86873  0.82230  0.36873  1.0000 -0.0490220883
C   C586      1.0  0.82260  0.82260  0.41460  1.0000 0.1245899171
N   N295      1.0  0.81770  0.78320  0.45930  1.0000 -0.0972911859
N   N296      1.0  0.79270  0.80860  0.46440  1.0000 -0.0308373807
C   C587      1.0  0.79550  0.83330  0.43670  1.0000 -0.1898333711
C   C588      1.0  0.83750  0.79010  0.42860  1.0000 0.0321980071
C   C589      1.0  0.33690  0.66310  0.61630  1.0000 -0.0105540436
C   C590      1.0  0.36873  0.67770  0.63127  1.0000 -0.0490220883
C   C591      1.0  0.32260  0.67740  0.58540  1.0000 0.1245899171
N   N297      1.0  0.31770  0.71680  0.54070  1.0000 -0.0972911859
N   N298      1.0  0.29270  0.69140  0.53560  1.0000 -0.0308373807
C   C592      1.0  0.29550  0.66670  0.56330  1.0000 -0.1898333711
C   C593      1.0  0.33750  0.70990  0.57140  1.0000 0.0321980071
C   C594      1.0  0.33690  0.16310  0.11630  1.0000 -0.0105540436
C   C595      1.0  0.36873  0.17770  0.13127  1.0000 -0.0490220883
C   C596      1.0  0.32260  0.17740  0.08540  1.0000 0.1245899171
N   N299      1.0  0.31770  0.21680  0.04070  1.0000 -0.0972911859
N   N300      1.0  0.29270  0.19140  0.03560  1.0000 -0.0308373807
C   C597      1.0  0.29550  0.16670  0.06330  1.0000 -0.1898333711
C   C598      1.0  0.33750  0.20990  0.07140  1.0000 0.0321980071
C   C599      1.0  0.83690  0.66310  0.11630  1.0000 -0.004253197
C   C600      1.0  0.86873  0.67770  0.13127  1.0000 -0.0490220883
C   C601      1.0  0.82260  0.67740  0.08540  1.0000 0.1245899171
N   N301      1.0  0.81770  0.71680  0.04070  1.0000 -0.0972911859
N   N302      1.0  0.79270  0.69140  0.03560  1.0000 -0.0308373807
C   C602      1.0  0.79550  0.66670  0.06330  1.0000 -0.1898333711
C   C603      1.0  0.83750  0.70990  0.07140  1.0000 0.0321980071
C   C604      1.0  0.83690  0.16310  0.61630  1.0000 -0.004253197
C   C605      1.0  0.86873  0.17770  0.63127  1.0000 -0.0490220883
C   C606      1.0  0.82260  0.17740  0.58540  1.0000 0.1245899171
N   N303      1.0  0.81770  0.21680  0.54070  1.0000 -0.0972911859
N   N304      1.0  0.79270  0.19140  0.53560  1.0000 -0.0308373807
C   C607      1.0  0.79550  0.16670  0.56330  1.0000 -0.1898333711
C   C608      1.0  0.83750  0.20990  0.57140  1.0000 0.0321980071
C   C609      1.0  0.38370  0.66310  0.66310  1.0000 0.042566651
C   C610      1.0  0.36873  0.63127  0.67770  1.0000 -0.0308373807
C   C611      1.0  0.41460  0.67740  0.67740  1.0000 -0.0308373807
N   N305      1.0  0.45930  0.68230  0.71680  1.0000 -0.0490220883
N   N306      1.0  0.46440  0.70730  0.69140  1.0000 -0.1357478067
C   C612      1.0  0.42860  0.66250  0.70990  1.0000 0.0735608559
C   C613      1.0  0.38370  0.16310  0.16310  1.0000 0.042566651
C   C614      1.0  0.36873  0.13127  0.17770  1.0000 -0.0308373807
C   C615      1.0  0.41460  0.17740  0.17740  1.0000 -0.0308373807
N   N307      1.0  0.45930  0.18230  0.21680  1.0000 -0.0490220883
N   N308      1.0  0.46440  0.20730  0.19140  1.0000 -0.1349771201
C   C616      1.0  0.42860  0.16250  0.20990  1.0000 0.0735608559
C   C617      1.0  0.88370  0.66310  0.16310  1.0000 0.042566651
C   C618      1.0  0.86873  0.63127  0.17770  1.0000 -0.0308373807
C   C619      1.0  0.91460  0.67740  0.17740  1.0000 -0.0308373807
N   N309      1.0  0.95930  0.68230  0.21680  1.0000 -0.0490220883
N   N310      1.0  0.96440  0.70730  0.19140  1.0000 -0.1357478067
C   C620      1.0  0.92860  0.66250  0.20990  1.0000 0.0735608559
C   C621      1.0  0.88370  0.16310  0.66310  1.0000 0.042566651
C   C622      1.0  0.86873  0.13127  0.67770  1.0000 -0.0308373807
C   C623      1.0  0.91460  0.17740  0.67740  1.0000 -0.0308373807
N   N311      1.0  0.95930  0.18230  0.71680  1.0000 -0.0490220883
N   N312      1.0  0.96440  0.20730  0.69140  1.0000 -0.1357478067
C   C624      1.0  0.92860  0.16250  0.70990  1.0000 0.0735608559
C   C625      1.0  0.61630  0.66310  0.33690  1.0000 0.042566651
C   C626      1.0  0.63127  0.63127  0.32230  1.0000 -0.0308373807
C   C627      1.0  0.58540  0.67740  0.32260  1.0000 -0.0308373807
N   N313      1.0  0.54070  0.68230  0.28320  1.0000 -0.0490220883
N   N314      1.0  0.53560  0.70730  0.30860  1.0000 -0.1357478067
C   C628      1.0  0.57140  0.66250  0.29010  1.0000 0.0735608559
C   C629      1.0  0.61630  0.16310  0.83690  1.0000 0.042566651
C   C630      1.0  0.63127  0.13127  0.82230  1.0000 -0.0308373807
C   C631      1.0  0.58540  0.17740  0.82260  1.0000 -0.0308373807
N   N315      1.0  0.54070  0.18230  0.78320  1.0000 -0.0490220883
N   N316      1.0  0.53560  0.20730  0.80860  1.0000 -0.1357478067
C   C632      1.0  0.57140  0.16250  0.79010  1.0000 0.0735608559
C   C633      1.0  0.11630  0.66310  0.83690  1.0000 0.042566651
C   C634      1.0  0.13127  0.63127  0.82230  1.0000 -0.0308373807
C   C635      1.0  0.08540  0.67740  0.82260  1.0000 -0.0308373807
N   N317      1.0  0.04070  0.68230  0.78320  1.0000 -0.0490220883
N   N318      1.0  0.03560  0.70730  0.80860  1.0000 -0.1357478067
C   C636      1.0  0.07140  0.66250  0.79010  1.0000 0.0735608559
C   C637      1.0  0.11630  0.16310  0.33690  1.0000 0.042566651
C   C638      1.0  0.13127  0.13127  0.32230  1.0000 -0.0308373807
C   C639      1.0  0.08540  0.17740  0.32260  1.0000 -0.0308373807
N   N319      1.0  0.04070  0.18230  0.28320  1.0000 -0.0490220883
N   N320      1.0  0.03560  0.20730  0.30860  1.0000 -0.1357478067
C   C640      1.0  0.07140  0.16250  0.29010  1.0000 0.0735608559
C   C641      1.0  0.38370  0.33690  0.33690  1.0000 0.042566651
C   C642      1.0  0.36873  0.36873  0.32230  1.0000 -0.0308373807
C   C643      1.0  0.41460  0.32260  0.32260  1.0000 -0.0308373807
N   N321      1.0  0.45930  0.31770  0.28320  1.0000 -0.0490220883
N   N322      1.0  0.46440  0.29270  0.30860  1.0000 -0.1357478067
C   C644      1.0  0.42860  0.33750  0.29010  1.0000 0.0735608559
C   C645      1.0  0.38370  0.83690  0.83690  1.0000 0.042566651
C   C646      1.0  0.36873  0.86873  0.82230  1.0000 -0.0308373807
C   C647      1.0  0.41460  0.82260  0.82260  1.0000 -0.0308373807
N   N323      1.0  0.45930  0.81770  0.78320  1.0000 -0.0490220883
N   N324      1.0  0.46440  0.79270  0.80860  1.0000 -0.1357478067
C   C648      1.0  0.42860  0.83750  0.79010  1.0000 0.0735608559
C   C649      1.0  0.88370  0.33690  0.83690  1.0000 0.042566651
C   C650      1.0  0.86873  0.36873  0.82230  1.0000 -0.0308373807
C   C651      1.0  0.91460  0.32260  0.82260  1.0000 -0.0308373807
N   N325      1.0  0.95930  0.31770  0.78320  1.0000 -0.0490220883
N   N326      1.0  0.96440  0.29270  0.80860  1.0000 -0.1357478067
C   C652      1.0  0.92860  0.33750  0.79010  1.0000 0.0735608559
C   C653      1.0  0.88370  0.83690  0.33690  1.0000 0.042566651
C   C654      1.0  0.86873  0.86873  0.32230  1.0000 -0.0308373807
C   C655      1.0  0.91460  0.82260  0.32260  1.0000 -0.0308373807
N   N327      1.0  0.95930  0.81770  0.28320  1.0000 -0.0490220883
N   N328      1.0  0.96440  0.79270  0.30860  1.0000 -0.1357478067
C   C656      1.0  0.92860  0.83750  0.29010  1.0000 0.0735608559
C   C657      1.0  0.61630  0.33690  0.66310  1.0000 0.042566651
C   C658      1.0  0.63127  0.36873  0.67770  1.0000 -0.0308373807
C   C659      1.0  0.58540  0.32260  0.67740  1.0000 -0.0308373807
N   N329      1.0  0.54070  0.31770  0.71680  1.0000 -0.0490220883
N   N330      1.0  0.53560  0.29270  0.69140  1.0000 -0.1357478067
C   C660      1.0  0.57140  0.33750  0.70990  1.0000 0.0735608559
C   C661      1.0  0.61630  0.83690  0.16310  1.0000 0.042566651
C   C662      1.0  0.63127  0.86873  0.17770  1.0000 -0.0308373807
C   C663      1.0  0.58540  0.82260  0.17740  1.0000 -0.0308373807
N   N331      1.0  0.54070  0.81770  0.21680  1.0000 -0.0490220883
N   N332      1.0  0.53560  0.79270  0.19140  1.0000 -0.1357478067
C   C664      1.0  0.57140  0.83750  0.20990  1.0000 0.0735608559
C   C665      1.0  0.11630  0.33690  0.16310  1.0000 0.042566651
C   C666      1.0  0.13127  0.36873  0.17770  1.0000 -0.0308373807
C   C667      1.0  0.08540  0.32260  0.17740  1.0000 -0.0308373807
N   N333      1.0  0.04070  0.31770  0.21680  1.0000 -0.0490220883
N   N334      1.0  0.03560  0.29270  0.19140  1.0000 -0.1357478067
C   C668      1.0  0.07140  0.33750  0.20990  1.0000 0.0735608559
C   C669      1.0  0.11630  0.83690  0.66310  1.0000 0.042566651
C   C670      1.0  0.13127  0.86873  0.67770  1.0000 -0.0308373807
C   C671      1.0  0.08540  0.82260  0.67740  1.0000 -0.0308373807
N   N335      1.0  0.04070  0.81770  0.71680  1.0000 -0.0490220883
N   N336      1.0  0.03560  0.79270  0.69140  1.0000 -0.1357478067
C   C672      1.0  0.07140  0.83750  0.70990  1.0000 0.0735608559
C   C673      1.0  0.88370  0.16310  0.83690  1.0000 -0.0105540436
C   C674      1.0  0.86873  0.17770  0.86873  1.0000 -0.0105540436
C   C675      1.0  0.91460  0.17740  0.82260  1.0000 0.1318055797
N   N337      1.0  0.95930  0.21680  0.81770  1.0000 -0.0844960104
N   N338      1.0  0.96440  0.19140  0.79270  1.0000 -0.0243746745
C   C676      1.0  0.93670  0.16670  0.79550  1.0000 -0.1989605955
C   C677      1.0  0.92860  0.20990  0.83750  1.0000 0.0185348517
N   N339      1.0  0.79550  0.06330  0.83330  1.0000 0.0083904664
C   C678      1.0  0.88370  0.66310  0.33690  1.0000 -0.0105540436
C   C679      1.0  0.86873  0.67770  0.36873  1.0000 -0.0105540436
C   C680      1.0  0.91460  0.67740  0.32260  1.0000 0.1318055797
N   N340      1.0  0.95930  0.71680  0.31770  1.0000 -0.0844960104
N   N341      1.0  0.96440  0.69140  0.29270  1.0000 -0.0243746745
C   C681      1.0  0.93670  0.66670  0.29550  1.0000 -0.1989605955
C   C682      1.0  0.92860  0.70990  0.33750  1.0000 0.0185348517
N   N342      1.0  0.79550  0.56330  0.33330  1.0000 0.0083904664
C   C683      1.0  0.38370  0.16310  0.33690  1.0000 -0.0105540436
C   C684      1.0  0.36873  0.17770  0.36873  1.0000 -0.0105540436
C   C685      1.0  0.41460  0.17740  0.32260  1.0000 0.1318055797
N   N343      1.0  0.45930  0.21680  0.31770  1.0000 -0.0854894258
N   N344      1.0  0.46440  0.19140  0.29270  1.0000 -0.0243746745
C   C686      1.0  0.43670  0.16670  0.29550  1.0000 -0.1989605955
C   C687      1.0  0.42860  0.20990  0.33750  1.0000 0.0185348517
N   N345      1.0  0.29550  0.06330  0.33330  1.0000 0.0083904664
C   C688      1.0  0.38370  0.66310  0.83690  1.0000 -0.0105540436
C   C689      1.0  0.36873  0.67770  0.86873  1.0000 -0.0105540436
C   C690      1.0  0.41460  0.67740  0.82260  1.0000 0.1318055797
N   N346      1.0  0.45930  0.71680  0.81770  1.0000 -0.0844960104
N   N347      1.0  0.46440  0.69140  0.79270  1.0000 -0.0243746745
C   C691      1.0  0.43670  0.66670  0.79550  1.0000 -0.1989605955
C   C692      1.0  0.42860  0.70990  0.83750  1.0000 0.0185348517
N   N348      1.0  0.29550  0.56330  0.83330  1.0000 0.0083904664
C   C693      1.0  0.11630  0.83690  0.83690  1.0000 -0.0105540436
C   C694      1.0  0.13127  0.82230  0.86873  1.0000 -0.0105540436
C   C695      1.0  0.08540  0.82260  0.82260  1.0000 0.1318055797
N   N349      1.0  0.04070  0.78320  0.81770  1.0000 -0.0844960104
N   N350      1.0  0.03560  0.80860  0.79270  1.0000 -0.0243746745
C   C696      1.0  0.06330  0.83330  0.79550  1.0000 -0.1989605955
C   C697      1.0  0.07140  0.79010  0.83750  1.0000 0.0185348517
N   N351      1.0  0.20450  0.93670  0.83330  1.0000 0.0083904664
C   C698      1.0  0.11630  0.33690  0.33690  1.0000 -0.0105540436
C   C699      1.0  0.13127  0.32230  0.36873  1.0000 -0.0105540436
C   C700      1.0  0.08540  0.32260  0.32260  1.0000 0.1318055797
N   N352      1.0  0.04070  0.28320  0.31770  1.0000 -0.0844960104
N   N353      1.0  0.03560  0.30860  0.29270  1.0000 -0.0243746745
C   C701      1.0  0.06330  0.33330  0.29550  1.0000 -0.1989605955
C   C702      1.0  0.07140  0.29010  0.33750  1.0000 0.0185348517
N   N354      1.0  0.20450  0.43670  0.33330  1.0000 0.0083904664
C   C703      1.0  0.61630  0.83690  0.33690  1.0000 -0.0105540436
C   C704      1.0  0.63127  0.82230  0.36873  1.0000 -0.0105540436
C   C705      1.0  0.58540  0.82260  0.32260  1.0000 0.1318055797
N   N355      1.0  0.54070  0.78320  0.31770  1.0000 -0.0844960104
N   N356      1.0  0.53560  0.80860  0.29270  1.0000 -0.0243746745
C   C706      1.0  0.56330  0.83330  0.29550  1.0000 -0.1989605955
C   C707      1.0  0.57140  0.79010  0.33750  1.0000 0.0185348517
N   N357      1.0  0.70450  0.93670  0.33330  1.0000 0.0083904664
C   C708      1.0  0.61630  0.33690  0.83690  1.0000 -0.0105540436
C   C709      1.0  0.63127  0.32230  0.86873  1.0000 -0.0105540436
C   C710      1.0  0.58540  0.32260  0.82260  1.0000 0.1318055797
N   N358      1.0  0.54070  0.28320  0.81770  1.0000 -0.0844960104
N   N359      1.0  0.53560  0.30860  0.79270  1.0000 -0.0308373807
C   C711      1.0  0.56330  0.33330  0.79550  1.0000 -0.1989605955
C   C712      1.0  0.57140  0.29010  0.83750  1.0000 0.0185348517
N   N360      1.0  0.70450  0.43670  0.83330  1.0000 0.0083904664
C   C713      1.0  0.88370  0.83690  0.16310  1.0000 -0.0105540436
C   C714      1.0  0.86873  0.82230  0.13127  1.0000 -0.0105540436
C   C715      1.0  0.91460  0.82260  0.17740  1.0000 0.1318055797
N   N361      1.0  0.95930  0.78320  0.18230  1.0000 -0.0854894258
N   N362      1.0  0.96440  0.80860  0.20730  1.0000 -0.0243746745
C   C716      1.0  0.93670  0.83330  0.20450  1.0000 -0.1989605955
C   C717      1.0  0.92860  0.79010  0.16250  1.0000 0.0185348517
N   N363      1.0  0.79550  0.93670  0.16670  1.0000 0.0083904664
C   C718      1.0  0.88370  0.33690  0.66310  1.0000 -0.0105540436
C   C719      1.0  0.86873  0.32230  0.63127  1.0000 -0.0105540436
C   C720      1.0  0.91460  0.32260  0.67740  1.0000 0.1318055797
N   N364      1.0  0.95930  0.28320  0.68230  1.0000 -0.0844960104
N   N365      1.0  0.96440  0.30860  0.70730  1.0000 -0.0308373807
C   C721      1.0  0.93670  0.33330  0.70450  1.0000 -0.1989605955
C   C722      1.0  0.92860  0.29010  0.66250  1.0000 0.0185348517
N   N366      1.0  0.79550  0.43670  0.66670  1.0000 0.0083904664
C   C723      1.0  0.38370  0.83690  0.66310  1.0000 -0.0105540436
C   C724      1.0  0.36873  0.82230  0.63127  1.0000 -0.0105540436
C   C725      1.0  0.41460  0.82260  0.67740  1.0000 0.1318055797
N   N367      1.0  0.45930  0.78320  0.68230  1.0000 -0.0844960104
N   N368      1.0  0.46440  0.80860  0.70730  1.0000 -0.0243746745
C   C726      1.0  0.43670  0.83330  0.70450  1.0000 -0.1989605955
C   C727      1.0  0.42860  0.79010  0.66250  1.0000 0.0185348517
N   N369      1.0  0.29550  0.93670  0.66670  1.0000 0.0083904664
C   C728      1.0  0.38370  0.33690  0.16310  1.0000 -0.0105540436
C   C729      1.0  0.36873  0.32230  0.13127  1.0000 -0.0105540436
C   C730      1.0  0.41460  0.32260  0.17740  1.0000 0.1318055797
N   N370      1.0  0.45930  0.28320  0.18230  1.0000 -0.0844960104
N   N371      1.0  0.46440  0.30860  0.20730  1.0000 -0.0243746745
C   C731      1.0  0.43670  0.33330  0.20450  1.0000 -0.1989605955
C   C732      1.0  0.42860  0.29010  0.16250  1.0000 0.0185348517
N   N372      1.0  0.29550  0.43670  0.16670  1.0000 0.0083904664
C   C733      1.0  0.11630  0.16310  0.16310  1.0000 -0.0105540436
C   C734      1.0  0.13127  0.17770  0.13127  1.0000 -0.0105540436
C   C735      1.0  0.08540  0.17740  0.17740  1.0000 0.1318055797
N   N373      1.0  0.04070  0.21680  0.18230  1.0000 -0.0854894258
N   N374      1.0  0.03560  0.19140  0.20730  1.0000 -0.0243746745
C   C736      1.0  0.06330  0.16670  0.20450  1.0000 -0.1989605955
C   C737      1.0  0.07140  0.20990  0.16250  1.0000 0.0185348517
N   N375      1.0  0.20450  0.06330  0.16670  1.0000 0.0083904664
C   C738      1.0  0.11630  0.66310  0.66310  1.0000 -0.0105540436
C   C739      1.0  0.13127  0.67770  0.63127  1.0000 -0.0105540436
C   C740      1.0  0.08540  0.67740  0.67740  1.0000 0.1318055797
N   N376      1.0  0.04070  0.71680  0.68230  1.0000 -0.0844960104
N   N377      1.0  0.03560  0.69140  0.70730  1.0000 -0.0243746745
C   C741      1.0  0.06330  0.66670  0.70450  1.0000 -0.1989605955
C   C742      1.0  0.07140  0.70990  0.66250  1.0000 0.0185348517
N   N378      1.0  0.20450  0.56330  0.66670  1.0000 0.0083904664
C   C743      1.0  0.61630  0.16310  0.66310  1.0000 -0.0105540436
C   C744      1.0  0.63127  0.17770  0.63127  1.0000 -0.0105540436
C   C745      1.0  0.58540  0.17740  0.67740  1.0000 0.1318055797
N   N379      1.0  0.54070  0.21680  0.68230  1.0000 -0.0854894258
N   N380      1.0  0.53560  0.19140  0.70730  1.0000 -0.0243746745
C   C746      1.0  0.56330  0.16670  0.70450  1.0000 -0.1989605955
C   C747      1.0  0.57140  0.20990  0.66250  1.0000 0.0185348517
N   N381      1.0  0.70450  0.06330  0.66670  1.0000 0.0083904664
C   C748      1.0  0.61630  0.66310  0.16310  1.0000 -0.0105540436
C   C749      1.0  0.63127  0.67770  0.13127  1.0000 -0.0105540436
C   C750      1.0  0.58540  0.67740  0.17740  1.0000 0.1318055797
N   N382      1.0  0.54070  0.71680  0.18230  1.0000 -0.0854894258
N   N383      1.0  0.53560  0.69140  0.20730  1.0000 -0.0243746745
C   C751      1.0  0.56330  0.66670  0.20450  1.0000 -0.1989605955
C   C752      1.0  0.57140  0.70990  0.16250  1.0000 0.0185348517
N   N384      1.0  0.70450  0.56330  0.16670  1.0000 0.0083904664
C   C753      1.0  0.16310  0.16310  0.11630  1.0000 -0.0105540436
C   C754      1.0  0.17770  0.13127  0.13127  1.0000 -0.0446474246
C   C755      1.0  0.17740  0.17740  0.08540  1.0000 0.1245899171
N   N385      1.0  0.21680  0.18230  0.04070  1.0000 -0.0972911859
N   N386      1.0  0.19140  0.20730  0.03560  1.0000 -0.0308373807
C   C756      1.0  0.16670  0.20450  0.06330  1.0000 -0.1898333711
C   C757      1.0  0.20990  0.16250  0.07140  1.0000 0.0321980071
C   C758      1.0  0.16310  0.66310  0.61630  1.0000 -0.0105540436
C   C759      1.0  0.17770  0.63127  0.63127  1.0000 -0.0490220883
C   C760      1.0  0.17740  0.67740  0.58540  1.0000 0.1245899171
N   N387      1.0  0.21680  0.68230  0.54070  1.0000 -0.0972911859
N   N388      1.0  0.19140  0.70730  0.53560  1.0000 -0.0308373807
C   C761      1.0  0.16670  0.70450  0.56330  1.0000 -0.1898333711
C   C762      1.0  0.20990  0.66250  0.57140  1.0000 0.0321980071
C   C763      1.0  0.66310  0.16310  0.61630  1.0000 -0.0105540436
C   C764      1.0  0.67770  0.13127  0.63127  1.0000 -0.0490220883
C   C765      1.0  0.67740  0.17740  0.58540  1.0000 0.1245899171
N   N389      1.0  0.71680  0.18230  0.54070  1.0000 -0.0972911859
N   N390      1.0  0.69140  0.20730  0.53560  1.0000 -0.0308373807
C   C766      1.0  0.66670  0.20450  0.56330  1.0000 -0.1898333711
C   C767      1.0  0.70990  0.16250  0.57140  1.0000 0.0321980071
C   C768      1.0  0.66310  0.66310  0.11630  1.0000 -0.004253197
C   C769      1.0  0.67770  0.63127  0.13127  1.0000 -0.0490220883
C   C770      1.0  0.67740  0.67740  0.08540  1.0000 0.1245899171
N   N391      1.0  0.71680  0.68230  0.04070  1.0000 -0.0972911859
N   N392      1.0  0.69140  0.70730  0.03560  1.0000 -0.0308373807
C   C771      1.0  0.66670  0.70450  0.06330  1.0000 -0.1898333711
C   C772      1.0  0.70990  0.66250  0.07140  1.0000 0.0321980071
C   C773      1.0  0.83690  0.16310  0.88370  1.0000 -0.004253197
C   C774      1.0  0.82230  0.13127  0.86873  1.0000 -0.0490220883
C   C775      1.0  0.82260  0.17740  0.91460  1.0000 0.1245899171
N   N393      1.0  0.78320  0.18230  0.95930  1.0000 -0.0972911859
N   N394      1.0  0.80860  0.20730  0.96440  1.0000 -0.0308373807
C   C776      1.0  0.83330  0.20450  0.93670  1.0000 -0.1898333711
C   C777      1.0  0.79010  0.16250  0.92860  1.0000 0.0321980071
C   C778      1.0  0.83690  0.66310  0.38370  1.0000 -0.004253197
C   C779      1.0  0.82230  0.63127  0.36873  1.0000 -0.0490220883
C   C780      1.0  0.82260  0.67740  0.41460  1.0000 0.1245899171
N   N395      1.0  0.78320  0.68230  0.45930  1.0000 -0.0972911859
N   N396      1.0  0.80860  0.70730  0.46440  1.0000 -0.0308373807
C   C781      1.0  0.83330  0.70450  0.43670  1.0000 -0.1898333711
C   C782      1.0  0.79010  0.66250  0.42860  1.0000 0.0321980071
C   C783      1.0  0.33690  0.16310  0.38370  1.0000 -0.0105540436
C   C784      1.0  0.32230  0.13127  0.36873  1.0000 -0.0446474246
C   C785      1.0  0.32260  0.17740  0.41460  1.0000 0.1245899171
N   N397      1.0  0.28320  0.18230  0.45930  1.0000 -0.0972911859
N   N398      1.0  0.30860  0.20730  0.46440  1.0000 -0.0308373807
C   C786      1.0  0.33330  0.20450  0.43670  1.0000 -0.1898333711
C   C787      1.0  0.29010  0.16250  0.42860  1.0000 0.0321980071
C   C788      1.0  0.33690  0.66310  0.88370  1.0000 -0.0105540436
C   C789      1.0  0.32230  0.63127  0.86873  1.0000 -0.0490220883
C   C790      1.0  0.32260  0.67740  0.91460  1.0000 0.1245899171
N   N399      1.0  0.28320  0.68230  0.95930  1.0000 -0.0972911859
N   N400      1.0  0.30860  0.70730  0.96440  1.0000 -0.0308373807
C   C791      1.0  0.33330  0.70450  0.93670  1.0000 -0.1898333711
C   C792      1.0  0.29010  0.66250  0.92860  1.0000 0.0321980071
C   C793      1.0  0.83690  0.83690  0.11630  1.0000 -0.004253197
C   C794      1.0  0.82230  0.86873  0.13127  1.0000 -0.0490220883
C   C795      1.0  0.82260  0.82260  0.08540  1.0000 0.1245899171
N   N401      1.0  0.78320  0.81770  0.04070  1.0000 -0.0972911859
N   N402      1.0  0.80860  0.79270  0.03560  1.0000 -0.0308373807
C   C796      1.0  0.83330  0.79550  0.06330  1.0000 -0.1898333711
C   C797      1.0  0.79010  0.83750  0.07140  1.0000 0.0321980071
C   C798      1.0  0.83690  0.33690  0.61630  1.0000 -0.004253197
C   C799      1.0  0.82230  0.36873  0.63127  1.0000 -0.0490220883
C   C800      1.0  0.82260  0.32260  0.58540  1.0000 0.1245899171
N   N403      1.0  0.78320  0.31770  0.54070  1.0000 -0.0972911859
N   N404      1.0  0.80860  0.29270  0.53560  1.0000 -0.0308373807
C   C801      1.0  0.83330  0.29550  0.56330  1.0000 -0.1898333711
C   C802      1.0  0.79010  0.33750  0.57140  1.0000 0.0321980071
C   C803      1.0  0.33690  0.83690  0.61630  1.0000 -0.004253197
C   C804      1.0  0.32230  0.86873  0.63127  1.0000 -0.0490220883
C   C805      1.0  0.32260  0.82260  0.58540  1.0000 0.1245899171
N   N405      1.0  0.28320  0.81770  0.54070  1.0000 -0.0972911859
N   N406      1.0  0.30860  0.79270  0.53560  1.0000 -0.0308373807
C   C806      1.0  0.33330  0.79550  0.56330  1.0000 -0.1898333711
C   C807      1.0  0.29010  0.83750  0.57140  1.0000 0.0321980071
C   C808      1.0  0.33690  0.33690  0.11630  1.0000 -0.0105540436
C   C809      1.0  0.32230  0.36873  0.13127  1.0000 -0.0446474246
C   C810      1.0  0.32260  0.32260  0.08540  1.0000 0.1245899171
N   N407      1.0  0.28320  0.31770  0.04070  1.0000 -0.0972911859
N   N408      1.0  0.30860  0.29270  0.03560  1.0000 -0.0308373807
C   C811      1.0  0.33330  0.29550  0.06330  1.0000 -0.1898333711
C   C812      1.0  0.29010  0.33750  0.07140  1.0000 0.0321980071
C   C813      1.0  0.16310  0.83690  0.88370  1.0000 -0.0105540436
C   C814      1.0  0.17770  0.86873  0.86873  1.0000 -0.0490220883
C   C815      1.0  0.17740  0.82260  0.91460  1.0000 0.1245899171
N   N409      1.0  0.21680  0.81770  0.95930  1.0000 -0.0972911859
N   N410      1.0  0.19140  0.79270  0.96440  1.0000 -0.0308373807
C   C816      1.0  0.16670  0.79550  0.93670  1.0000 -0.1898333711
C   C817      1.0  0.20990  0.83750  0.92860  1.0000 0.0321980071
C   C818      1.0  0.16310  0.33690  0.38370  1.0000 -0.0105540436
C   C819      1.0  0.17770  0.36873  0.36873  1.0000 -0.0490220883
C   C820      1.0  0.17740  0.32260  0.41460  1.0000 0.1245899171
N   N411      1.0  0.21680  0.31770  0.45930  1.0000 -0.0972911859
N   N412      1.0  0.19140  0.29270  0.46440  1.0000 -0.0308373807
C   C821      1.0  0.16670  0.29550  0.43670  1.0000 -0.1898333711
C   C822      1.0  0.20990  0.33750  0.42860  1.0000 0.0321980071
C   C823      1.0  0.66310  0.83690  0.38370  1.0000 -0.004253197
C   C824      1.0  0.67770  0.86873  0.36873  1.0000 -0.0490220883
C   C825      1.0  0.67740  0.82260  0.41460  1.0000 0.1245899171
N   N413      1.0  0.71680  0.81770  0.45930  1.0000 -0.0972911859
N   N414      1.0  0.69140  0.79270  0.46440  1.0000 -0.0308373807
C   C826      1.0  0.66670  0.79550  0.43670  1.0000 -0.1898333711
C   C827      1.0  0.70990  0.83750  0.42860  1.0000 0.0321980071
C   C828      1.0  0.66310  0.33690  0.88370  1.0000 -0.004253197
C   C829      1.0  0.67770  0.36873  0.86873  1.0000 -0.0490220883
C   C830      1.0  0.67740  0.32260  0.91460  1.0000 0.1245899171
N   N415      1.0  0.71680  0.31770  0.95930  1.0000 -0.0972911859
N   N416      1.0  0.69140  0.29270  0.96440  1.0000 -0.0308373807
C   C831      1.0  0.66670  0.29550  0.93670  1.0000 -0.1898333711
C   C832      1.0  0.70990  0.33750  0.92860  1.0000 0.0321980071
C   C833      1.0  0.16310  0.88370  0.83690  1.0000 0.042566651
C   C834      1.0  0.13127  0.86873  0.82230  1.0000 -0.0308373807
C   C835      1.0  0.17740  0.91460  0.82260  1.0000 -0.0308373807
N   N417      1.0  0.18230  0.95930  0.78320  1.0000 -0.0490220883
N   N418      1.0  0.20730  0.96440  0.80860  1.0000 -0.1357478067
C   C836      1.0  0.16250  0.92860  0.79010  1.0000 0.0735608559
C   C837      1.0  0.16310  0.38370  0.33690  1.0000 0.042566651
C   C838      1.0  0.13127  0.36873  0.32230  1.0000 -0.0308373807
C   C839      1.0  0.17740  0.41460  0.32260  1.0000 -0.0308373807
N   N419      1.0  0.18230  0.45930  0.28320  1.0000 -0.0490220883
N   N420      1.0  0.20730  0.46440  0.30860  1.0000 -0.1357478067
C   C840      1.0  0.16250  0.42860  0.29010  1.0000 0.0735608559
C   C841      1.0  0.66310  0.88370  0.33690  1.0000 0.042566651
C   C842      1.0  0.63127  0.86873  0.32230  1.0000 -0.0308373807
C   C843      1.0  0.67740  0.91460  0.32260  1.0000 -0.0308373807
N   N421      1.0  0.68230  0.95930  0.28320  1.0000 -0.0490220883
N   N422      1.0  0.70730  0.96440  0.30860  1.0000 -0.1357478067
C   C844      1.0  0.66250  0.92860  0.29010  1.0000 0.0735608559
C   C845      1.0  0.66310  0.38370  0.83690  1.0000 0.042566651
C   C846      1.0  0.63127  0.36873  0.82230  1.0000 -0.0308373807
C   C847      1.0  0.67740  0.41460  0.82260  1.0000 -0.0308373807
N   N423      1.0  0.68230  0.45930  0.78320  1.0000 -0.0490220883
N   N424      1.0  0.70730  0.46440  0.80860  1.0000 -0.1357478067
C   C848      1.0  0.66250  0.42860  0.79010  1.0000 0.0735608559
C   C849      1.0  0.16310  0.11630  0.16310  1.0000 0.042566651
C   C850      1.0  0.13127  0.13127  0.17770  1.0000 -0.0308373807
C   C851      1.0  0.17740  0.08540  0.17740  1.0000 -0.0308373807
N   N425      1.0  0.18230  0.04070  0.21680  1.0000 -0.0490220883
N   N426      1.0  0.20730  0.03560  0.19140  1.0000 -0.1357478067
C   C852      1.0  0.16250  0.07140  0.20990  1.0000 0.0735608559
C   C853      1.0  0.16310  0.61630  0.66310  1.0000 0.042566651
C   C854      1.0  0.13127  0.63127  0.67770  1.0000 -0.0308373807
C   C855      1.0  0.17740  0.58540  0.67740  1.0000 -0.0308373807
N   N427      1.0  0.18230  0.54070  0.71680  1.0000 -0.0490220883
N   N428      1.0  0.20730  0.53560  0.69140  1.0000 -0.1357478067
C   C856      1.0  0.16250  0.57140  0.70990  1.0000 0.0735608559
C   C857      1.0  0.66310  0.11630  0.66310  1.0000 0.042566651
C   C858      1.0  0.63127  0.13127  0.67770  1.0000 -0.0308373807
C   C859      1.0  0.67740  0.08540  0.67740  1.0000 -0.0308373807
N   N429      1.0  0.68230  0.04070  0.71680  1.0000 -0.0490220883
N   N430      1.0  0.70730  0.03560  0.69140  1.0000 -0.1357478067
C   C860      1.0  0.66250  0.07140  0.70990  1.0000 0.0735608559
C   C861      1.0  0.66310  0.61630  0.16310  1.0000 0.042566651
C   C862      1.0  0.63127  0.63127  0.17770  1.0000 -0.0308373807
C   C863      1.0  0.67740  0.58540  0.17740  1.0000 -0.0308373807
N   N431      1.0  0.68230  0.54070  0.21680  1.0000 -0.0490220883
N   N432      1.0  0.70730  0.53560  0.19140  1.0000 -0.1357478067
C   C864      1.0  0.66250  0.57140  0.20990  1.0000 0.0735608559
C   C865      1.0  0.83690  0.88370  0.16310  1.0000 0.042566651
C   C866      1.0  0.86873  0.86873  0.17770  1.0000 -0.0308373807
C   C867      1.0  0.82260  0.91460  0.17740  1.0000 -0.0308373807
N   N433      1.0  0.81770  0.95930  0.21680  1.0000 -0.0490220883
N   N434      1.0  0.79270  0.96440  0.19140  1.0000 -0.1357478067
C   C868      1.0  0.83750  0.92860  0.20990  1.0000 0.0735608559
C   C869      1.0  0.83690  0.38370  0.66310  1.0000 0.042566651
C   C870      1.0  0.86873  0.36873  0.67770  1.0000 -0.0308373807
C   C871      1.0  0.82260  0.41460  0.67740  1.0000 -0.0308373807
N   N435      1.0  0.81770  0.45930  0.71680  1.0000 -0.0490220883
N   N436      1.0  0.79270  0.46440  0.69140  1.0000 -0.1357478067
C   C872      1.0  0.83750  0.42860  0.70990  1.0000 0.0735608559
C   C873      1.0  0.33690  0.88370  0.66310  1.0000 0.042566651
C   C874      1.0  0.36873  0.86873  0.67770  1.0000 -0.0308373807
C   C875      1.0  0.32260  0.91460  0.67740  1.0000 -0.0308373807
N   N437      1.0  0.31770  0.95930  0.71680  1.0000 -0.0490220883
N   N438      1.0  0.29270  0.96440  0.69140  1.0000 -0.1357478067
C   C876      1.0  0.33750  0.92860  0.70990  1.0000 0.0735608559
C   C877      1.0  0.33690  0.38370  0.16310  1.0000 0.042566651
C   C878      1.0  0.36873  0.36873  0.17770  1.0000 -0.0308373807
C   C879      1.0  0.32260  0.41460  0.17740  1.0000 -0.0308373807
N   N439      1.0  0.31770  0.45930  0.21680  1.0000 -0.0490220883
N   N440      1.0  0.29270  0.46440  0.19140  1.0000 -0.1357478067
C   C880      1.0  0.33750  0.42860  0.20990  1.0000 0.0735608559
C   C881      1.0  0.83690  0.11630  0.83690  1.0000 0.042566651
C   C882      1.0  0.86873  0.13127  0.82230  1.0000 -0.0308373807
C   C883      1.0  0.82260  0.08540  0.82260  1.0000 -0.0308373807
N   N441      1.0  0.81770  0.04070  0.78320  1.0000 -0.0490220883
N   N442      1.0  0.79270  0.03560  0.80860  1.0000 -0.1357478067
C   C884      1.0  0.83750  0.07140  0.79010  1.0000 0.0735608559
C   C885      1.0  0.83690  0.61630  0.33690  1.0000 0.042566651
C   C886      1.0  0.86873  0.63127  0.32230  1.0000 -0.0308373807
C   C887      1.0  0.82260  0.58540  0.32260  1.0000 -0.0308373807
N   N443      1.0  0.81770  0.54070  0.28320  1.0000 -0.0490220883
N   N444      1.0  0.79270  0.53560  0.30860  1.0000 -0.1357478067
C   C888      1.0  0.83750  0.57140  0.29010  1.0000 0.0735608559
C   C889      1.0  0.33690  0.11630  0.33690  1.0000 0.042566651
C   C890      1.0  0.36873  0.13127  0.32230  1.0000 -0.0308373807
C   C891      1.0  0.32260  0.08540  0.32260  1.0000 -0.0308373807
N   N445      1.0  0.31770  0.04070  0.28320  1.0000 -0.0490220883
N   N446      1.0  0.29270  0.03560  0.30860  1.0000 -0.1357478067
C   C892      1.0  0.33750  0.07140  0.29010  1.0000 0.0735608559
C   C893      1.0  0.33690  0.61630  0.83690  1.0000 0.042566651
C   C894      1.0  0.36873  0.63127  0.82230  1.0000 -0.0308373807
C   C895      1.0  0.32260  0.58540  0.82260  1.0000 -0.0308373807
N   N447      1.0  0.31770  0.54070  0.78320  1.0000 -0.0490220883
N   N448      1.0  0.29270  0.53560  0.80860  1.0000 -0.1357478067
C   C896      1.0  0.33750  0.57140  0.79010  1.0000 0.0735608559
Cu  Cu1       1.0  0.24544  0.50000  0.31340  1.0000 0.3386329567
Cu  Cu2       1.0  0.24544  0.00000  0.81340  1.0000 0.3344624162
Cu  Cu3       1.0  0.74544  0.50000  0.81340  1.0000 0.3386329567
Cu  Cu4       1.0  0.74544  0.00000  0.31340  1.0000 0.3386329567
Cu  Cu5       1.0  0.75456  0.50000  0.31340  1.0000 0.3386329567
Cu  Cu6       1.0  0.75456  0.00000  0.81340  1.0000 0.3386329567
Cu  Cu7       1.0  0.25456  0.50000  0.81340  1.0000 0.3344624162
Cu  Cu8       1.0  0.25456  0.00000  0.31340  1.0000 0.3386329567
Cu  Cu9       1.0  0.75456  0.50000  0.68660  1.0000 0.3386329567
Cu  Cu10      1.0  0.75456  0.00000  0.18660  1.0000 0.3386329567
Cu  Cu11      1.0  0.25456  0.50000  0.18660  1.0000 0.3386329567
Cu  Cu12      1.0  0.25456  0.00000  0.68660  1.0000 0.3344624162
Cu  Cu13      1.0  0.24544  0.50000  0.68660  1.0000 0.3344624162
Cu  Cu14      1.0  0.24544  0.00000  0.18660  1.0000 0.3386329567
Cu  Cu15      1.0  0.74544  0.50000  0.18660  1.0000 0.3386329567
Cu  Cu16      1.0  0.74544  0.00000  0.68660  1.0000 0.3386329567
Cu  Cu17      1.0  0.31340  0.24544  0.50000  1.0000 0.3497334854
Cu  Cu18      1.0  0.31340  0.74544  0.00000  1.0000 0.3559560002
Cu  Cu19      1.0  0.81340  0.24544  0.00000  1.0000 0.3497334854
Cu  Cu20      1.0  0.81340  0.74544  0.50000  1.0000 0.3559560002
Cu  Cu21      1.0  0.31340  0.75456  0.50000  1.0000 0.3559560002
Cu  Cu22      1.0  0.31340  0.25456  0.00000  1.0000 0.3497334854
Cu  Cu23      1.0  0.81340  0.75456  0.00000  1.0000 0.3559560002
Cu  Cu24      1.0  0.81340  0.25456  0.50000  1.0000 0.3497334854
Cu  Cu25      1.0  0.68660  0.75456  0.50000  1.0000 0.3559560002
Cu  Cu26      1.0  0.68660  0.25456  0.00000  1.0000 0.3497334854
Cu  Cu27      1.0  0.18660  0.75456  0.00000  1.0000 0.3559560002
Cu  Cu28      1.0  0.18660  0.25456  0.50000  1.0000 0.3497334854
Cu  Cu29      1.0  0.68660  0.24544  0.50000  1.0000 0.3497334854
Cu  Cu30      1.0  0.68660  0.74544  0.00000  1.0000 0.3559560002
Cu  Cu31      1.0  0.18660  0.24544  0.00000  1.0000 0.3497334854
Cu  Cu32      1.0  0.18660  0.74544  0.50000  1.0000 0.3559560002
Cu  Cu33      1.0  0.50000  0.31340  0.24544  1.0000 0.3497334854
Cu  Cu34      1.0  0.50000  0.81340  0.74544  1.0000 0.3497334854
Cu  Cu35      1.0  0.00000  0.31340  0.74544  1.0000 0.3386329567
Cu  Cu36      1.0  0.00000  0.81340  0.24544  1.0000 0.3497334854
Cu  Cu37      1.0  0.50000  0.31340  0.75456  1.0000 0.3386329567
Cu  Cu38      1.0  0.50000  0.81340  0.25456  1.0000 0.3497334854
Cu  Cu39      1.0  0.00000  0.31340  0.25456  1.0000 0.3497334854
Cu  Cu40      1.0  0.00000  0.81340  0.75456  1.0000 0.3497334854
Cu  Cu41      1.0  0.50000  0.68660  0.75456  1.0000 0.3497334854
Cu  Cu42      1.0  0.50000  0.18660  0.25456  1.0000 0.3497334854
Cu  Cu43      1.0  0.00000  0.68660  0.25456  1.0000 0.3497334854
Cu  Cu44      1.0  0.00000  0.18660  0.75456  1.0000 0.3386329567
Cu  Cu45      1.0  0.50000  0.68660  0.24544  1.0000 0.3497334854
Cu  Cu46      1.0  0.50000  0.18660  0.74544  1.0000 0.3386329567
Cu  Cu47      1.0  0.00000  0.68660  0.74544  1.0000 0.3497334854
Cu  Cu48      1.0  0.00000  0.18660  0.24544  1.0000 0.3386329567
Cu  Cu49      1.0  0.00000  0.74544  0.18660  1.0000 0.3386329567
Cu  Cu50      1.0  0.00000  0.24544  0.68660  1.0000 0.3344624162
Cu  Cu51      1.0  0.50000  0.74544  0.68660  1.0000 0.3386329567
Cu  Cu52      1.0  0.50000  0.24544  0.18660  1.0000 0.3386329567
Cu  Cu53      1.0  0.00000  0.25456  0.18660  1.0000 0.3386329567
Cu  Cu54      1.0  0.00000  0.75456  0.68660  1.0000 0.3386329567
Cu  Cu55      1.0  0.50000  0.25456  0.68660  1.0000 0.3344624162
Cu  Cu56      1.0  0.50000  0.75456  0.18660  1.0000 0.3386329567
Cu  Cu57      1.0  0.00000  0.25456  0.81340  1.0000 0.3344624162
Cu  Cu58      1.0  0.00000  0.75456  0.31340  1.0000 0.3386329567
Cu  Cu59      1.0  0.50000  0.25456  0.31340  1.0000 0.3386329567
Cu  Cu60      1.0  0.50000  0.75456  0.81340  1.0000 0.3386329567
Cu  Cu61      1.0  0.00000  0.74544  0.81340  1.0000 0.3386329567
Cu  Cu62      1.0  0.00000  0.24544  0.31340  1.0000 0.3386329567
Cu  Cu63      1.0  0.50000  0.74544  0.31340  1.0000 0.3386329567
Cu  Cu64      1.0  0.50000  0.24544  0.81340  1.0000 0.3386329567
Cu  Cu65      1.0  0.74544  0.81340  0.00000  1.0000 0.3559560002
Cu  Cu66      1.0  0.74544  0.31340  0.50000  1.0000 0.3559560002
Cu  Cu67      1.0  0.24544  0.81340  0.50000  1.0000 0.3559560002
Cu  Cu68      1.0  0.24544  0.31340  0.00000  1.0000 0.3497334854
Cu  Cu69      1.0  0.25456  0.81340  0.00000  1.0000 0.3559560002
Cu  Cu70      1.0  0.25456  0.31340  0.50000  1.0000 0.3497334854
Cu  Cu71      1.0  0.75456  0.81340  0.50000  1.0000 0.3559560002
Cu  Cu72      1.0  0.75456  0.31340  0.00000  1.0000 0.3559560002
Cu  Cu73      1.0  0.25456  0.18660  0.00000  1.0000 0.3497334854
Cu  Cu74      1.0  0.25456  0.68660  0.50000  1.0000 0.3497334854
Cu  Cu75      1.0  0.75456  0.18660  0.50000  1.0000 0.3497334854
Cu  Cu76      1.0  0.75456  0.68660  0.00000  1.0000 0.3559560002
Cu  Cu77      1.0  0.74544  0.18660  0.00000  1.0000 0.3497334854
Cu  Cu78      1.0  0.74544  0.68660  0.50000  1.0000 0.3559560002
Cu  Cu79      1.0  0.24544  0.18660  0.50000  1.0000 0.3497334854
Cu  Cu80      1.0  0.24544  0.68660  0.00000  1.0000 0.3497334854
Cu  Cu81      1.0  0.81340  0.00000  0.25456  1.0000 0.3497334854
Cu  Cu82      1.0  0.81340  0.50000  0.75456  1.0000 0.3497334854
Cu  Cu83      1.0  0.31340  0.00000  0.75456  1.0000 0.3386329567
Cu  Cu84      1.0  0.31340  0.50000  0.25456  1.0000 0.3497334854
Cu  Cu85      1.0  0.81340  0.00000  0.74544  1.0000 0.3497334854
Cu  Cu86      1.0  0.81340  0.50000  0.24544  1.0000 0.3497334854
Cu  Cu87      1.0  0.31340  0.00000  0.24544  1.0000 0.3497334854
Cu  Cu88      1.0  0.31340  0.50000  0.74544  1.0000 0.3386329567
Cu  Cu89      1.0  0.18660  0.00000  0.74544  1.0000 0.3386329567
Cu  Cu90      1.0  0.18660  0.50000  0.24544  1.0000 0.3497334854
Cu  Cu91      1.0  0.68660  0.00000  0.24544  1.0000 0.3497334854
Cu  Cu92      1.0  0.68660  0.50000  0.74544  1.0000 0.3497334854
Cu  Cu93      1.0  0.18660  0.00000  0.25456  1.0000 0.3497334854
Cu  Cu94      1.0  0.18660  0.50000  0.75456  1.0000 0.3386329567
Cu  Cu95      1.0  0.68660  0.00000  0.75456  1.0000 0.3497334854
Cu  Cu96      1.0  0.68660  0.50000  0.25456  1.0000 0.3497334854
  N   N449      1.0  0.33330  0.56330  0.29550  1.0000
  C   C897      1.0  0.43670  0.70450  0.33330  1.0000
  N   N450      1.0  0.33330  0.06330  0.79550  1.0000
  C   C898      1.0  0.43670  0.20450  0.83330  1.0000
  N   N451      1.0  0.83330  0.56330  0.79550  1.0000
  C   C899      1.0  0.93670  0.70450  0.83330  1.0000
  N   N452      1.0  0.83330  0.06330  0.29550  1.0000
  C   C900      1.0  0.93670  0.20450  0.33330  1.0000
  N   N453      1.0  0.66670  0.43670  0.29550  1.0000
  C   C901      1.0  0.56330  0.29550  0.33330  1.0000
  N   N454      1.0  0.66670  0.93670  0.79550  1.0000
  C   C902      1.0  0.56330  0.79550  0.83330  1.0000
  N   N455      1.0  0.16670  0.43670  0.79550  1.0000
  C   C903      1.0  0.06330  0.29550  0.83330  1.0000
  N   N456      1.0  0.16670  0.93670  0.29550  1.0000
  C   C904      1.0  0.06330  0.79550  0.33330  1.0000
  N   N457      1.0  0.66670  0.56330  0.70450  1.0000
  C   C905      1.0  0.56330  0.70450  0.66670  1.0000
  N   N458      1.0  0.66670  0.06330  0.20450  1.0000
  C   C906      1.0  0.56330  0.20450  0.16670  1.0000
  N   N459      1.0  0.16670  0.56330  0.20450  1.0000
  C   C907      1.0  0.06330  0.70450  0.16670  1.0000
  N   N460      1.0  0.16670  0.06330  0.70450  1.0000
  C   C908      1.0  0.06330  0.20450  0.66670  1.0000
  N   N461      1.0  0.33330  0.43670  0.70450  1.0000
  C   C909      1.0  0.43670  0.29550  0.66670  1.0000
  N   N462      1.0  0.33330  0.93670  0.20450  1.0000
  C   C910      1.0  0.43670  0.79550  0.16670  1.0000
  N   N463      1.0  0.83330  0.43670  0.20450  1.0000
  C   C911      1.0  0.93670  0.29550  0.16670  1.0000
  N   N464      1.0  0.83330  0.93670  0.70450  1.0000
  C   C912      1.0  0.93670  0.79550  0.66670  1.0000
  N   N465      1.0  0.29550  0.33330  0.56330  1.0000
  N   N466      1.0  0.29550  0.83330  0.06330  1.0000
  N   N467      1.0  0.79550  0.33330  0.06330  1.0000
  N   N468      1.0  0.79550  0.83330  0.56330  1.0000
  N   N469      1.0  0.29550  0.66670  0.43670  1.0000
  N   N470      1.0  0.29550  0.16670  0.93670  1.0000
  N   N471      1.0  0.79550  0.66670  0.93670  1.0000
  N   N472      1.0  0.79550  0.16670  0.43670  1.0000
  N   N473      1.0  0.70450  0.66670  0.56330  1.0000
  N   N474      1.0  0.70450  0.16670  0.06330  1.0000
  N   N475      1.0  0.20450  0.66670  0.06330  1.0000
  N   N476      1.0  0.20450  0.16670  0.56330  1.0000
  N   N477      1.0  0.70450  0.33330  0.43670  1.0000
  N   N478      1.0  0.70450  0.83330  0.93670  1.0000
  N   N479      1.0  0.20450  0.33330  0.93670  1.0000
  N   N480      1.0  0.20450  0.83330  0.43670  1.0000
  N   N481      1.0  0.06330  0.83330  0.20450  1.0000
  C   C913      1.0  0.20450  0.93670  0.16670  1.0000
  N   N482      1.0  0.06330  0.33330  0.70450  1.0000
  C   C914      1.0  0.20450  0.43670  0.66670  1.0000
  N   N483      1.0  0.56330  0.83330  0.70450  1.0000
  C   C915      1.0  0.70450  0.93670  0.66670  1.0000
  N   N484      1.0  0.56330  0.33330  0.20450  1.0000
  C   C916      1.0  0.70450  0.43670  0.16670  1.0000
  N   N485      1.0  0.93670  0.16670  0.20450  1.0000
  C   C917      1.0  0.79550  0.06330  0.16670  1.0000
  N   N486      1.0  0.93670  0.66670  0.70450  1.0000
  C   C918      1.0  0.79550  0.56330  0.66670  1.0000
  N   N487      1.0  0.43670  0.16670  0.70450  1.0000
  C   C919      1.0  0.29550  0.06330  0.66670  1.0000
  N   N488      1.0  0.43670  0.66670  0.20450  1.0000
  C   C920      1.0  0.29550  0.56330  0.16670  1.0000
  N   N489      1.0  0.06330  0.16670  0.79550  1.0000
  C   C921      1.0  0.20450  0.06330  0.83330  1.0000
  N   N490      1.0  0.06330  0.66670  0.29550  1.0000
  C   C922      1.0  0.20450  0.56330  0.33330  1.0000
  N   N491      1.0  0.56330  0.16670  0.29550  1.0000
  C   C923      1.0  0.70450  0.06330  0.33330  1.0000
  N   N492      1.0  0.56330  0.66670  0.79550  1.0000
  C   C924      1.0  0.70450  0.56330  0.83330  1.0000
  N   N493      1.0  0.93670  0.83330  0.79550  1.0000
  C   C925      1.0  0.79550  0.93670  0.83330  1.0000
  N   N494      1.0  0.93670  0.33330  0.29550  1.0000
  C   C926      1.0  0.79550  0.43670  0.33330  1.0000
  N   N495      1.0  0.43670  0.83330  0.29550  1.0000
  C   C927      1.0  0.29550  0.93670  0.33330  1.0000
  N   N496      1.0  0.43670  0.33330  0.79550  1.0000
  C   C928      1.0  0.29550  0.43670  0.83330  1.0000
  N   N497      1.0  0.83330  0.79550  0.93670  1.0000
  N   N498      1.0  0.83330  0.29550  0.43670  1.0000
  N   N499      1.0  0.33330  0.79550  0.43670  1.0000
  N   N500      1.0  0.33330  0.29550  0.93670  1.0000
  N   N501      1.0  0.16670  0.79550  0.06330  1.0000
  N   N502      1.0  0.16670  0.29550  0.56330  1.0000
  N   N503      1.0  0.66670  0.79550  0.56330  1.0000
  N   N504      1.0  0.66670  0.29550  0.06330  1.0000
  N   N505      1.0  0.16670  0.20450  0.93670  1.0000
  N   N506      1.0  0.16670  0.70450  0.43670  1.0000
  N   N507      1.0  0.66670  0.20450  0.43670  1.0000
  N   N508      1.0  0.66670  0.70450  0.93670  1.0000
  N   N509      1.0  0.83330  0.20450  0.06330  1.0000
  N   N510      1.0  0.83330  0.70450  0.56330  1.0000
  N   N511      1.0  0.33330  0.20450  0.56330  1.0000
  N   N512      1.0  0.33330  0.70450  0.06330  1.0000
  N   N513      1.0  0.66670  0.43670  0.70450  1.0000
  C   C929      1.0  0.56330  0.29550  0.66670  1.0000
  N   N514      1.0  0.66670  0.93670  0.20450  1.0000
  C   C930      1.0  0.56330  0.79550  0.16670  1.0000
  N   N515      1.0  0.16670  0.43670  0.20450  1.0000
  C   C931      1.0  0.06330  0.29550  0.16670  1.0000
  N   N516      1.0  0.16670  0.93670  0.70450  1.0000
  C   C932      1.0  0.06330  0.79550  0.66670  1.0000
  N   N517      1.0  0.33330  0.56330  0.70450  1.0000
  C   C933      1.0  0.43670  0.70450  0.66670  1.0000
  N   N518      1.0  0.33330  0.06330  0.20450  1.0000
  C   C934      1.0  0.43670  0.20450  0.16670  1.0000
  N   N519      1.0  0.83330  0.56330  0.20450  1.0000
  C   C935      1.0  0.93670  0.70450  0.16670  1.0000
  N   N520      1.0  0.83330  0.06330  0.70450  1.0000
  C   C936      1.0  0.93670  0.20450  0.66670  1.0000
  N   N521      1.0  0.33330  0.43670  0.29550  1.0000
  C   C937      1.0  0.43670  0.29550  0.33330  1.0000
  N   N522      1.0  0.33330  0.93670  0.79550  1.0000
  C   C938      1.0  0.43670  0.79550  0.83330  1.0000
  N   N523      1.0  0.83330  0.43670  0.79550  1.0000
  C   C939      1.0  0.93670  0.29550  0.83330  1.0000
  N   N524      1.0  0.83330  0.93670  0.29550  1.0000
  C   C940      1.0  0.93670  0.79550  0.33330  1.0000
  N   N525      1.0  0.66670  0.56330  0.29550  1.0000
  C   C941      1.0  0.56330  0.70450  0.33330  1.0000
  N   N526      1.0  0.66670  0.06330  0.79550  1.0000
  C   C942      1.0  0.56330  0.20450  0.83330  1.0000
  N   N527      1.0  0.16670  0.56330  0.79550  1.0000
  C   C943      1.0  0.06330  0.70450  0.83330  1.0000
  N   N528      1.0  0.16670  0.06330  0.29550  1.0000
  C   C944      1.0  0.06330  0.20450  0.33330  1.0000
  N   N529      1.0  0.70450  0.66670  0.43670  1.0000
  N   N530      1.0  0.70450  0.16670  0.93670  1.0000
  N   N531      1.0  0.20450  0.66670  0.93670  1.0000
  N   N532      1.0  0.20450  0.16670  0.43670  1.0000
  N   N533      1.0  0.70450  0.33330  0.56330  1.0000
  N   N534      1.0  0.70450  0.83330  0.06330  1.0000
  N   N535      1.0  0.20450  0.33330  0.06330  1.0000
  N   N536      1.0  0.20450  0.83330  0.56330  1.0000
  N   N537      1.0  0.29550  0.33330  0.43670  1.0000
  N   N538      1.0  0.29550  0.83330  0.93670  1.0000
  N   N539      1.0  0.79550  0.33330  0.93670  1.0000
  N   N540      1.0  0.79550  0.83330  0.43670  1.0000
  N   N541      1.0  0.29550  0.66670  0.56330  1.0000
  N   N542      1.0  0.29550  0.16670  0.06330  1.0000
  N   N543      1.0  0.79550  0.66670  0.06330  1.0000
  N   N544      1.0  0.79550  0.16670  0.56330  1.0000
  N   N545      1.0  0.93670  0.16670  0.79550  1.0000
  C   C945      1.0  0.79550  0.06330  0.83330  1.0000
  N   N546      1.0  0.93670  0.66670  0.29550  1.0000
  C   C946      1.0  0.79550  0.56330  0.33330  1.0000
  N   N547      1.0  0.43670  0.16670  0.29550  1.0000
  C   C947      1.0  0.29550  0.06330  0.33330  1.0000
  N   N548      1.0  0.43670  0.66670  0.79550  1.0000
  C   C948      1.0  0.29550  0.56330  0.83330  1.0000
  N   N549      1.0  0.06330  0.83330  0.79550  1.0000
  C   C949      1.0  0.20450  0.93670  0.83330  1.0000
  N   N550      1.0  0.06330  0.33330  0.29550  1.0000
  C   C950      1.0  0.20450  0.43670  0.33330  1.0000
  N   N551      1.0  0.56330  0.83330  0.29550  1.0000
  C   C951      1.0  0.70450  0.93670  0.33330  1.0000
  N   N552      1.0  0.56330  0.33330  0.79550  1.0000
  C   C952      1.0  0.70450  0.43670  0.83330  1.0000
  N   N553      1.0  0.93670  0.83330  0.20450  1.0000
  C   C953      1.0  0.79550  0.93670  0.16670  1.0000
  N   N554      1.0  0.93670  0.33330  0.70450  1.0000
  C   C954      1.0  0.79550  0.43670  0.66670  1.0000
  N   N555      1.0  0.43670  0.83330  0.70450  1.0000
  C   C955      1.0  0.29550  0.93670  0.66670  1.0000
  N   N556      1.0  0.43670  0.33330  0.20450  1.0000
  C   C956      1.0  0.29550  0.43670  0.16670  1.0000
  N   N557      1.0  0.06330  0.16670  0.20450  1.0000
  C   C957      1.0  0.20450  0.06330  0.16670  1.0000
  N   N558      1.0  0.06330  0.66670  0.70450  1.0000
  C   C958      1.0  0.20450  0.56330  0.66670  1.0000
  N   N559      1.0  0.56330  0.16670  0.70450  1.0000
  C   C959      1.0  0.70450  0.06330  0.66670  1.0000
  N   N560      1.0  0.56330  0.66670  0.20450  1.0000
  C   C960      1.0  0.70450  0.56330  0.16670  1.0000
  N   N561      1.0  0.16670  0.20450  0.06330  1.0000
  N   N562      1.0  0.16670  0.70450  0.56330  1.0000
  N   N563      1.0  0.66670  0.20450  0.56330  1.0000
  N   N564      1.0  0.66670  0.70450  0.06330  1.0000
  N   N565      1.0  0.83330  0.20450  0.93670  1.0000
  N   N566      1.0  0.83330  0.70450  0.43670  1.0000
  N   N567      1.0  0.33330  0.20450  0.43670  1.0000
  N   N568      1.0  0.33330  0.70450  0.93670  1.0000
  N   N569      1.0  0.83330  0.79550  0.06330  1.0000
  N   N570      1.0  0.83330  0.29550  0.56330  1.0000
  N   N571      1.0  0.33330  0.79550  0.56330  1.0000
  N   N572      1.0  0.33330  0.29550  0.06330  1.0000
  N   N573      1.0  0.16670  0.79550  0.93670  1.0000
  N   N574      1.0  0.16670  0.29550  0.43670  1.0000
  N   N575      1.0  0.66670  0.79550  0.43670  1.0000
  N   N576      1.0  0.66670  0.29550  0.93670  1.0000
