# DDEC6 charges by PACMAN v1.1 (https://github.com/mtap-research/PACMAN-charge/)
data_NUMPAO_FSR_pacman
_symmetry_space_group_name_H-M   'P 1'
_cell_length_a   8.65380000
_cell_length_b   14.41440000
_cell_length_c   37.48840000
_cell_angle_alpha   90.00000000
_cell_angle_beta   90.00000000
_cell_angle_gamma   90.00000000
_symmetry_Int_Tables_number   1
_chemical_formula_structural   Zn2H53C48(NO6)2
_chemical_formula_sum   'Zn8 H212 C192 N8 O48'
_cell_volume   4676.27807572
_cell_formula_units_Z   4
loop_
 _symmetry_equiv_pos_site_id
 _symmetry_equiv_pos_as_xyz
  1  'x, y, z'
loop_
 _atom_site_type_symbol
 _atom_site_label
 _atom_site_symmetry_multiplicity
 _atom_site_fract_x
 _atom_site_fract_y
 _atom_site_fract_z
 _atom_site_occupancy
 _atom_site_charge
Zn  Zn1  1  0.06017000  0.28394000  0.85857000  1.0 0.8358836953
Zn  Zn2  1  0.93983000  0.71606000  0.35857000  1.0 0.8358836953
Zn  Zn3  1  0.56017000  0.21606000  0.64143000  1.0 0.8358836953
Zn  Zn4  1  0.43983000  0.78394000  0.14143000  1.0 0.8358836953
Zn  Zn5  1  0.93983000  0.71606000  0.14143000  1.0 0.8358836953
Zn  Zn6  1  0.06017000  0.28394000  0.64143000  1.0 0.8358836953
Zn  Zn7  1  0.43983000  0.78394000  0.35857000  1.0 0.8358836953
Zn  Zn8  1  0.56017000  0.21606000  0.85857000  1.0 0.8358836953
H  H1  1  0.84260000  0.00600000  0.99120000  1.0 0.1197554613
H  H2  1  0.15740000  0.99400000  0.49120000  1.0 0.1197554613
H  H3  1  0.34260000  0.49400000  0.50880000  1.0 0.1197554613
H  H4  1  0.65740000  0.50600000  0.00880000  1.0 0.1197554613
H  H5  1  0.15740000  0.99400000  0.00880000  1.0 0.1197554613
H  H6  1  0.84260000  0.00600000  0.50880000  1.0 0.1197554613
H  H7  1  0.65740000  0.50600000  0.49120000  1.0 0.1197554613
H  H8  1  0.34260000  0.49400000  0.99120000  1.0 0.1197554613
H  H9  1  0.92920000  0.07850000  0.01500000  1.0 0.1128281185
H  H10  1  0.07080000  0.92150000  0.51500000  1.0 0.1128281185
H  H11  1  0.42920000  0.42150000  0.48500000  1.0 0.1128281185
H  H12  1  0.57080000  0.57850000  0.98500000  1.0 0.1128281185
H  H13  1  0.07080000  0.92150000  0.98500000  1.0 0.1128281185
H  H14  1  0.92920000  0.07850000  0.48500000  1.0 0.1128281185
H  H15  1  0.57080000  0.57850000  0.51500000  1.0 0.1128281185
H  H16  1  0.42920000  0.42150000  0.01500000  1.0 0.1128281185
H  H17  1  0.86820000  0.27730000  0.92160000  1.0 0.1128281185
H  H18  1  0.13180000  0.72270000  0.42160000  1.0 0.1128281185
H  H19  1  0.36820000  0.22270000  0.57840000  1.0 0.1128281185
H  H20  1  0.63180000  0.77730000  0.07840000  1.0 0.1128281185
H  H21  1  0.13180000  0.72270000  0.07840000  1.0 0.1128281185
H  H22  1  0.86820000  0.27730000  0.57840000  1.0 0.1128281185
H  H23  1  0.63180000  0.77730000  0.42160000  1.0 0.1128281185
H  H24  1  0.36820000  0.22270000  0.92160000  1.0 0.1128281185
H  H25  1  0.17250000  0.57770000  0.93870000  1.0 0.1197554613
H  H26  1  0.82750000  0.42230000  0.43870000  1.0 0.1197554613
H  H27  1  0.67250000  0.92230000  0.56130000  1.0 0.1197554613
H  H28  1  0.32750000  0.07770000  0.06130000  1.0 0.1197554613
H  H29  1  0.82750000  0.42230000  0.06130000  1.0 0.1197554613
H  H30  1  0.17250000  0.57770000  0.56130000  1.0 0.1197554613
H  H31  1  0.32750000  0.07770000  0.43870000  1.0 0.1197554613
H  H32  1  0.67250000  0.92230000  0.93870000  1.0 0.1197554613
H  H33  1  0.19060000  0.10680000  0.89160000  1.0 0.1128281185
H  H34  1  0.80940000  0.89320000  0.39160000  1.0 0.1128281185
H  H35  1  0.69060000  0.39320000  0.60840000  1.0 0.1128281185
H  H36  1  0.30940000  0.60680000  0.10840000  1.0 0.1128281185
H  H37  1  0.80940000  0.89320000  0.10840000  1.0 0.1128281185
H  H38  1  0.19060000  0.10680000  0.60840000  1.0 0.1128281185
H  H39  1  0.30940000  0.60680000  0.39160000  1.0 0.1128281185
H  H40  1  0.69060000  0.39320000  0.89160000  1.0 0.1128281185
H  H41  1  0.15430000  0.01750000  0.94140000  1.0 0.1376817848
H  H42  1  0.84570000  0.98250000  0.44140000  1.0 0.1376817848
H  H43  1  0.65430000  0.48250000  0.55860000  1.0 0.1376817848
H  H44  1  0.34570000  0.51750000  0.05860000  1.0 0.1376817848
H  H45  1  0.84570000  0.98250000  0.05860000  1.0 0.1376817848
H  H46  1  0.15430000  0.01750000  0.55860000  1.0 0.1376817848
H  H47  1  0.34570000  0.51750000  0.44140000  1.0 0.1376817848
H  H48  1  0.65430000  0.48250000  0.94140000  1.0 0.1376817848
H  H49  1  0.39970000  0.50000000  0.85050000  1.0 0.1197554613
H  H50  1  0.60030000  0.50000000  0.35050000  1.0 0.1197554613
H  H51  1  0.89970000  0.00000000  0.64950000  1.0 0.1197554613
H  H52  1  0.10030000  0.00000000  0.14950000  1.0 0.1197554613
H  H53  1  0.60030000  0.50000000  0.14950000  1.0 0.1197554613
H  H54  1  0.39970000  0.50000000  0.64950000  1.0 0.1197554613
H  H55  1  0.10030000  0.00000000  0.35050000  1.0 0.1197554613
H  H56  1  0.89970000  0.00000000  0.85050000  1.0 0.1197554613
H  H57  1  0.81650000  0.19060000  0.97070000  1.0 0.1376817848
H  H58  1  0.18350000  0.80940000  0.47070000  1.0 0.1376817848
H  H59  1  0.31650000  0.30940000  0.52930000  1.0 0.1376817848
H  H60  1  0.68350000  0.69060000  0.02930000  1.0 0.1376817848
H  H61  1  0.18350000  0.80940000  0.02930000  1.0 0.1376817848
H  H62  1  0.81650000  0.19060000  0.52930000  1.0 0.1376817848
H  H63  1  0.68350000  0.69060000  0.47070000  1.0 0.1376817848
H  H64  1  0.31650000  0.30940000  0.97070000  1.0 0.1376817848
H  H65  1  0.54950000  0.71730000  0.90700000  1.0 0.1197554613
H  H66  1  0.45050000  0.28270000  0.40700000  1.0 0.1197554613
H  H67  1  0.04950000  0.78270000  0.59300000  1.0 0.1197554613
H  H68  1  0.95050000  0.21730000  0.09300000  1.0 0.1197554613
H  H69  1  0.45050000  0.28270000  0.09300000  1.0 0.1197554613
H  H70  1  0.54950000  0.71730000  0.59300000  1.0 0.1197554613
H  H71  1  0.95050000  0.21730000  0.40700000  1.0 0.1197554613
H  H72  1  0.04950000  0.78270000  0.90700000  1.0 0.1197554613
H  H73  1  0.78890000  0.54150000  0.87710000  1.0 0.1376817848
H  H74  1  0.21110000  0.45850000  0.37710000  1.0 0.1376817848
H  H75  1  0.28890000  0.95850000  0.62290000  1.0 0.1376817848
H  H76  1  0.71110000  0.04150000  0.12290000  1.0 0.1376817848
H  H77  1  0.21110000  0.45850000  0.12290000  1.0 0.1376817848
H  H78  1  0.78890000  0.54150000  0.62290000  1.0 0.1376817848
H  H79  1  0.71110000  0.04150000  0.37710000  1.0 0.1376817848
H  H80  1  0.28890000  0.95850000  0.87710000  1.0 0.1376817848
H  H81  1  0.87440000  0.61650000  0.85410000  1.0 0.1376817848
H  H82  1  0.12560000  0.38350000  0.35410000  1.0 0.1376817848
H  H83  1  0.37440000  0.88350000  0.64590000  1.0 0.1376817848
H  H84  1  0.62560000  0.11650000  0.14590000  1.0 0.1376817848
H  H85  1  0.12560000  0.38350000  0.14590000  1.0 0.1376817848
H  H86  1  0.87440000  0.61650000  0.64590000  1.0 0.1376817848
H  H87  1  0.62560000  0.11650000  0.35410000  1.0 0.1376817848
H  H88  1  0.37440000  0.88350000  0.85410000  1.0 0.1376817848
H  H89  1  0.79330000  0.64500000  0.88980000  1.0 0.1197554613
H  H90  1  0.20670000  0.35500000  0.38980000  1.0 0.1197554613
H  H91  1  0.29330000  0.85500000  0.61020000  1.0 0.1197554613
H  H92  1  0.70670000  0.14500000  0.11020000  1.0 0.1197554613
H  H93  1  0.20670000  0.35500000  0.11020000  1.0 0.1197554613
H  H94  1  0.79330000  0.64500000  0.61020000  1.0 0.1197554613
H  H95  1  0.70670000  0.14500000  0.38980000  1.0 0.1197554613
H  H96  1  0.29330000  0.85500000  0.88980000  1.0 0.1197554613
H  H97  1  0.53960000  0.57020000  0.80350000  1.0 0.1308181738
H  H98  1  0.46040000  0.42980000  0.30350000  1.0 0.1308181738
H  H99  1  0.03960000  0.92980000  0.69650000  1.0 0.1308181738
H  H100  1  0.96040000  0.07020000  0.19650000  1.0 0.1308181738
H  H101  1  0.46040000  0.42980000  0.19650000  1.0 0.1308181738
H  H102  1  0.53960000  0.57020000  0.69650000  1.0 0.1308181738
H  H103  1  0.96040000  0.07020000  0.30350000  1.0 0.1308181738
H  H104  1  0.03960000  0.92980000  0.80350000  1.0 0.1308181738
H  H105  1  0.72070000  0.56850000  0.80240000  1.0 0.1308181738
H  H106  1  0.27930000  0.43150000  0.30240000  1.0 0.1376817848
H  H107  1  0.22070000  0.93150000  0.69760000  1.0 0.1308181738
H  H108  1  0.77930000  0.06850000  0.19760000  1.0 0.1308181738
H  H109  1  0.27930000  0.43150000  0.19760000  1.0 0.1308181738
H  H110  1  0.72070000  0.56850000  0.69760000  1.0 0.1308181738
H  H111  1  0.77930000  0.06850000  0.30240000  1.0 0.1376817848
H  H112  1  0.22070000  0.93150000  0.80240000  1.0 0.1308181738
H  H113  1  0.63080000  0.49570000  0.82550000  1.0 0.1308181738
H  H114  1  0.36920000  0.50430000  0.32550000  1.0 0.1308181738
H  H115  1  0.13080000  0.00430000  0.67450000  1.0 0.1308181738
H  H116  1  0.86920000  0.99570000  0.17450000  1.0 0.1308181738
H  H117  1  0.36920000  0.50430000  0.17450000  1.0 0.1308181738
H  H118  1  0.63080000  0.49570000  0.67450000  1.0 0.1308181738
H  H119  1  0.86920000  0.99570000  0.32550000  1.0 0.1308181738
H  H120  1  0.13080000  0.00430000  0.82550000  1.0 0.1308181738
H  H121  1  0.65310000  0.76560000  0.85600000  1.0 0.1308181738
H  H122  1  0.34690000  0.23440000  0.35600000  1.0 0.1308181738
H  H123  1  0.15310000  0.73440000  0.64400000  1.0 0.1308181738
H  H124  1  0.84690000  0.26560000  0.14400000  1.0 0.1308181738
H  H125  1  0.34690000  0.23440000  0.14400000  1.0 0.1308181738
H  H126  1  0.65310000  0.76560000  0.64400000  1.0 0.1308181738
H  H127  1  0.84690000  0.26560000  0.35600000  1.0 0.1308181738
H  H128  1  0.15310000  0.73440000  0.85600000  1.0 0.1308181738
H  H129  1  0.72610000  0.73290000  0.81980000  1.0 0.1376817848
H  H130  1  0.27390000  0.26710000  0.31980000  1.0 0.1376817848
H  H131  1  0.22610000  0.76710000  0.68020000  1.0 0.1376817848
H  H132  1  0.77390000  0.23290000  0.18020000  1.0 0.1376817848
H  H133  1  0.27390000  0.26710000  0.18020000  1.0 0.1376817848
H  H134  1  0.72610000  0.73290000  0.68020000  1.0 0.1376817848
H  H135  1  0.77390000  0.23290000  0.31980000  1.0 0.1376817848
H  H136  1  0.22610000  0.76710000  0.81980000  1.0 0.1376817848
H  H137  1  0.54610000  0.73910000  0.82380000  1.0 0.1376817848
H  H138  1  0.45390000  0.26090000  0.32380000  1.0 0.1376817848
H  H139  1  0.04610000  0.76090000  0.67620000  1.0 0.1376817848
H  H140  1  0.95390000  0.23910000  0.17620000  1.0 0.1376817848
H  H141  1  0.45390000  0.26090000  0.17620000  1.0 0.1376817848
H  H142  1  0.54610000  0.73910000  0.67620000  1.0 0.1376817848
H  H143  1  0.95390000  0.23910000  0.32380000  1.0 0.1376817848
H  H144  1  0.04610000  0.76090000  0.82380000  1.0 0.1376817848
H  H145  1  0.17850000  0.22020000  0.75000000  1.0 0.1308181738
H  H146  1  0.82150000  0.77980000  0.25000000  1.0 0.1376817848
H  H147  1  0.67850000  0.27980000  0.75000000  1.0 0.1308181738
H  H148  1  0.32150000  0.72020000  0.25000000  1.0 0.1376817848
H  H149  1  0.50550000  0.07940000  0.80340000  1.0 0.1197554613
H  H150  1  0.49450000  0.92060000  0.30340000  1.0 0.1197554613
H  H151  1  0.00550000  0.42060000  0.69660000  1.0 0.1197554613
H  H152  1  0.99450000  0.57940000  0.19660000  1.0 0.1197554613
H  H153  1  0.49450000  0.92060000  0.19660000  1.0 0.1197554613
H  H154  1  0.50550000  0.07940000  0.69660000  1.0 0.1197554613
H  H155  1  0.99450000  0.57940000  0.30340000  1.0 0.1197554613
H  H156  1  0.00550000  0.42060000  0.80340000  1.0 0.1197554613
H  H157  1  0.67230000  0.97470000  0.69620000  1.0 0.1308181738
H  H158  1  0.32770000  0.02530000  0.19620000  1.0 0.1308181738
H  H159  1  0.17230000  0.52530000  0.80380000  1.0 0.1308181738
H  H160  1  0.82770000  0.47470000  0.30380000  1.0 0.1308181738
H  H161  1  0.32770000  0.02530000  0.30380000  1.0 0.1308181738
H  H162  1  0.67230000  0.97470000  0.80380000  1.0 0.1308181738
H  H163  1  0.82770000  0.47470000  0.19620000  1.0 0.1308181738
H  H164  1  0.17230000  0.52530000  0.69620000  1.0 0.1308181738
H  H165  1  0.75040000  0.89530000  0.71840000  1.0 0.1308181738
H  H166  1  0.24960000  0.10470000  0.21840000  1.0 0.1308181738
H  H167  1  0.25040000  0.60470000  0.78160000  1.0 0.1308181738
H  H168  1  0.74960000  0.39530000  0.28160000  1.0 0.1308181738
H  H169  1  0.24960000  0.10470000  0.28160000  1.0 0.1308181738
H  H170  1  0.75040000  0.89530000  0.78160000  1.0 0.1308181738
H  H171  1  0.74960000  0.39530000  0.21840000  1.0 0.1308181738
H  H172  1  0.25040000  0.60470000  0.71840000  1.0 0.1308181738
H  H173  1  0.56980000  0.90260000  0.71670000  1.0 0.1308181738
H  H174  1  0.43020000  0.09740000  0.21670000  1.0 0.1308181738
H  H175  1  0.06980000  0.59740000  0.78330000  1.0 0.1308181738
H  H176  1  0.93020000  0.40260000  0.28330000  1.0 0.1308181738
H  H177  1  0.43020000  0.09740000  0.28330000  1.0 0.1308181738
H  H178  1  0.56980000  0.90260000  0.78330000  1.0 0.1308181738
H  H179  1  0.93020000  0.40260000  0.21670000  1.0 0.1308181738
H  H180  1  0.06980000  0.59740000  0.71670000  1.0 0.1308181738
H  H181  1  0.42700000  0.82300000  0.97590000  1.0 0.3676119705
H  H182  1  0.57300000  0.17700000  0.47590000  1.0 0.3676119705
H  H183  1  0.92700000  0.67700000  0.52410000  1.0 0.3676119705
H  H184  1  0.07300000  0.32300000  0.02410000  1.0 0.3676119705
H  H185  1  0.57300000  0.17700000  0.02410000  1.0 0.3676119705
H  H186  1  0.42700000  0.82300000  0.52410000  1.0 0.3676119705
H  H187  1  0.07300000  0.32300000  0.47590000  1.0 0.3676119705
H  H188  1  0.92700000  0.67700000  0.97590000  1.0 0.3676119705
H  H189  1  0.89910000  0.01890000  0.75350000  1.0 0.1197554613
H  H190  1  0.10090000  0.98110000  0.25350000  1.0 0.1197554613
H  H191  1  0.39910000  0.48110000  0.74650000  1.0 0.1197554613
H  H192  1  0.60090000  0.51890000  0.24650000  1.0 0.1197554613
H  H193  1  0.10090000  0.98110000  0.24650000  1.0 0.1197554613
H  H194  1  0.89910000  0.01890000  0.74650000  1.0 0.1197554613
H  H195  1  0.60090000  0.51890000  0.25350000  1.0 0.1197554613
H  H196  1  0.39910000  0.48110000  0.75350000  1.0 0.1197554613
H  H197  1  0.82000000  0.08980000  0.72760000  1.0 0.1128281185
H  H198  1  0.18000000  0.91020000  0.22760000  1.0 0.1128281185
H  H199  1  0.32000000  0.41020000  0.77240000  1.0 0.1128281185
H  H200  1  0.68000000  0.58980000  0.27240000  1.0 0.1128281185
H  H201  1  0.18000000  0.91020000  0.27240000  1.0 0.1128281185
H  H202  1  0.82000000  0.08980000  0.77240000  1.0 0.1128281185
H  H203  1  0.68000000  0.58980000  0.22760000  1.0 0.1128281185
H  H204  1  0.32000000  0.41020000  0.72760000  1.0 0.1128281185
H  H205  1  0.80540000  0.10290000  0.76890000  1.0 0.1197554613
H  H206  1  0.19460000  0.89710000  0.26890000  1.0 0.1197554613
H  H207  1  0.30540000  0.39710000  0.73110000  1.0 0.1197554613
H  H208  1  0.69460000  0.60290000  0.23110000  1.0 0.1197554613
H  H209  1  0.19460000  0.89710000  0.23110000  1.0 0.1197554613
H  H210  1  0.80540000  0.10290000  0.73110000  1.0 0.1197554613
H  H211  1  0.69460000  0.60290000  0.26890000  1.0 0.1197554613
H  H212  1  0.30540000  0.39710000  0.76890000  1.0 0.1197554613
C  C1  1  0.26940000  0.52679000  0.89375000  1.0 -0.0138035593
C  C2  1  0.73060000  0.47321000  0.39375000  1.0 -0.0138035593
C  C3  1  0.76940000  0.97321000  0.60625000  1.0 -0.0138035593
C  C4  1  0.23060000  0.02679000  0.10625000  1.0 -0.0138035593
C  C5  1  0.73060000  0.47321000  0.10625000  1.0 -0.0138035593
C  C6  1  0.26940000  0.52679000  0.60625000  1.0 -0.0138035593
C  C7  1  0.23060000  0.02679000  0.39375000  1.0 -0.0138035593
C  C8  1  0.76940000  0.97321000  0.89375000  1.0 -0.0138035593
C  C9  1  0.34600000  0.71651000  0.96008000  1.0 0.5302711089
C  C10  1  0.65400000  0.28349000  0.46008000  1.0 0.5302711089
C  C11  1  0.84600000  0.78349000  0.53992000  1.0 0.5302711089
C  C12  1  0.15400000  0.21651000  0.03992000  1.0 0.5302711089
C  C13  1  0.65400000  0.28349000  0.03992000  1.0 0.5302711089
C  C14  1  0.34600000  0.71651000  0.53992000  1.0 0.5302711089
C  C15  1  0.15400000  0.21651000  0.46008000  1.0 0.5302711089
C  C16  1  0.84600000  0.78349000  0.96008000  1.0 0.5302711089
C  C17  1  0.49840000  0.61086000  0.87412000  1.0 0.0695274752
C  C18  1  0.50160000  0.38914000  0.37412000  1.0 0.0695274752
C  C19  1  0.99840000  0.88914000  0.62588000  1.0 0.0695274752
C  C20  1  0.00160000  0.11086000  0.12588000  1.0 0.0695274752
C  C21  1  0.50160000  0.38914000  0.12588000  1.0 0.0695274752
C  C22  1  0.49840000  0.61086000  0.62588000  1.0 0.0695274752
C  C23  1  0.00160000  0.11086000  0.37412000  1.0 0.0695274752
C  C24  1  0.99840000  0.88914000  0.87412000  1.0 0.0695274752
C  C25  1  0.35990000  0.65719000  0.92761000  1.0 -0.0474875274
C  C26  1  0.64010000  0.34281000  0.42761000  1.0 -0.0474875274
C  C27  1  0.85990000  0.84281000  0.57239000  1.0 -0.0474875274
C  C28  1  0.14010000  0.15719000  0.07239000  1.0 -0.0474875274
C  C29  1  0.64010000  0.34281000  0.07239000  1.0 -0.0474875274
C  C30  1  0.35990000  0.65719000  0.57239000  1.0 -0.0474875274
C  C31  1  0.14010000  0.15719000  0.42761000  1.0 -0.0474875274
C  C32  1  0.85990000  0.84281000  0.92761000  1.0 -0.0474875274
C  C33  1  0.94130000  0.03638000  0.99498000  1.0 -0.2334056593
C  C34  1  0.05870000  0.96362000  0.49498000  1.0 -0.2334056593
C  C35  1  0.44130000  0.46362000  0.50502000  1.0 -0.2334056593
C  C36  1  0.55870000  0.53638000  0.00502000  1.0 -0.2334056593
C  C37  1  0.05870000  0.96362000  0.00502000  1.0 -0.2334056593
C  C38  1  0.94130000  0.03638000  0.50502000  1.0 -0.2334056593
C  C39  1  0.55870000  0.53638000  0.49498000  1.0 -0.2334056593
C  C40  1  0.44130000  0.46362000  0.99498000  1.0 -0.2334056593
C  C41  1  0.92550000  0.22362000  0.92542000  1.0 0.0918060817
C  C42  1  0.07450000  0.77638000  0.42542000  1.0 0.0918060817
C  C43  1  0.42550000  0.27638000  0.57458000  1.0 0.0918060817
C  C44  1  0.57450000  0.72362000  0.07458000  1.0 0.0918060817
C  C45  1  0.07450000  0.77638000  0.07458000  1.0 0.0918060817
C  C46  1  0.92550000  0.22362000  0.57458000  1.0 0.0918060817
C  C47  1  0.57450000  0.72362000  0.42542000  1.0 0.0918060817
C  C48  1  0.42550000  0.27638000  0.92542000  1.0 0.0918060817
C  C49  1  0.15960000  0.44594000  0.88936000  1.0 0.5464829166
C  C50  1  0.84040000  0.55406000  0.38936000  1.0 0.5464829166
C  C51  1  0.65960000  0.05406000  0.61064000  1.0 0.5464829166
C  C52  1  0.34040000  0.94594000  0.11064000  1.0 0.5464829166
C  C53  1  0.84040000  0.55406000  0.11064000  1.0 0.5464829166
C  C54  1  0.15960000  0.44594000  0.61064000  1.0 0.5464829166
C  C55  1  0.34040000  0.94594000  0.38936000  1.0 0.5464829166
C  C56  1  0.65960000  0.05406000  0.88936000  1.0 0.5464829166
C  C57  1  0.25350000  0.58569000  0.92266000  1.0 -0.1444670151
C  C58  1  0.74650000  0.41431000  0.42266000  1.0 -0.1444670151
C  C59  1  0.75350000  0.91431000  0.57734000  1.0 -0.1508462659
C  C60  1  0.24650000  0.08569000  0.07734000  1.0 -0.1444670151
C  C61  1  0.74650000  0.41431000  0.07734000  1.0 -0.1444670151
C  C62  1  0.25350000  0.58569000  0.57734000  1.0 -0.1508462659
C  C63  1  0.24650000  0.08569000  0.42266000  1.0 -0.1444670151
C  C64  1  0.75350000  0.91431000  0.92266000  1.0 -0.1508462659
C  C65  1  0.97910000  0.09270000  0.96218000  1.0 0.1817541678
C  C66  1  0.02090000  0.90730000  0.46218000  1.0 0.1817541678
C  C67  1  0.47910000  0.40730000  0.53782000  1.0 0.1817541678
C  C68  1  0.52090000  0.59270000  0.03782000  1.0 0.1817541678
C  C69  1  0.02090000  0.90730000  0.03782000  1.0 0.1817541678
C  C70  1  0.97910000  0.09270000  0.53782000  1.0 0.1817541678
C  C71  1  0.52090000  0.59270000  0.46218000  1.0 0.1817541678
C  C72  1  0.47910000  0.40730000  0.96218000  1.0 0.1817541678
C  C73  1  0.11530000  0.12424000  0.90796000  1.0 0.0695274752
C  C74  1  0.88470000  0.87576000  0.40796000  1.0 0.0695274752
C  C75  1  0.61530000  0.37576000  0.59204000  1.0 0.0695274752
C  C76  1  0.38470000  0.62424000  0.09204000  1.0 0.0695274752
C  C77  1  0.88470000  0.87576000  0.09204000  1.0 0.0695274752
C  C78  1  0.11530000  0.12424000  0.59204000  1.0 0.0695274752
C  C79  1  0.38470000  0.62424000  0.40796000  1.0 0.0695274752
C  C80  1  0.61530000  0.37576000  0.90796000  1.0 0.0695274752
C  C81  1  0.09310000  0.06961000  0.93773000  1.0 -0.1887961517
C  C82  1  0.90690000  0.93039000  0.43773000  1.0 -0.1887961517
C  C83  1  0.59310000  0.43039000  0.56227000  1.0 -0.1887961517
C  C84  1  0.40690000  0.56961000  0.06227000  1.0 -0.1887961517
C  C85  1  0.90690000  0.93039000  0.06227000  1.0 -0.1887961517
C  C86  1  0.09310000  0.06961000  0.56227000  1.0 -0.1887961517
C  C87  1  0.40690000  0.56961000  0.43773000  1.0 -0.1887961517
C  C88  1  0.59310000  0.43039000  0.93773000  1.0 -0.1887961517
C  C89  1  0.63680000  0.62445000  0.84886000  1.0 0.2692394217
C  C90  1  0.36320000  0.37555000  0.34886000  1.0 0.2692394217
C  C91  1  0.13680000  0.87555000  0.65114000  1.0 0.2692394217
C  C92  1  0.86320000  0.12445000  0.15114000  1.0 0.2692394217
C  C93  1  0.36320000  0.37555000  0.15114000  1.0 0.2692394217
C  C94  1  0.63680000  0.62445000  0.65114000  1.0 0.2692394217
C  C95  1  0.86320000  0.12445000  0.34886000  1.0 0.2692394217
C  C96  1  0.13680000  0.87555000  0.84886000  1.0 0.2692394217
C  C97  1  0.39050000  0.53985000  0.86988000  1.0 -0.1508462659
C  C98  1  0.60950000  0.46015000  0.36988000  1.0 -0.1508462659
C  C99  1  0.89050000  0.96015000  0.63012000  1.0 -0.1508462659
C  C100  1  0.10950000  0.03985000  0.13012000  1.0 -0.1508462659
C  C101  1  0.60950000  0.46015000  0.13012000  1.0 -0.1508462659
C  C102  1  0.39050000  0.53985000  0.63012000  1.0 -0.1508462659
C  C103  1  0.10950000  0.03985000  0.36988000  1.0 -0.1508462659
C  C104  1  0.89050000  0.96015000  0.86988000  1.0 -0.1508462659
C  C105  1  0.89450000  0.17222000  0.95513000  1.0 -0.1887961517
C  C106  1  0.10550000  0.82778000  0.45513000  1.0 -0.1887961517
C  C107  1  0.39450000  0.32778000  0.54487000  1.0 -0.1887961517
C  C108  1  0.60550000  0.67222000  0.04487000  1.0 -0.1887961517
C  C109  1  0.10550000  0.82778000  0.04487000  1.0 -0.1887961517
C  C110  1  0.89450000  0.17222000  0.54487000  1.0 -0.1887961517
C  C111  1  0.60550000  0.67222000  0.45513000  1.0 -0.1887961517
C  C112  1  0.39450000  0.32778000  0.95513000  1.0 -0.1887961517
C  C113  1  0.47970000  0.66913000  0.90352000  1.0 -0.1672285677
C  C114  1  0.52030000  0.33087000  0.40352000  1.0 -0.1672285677
C  C115  1  0.97970000  0.83087000  0.59648000  1.0 -0.1672285677
C  C116  1  0.02030000  0.16913000  0.09648000  1.0 -0.1672285677
C  C117  1  0.52030000  0.33087000  0.09648000  1.0 -0.1672285677
C  C118  1  0.47970000  0.66913000  0.59648000  1.0 -0.1672285677
C  C119  1  0.02030000  0.16913000  0.40352000  1.0 -0.1672285677
C  C120  1  0.97970000  0.83087000  0.90352000  1.0 -0.1672285677
C  C121  1  0.78750000  0.60500000  0.86939000  1.0 -0.4575681428
C  C122  1  0.21250000  0.39500000  0.36939000  1.0 -0.4575681428
C  C123  1  0.28750000  0.89500000  0.63061000  1.0 -0.4575681428
C  C124  1  0.71250000  0.10500000  0.13061000  1.0 -0.4575681428
C  C125  1  0.21250000  0.39500000  0.13061000  1.0 -0.4575681428
C  C126  1  0.78750000  0.60500000  0.63061000  1.0 -0.4575681428
C  C127  1  0.71250000  0.10500000  0.36939000  1.0 -0.4575681428
C  C128  1  0.28750000  0.89500000  0.86939000  1.0 -0.4575681428
C  C129  1  0.63150000  0.55860000  0.81712000  1.0 -0.4889539465
C  C130  1  0.36850000  0.44140000  0.31712000  1.0 -0.4889539465
C  C131  1  0.13150000  0.94140000  0.68288000  1.0 -0.4889539465
C  C132  1  0.86850000  0.05860000  0.18288000  1.0 -0.4889539465
C  C133  1  0.36850000  0.44140000  0.18288000  1.0 -0.4889539465
C  C134  1  0.63150000  0.55860000  0.68288000  1.0 -0.4889539465
C  C135  1  0.86850000  0.05860000  0.31712000  1.0 -0.4889539465
C  C136  1  0.13150000  0.94140000  0.81712000  1.0 -0.4889539465
C  C137  1  0.64090000  0.72480000  0.83591000  1.0 -0.4790302108
C  C138  1  0.35910000  0.27520000  0.33591000  1.0 -0.4790302108
C  C139  1  0.14090000  0.77520000  0.66409000  1.0 -0.4790302108
C  C140  1  0.85910000  0.22480000  0.16409000  1.0 -0.4790302108
C  C141  1  0.35910000  0.27520000  0.16409000  1.0 -0.4790302108
C  C142  1  0.64090000  0.72480000  0.66409000  1.0 -0.4790302108
C  C143  1  0.85910000  0.22480000  0.33591000  1.0 -0.4790302108
C  C144  1  0.14090000  0.77520000  0.83591000  1.0 -0.4790302108
C  C145  1  0.33440000  0.15620000  0.78193000  1.0 -0.0387944838
C  C146  1  0.66560000  0.84380000  0.28193000  1.0 -0.0387944838
C  C147  1  0.83440000  0.34380000  0.71807000  1.0 -0.0387944838
C  C148  1  0.16560000  0.65620000  0.21807000  1.0 -0.0387944838
C  C149  1  0.66560000  0.84380000  0.21807000  1.0 -0.0387944838
C  C150  1  0.33440000  0.15620000  0.71807000  1.0 -0.0387944838
C  C151  1  0.16560000  0.65620000  0.28193000  1.0 -0.0387944838
C  C152  1  0.83440000  0.34380000  0.78193000  1.0 -0.0387944838
C  C153  1  0.26640000  0.18951000  0.81630000  1.0 0.5663851459
C  C154  1  0.73360000  0.81049000  0.31630000  1.0 0.5663851459
C  C155  1  0.76640000  0.31049000  0.68370000  1.0 0.5663851459
C  C156  1  0.23360000  0.68951000  0.18370000  1.0 0.5663851459
C  C157  1  0.73360000  0.81049000  0.18370000  1.0 0.5663851459
C  C158  1  0.26640000  0.18951000  0.68370000  1.0 0.5663851459
C  C159  1  0.23360000  0.68951000  0.31630000  1.0 0.5663851459
C  C160  1  0.76640000  0.31049000  0.81630000  1.0 0.5663851459
C  C161  1  0.26720000  0.18380000  0.75000000  1.0 -0.1077505577
C  C162  1  0.73280000  0.81620000  0.25000000  1.0 -0.1077505577
C  C163  1  0.76720000  0.31620000  0.75000000  1.0 -0.1077505577
C  C164  1  0.23280000  0.68380000  0.25000000  1.0 -0.1077505577
C  C165  1  0.52540000  0.06510000  0.75000000  1.0 0.0695274752
C  C166  1  0.47460000  0.93490000  0.25000000  1.0 0.0695274752
C  C167  1  0.02540000  0.43490000  0.75000000  1.0 0.0695274752
C  C168  1  0.97460000  0.56510000  0.25000000  1.0 0.0695274752
C  C169  1  0.66550000  0.99970000  0.75000000  1.0 0.2544158657
C  C170  1  0.33450000  0.00030000  0.25000000  1.0 0.2553489168
C  C171  1  0.16550000  0.50030000  0.75000000  1.0 0.2544158657
C  C172  1  0.83450000  0.49970000  0.25000000  1.0 0.2553489168
C  C173  1  0.46180000  0.09746000  0.78181000  1.0 -0.1672285677
C  C174  1  0.53820000  0.90254000  0.28181000  1.0 -0.1672285677
C  C175  1  0.96180000  0.40254000  0.71819000  1.0 -0.1672285677
C  C176  1  0.03820000  0.59746000  0.21819000  1.0 -0.1672285677
C  C177  1  0.53820000  0.90254000  0.21819000  1.0 -0.1672285677
C  C178  1  0.46180000  0.09746000  0.71819000  1.0 -0.1672285677
C  C179  1  0.03820000  0.59746000  0.28181000  1.0 -0.1672285677
C  C180  1  0.96180000  0.40254000  0.78181000  1.0 -0.1672285677
C  C181  1  0.66440000  0.93730000  0.71728000  1.0 -0.4889539465
C  C182  1  0.33560000  0.06270000  0.21728000  1.0 -0.4889539465
C  C183  1  0.16440000  0.56270000  0.78272000  1.0 -0.4889539465
C  C184  1  0.83560000  0.43730000  0.28272000  1.0 -0.4889539465
C  C185  1  0.33560000  0.06270000  0.28272000  1.0 -0.4889539465
C  C186  1  0.66440000  0.93730000  0.78272000  1.0 -0.4889539465
C  C187  1  0.83560000  0.43730000  0.21728000  1.0 -0.4889539465
C  C188  1  0.16440000  0.56270000  0.71728000  1.0 -0.4889539465
C  C189  1  0.81080000  0.05820000  0.75000000  1.0 -0.4318858326
C  C190  1  0.18920000  0.94180000  0.25000000  1.0 -0.4318858326
C  C191  1  0.31080000  0.44180000  0.75000000  1.0 -0.4318858326
C  C192  1  0.68920000  0.55820000  0.25000000  1.0 -0.4318858326
N  N1  1  0.03350000  0.20111000  0.90153000  1.0 -0.2587634067
N  N2  1  0.96650000  0.79889000  0.40153000  1.0 -0.2587634067
N  N3  1  0.53350000  0.29889000  0.59847000  1.0 -0.2587634067
N  N4  1  0.46650000  0.70111000  0.09847000  1.0 -0.2587634067
N  N5  1  0.96650000  0.79889000  0.09847000  1.0 -0.2587634067
N  N6  1  0.03350000  0.20111000  0.59847000  1.0 -0.2587634067
N  N7  1  0.46650000  0.70111000  0.40153000  1.0 -0.2587634067
N  N8  1  0.53350000  0.29889000  0.90153000  1.0 -0.2587634067
O  O1  1  0.12890000  0.21802000  0.81553000  1.0 -0.5194656889
O  O2  1  0.87110000  0.78198000  0.31553000  1.0 -0.5194656889
O  O3  1  0.62890000  0.28198000  0.68447000  1.0 -0.5194656889
O  O4  1  0.37110000  0.71802000  0.18447000  1.0 -0.5194656889
O  O5  1  0.87110000  0.78198000  0.18447000  1.0 -0.5194656889
O  O6  1  0.12890000  0.21802000  0.68447000  1.0 -0.5194656889
O  O7  1  0.37110000  0.71802000  0.31553000  1.0 -0.5194656889
O  O8  1  0.62890000  0.28198000  0.81553000  1.0 -0.5194656889
O  O9  1  0.18210000  0.39597000  0.86158000  1.0 -0.5614461104
O  O10  1  0.81790000  0.60403000  0.36158000  1.0 -0.5614461104
O  O11  1  0.68210000  0.10403000  0.63842000  1.0 -0.5614461104
O  O12  1  0.31790000  0.89597000  0.13842000  1.0 -0.5614461104
O  O13  1  0.81790000  0.60403000  0.13842000  1.0 -0.5614461104
O  O14  1  0.18210000  0.39597000  0.63842000  1.0 -0.5614461104
O  O15  1  0.31790000  0.89597000  0.36158000  1.0 -0.5614461104
O  O16  1  0.68210000  0.10403000  0.86158000  1.0 -0.5614461104
O  O17  1  0.05910000  0.42982000  0.91178000  1.0 -0.5495270531
O  O18  1  0.94090000  0.57018000  0.41178000  1.0 -0.5495270531
O  O19  1  0.55910000  0.07018000  0.58822000  1.0 -0.5495270531
O  O20  1  0.44090000  0.92982000  0.08822000  1.0 -0.5495270531
O  O21  1  0.94090000  0.57018000  0.08822000  1.0 -0.5495270531
O  O22  1  0.05910000  0.42982000  0.58822000  1.0 -0.5495270531
O  O23  1  0.44090000  0.92982000  0.41178000  1.0 -0.5495270531
O  O24  1  0.55910000  0.07018000  0.91178000  1.0 -0.5495270531
O  O25  1  0.34314000  0.18818000  0.84498000  1.0 -0.5614461104
O  O26  1  0.65686000  0.81182000  0.34498000  1.0 -0.5653326551
O  O27  1  0.84314000  0.31182000  0.65502000  1.0 -0.5653326551
O  O28  1  0.15686000  0.68818000  0.15502000  1.0 -0.5653326551
O  O29  1  0.65686000  0.81182000  0.15502000  1.0 -0.5653326551
O  O30  1  0.34314000  0.18818000  0.65502000  1.0 -0.5653326551
O  O31  1  0.15686000  0.68818000  0.34498000  1.0 -0.5653326551
O  O32  1  0.84314000  0.31182000  0.84498000  1.0 -0.5614461104
O  O33  1  0.42570000  0.79374000  0.95801000  1.0 -0.4318858326
O  O34  1  0.57430000  0.20626000  0.45801000  1.0 -0.4318858326
O  O35  1  0.92570000  0.70626000  0.54199000  1.0 -0.4318858326
O  O36  1  0.07430000  0.29374000  0.04199000  1.0 -0.4318858326
O  O37  1  0.57430000  0.20626000  0.04199000  1.0 -0.4318858326
O  O38  1  0.42570000  0.79374000  0.54199000  1.0 -0.4318858326
O  O39  1  0.07430000  0.29374000  0.45801000  1.0 -0.4318858326
O  O40  1  0.92570000  0.70626000  0.95801000  1.0 -0.4318858326
O  O41  1  0.27490000  0.69461000  0.98628000  1.0 -0.4976896535
O  O42  1  0.72510000  0.30539000  0.48628000  1.0 -0.4976896535
O  O43  1  0.77490000  0.80539000  0.51372000  1.0 -0.4976896535
O  O44  1  0.22510000  0.19461000  0.01372000  1.0 -0.4976896535
O  O45  1  0.72510000  0.30539000  0.01372000  1.0 -0.4976896535
O  O46  1  0.27490000  0.69461000  0.51372000  1.0 -0.4976896535
O  O47  1  0.22510000  0.19461000  0.48628000  1.0 -0.4976896535
O  O48  1  0.77490000  0.80539000  0.98628000  1.0 -0.4976896535
