# DDEC6 charges by PACMAN v1.1 (https://github.com/mtap-research/PACMAN-charge/)
data_NUNPAP_FSR_pacman
_symmetry_space_group_name_H-M   'P 1'
_cell_length_a   11.19180000
_cell_length_b   11.19180000
_cell_length_c   31.56100000
_cell_angle_alpha   90.00000000
_cell_angle_beta   90.00000000
_cell_angle_gamma   90.00000000
_symmetry_Int_Tables_number   1
_chemical_formula_structural   NiH6(C9O7)2
_chemical_formula_sum   'Ni4 H24 C72 O56'
_cell_volume   3953.21683768
_cell_formula_units_Z   4
loop_
 _symmetry_equiv_pos_site_id
 _symmetry_equiv_pos_as_xyz
  1  'x, y, z'
loop_
 _atom_site_type_symbol
 _atom_site_label
 _atom_site_symmetry_multiplicity
 _atom_site_fract_x
 _atom_site_fract_y
 _atom_site_fract_z
 _atom_site_occupancy
 _atom_site_charge
Ni  Ni1  1  0.80066000  0.80066000  0.00000000  1.0 1.1034402571
Ni  Ni2  1  0.19934000  0.19934000  0.50000000  1.0 1.1034402571
Ni  Ni3  1  0.30066000  0.69934000  0.25000000  1.0 1.1034402571
Ni  Ni4  1  0.69934000  0.30066000  0.75000000  1.0 1.1034402571
H  H1  1  0.01190000  0.82410000  0.11470000  1.0 0.1194672407
H  H2  1  0.98810000  0.17590000  0.61470000  1.0 0.1194672407
H  H3  1  0.51190000  0.67590000  0.13530000  1.0 0.1194672407
H  H4  1  0.48810000  0.32410000  0.63530000  1.0 0.1194672407
H  H5  1  0.17590000  0.98810000  0.38530000  1.0 0.1194672407
H  H6  1  0.82410000  0.01190000  0.88530000  1.0 0.1194672407
H  H7  1  0.32410000  0.48810000  0.36470000  1.0 0.1194672407
H  H8  1  0.67590000  0.51190000  0.86470000  1.0 0.1194672407
H  H9  1  0.04120000  0.17230000  0.08490000  1.0 0.1194672407
H  H10  1  0.95880000  0.82770000  0.58490000  1.0 0.1194672407
H  H11  1  0.54120000  0.32770000  0.16510000  1.0 0.1194672407
H  H12  1  0.45880000  0.67230000  0.66510000  1.0 0.1194672407
H  H13  1  0.82770000  0.95880000  0.41510000  1.0 0.1194672407
H  H14  1  0.17230000  0.04120000  0.91510000  1.0 0.1194672407
H  H15  1  0.67230000  0.45880000  0.33490000  1.0 0.1194672407
H  H16  1  0.32770000  0.54120000  0.83490000  1.0 0.1194672407
H  H17  1  0.24070000  0.03150000  0.17880000  1.0 0.1194672407
H  H18  1  0.75930000  0.96850000  0.67880000  1.0 0.1194672407
H  H19  1  0.74070000  0.46850000  0.07120000  1.0 0.1194672407
H  H20  1  0.25930000  0.53150000  0.57120000  1.0 0.1194672407
H  H21  1  0.96850000  0.75930000  0.32120000  1.0 0.1194672407
H  H22  1  0.03150000  0.24070000  0.82120000  1.0 0.1194672407
H  H23  1  0.53150000  0.25930000  0.42880000  1.0 0.1194672407
H  H24  1  0.46850000  0.74070000  0.92880000  1.0 0.1194672407
C  C1  1  0.04640000  0.89850000  0.11942000  1.0 -0.0862493444
C  C2  1  0.95360000  0.10150000  0.61942000  1.0 -0.0862493444
C  C3  1  0.54640000  0.60150000  0.13058000  1.0 -0.0862493444
C  C4  1  0.45360000  0.39850000  0.63058000  1.0 -0.0862493444
C  C5  1  0.10150000  0.95360000  0.38058000  1.0 -0.0862493444
C  C6  1  0.89850000  0.04640000  0.88058000  1.0 -0.0862493444
C  C7  1  0.39850000  0.45360000  0.36942000  1.0 -0.0862493444
C  C8  1  0.60150000  0.54640000  0.86942000  1.0 -0.0862493444
C  C9  1  0.01350000  0.99500000  0.09400000  1.0 -0.0011256255
C  C10  1  0.98650000  0.00500000  0.59400000  1.0 -0.0011256255
C  C11  1  0.51350000  0.50500000  0.15600000  1.0 -0.0011256255
C  C12  1  0.48650000  0.49500000  0.65600000  1.0 -0.0011256255
C  C13  1  0.00500000  0.98650000  0.40600000  1.0 -0.0011256255
C  C14  1  0.99500000  0.01350000  0.90600000  1.0 -0.0011256255
C  C15  1  0.49500000  0.48650000  0.34400000  1.0 -0.0011256255
C  C16  1  0.50500000  0.51350000  0.84400000  1.0 -0.0011256255
C  C17  1  0.06460000  0.10680000  0.10104000  1.0 -0.0814447257
C  C18  1  0.93540000  0.89320000  0.60104000  1.0 -0.0814447257
C  C19  1  0.56460000  0.39320000  0.14896000  1.0 -0.0814447257
C  C20  1  0.43540000  0.60680000  0.64896000  1.0 -0.0814447257
C  C21  1  0.89320000  0.93540000  0.39896000  1.0 -0.0814447257
C  C22  1  0.10680000  0.06460000  0.89896000  1.0 -0.0814447257
C  C23  1  0.60680000  0.43540000  0.35104000  1.0 -0.0814447257
C  C24  1  0.39320000  0.56460000  0.85104000  1.0 -0.0814447257
C  C25  1  0.15160000  0.11990000  0.13271000  1.0 -0.0169391598
C  C26  1  0.84840000  0.88010000  0.63271000  1.0 -0.0169391598
C  C27  1  0.65160000  0.38010000  0.11729000  1.0 -0.0169391598
C  C28  1  0.34840000  0.61990000  0.61729000  1.0 -0.0169391598
C  C29  1  0.88010000  0.84840000  0.36729000  1.0 -0.0169391598
C  C30  1  0.11990000  0.15160000  0.86729000  1.0 -0.0169391598
C  C31  1  0.61990000  0.34840000  0.38271000  1.0 -0.0169391598
C  C32  1  0.38010000  0.65160000  0.88271000  1.0 -0.0169391598
C  C33  1  0.18320000  0.02230000  0.15775000  1.0 -0.0814447257
C  C34  1  0.81680000  0.97770000  0.65775000  1.0 -0.0862493444
C  C35  1  0.68320000  0.47770000  0.09225000  1.0 -0.0862493444
C  C36  1  0.31680000  0.52230000  0.59225000  1.0 -0.0814447257
C  C37  1  0.97770000  0.81680000  0.34225000  1.0 -0.0814447257
C  C38  1  0.02230000  0.18320000  0.84225000  1.0 -0.0862493444
C  C39  1  0.52230000  0.31680000  0.40775000  1.0 -0.0814447257
C  C40  1  0.47770000  0.68320000  0.90775000  1.0 -0.0862493444
C  C41  1  0.13010000  0.91190000  0.15172000  1.0 -0.0142309399
C  C42  1  0.86990000  0.08810000  0.65172000  1.0 -0.0142309399
C  C43  1  0.63010000  0.58810000  0.09828000  1.0 -0.0142309399
C  C44  1  0.36990000  0.41190000  0.59828000  1.0 -0.0142309399
C  C45  1  0.08810000  0.86990000  0.34828000  1.0 -0.0169391598
C  C46  1  0.91190000  0.13010000  0.84828000  1.0 -0.0142309399
C  C47  1  0.41190000  0.36990000  0.40172000  1.0 -0.0142309399
C  C48  1  0.58810000  0.63010000  0.90172000  1.0 -0.0142309399
C  C49  1  0.92230000  0.97510000  0.05977000  1.0 0.537200576
C  C50  1  0.07770000  0.02490000  0.55977000  1.0 0.537200576
C  C51  1  0.42230000  0.52490000  0.19023000  1.0 0.537200576
C  C52  1  0.57770000  0.47510000  0.69023000  1.0 0.537200576
C  C53  1  0.02490000  0.07770000  0.44023000  1.0 0.537200576
C  C54  1  0.97510000  0.92230000  0.94023000  1.0 0.537200576
C  C55  1  0.47510000  0.57770000  0.30977000  1.0 0.537200576
C  C56  1  0.52490000  0.42230000  0.80977000  1.0 0.537200576
C  C57  1  0.20700000  0.24090000  0.13934000  1.0 0.4960157744
C  C58  1  0.79300000  0.75910000  0.63934000  1.0 0.4960157744
C  C59  1  0.70700000  0.25910000  0.11066000  1.0 0.4960157744
C  C60  1  0.29300000  0.74090000  0.61066000  1.0 0.4960157744
C  C61  1  0.75910000  0.79300000  0.36066000  1.0 0.4960157744
C  C62  1  0.24090000  0.20700000  0.86066000  1.0 0.4960157744
C  C63  1  0.74090000  0.29300000  0.38934000  1.0 0.4960157744
C  C64  1  0.25910000  0.70700000  0.88934000  1.0 0.4960157744
C  C65  1  0.15800000  0.80710000  0.18004000  1.0 0.537200576
C  C66  1  0.84200000  0.19290000  0.68004000  1.0 0.537200576
C  C67  1  0.65800000  0.69290000  0.06996000  1.0 0.537200576
C  C68  1  0.34200000  0.30710000  0.56996000  1.0 0.537200576
C  C69  1  0.19290000  0.84200000  0.31996000  1.0 0.537200576
C  C70  1  0.80710000  0.15800000  0.81996000  1.0 0.537200576
C  C71  1  0.30710000  0.34200000  0.43004000  1.0 0.537200576
C  C72  1  0.69290000  0.65800000  0.93004000  1.0 0.537200576
O  O1  1  0.09362000  0.71579000  0.17613000  1.0 -0.3964526781
O  O2  1  0.90638000  0.28421000  0.67613000  1.0 -0.3964526781
O  O3  1  0.59362000  0.78421000  0.07387000  1.0 -0.3964526781
O  O4  1  0.40638000  0.21579000  0.57387000  1.0 -0.3964526781
O  O5  1  0.28421000  0.90638000  0.32387000  1.0 -0.3964526781
O  O6  1  0.71579000  0.09362000  0.82387000  1.0 -0.3964526781
O  O7  1  0.21579000  0.40638000  0.42613000  1.0 -0.3964526781
O  O8  1  0.78421000  0.59362000  0.92613000  1.0 -0.3964526781
O  O9  1  0.24233000  0.82061000  0.20618000  1.0 -0.5630972662
O  O10  1  0.75767000  0.17939000  0.70618000  1.0 -0.5630972662
O  O11  1  0.74233000  0.67939000  0.04382000  1.0 -0.5630972662
O  O12  1  0.25767000  0.32061000  0.54382000  1.0 -0.5630972662
O  O13  1  0.17939000  0.75767000  0.29382000  1.0 -0.5630972662
O  O14  1  0.82061000  0.24233000  0.79382000  1.0 -0.5630972662
O  O15  1  0.32061000  0.25767000  0.45618000  1.0 -0.5630972662
O  O16  1  0.67939000  0.74233000  0.95618000  1.0 -0.5630972662
O  O17  1  0.85711000  0.06167000  0.04810000  1.0 -0.349357506
O  O18  1  0.14289000  0.93833000  0.54810000  1.0 -0.349357506
O  O19  1  0.35711000  0.43833000  0.20190000  1.0 -0.349357506
O  O20  1  0.64289000  0.56167000  0.70190000  1.0 -0.349357506
O  O21  1  0.93833000  0.14289000  0.45190000  1.0 -0.349357506
O  O22  1  0.06167000  0.85711000  0.95190000  1.0 -0.349357506
O  O23  1  0.56167000  0.64289000  0.29810000  1.0 -0.349357506
O  O24  1  0.43833000  0.35711000  0.79810000  1.0 -0.349357506
O  O25  1  0.67290000  0.93008000  0.01604000  1.0 0.3795987389
O  O26  1  0.32710000  0.06992000  0.51604000  1.0 0.3795987389
O  O27  1  0.17290000  0.56992000  0.23396000  1.0 0.3795987389
O  O28  1  0.82710000  0.43008000  0.73396000  1.0 0.3795987389
O  O29  1  0.06992000  0.32710000  0.48396000  1.0 0.3795987389
O  O30  1  0.93008000  0.67290000  0.98396000  1.0 0.3737716696
O  O31  1  0.43008000  0.82710000  0.26604000  1.0 0.3795987389
O  O32  1  0.56992000  0.17290000  0.76604000  1.0 0.3795987389
O  O33  1  0.91525000  0.87059000  0.04521000  1.0 -0.5715587714
O  O34  1  0.08475000  0.12941000  0.54521000  1.0 -0.5715587714
O  O35  1  0.41525000  0.62941000  0.20479000  1.0 -0.5715587714
O  O36  1  0.58475000  0.37059000  0.70479000  1.0 -0.5715587714
O  O37  1  0.12941000  0.08475000  0.45479000  1.0 -0.5715587714
O  O38  1  0.87059000  0.91525000  0.95479000  1.0 -0.5715587714
O  O39  1  0.37059000  0.58475000  0.29521000  1.0 -0.5715587714
O  O40  1  0.62941000  0.41525000  0.79521000  1.0 -0.5715587714
O  O41  1  0.28920000  0.23950000  0.16936000  1.0 -0.3365929701
O  O42  1  0.71080000  0.76050000  0.66936000  1.0 -0.3365929701
O  O43  1  0.78920000  0.26050000  0.08064000  1.0 -0.3365929701
O  O44  1  0.21080000  0.73950000  0.58064000  1.0 -0.3365929701
O  O45  1  0.76050000  0.71080000  0.33064000  1.0 -0.3365929701
O  O46  1  0.23950000  0.28920000  0.83064000  1.0 -0.3365929701
O  O47  1  0.73950000  0.21080000  0.41936000  1.0 -0.3365929701
O  O48  1  0.26050000  0.78920000  0.91936000  1.0 -0.3365929701
O  O49  1  0.18000000  0.32798000  0.11923000  1.0 -0.3581745827
O  O50  1  0.82000000  0.67202000  0.61923000  1.0 -0.3581745827
O  O51  1  0.68000000  0.17202000  0.13077000  1.0 -0.3581745827
O  O52  1  0.32000000  0.82798000  0.63077000  1.0 -0.3581745827
O  O53  1  0.67202000  0.82000000  0.38077000  1.0 -0.3581745827
O  O54  1  0.32798000  0.18000000  0.88077000  1.0 -0.3581745827
O  O55  1  0.82798000  0.32000000  0.36923000  1.0 -0.3581745827
O  O56  1  0.17202000  0.68000000  0.86923000  1.0 -0.3581745827
