# DDEC6 charges by PACMAN v1.1 (https://github.com/mtap-research/PACMAN-charge/)
data_NUNTOH_ASR_pacman
_symmetry_space_group_name_H-M   'P 1'
_cell_length_a   12.91450000
_cell_length_b   12.91450000
_cell_length_c   9.84820000
_cell_angle_alpha   90.00000000
_cell_angle_beta   90.00000000
_cell_angle_gamma   90.00000000
_symmetry_Int_Tables_number   1
_chemical_formula_structural   Co4P6(O4F)5
_chemical_formula_sum   'Co8 P12 O40 F10'
_cell_volume   1642.52524420
_cell_formula_units_Z   2
loop_
 _symmetry_equiv_pos_site_id
 _symmetry_equiv_pos_as_xyz
  1  'x, y, z'
loop_
 _atom_site_type_symbol
 _atom_site_label
 _atom_site_symmetry_multiplicity
 _atom_site_fract_x
 _atom_site_fract_y
 _atom_site_fract_z
 _atom_site_occupancy
 _atom_site_charge
Co  Co1  1  0.05480000  0.13619000  0.13118000  1.0 1.2328038671
Co  Co2  1  0.94520000  0.86381000  0.13118000  1.0 1.2328038671
Co  Co3  1  0.86381000  0.05480000  0.86882000  1.0 1.2328038671
Co  Co4  1  0.13619000  0.94520000  0.86882000  1.0 1.2328038671
Co  Co5  1  0.44520000  0.63619000  0.63118000  1.0 1.2328038671
Co  Co6  1  0.55480000  0.36381000  0.63118000  1.0 1.2328038671
Co  Co7  1  0.63619000  0.55480000  0.36882000  1.0 1.2328038671
Co  Co8  1  0.36381000  0.44520000  0.36882000  1.0 1.2328038671
P  P1  1  0.13480000  0.36520000  0.25000000  1.0 1.4684945055
P  P2  1  0.86520000  0.63480000  0.25000000  1.0 1.4638089248
P  P3  1  0.63480000  0.13480000  0.75000000  1.0 1.4638089248
P  P4  1  0.36520000  0.86520000  0.75000000  1.0 1.4684945055
P  P5  1  0.82414000  0.07235000  0.18370000  1.0 1.4238338777
P  P6  1  0.17586000  0.92765000  0.18370000  1.0 1.4268087455
P  P7  1  0.92765000  0.82414000  0.81630000  1.0 1.4238338777
P  P8  1  0.07235000  0.17586000  0.81630000  1.0 1.4268087455
P  P9  1  0.67586000  0.57235000  0.68370000  1.0 1.4238338777
P  P10  1  0.32414000  0.42765000  0.68370000  1.0 1.4268087455
P  P11  1  0.57235000  0.32414000  0.31630000  1.0 1.4268087455
P  P12  1  0.42765000  0.67586000  0.31630000  1.0 1.4268087455
O  O1  1  0.10950000  0.25490000  0.25050000  1.0 -0.5776174358
O  O2  1  0.89050000  0.74510000  0.25050000  1.0 -0.5776174358
O  O3  1  0.74510000  0.10950000  0.74950000  1.0 -0.5776174358
O  O4  1  0.25490000  0.89050000  0.74950000  1.0 -0.5776174358
O  O5  1  0.39050000  0.75490000  0.75050000  1.0 -0.5776174358
O  O6  1  0.60950000  0.24510000  0.75050000  1.0 -0.5776174358
O  O7  1  0.75490000  0.60950000  0.24950000  1.0 -0.5776174358
O  O8  1  0.24510000  0.39050000  0.24950000  1.0 -0.5776174358
O  O9  1  0.11110000  0.38830000  0.06990000  1.0 -0.5067649624
O  O10  1  0.88890000  0.61170000  0.06990000  1.0 -0.5067649624
O  O11  1  0.61170000  0.11110000  0.93010000  1.0 -0.5067649624
O  O12  1  0.38830000  0.88890000  0.93010000  1.0 -0.5067649624
O  O13  1  0.38890000  0.88830000  0.56990000  1.0 -0.5067649624
O  O14  1  0.61110000  0.11170000  0.56990000  1.0 -0.5067649624
O  O15  1  0.88830000  0.61110000  0.43010000  1.0 -0.5067649624
O  O16  1  0.11170000  0.38890000  0.43010000  1.0 -0.5067649624
O  O17  1  0.91830000  0.13810000  0.21410000  1.0 -0.6483123443
O  O18  1  0.08170000  0.86190000  0.21410000  1.0 -0.6483123443
O  O19  1  0.86190000  0.91830000  0.78590000  1.0 -0.6483123443
O  O20  1  0.13810000  0.08170000  0.78590000  1.0 -0.6483123443
O  O21  1  0.58170000  0.63810000  0.71410000  1.0 -0.6483123443
O  O22  1  0.41830000  0.36190000  0.71410000  1.0 -0.6483123443
O  O23  1  0.63810000  0.41830000  0.28590000  1.0 -0.6483123443
O  O24  1  0.36190000  0.58170000  0.28590000  1.0 -0.6483123443
O  O25  1  0.78940000  0.08570000  0.03690000  1.0 -0.6385691754
O  O26  1  0.21060000  0.91430000  0.03690000  1.0 -0.6385691754
O  O27  1  0.91430000  0.78940000  0.96310000  1.0 -0.6385691754
O  O28  1  0.08570000  0.21060000  0.96310000  1.0 -0.6385691754
O  O29  1  0.71060000  0.58570000  0.53690000  1.0 -0.6385691754
O  O30  1  0.28940000  0.41430000  0.53690000  1.0 -0.6385691754
O  O31  1  0.58570000  0.28940000  0.46310000  1.0 -0.6385691754
O  O32  1  0.41430000  0.71060000  0.46310000  1.0 -0.6385691754
O  O33  1  0.84570000  0.95720000  0.21460000  1.0 -0.6385691754
O  O34  1  0.15430000  0.04280000  0.21460000  1.0 -0.6385691754
O  O35  1  0.04280000  0.84570000  0.78540000  1.0 -0.6385691754
O  O36  1  0.95720000  0.15430000  0.78540000  1.0 -0.6385691754
O  O37  1  0.65430000  0.45720000  0.71460000  1.0 -0.6385691754
O  O38  1  0.34570000  0.54280000  0.71460000  1.0 -0.6385691754
O  O39  1  0.45720000  0.34570000  0.28540000  1.0 -0.6385691754
O  O40  1  0.54280000  0.65430000  0.28540000  1.0 -0.6385691754
F  F1  1  0.73630000  0.10460000  0.28020000  1.0 -0.2528057239
F  F2  1  0.26370000  0.89540000  0.28020000  1.0 -0.2528057239
F  F3  1  0.89540000  0.73630000  0.71980000  1.0 -0.2528057239
F  F4  1  0.10460000  0.26370000  0.71980000  1.0 -0.2528057239
F  F5  1  0.76370000  0.60460000  0.78020000  1.0 -0.2528057239
F  F6  1  0.23630000  0.39540000  0.78020000  1.0 -0.2528057239
F  F7  1  0.60460000  0.23630000  0.21980000  1.0 -0.2528057239
F  F8  1  0.39540000  0.76370000  0.21980000  1.0 -0.2528057239
F  F9  1  0.00000000  0.00000000  0.00000000  1.0 -0.5157363108
F  F10  1  0.50000000  0.50000000  0.50000000  1.0 -0.5157363108
