# DDEC6 charges by PACMAN v1.1 (https://github.com/mtap-research/PACMAN-charge/)
data_NUVTIK_ASR_pacman
_symmetry_space_group_name_H-M   'P 1'
_cell_length_a   13.44750000
_cell_length_b   14.72290000
_cell_length_c   18.75720000
_cell_angle_alpha   67.44500000
_cell_angle_beta   72.73300000
_cell_angle_gamma   62.90000000
_symmetry_Int_Tables_number   1
_chemical_formula_structural   Ce6V22NiC20(N2O33)2
_chemical_formula_sum   'Ce6 V22 Ni1 C20 N4 O66'
_cell_volume   3019.23211978
_cell_formula_units_Z   1
loop_
 _symmetry_equiv_pos_site_id
 _symmetry_equiv_pos_as_xyz
  1  'x, y, z'
loop_
 _atom_site_type_symbol
 _atom_site_label
 _atom_site_symmetry_multiplicity
 _atom_site_fract_x
 _atom_site_fract_y
 _atom_site_fract_z
 _atom_site_occupancy
 _atom_site_charge
Ce  Ce1  1  0.70757000  0.84285000  0.21840000  1.0 1.9467824455
Ce  Ce2  1  0.34343000  0.64954000  0.12153000  1.0 2.1771268601
Ce  Ce3  1  0.00088000  0.19790000  0.19016000  1.0 2.0130790229
Ce  Ce4  1  0.29243000  0.15715000  0.78160000  1.0 1.9437093492
Ce  Ce5  1  0.65657000  0.35046000  0.87847000  1.0 2.1771268601
Ce  Ce6  1  0.99912000  0.80210000  0.80984000  1.0 2.0154362674
V  V1  1  0.87608000  0.85723000  0.01007000  1.0 1.8113203997
V  V2  1  0.01991000  0.79117000  0.13953000  1.0 1.757611465
V  V3  1  0.14142000  0.77712000  0.97125000  1.0 1.7497544046
V  V4  1  0.88022000  0.01375000  0.16979000  1.0 1.757611465
V  V5  1  0.14334000  0.93644000  0.12979000  1.0 1.7992080207
V  V6  1  0.26530000  0.91897000  0.96018000  1.0 1.7497544046
V  V7  1  0.62897000  0.44275000  0.52122000  1.0 1.595453238
V  V8  1  0.53641000  0.67865000  0.40960000  1.0 1.8878693337
V  V9  1  0.57179000  0.63507000  0.57765000  1.0 1.7992080207
V  V10  1  0.41342000  0.50876000  0.64790000  1.0 1.7355158682
V  V11  1  0.66816000  0.25989000  0.46242000  1.0 1.8423099275
V  V12  1  0.12392000  0.14277000  0.98993000  1.0 1.8113203997
V  V13  1  0.98009000  0.20883000  0.86047000  1.0 1.757611465
V  V14  1  0.85858000  0.22288000  0.02875000  1.0 1.757611465
V  V15  1  0.11978000  0.98625000  0.83021000  1.0 1.757611465
V  V16  1  0.85666000  0.06356000  0.87021000  1.0 1.7992080207
V  V17  1  0.73470000  0.08103000  0.03982000  1.0 1.7497544046
V  V18  1  0.37103000  0.55725000  0.47878000  1.0 1.5863077398
V  V19  1  0.46359000  0.32135000  0.59040000  1.0 1.8878693337
V  V20  1  0.42821000  0.36493000  0.42235000  1.0 1.7992080207
V  V21  1  0.58658000  0.49124000  0.35210000  1.0 1.7355158682
V  V22  1  0.33184000  0.74011000  0.53758000  1.0 1.8450774904
Ni  Ni1  1  0.00000000  0.00000000  0.00000000  1.0 1.0843770261
C  C1  1  0.20820000  0.23450000  0.29670000  1.0 0.0321646798
C  C2  1  0.26580000  0.18970000  0.36020000  1.0 -0.0918010903
C  C3  1  0.32220000  0.07970000  0.38670000  1.0 0.1791475917
C  C4  1  0.32100000  0.01450000  0.34980000  1.0 -0.072992785
C  C5  1  0.26330000  0.05930000  0.28630000  1.0 0.1018639411
C  C6  1  0.39880000  0.04140000  0.44940000  1.0 0.2404177318
C  C7  1  0.48710000  0.94260000  0.45290000  1.0 0.0435146949
C  C8  1  0.57280000  0.90830000  0.49550000  1.0 0.0592223722
C  C9  1  0.48190000  0.07160000  0.53100000  1.0 0.0702114111
C  C10  1  0.39620000  0.10590000  0.48840000  1.0 0.0205470769
C  C11  1  0.79180000  0.76550000  0.70330000  1.0 0.0321646798
C  C12  1  0.73420000  0.81030000  0.63980000  1.0 -0.0918010903
C  C13  1  0.67780000  0.92030000  0.61330000  1.0 0.1791475917
C  C14  1  0.67900000  0.98550000  0.65020000  1.0 -0.072992785
C  C15  1  0.73670000  0.94070000  0.71370000  1.0 0.1018639411
C  C16  1  0.60120000  0.95860000  0.55060000  1.0 0.2404177318
C  C17  1  0.51290000  0.05740000  0.54710000  1.0 0.0435146949
C  C18  1  0.42720000  0.09170000  0.50450000  1.0 0.0592223722
C  C19  1  0.51810000  0.92840000  0.46900000  1.0 0.0702114111
C  C20  1  0.60380000  0.89410000  0.51160000  1.0 0.0205470769
N  N1  1  0.20620000  0.16720000  0.26360000  1.0 0.2404177318
N  N2  1  0.57020000  0.97280000  0.53450000  1.0 0.0548817123
N  N3  1  0.79380000  0.83280000  0.73640000  1.0 0.2404177318
N  N4  1  0.42980000  0.02720000  0.46550000  1.0 0.078190593
O  O1  1  0.91740000  0.75700000  0.20130000  1.0 -0.8915268724
O  O2  1  0.01600000  0.75760000  0.05050000  1.0 -1.0410020424
O  O3  1  0.89880000  0.94580000  0.07620000  1.0 -0.9912917857
O  O4  1  0.00230000  0.06520000  0.06740000  1.0 -0.9912917857
O  O5  1  0.12030000  0.87780000  0.04100000  1.0 -0.9912917857
O  O6  1  0.77850000  0.13360000  0.10140000  1.0 -1.0410020424
O  O7  1  0.89500000  0.07860000  0.21850000  1.0 -0.8206665362
O  O8  1  0.12900000  0.00770000  0.18380000  1.0 -0.7734048013
O  O9  1  0.13910000  0.69110000  0.16660000  1.0 -0.9122994487
O  O10  1  0.79230000  0.95840000  0.22850000  1.0 -0.7405238693
O  O11  1  0.24750000  0.67890000  0.01430000  1.0 -0.9122994487
O  O12  1  0.35710000  0.80610000  0.00690000  1.0 -0.9193294887
O  O13  1  0.24900000  0.82050000  0.15750000  1.0 -0.8587102537
O  O14  1  0.01970000  0.89000000  0.18430000  1.0 -1.0410020424
O  O15  1  0.78410000  0.82130000  0.08310000  1.0 -0.8519172315
O  O16  1  0.22380000  0.99750000  0.03370000  1.0 -1.0346225743
O  O17  1  0.33990000  0.98190000  0.88900000  1.0 -0.8206665362
O  O18  1  0.12530000  0.73330000  0.90830000  1.0 -0.8306283896
O  O19  1  0.88640000  0.80790000  0.94170000  1.0 -0.8017240708
O  O20  1  0.40170000  0.77890000  0.43550000  1.0 -0.8206665362
O  O21  1  0.30080000  0.63910000  0.63150000  1.0 -0.9605699872
O  O22  1  0.58160000  0.74340000  0.32340000  1.0 -0.7768166109
O  O23  1  0.52270000  0.41870000  0.47460000  1.0 -1.1218470578
O  O24  1  0.43430000  0.74780000  0.57720000  1.0 -0.8587102537
O  O25  1  0.51210000  0.54850000  0.66600000  1.0 -0.9605699872
O  O26  1  0.64690000  0.53020000  0.41530000  1.0 -0.9994615559
O  O27  1  0.54610000  0.38430000  0.61740000  1.0 -0.9994615559
O  O28  1  0.68430000  0.49210000  0.56090000  1.0 -0.7488995437
O  O29  1  0.73200000  0.32600000  0.50860000  1.0 -0.7488995437
O  O30  1  0.61260000  0.68860000  0.47030000  1.0 -0.8306283896
O  O31  1  0.66200000  0.94000000  0.57210000  1.0 0.0879282485
O  O32  1  0.16180000  0.20170000  0.20030000  1.0 -0.1662721579
O  O33  1  0.22380000  0.13750000  0.20260000  1.0 0.129888093
O  O34  1  0.08260000  0.24300000  0.79870000  1.0 -0.8915268724
O  O35  1  0.98400000  0.24240000  0.94950000  1.0 -1.0410020424
O  O36  1  0.10120000  0.05420000  0.92380000  1.0 -0.9912917857
O  O37  1  0.99770000  0.93480000  0.93260000  1.0 -0.984581316
O  O38  1  0.87970000  0.12220000  0.95900000  1.0 -0.9912917857
O  O39  1  0.22150000  0.86640000  0.89860000  1.0 -1.0410020424
O  O40  1  0.10500000  0.92140000  0.78150000  1.0 -0.8206665362
O  O41  1  0.87100000  0.99230000  0.81620000  1.0 -0.7768166109
O  O42  1  0.86090000  0.30890000  0.83340000  1.0 -0.9122994487
O  O43  1  0.20770000  0.04160000  0.77150000  1.0 -0.7405238693
O  O44  1  0.75250000  0.32110000  0.98570000  1.0 -0.9122994487
O  O45  1  0.64290000  0.19390000  0.99310000  1.0 -0.9193294887
O  O46  1  0.75100000  0.17950000  0.84250000  1.0 -0.8587102537
O  O47  1  0.98030000  0.11000000  0.81570000  1.0 -1.0410020424
O  O48  1  0.21590000  0.17870000  0.91690000  1.0 -0.8587102537
O  O49  1  0.77620000  0.00250000  0.96630000  1.0 -1.0410020424
O  O50  1  0.66010000  0.01810000  0.11100000  1.0 -0.8206665362
O  O51  1  0.87470000  0.26670000  0.09170000  1.0 -0.8306283896
O  O52  1  0.11360000  0.19210000  0.05830000  1.0 -0.8017240708
O  O53  1  0.59830000  0.22110000  0.56450000  1.0 -0.8206665362
O  O54  1  0.69920000  0.36090000  0.36850000  1.0 -0.9605699872
O  O55  1  0.41840000  0.25660000  0.67660000  1.0 -0.7768166109
O  O56  1  0.47730000  0.58130000  0.52540000  1.0 -1.1218470578
O  O57  1  0.56570000  0.25220000  0.42280000  1.0 -0.8663243894
O  O58  1  0.48790000  0.45150000  0.33400000  1.0 -0.9605699872
O  O59  1  0.35310000  0.46980000  0.58470000  1.0 -0.9994615559
O  O60  1  0.45390000  0.61570000  0.38260000  1.0 -0.9994615559
O  O61  1  0.31570000  0.50790000  0.43910000  1.0 -0.7488995437
O  O62  1  0.26800000  0.67400000  0.49140000  1.0 -0.7488995437
O  O63  1  0.38740000  0.31140000  0.52970000  1.0 -0.8306283896
O  O64  1  0.33800000  0.06000000  0.42790000  1.0 0.0702114111
O  O65  1  0.83820000  0.79830000  0.79970000  1.0 -0.1783420835
O  O66  1  0.77620000  0.86250000  0.79740000  1.0 0.1486894394
