# DDEC6 charges by PACMAN v1.1 (https://github.com/mtap-research/PACMAN-charge/)
data_NUVTOQ_FSR_pacman
_symmetry_space_group_name_H-M   'P 1'
_cell_length_a   13.39710000
_cell_length_b   14.70800000
_cell_length_c   18.68850000
_cell_angle_alpha   67.77900000
_cell_angle_beta   73.18700000
_cell_angle_gamma   63.23000000
_symmetry_Int_Tables_number   1
_chemical_formula_structural   Pr6V22NiC20(N2O49)2
_chemical_formula_sum   'Pr6 V22 Ni1 C20 N4 O98'
_cell_volume   3011.94436966
_cell_formula_units_Z   1
loop_
 _symmetry_equiv_pos_site_id
 _symmetry_equiv_pos_as_xyz
  1  'x, y, z'
loop_
 _atom_site_type_symbol
 _atom_site_label
 _atom_site_symmetry_multiplicity
 _atom_site_fract_x
 _atom_site_fract_y
 _atom_site_fract_z
 _atom_site_occupancy
 _atom_site_charge
Pr  Pr1  1  0.70932000  0.84179000  0.21858000  1.0 2.3880590236
Pr  Pr2  1  0.65680000  0.34871000  0.87943000  1.0 2.2613855636
Pr  Pr3  1  0.00387000  0.19721000  0.19089000  1.0 2.2119156157
Pr  Pr4  1  0.29068000  0.15821000  0.78142000  1.0 2.3880590236
Pr  Pr5  1  0.34320000  0.65129000  0.12057000  1.0 2.2613855636
Pr  Pr6  1  0.99613000  0.80279000  0.80911000  1.0 2.2119156157
V  V1  1  0.87568000  0.85687000  0.00969000  1.0 1.970668081
V  V2  1  0.73559000  0.07965000  0.04020000  1.0 1.9294168388
V  V3  1  0.85521000  0.06305000  0.87034000  1.0 1.9539773499
V  V4  1  0.02046000  0.79157000  0.13915000  1.0 1.9221039152
V  V5  1  0.88240000  0.01290000  0.17011000  1.0 1.9221039152
V  V6  1  0.86033000  0.22142000  0.02945000  1.0 1.9294168388
V  V7  1  0.66483000  0.26032000  0.46271000  1.0 2.0116064584
V  V8  1  0.42512000  0.36684000  0.42143000  1.0 2.0116064584
V  V9  1  0.37092000  0.55760000  0.47868000  1.0 1.8363821542
V  V10  1  0.58621000  0.49043000  0.35218000  1.0 1.870342139
V  V11  1  0.53893000  0.67746000  0.40996000  1.0 2.0324078833
V  V12  1  0.12432000  0.14313000  0.99031000  1.0 1.970668081
V  V13  1  0.26441000  0.92035000  0.95980000  1.0 1.9294168388
V  V14  1  0.14479000  0.93695000  0.12966000  1.0 1.9539773499
V  V15  1  0.97954000  0.20843000  0.86085000  1.0 1.9221039152
V  V16  1  0.11760000  0.98710000  0.82989000  1.0 1.9294168388
V  V17  1  0.13967000  0.77858000  0.97055000  1.0 1.9221039152
V  V18  1  0.33517000  0.73968000  0.53729000  1.0 2.0116064584
V  V19  1  0.57488000  0.63316000  0.57857000  1.0 2.0116064584
V  V20  1  0.62908000  0.44240000  0.52132000  1.0 1.8286628758
V  V21  1  0.41379000  0.50957000  0.64782000  1.0 1.870342139
V  V22  1  0.46107000  0.32254000  0.59004000  1.0 2.0354362761
Ni  Ni1  1  0.00000000  0.00000000  0.00000000  1.0 1.1581808364
C  C1  1  0.21020000  0.23420000  0.29600000  1.0 0.1258241374
C  C2  1  0.26860000  0.19320000  0.35900000  1.0 -0.0054335634
C  C3  1  0.32510000  0.08390000  0.38780000  1.0 0.233069334
C  C4  1  0.32320000  0.01560000  0.35370000  1.0 0.0716951406
C  C5  1  0.26480000  0.05660000  0.29070000  1.0 0.1926820611
C  C6  1  0.39960000  0.04350000  0.44820000  1.0 0.2986997699
C  C7  1  0.39750000  0.10830000  0.48780000  1.0 0.0716951406
C  C8  1  0.48350000  0.07360000  0.53150000  1.0 0.1236093396
C  C9  1  0.57380000  0.90920000  0.49600000  1.0 0.1258241374
C  C10  1  0.48770000  0.94400000  0.45230000  1.0 0.0972054478
C  C11  1  0.78980000  0.76580000  0.70400000  1.0 0.1236093396
C  C12  1  0.73140000  0.80680000  0.64100000  1.0 -0.0026609788
C  C13  1  0.67490000  0.91610000  0.61220000  1.0 0.233069334
C  C14  1  0.67680000  0.98440000  0.64630000  1.0 0.0716951406
C  C15  1  0.73520000  0.94340000  0.70930000  1.0 0.1926820611
C  C16  1  0.60040000  0.95650000  0.55180000  1.0 0.2986997699
C  C17  1  0.60250000  0.89170000  0.51220000  1.0 0.0716951406
C  C18  1  0.51650000  0.92640000  0.46850000  1.0 0.1258241374
C  C19  1  0.42620000  0.09080000  0.50400000  1.0 0.1258241374
C  C20  1  0.51230000  0.05600000  0.54770000  1.0 0.0972054478
N  N1  1  0.20830000  0.16590000  0.26190000  1.0 0.3504515325
N  N2  1  0.57170000  0.97400000  0.53560000  1.0 0.1236093396
N  N3  1  0.79170000  0.83410000  0.73810000  1.0 0.33921561
N  N4  1  0.42830000  0.02600000  0.46440000  1.0 0.1236093396
O  O1  1  0.64370000  0.19160000  0.99410000  1.0 -0.8202195132
O  O2  1  0.87670000  0.26540000  0.09310000  1.0 -0.7629544402
O  O3  1  0.86820000  0.99240000  0.81560000  1.0 -0.7150284613
O  O4  1  0.75390000  0.32010000  0.98640000  1.0 -0.8122804329
O  O5  1  0.88390000  0.80820000  0.94140000  1.0 -0.7408779377
O  O6  1  0.74870000  0.17870000  0.84370000  1.0 -0.7514576877
O  O7  1  0.91760000  0.75790000  0.20090000  1.0 -0.8359002138
O  O8  1  0.00400000  0.06530000  0.06770000  1.0 -0.9012719358
O  O9  1  0.89810000  0.07740000  0.21900000  1.0 -0.7310816312
O  O10  1  0.78440000  0.82080000  0.08320000  1.0 -0.8040229643
O  O11  1  0.79490000  0.95720000  0.22830000  1.0 -0.6951338614
O  O12  1  0.12130000  0.87850000  0.04050000  1.0 -0.8925941551
O  O13  1  0.01520000  0.75820000  0.05000000  1.0 -0.9539093638
O  O14  1  0.77510000  0.00210000  0.96660000  1.0 -0.9539093638
O  O15  1  0.13810000  0.69350000  0.16550000  1.0 -0.7796088422
O  O16  1  0.78020000  0.13280000  0.10150000  1.0 -0.9680422509
O  O17  1  0.97830000  0.10940000  0.81630000  1.0 -0.9608378375
O  O18  1  0.89860000  0.94500000  0.07590000  1.0 -0.9012719358
O  O19  1  0.66160000  0.01600000  0.11110000  1.0 -0.7629544402
O  O20  1  0.40590000  0.77750000  0.43560000  1.0 -0.7514576877
O  O21  1  0.35240000  0.47130000  0.58420000  1.0 -0.9281865621
O  O22  1  0.56080000  0.25290000  0.42240000  1.0 -0.7796088422
O  O23  1  0.48570000  0.45290000  0.33390000  1.0 -0.7873571003
O  O24  1  0.31500000  0.50910000  0.43850000  1.0 -0.6884498412
O  O25  1  0.47900000  0.58090000  0.52530000  1.0 -1.0448194707
O  O26  1  0.69620000  0.36100000  0.36910000  1.0 -0.7873571003
O  O27  1  0.58490000  0.74050000  0.32380000  1.0 -0.6596119965
O  O28  1  0.45460000  0.61510000  0.38250000  1.0 -0.9206654394
O  O29  1  0.27120000  0.67380000  0.49060000  1.0 -0.6884498412
O  O30  1  0.61480000  0.68690000  0.47090000  1.0 -0.7408779377
O  O31  1  0.35080000  0.34140000  0.38400000  1.0 -0.4308318684
O  O32  1  0.77440000  0.15310000  0.45880000  1.0 -0.4213672841
O  O33  1  0.62620000  0.55450000  0.26440000  1.0 -0.4591324294
O  O34  1  0.16300000  0.20410000  0.19980000  1.0 -0.1242130811
O  O35  1  0.65900000  0.94700000  0.57260000  1.0 0.1120976953
O  O36  1  0.55850000  0.98300000  0.27700000  1.0 -0.2627773846
O  O37  1  0.53390000  0.87020000  0.17690000  1.0 -0.3186737413
O  O38  1  0.76050000  0.76760000  0.35250000  1.0 -0.2252922619
O  O39  1  0.77240000  0.65500000  0.21690000  1.0 -0.5392568672
O  O40  1  0.70050000  0.50620000  0.85720000  1.0 -0.4308318684
O  O41  1  0.49760000  0.41640000  0.98440000  1.0 -0.4917441571
O  O42  1  0.50630000  0.51850000  0.81800000  1.0 -0.4399606153
O  O43  1  0.50010000  0.31040000  0.86380000  1.0 -0.3799633348
O  O44  1  0.69670000  0.38390000  0.73510000  1.0 -0.3186737413
O  O45  1  0.01010000  0.37660000  0.10670000  1.0 -0.4399606153
O  O46  1  0.98660000  0.29940000  0.27850000  1.0 -0.5090459848
O  O47  1  0.80200000  0.28550000  0.24250000  1.0 -0.1397595519
O  O48  1  0.02090000  0.08440000  0.32960000  1.0 -0.3896164859
O  O49  1  0.22200000  0.14300000  0.20180000  1.0 0.0812073441
O  O50  1  0.35630000  0.80840000  0.00590000  1.0 -0.8122804329
O  O51  1  0.12330000  0.73460000  0.90690000  1.0 -0.7629544402
O  O52  1  0.13180000  0.00760000  0.18440000  1.0 -0.7097420061
O  O53  1  0.24610000  0.67990000  0.01360000  1.0 -0.8122804329
O  O54  1  0.11610000  0.19180000  0.05860000  1.0 -0.7408779377
O  O55  1  0.25130000  0.82130000  0.15630000  1.0 -0.7514576877
O  O56  1  0.08240000  0.24210000  0.79910000  1.0 -0.8359002138
O  O57  1  0.99600000  0.93470000  0.93230000  1.0 -0.8925941551
O  O58  1  0.10190000  0.92260000  0.78100000  1.0 -0.7310816312
O  O59  1  0.21560000  0.17920000  0.91680000  1.0 -0.8040229643
O  O60  1  0.20510000  0.04280000  0.77170000  1.0 -0.6951338614
O  O61  1  0.87870000  0.12150000  0.95950000  1.0 -0.8925941551
O  O62  1  0.98480000  0.24180000  0.95000000  1.0 -0.9539093638
O  O63  1  0.22490000  0.99790000  0.03340000  1.0 -0.9539093638
O  O64  1  0.86190000  0.30650000  0.83450000  1.0 -0.7873571003
O  O65  1  0.21980000  0.86720000  0.89850000  1.0 -0.9680422509
O  O66  1  0.02170000  0.89060000  0.18370000  1.0 -0.9608378375
O  O67  1  0.10140000  0.05500000  0.92410000  1.0 -0.9012719358
O  O68  1  0.33840000  0.98400000  0.88890000  1.0 -0.7629544402
O  O69  1  0.59410000  0.22250000  0.56440000  1.0 -0.7514576877
O  O70  1  0.64760000  0.52870000  0.41580000  1.0 -0.9281865621
O  O71  1  0.43920000  0.74710000  0.57760000  1.0 -0.7796088422
O  O72  1  0.51430000  0.54710000  0.66610000  1.0 -0.7873571003
O  O73  1  0.68500000  0.49090000  0.56150000  1.0 -0.6884498412
O  O74  1  0.52100000  0.41910000  0.47470000  1.0 -1.0460741485
O  O75  1  0.30380000  0.63900000  0.63090000  1.0 -0.7873571003
O  O76  1  0.41510000  0.25950000  0.67620000  1.0 -0.6596119965
O  O77  1  0.54540000  0.38490000  0.61750000  1.0 -0.9206654394
O  O78  1  0.72880000  0.32620000  0.50940000  1.0 -0.6884498412
O  O79  1  0.38520000  0.31310000  0.52910000  1.0 -0.7408779377
O  O80  1  0.64920000  0.65860000  0.61600000  1.0 -0.4308318684
O  O81  1  0.22560000  0.84690000  0.54120000  1.0 -0.4213672841
O  O82  1  0.37380000  0.44550000  0.73560000  1.0 -0.4591324294
O  O83  1  0.83700000  0.79590000  0.80020000  1.0 -0.1250736082
O  O84  1  0.34100000  0.05300000  0.42740000  1.0 0.1120976953
O  O85  1  0.44150000  0.01700000  0.72300000  1.0 -0.2627773846
O  O86  1  0.46610000  0.12980000  0.82310000  1.0 -0.3186737413
O  O87  1  0.23950000  0.23240000  0.64750000  1.0 -0.2223963702
O  O88  1  0.22760000  0.34500000  0.78310000  1.0 -0.5392568672
O  O89  1  0.29950000  0.49380000  0.14280000  1.0 -0.4213672841
O  O90  1  0.50240000  0.58360000  0.01560000  1.0 -0.4917441571
O  O91  1  0.49370000  0.48150000  0.18200000  1.0 -0.4308318684
O  O92  1  0.49990000  0.68960000  0.13620000  1.0 -0.3799633348
O  O93  1  0.30330000  0.61610000  0.26490000  1.0 -0.3186737413
O  O94  1  0.98990000  0.62340000  0.89330000  1.0 -0.4399606153
O  O95  1  0.01340000  0.70060000  0.72150000  1.0 -0.5090459848
O  O96  1  0.19800000  0.71450000  0.75750000  1.0 -0.1551194752
O  O97  1  0.97910000  0.91560000  0.67040000  1.0 -0.3896164859
O  O98  1  0.77800000  0.85700000  0.79820000  1.0 0.0933541188
