# DDEC6 charges by PACMAN v1.1 (https://github.com/mtap-research/PACMAN-charge/)
data_NUVTEG_ASR_pacman
_symmetry_space_group_name_H-M   'P 1'
_cell_length_a   13.46050000
_cell_length_b   14.73360000
_cell_length_c   18.82600000
_cell_angle_alpha   67.57700000
_cell_angle_beta   72.89300000
_cell_angle_gamma   63.00800000
_symmetry_Int_Tables_number   1
_chemical_formula_structural   La6V22NiC20(NO16)4
_chemical_formula_sum   'La6 V22 Ni1 C20 N4 O64'
_cell_volume   3041.98257988
_cell_formula_units_Z   1
loop_
 _symmetry_equiv_pos_site_id
 _symmetry_equiv_pos_as_xyz
  1  'x, y, z'
loop_
 _atom_site_type_symbol
 _atom_site_label
 _atom_site_symmetry_multiplicity
 _atom_site_fract_x
 _atom_site_fract_y
 _atom_site_fract_z
 _atom_site_occupancy
 _atom_site_charge
La  La1  1  0.70544000  0.34379000  0.21850000  1.0 2.0998629037
La  La2  1  0.65636000  0.85259000  0.87758000  1.0 2.0857912007
La  La3  1  0.99706000  0.30102000  0.80983000  1.0 2.0302641097
La  La4  1  0.29456000  0.65621000  0.78150000  1.0 2.0998629037
La  La5  1  0.34364000  0.14741000  0.12242000  1.0 2.069767088
La  La6  1  0.00294000  0.69898000  0.19017000  1.0 2.0302641097
V  V1  1  0.98060000  0.70811000  0.86070000  1.0 1.7505577984
V  V2  1  0.86024000  0.72299000  0.02812000  1.0 1.7505577984
V  V3  1  0.11878000  0.48561000  0.83114000  1.0 1.7421457075
V  V4  1  0.85654000  0.56379000  0.87053000  1.0 1.7828899327
V  V5  1  0.87581000  0.35759000  0.01014000  1.0 1.7995283309
V  V6  1  0.73579000  0.58144000  0.03915000  1.0 1.7557724419
V  V7  1  0.66666667  0.76047000  0.46264000  1.0 1.8412080708
V  V8  1  0.41474000  0.00889000  0.64698000  1.0 1.7557724419
V  V9  1  0.57318000  0.13438000  0.57674000  1.0 1.788432211
V  V10  1  0.53630000  0.17830000  0.40978000  1.0 1.8764676157
V  V11  1  0.62881000  0.94261000  0.52111000  1.0 1.5680825415
V  V12  1  0.01940000  0.29189000  0.13930000  1.0 1.7421457075
V  V13  1  0.13976000  0.27701000  0.97188000  1.0 1.7505577984
V  V14  1  0.88122000  0.51439000  0.16886000  1.0 1.7421457075
V  V15  1  0.14346000  0.43621000  0.12947000  1.0 1.788432211
V  V16  1  0.12419000  0.64241000  0.98986000  1.0 1.7995283309
V  V17  1  0.26421000  0.41856000  0.96085000  1.0 1.7505577984
V  V18  1  0.33333333  0.23953000  0.53736000  1.0 1.8412080708
V  V19  1  0.58526000  0.99111000  0.35302000  1.0 1.7505577984
V  V20  1  0.42682000  0.86562000  0.42326000  1.0 1.788432211
V  V21  1  0.46370000  0.82170000  0.59022000  1.0 1.8764676157
V  V22  1  0.37119000  0.05739000  0.47889000  1.0 1.5680825415
Ni  Ni1  1  0.00000000  0.50000000  0.00000000  1.0 1.0865982476
C  C1  1  0.73720000  0.43910000  0.70970000  1.0 0.0890279788
C  C2  1  0.68030000  0.48350000  0.64620000  1.0 -0.0507210471
C  C3  1  0.67850000  0.41810000  0.60980000  1.0 0.1867915693
C  C4  1  0.73400000  0.30830000  0.63690000  1.0 -0.1286668998
C  C5  1  0.79060000  0.26390000  0.70050000  1.0 0.0507722941
C  C6  1  0.59900000  0.45540000  0.55390000  1.0 0.2499047521
C  C7  1  0.51000000  0.55540000  0.55000000  1.0 0.0415041245
C  C8  1  0.42470000  0.59110000  0.50530000  1.0 0.0507722941
C  C9  1  0.51760000  0.42690000  0.46830000  1.0 0.0507722941
C  C10  1  0.60250000  0.39110000  0.51300000  1.0 0.025785208
C  C11  1  0.26280000  0.56090000  0.29030000  1.0 0.0890279788
C  C12  1  0.31970000  0.51650000  0.35380000  1.0 -0.0507210471
C  C13  1  0.32150000  0.58190000  0.39020000  1.0 0.1867915693
C  C14  1  0.26600000  0.69170000  0.36310000  1.0 -0.1286668998
C  C15  1  0.20940000  0.73610000  0.29950000  1.0 0.0507722941
C  C16  1  0.40100000  0.54460000  0.44610000  1.0 0.2499047521
C  C17  1  0.49000000  0.44460000  0.45000000  1.0 0.0415041245
C  C18  1  0.57530000  0.40890000  0.49470000  1.0 0.0507722941
C  C19  1  0.48240000  0.57310000  0.53170000  1.0 0.0507722941
C  C20  1  0.39750000  0.60890000  0.48700000  1.0 0.025785208
N  N1  1  0.79230000  0.32920000  0.73680000  1.0 0.2268361974
N  N2  1  0.42860000  0.52690000  0.46440000  1.0 0.0621173981
N  N3  1  0.20770000  0.67080000  0.26320000  1.0 0.2268361974
N  N4  1  0.57140000  0.47310000  0.53560000  1.0 0.0830020237
O  O1  1  0.08340000  0.74070000  0.79960000  1.0 -0.8714594242
O  O2  1  0.75170000  0.67940000  0.84160000  1.0 -0.8486189939
O  O3  1  0.87660000  0.76640000  0.09060000  1.0 -0.8436208663
O  O4  1  0.64400000  0.69460000  0.99310000  1.0 -0.8892646429
O  O5  1  0.20610000  0.54060000  0.77290000  1.0 -0.7451337275
O  O6  1  0.75540000  0.82080000  0.98500000  1.0 -0.8714594242
O  O7  1  0.86440000  0.80790000  0.83380000  1.0 -0.8605183956
O  O8  1  0.40370000  0.27810000  0.43570000  1.0 -0.8199603853
O  O9  1  0.58170000  0.24270000  0.32380000  1.0 -0.79037258
O  O10  1  0.43690000  0.24680000  0.57690000  1.0 -0.8714594242
O  O11  1  0.87030000  0.49370000  0.81620000  1.0 -0.7701288757
O  O12  1  0.52190000  0.91860000  0.47480000  1.0 -1.1180719432
O  O13  1  0.00360000  0.56520000  0.06710000  1.0 -0.9795957403
O  O14  1  0.10420000  0.42120000  0.78260000  1.0 -0.8199603853
O  O15  1  0.72930000  0.82700000  0.50790000  1.0 -0.7317918536
O  O16  1  0.30330000  0.13920000  0.63020000  1.0 -0.9558020231
O  O17  1  0.89800000  0.44740000  0.07460000  1.0 -0.9795957403
O  O18  1  0.68440000  0.99170000  0.56020000  1.0 -0.739732295
O  O19  1  0.61220000  0.18770000  0.47030000  1.0 -0.8199603853
O  O20  1  0.54680000  0.88450000  0.61670000  1.0 -0.9914524255
O  O21  1  0.51410000  0.04880000  0.66370000  1.0 -0.9474178251
O  O22  1  0.98500000  0.74100000  0.94850000  1.0 -1.0224522647
O  O23  1  0.78060000  0.63420000  0.09930000  1.0 -1.0268435535
O  O24  1  0.64690000  0.03000000  0.41580000  1.0 -0.9914524255
O  O25  1  0.98020000  0.60850000  0.81730000  1.0 -1.0224522647
O  O26  1  0.66170000  0.51940000  0.10940000  1.0 -0.8199603853
O  O27  1  0.87940000  0.62200000  0.95910000  1.0 -0.9795957403
O  O28  1  0.77670000  0.50230000  0.96660000  1.0 -1.0268435535
O  O29  1  0.78420000  0.32230000  0.08320000  1.0 -0.8605183956
O  O30  1  0.88460000  0.30910000  0.94260000  1.0 -0.8093793687
O  O31  1  0.80010000  0.33290000  0.79820000  1.0 -0.2881006148
O  O32  1  0.34500000  0.55700000  0.42760000  1.0 0.0982936549
O  O33  1  0.91660000  0.25930000  0.20040000  1.0 -0.8714594242
O  O34  1  0.24830000  0.32060000  0.15840000  1.0 -0.8486189939
O  O35  1  0.12340000  0.23360000  0.90940000  1.0 -0.8486189939
O  O36  1  0.35600000  0.30540000  0.00690000  1.0 -0.8892646429
O  O37  1  0.79390000  0.45940000  0.22710000  1.0 -0.739732295
O  O38  1  0.24460000  0.17920000  0.01500000  1.0 -0.8714594242
O  O39  1  0.13560000  0.19210000  0.16620000  1.0 -0.8605183956
O  O40  1  0.59630000  0.72190000  0.56430000  1.0 -0.8199603853
O  O41  1  0.41830000  0.75730000  0.67620000  1.0 -0.79037258
O  O42  1  0.56310000  0.75320000  0.42310000  1.0 -0.8714594242
O  O43  1  0.12970000  0.50630000  0.18380000  1.0 -0.7701288757
O  O44  1  0.47810000  0.08140000  0.52520000  1.0 -1.1180719432
O  O45  1  0.99640000  0.43480000  0.93290000  1.0 -0.9795957403
O  O46  1  0.89580000  0.57880000  0.21740000  1.0 -0.8199603853
O  O47  1  0.27070000  0.17300000  0.49210000  1.0 -0.7317918536
O  O48  1  0.69670000  0.86080000  0.36980000  1.0 -0.9558020231
O  O49  1  0.10200000  0.55260000  0.92540000  1.0 -0.9795957403
O  O50  1  0.31560000  0.00830000  0.43980000  1.0 -0.739732295
O  O51  1  0.38780000  0.81230000  0.52970000  1.0 -0.8199603853
O  O52  1  0.45320000  0.11550000  0.38330000  1.0 -0.9914524255
O  O53  1  0.48590000  0.95120000  0.33630000  1.0 -0.9474178251
O  O54  1  0.01500000  0.25900000  0.05150000  1.0 -1.0268435535
O  O55  1  0.21940000  0.36580000  0.90070000  1.0 -1.0268435535
O  O56  1  0.35310000  0.97000000  0.58420000  1.0 -0.9914524255
O  O57  1  0.01980000  0.39150000  0.18270000  1.0 -1.0224522647
O  O58  1  0.33830000  0.48060000  0.89060000  1.0 -0.8199603853
O  O59  1  0.12060000  0.37800000  0.04090000  1.0 -0.9795957403
O  O60  1  0.22330000  0.49770000  0.03340000  1.0 -1.0268435535
O  O61  1  0.21580000  0.67770000  0.91680000  1.0 -0.8605183956
O  O62  1  0.11540000  0.69090000  0.05740000  1.0 -0.8093793687
O  O63  1  0.19990000  0.66710000  0.20180000  1.0 -0.2881006148
O  O64  1  0.65500000  0.44300000  0.57240000  1.0 0.0890279788
