# DDEC6 charges by PACMAN v1.1 (https://github.com/mtap-research/PACMAN-charge/)
data_NUVVAE_FSR_pacman
_symmetry_space_group_name_H-M   'P 1'
_cell_length_a   13.44000000
_cell_length_b   14.69300000
_cell_length_c   18.76830000
_cell_angle_alpha   96.33900000
_cell_angle_beta   107.44700000
_cell_angle_gamma   117.09700000
_symmetry_Int_Tables_number   1
_chemical_formula_structural   Pr6MnV22C20(N2O49)2
_chemical_formula_sum   'Pr6 Mn1 V22 C20 N4 O98'
_cell_volume   3011.60840162
_cell_formula_units_Z   1
loop_
 _symmetry_equiv_pos_site_id
 _symmetry_equiv_pos_as_xyz
  1  'x, y, z'
loop_
 _atom_site_type_symbol
 _atom_site_label
 _atom_site_symmetry_multiplicity
 _atom_site_fract_x
 _atom_site_fract_y
 _atom_site_fract_z
 _atom_site_occupancy
 _atom_site_charge
Pr  Pr1  1  0.44974000  0.15738000  0.21783000  1.0 2.3880819547
Pr  Pr2  1  0.00599000  0.35028000  0.12163000  1.0 2.2625760305
Pr  Pr3  1  0.80296000  0.80145000  0.19032000  1.0 2.2323240507
Pr  Pr4  1  0.55026000  0.84262000  0.78217000  1.0 2.3880819547
Pr  Pr5  1  0.99401000  0.64972000  0.87837000  1.0 2.2625760305
Pr  Pr6  1  0.19704000  0.19855000  0.80968000  1.0 2.2323240507
Mn  Mn1  1  0.00000000  0.00000000  0.00000000  1.0 1.1707586516
V  V1  1  0.08030000  0.93687000  0.86994000  1.0 1.9670249689
V  V2  1  0.18927000  0.20970000  0.13935000  1.0 1.9366117387
V  V3  1  0.91920000  0.77575000  0.02866000  1.0 1.9293587276
V  V4  1  0.26747000  0.14403000  0.00968000  1.0 1.9813129771
V  V5  1  0.18540000  0.91892000  0.03984000  1.0 1.9562958348
V  V6  1  0.10710000  0.98655000  0.17011000  1.0 1.9293587276
V  V7  1  0.92247000  0.50902000  0.35215000  1.0 1.9114973414
V  V8  1  0.78449000  0.32134000  0.40922000  1.0 2.0440168846
V  V9  1  0.20740000  0.63483000  0.42289000  1.0 2.0179744232
V  V10  1  0.07190000  0.44281000  0.47921000  1.0 1.8795673716
V  V11  1  0.92750000  0.25935000  0.53733000  1.0 2.0312648285
V  V12  1  0.91970000  0.06313000  0.13006000  1.0 1.9670249689
V  V13  1  0.81073000  0.79030000  0.86065000  1.0 1.9366117387
V  V14  1  0.08080000  0.22425000  0.97134000  1.0 1.9366117387
V  V15  1  0.73253000  0.85597000  0.99032000  1.0 1.9813129771
V  V16  1  0.81460000  0.08108000  0.96016000  1.0 1.9562958348
V  V17  1  0.89290000  0.01345000  0.82989000  1.0 1.9293587276
V  V18  1  0.07753000  0.49098000  0.64785000  1.0 1.9114973414
V  V19  1  0.21551000  0.67866000  0.59078000  1.0 2.0440168846
V  V20  1  0.79260000  0.36517000  0.57711000  1.0 2.0179744232
V  V21  1  0.92810000  0.55719000  0.52079000  1.0 1.8795673716
V  V22  1  0.07250000  0.74065000  0.46267000  1.0 2.0312648285
C  C1  1  0.56200000  0.76840000  0.29600000  1.0 0.1110845115
C  C2  1  0.54700000  0.81130000  0.35880000  1.0 -0.0055199024
C  C3  1  0.59800000  0.92100000  0.38570000  1.0 0.2334796805
C  C4  1  0.66500000  0.98810000  0.34970000  1.0 0.0304272752
C  C5  1  0.68000000  0.94520000  0.28700000  1.0 0.2146824915
C  C6  1  0.55600000  0.95400000  0.44560000  1.0 0.2961343098
C  C7  1  0.56800000  0.05500000  0.45020000  1.0 0.1110845115
C  C8  1  0.51700000  0.09040000  0.49420000  1.0 0.1363710183
C  C9  1  0.44300000  0.92380000  0.52900000  1.0 0.1297868732
C  C10  1  0.49300000  0.88900000  0.48500000  1.0 0.0770774525
C  C11  1  0.43800000  0.23160000  0.70400000  1.0 0.1110845115
C  C12  1  0.45300000  0.18870000  0.64120000  1.0 -0.0042983275
C  C13  1  0.40200000  0.07900000  0.61430000  1.0 0.2334796805
C  C14  1  0.33500000  0.01190000  0.65030000  1.0 0.0304272752
C  C15  1  0.32000000  0.05480000  0.71300000  1.0 0.2155074794
C  C16  1  0.44400000  0.04600000  0.55440000  1.0 0.2961343098
C  C17  1  0.43200000  0.94500000  0.54980000  1.0 0.1110845115
C  C18  1  0.48300000  0.90960000  0.50580000  1.0 0.1363710183
C  C19  1  0.55700000  0.07620000  0.47100000  1.0 0.1297868732
C  C20  1  0.50700000  0.11100000  0.51500000  1.0 0.0770774525
N  N1  1  0.62900000  0.83500000  0.26010000  1.0 0.3292319793
N  N2  1  0.45500000  0.02470000  0.53360000  1.0 0.1232338231
N  N3  1  0.37100000  0.16500000  0.73990000  1.0 0.3292319793
N  N4  1  0.54500000  0.97530000  0.46640000  1.0 0.1232338231
O  O1  1  0.32470000  0.98240000  0.11060000  1.0 -0.7710347703
O  O2  1  0.92700000  0.67820000  0.98750000  1.0 -0.786438955
O  O3  1  0.32540000  0.24290000  0.20050000  1.0 -0.8359307778
O  O4  1  0.07040000  0.82140000  0.84250000  1.0 -0.7422794433
O  O5  1  0.85920000  0.73210000  0.09330000  1.0 -0.7776705753
O  O6  1  0.93160000  0.93400000  0.06730000  1.0 -0.8898177129
O  O7  1  0.16370000  0.80460000  0.99300000  1.0 -0.8329624068
O  O8  1  0.00170000  0.12400000  0.04070000  1.0 -0.8898177129
O  O9  1  0.22700000  0.24480000  0.05070000  1.0 -0.9612076612
O  O10  1  0.13690000  0.00820000  0.81530000  1.0 -0.7133822572
O  O11  1  0.39520000  0.17890000  0.08360000  1.0 -0.8122010958
O  O12  1  0.24940000  0.04040000  0.22760000  1.0 -0.6836859417
O  O13  1  0.30570000  0.19320000  0.94120000  1.0 -0.7547298204
O  O14  1  0.09090000  0.10960000  0.18500000  1.0 -0.9612076612
O  O15  1  0.08820000  0.86640000  0.10120000  1.0 -0.9668807518
O  O16  1  0.22190000  0.99740000  0.96500000  1.0 -0.9612076612
O  O17  1  0.15880000  0.05550000  0.07700000  1.0 -0.9088214767
O  O18  1  0.16950000  0.30870000  0.16650000  1.0 -0.7975338033
O  O19  1  0.02690000  0.92080000  0.21880000  1.0 -0.7422794433
O  O20  1  0.30520000  0.65830000  0.38580000  1.0 -0.4101749193
O  O21  1  0.81810000  0.22050000  0.43400000  1.0 -0.7649895679
O  O22  1  0.94190000  0.41860000  0.52550000  1.0 -1.0585768353
O  O23  1  0.81850000  0.44400000  0.26300000  1.0 -0.4775401783
O  O24  1  0.93120000  0.15250000  0.54220000  1.0 -0.4243204129
O  O25  1  0.18270000  0.74710000  0.42240000  1.0 -0.7776705753
O  O26  1  0.67340000  0.25680000  0.32410000  1.0 -0.6635648739
O  O27  1  0.94120000  0.63900000  0.36910000  1.0 -0.7975338033
O  O28  1  0.17630000  0.49150000  0.43880000  1.0 -0.6979405414
O  O29  1  0.06270000  0.54850000  0.33470000  1.0 -0.7975338033
O  O30  1  0.17750000  0.52910000  0.58350000  1.0 -0.9227760118
O  O31  1  0.69840000  0.31100000  0.46910000  1.0 -0.7422794433
O  O32  1  0.93140000  0.38440000  0.38200000  1.0 -0.9227760118
O  O33  1  0.05710000  0.32530000  0.49080000  1.0 -0.6979405414
O  O34  1  0.63800000  0.79600000  0.20140000  1.0 -0.1141293552
O  O35  1  0.40000000  0.06000000  0.57100000  1.0 0.091029115
O  O36  1  0.46200000  0.01660000  0.27700000  1.0 -0.2716348004
O  O37  1  0.59480000  0.12850000  0.17550000  1.0 -0.3255274129
O  O38  1  0.57410000  0.34490000  0.21690000  1.0 -0.5472796988
O  O39  1  0.47400000  0.23350000  0.35130000  1.0 -0.2227971685
O  O40  1  0.20670000  0.50860000  0.14510000  1.0 -0.4317609798
O  O41  1  0.91370000  0.41820000  0.01720000  1.0 -0.48923002
O  O42  1  0.02270000  0.52010000  0.18490000  1.0 -0.458943082
O  O43  1  0.08310000  0.38510000  0.26570000  1.0 -0.346831752
O  O44  1  0.81240000  0.31200000  0.13670000  1.0 -0.3879224789
O  O45  1  0.72360000  0.69690000  0.27800000  1.0 -0.4967475962
O  O46  1  0.61540000  0.62210000  0.10600000  1.0 -0.4363817107
O  O47  1  0.91940000  0.71450000  0.24190000  1.0 -0.1462796238
O  O48  1  0.90110000  0.91480000  0.32910000  1.0 -0.4030425977
O  O49  1  0.63900000  0.85700000  0.19990000  1.0 0.091029115
O  O50  1  0.67530000  0.01760000  0.88940000  1.0 -0.7710347703
O  O51  1  0.07300000  0.32180000  0.01250000  1.0 -0.786438955
O  O52  1  0.67460000  0.75710000  0.79950000  1.0 -0.8329624068
O  O53  1  0.92960000  0.17860000  0.15750000  1.0 -0.7422794433
O  O54  1  0.14080000  0.26790000  0.90670000  1.0 -0.7776705753
O  O55  1  0.06840000  0.06600000  0.93270000  1.0 -0.8898177129
O  O56  1  0.83630000  0.19540000  0.00700000  1.0 -0.8359307778
O  O57  1  0.99830000  0.87600000  0.95930000  1.0 -0.8898177129
O  O58  1  0.77300000  0.75520000  0.94930000  1.0 -0.9612076612
O  O59  1  0.86310000  0.99180000  0.18470000  1.0 -0.7158242595
O  O60  1  0.60480000  0.82110000  0.91640000  1.0 -0.8122010958
O  O61  1  0.75060000  0.95960000  0.77240000  1.0 -0.6836859417
O  O62  1  0.69430000  0.80680000  0.05880000  1.0 -0.7547298204
O  O63  1  0.90910000  0.89040000  0.81500000  1.0 -0.9612076612
O  O64  1  0.91180000  0.13360000  0.89880000  1.0 -0.9668807518
O  O65  1  0.77810000  0.00260000  0.03500000  1.0 -0.9612076612
O  O66  1  0.84120000  0.94450000  0.92300000  1.0 -0.9088214767
O  O67  1  0.83050000  0.69130000  0.83350000  1.0 -0.7975338033
O  O68  1  0.97310000  0.07920000  0.78120000  1.0 -0.7422794433
O  O69  1  0.69480000  0.34170000  0.61420000  1.0 -0.4101749193
O  O70  1  0.18190000  0.77950000  0.56600000  1.0 -0.7710347703
O  O71  1  0.05810000  0.58140000  0.47450000  1.0 -1.0585768353
O  O72  1  0.18150000  0.55600000  0.73700000  1.0 -0.4775401783
O  O73  1  0.06880000  0.84750000  0.45780000  1.0 -0.4243204129
O  O74  1  0.81730000  0.25290000  0.57760000  1.0 -0.7776705753
O  O75  1  0.32660000  0.74320000  0.67590000  1.0 -0.6635648739
O  O76  1  0.05880000  0.36100000  0.63090000  1.0 -0.7975338033
O  O77  1  0.82370000  0.50850000  0.56120000  1.0 -0.6979405414
O  O78  1  0.93730000  0.45150000  0.66530000  1.0 -0.7975338033
O  O79  1  0.82250000  0.47090000  0.41650000  1.0 -0.9227760118
O  O80  1  0.30160000  0.68900000  0.53090000  1.0 -0.7422794433
O  O81  1  0.06860000  0.61560000  0.61800000  1.0 -0.9227760118
O  O82  1  0.94290000  0.67470000  0.50920000  1.0 -0.6979405414
O  O83  1  0.36200000  0.20400000  0.79860000  1.0 -0.1141293552
O  O84  1  0.60000000  0.94000000  0.42900000  1.0 0.091029115
O  O85  1  0.53800000  0.98340000  0.72300000  1.0 -0.2716348004
O  O86  1  0.40520000  0.87150000  0.82450000  1.0 -0.3255274129
O  O87  1  0.42590000  0.65510000  0.78310000  1.0 -0.5472796988
O  O88  1  0.52600000  0.76650000  0.64870000  1.0 -0.2227971685
O  O89  1  0.79330000  0.49140000  0.85490000  1.0 -0.4317609798
O  O90  1  0.08630000  0.58180000  0.98280000  1.0 -0.48923002
O  O91  1  0.97730000  0.47990000  0.81510000  1.0 -0.458943082
O  O92  1  0.91690000  0.61490000  0.73430000  1.0 -0.3447675538
O  O93  1  0.18760000  0.68800000  0.86330000  1.0 -0.3879224789
O  O94  1  0.27640000  0.30310000  0.72200000  1.0 -0.4967475962
O  O95  1  0.38460000  0.37790000  0.89400000  1.0 -0.4363817107
O  O96  1  0.08060000  0.28550000  0.75810000  1.0 -0.1462796238
O  O97  1  0.09890000  0.08520000  0.67090000  1.0 -0.4030425977
O  O98  1  0.36100000  0.14300000  0.80010000  1.0 0.091029115
