# DDEC6 charges by PACMAN v1.1 (https://github.com/mtap-research/PACMAN-charge/)
data_NUVWEH_FSR_pacman
_symmetry_space_group_name_H-M   'P 1'
_cell_length_a   13.44180000
_cell_length_b   13.44180000
_cell_length_c   13.44180000
_cell_angle_alpha   117.28300000
_cell_angle_beta   117.28300000
_cell_angle_gamma   94.77470000
_symmetry_Int_Tables_number   1
_chemical_formula_structural   La2H16Pb(C2O3)8
_chemical_formula_sum   'La4 H32 Pb2 C32 O48'
_cell_volume   1781.17098509
_cell_formula_units_Z   2
loop_
 _symmetry_equiv_pos_site_id
 _symmetry_equiv_pos_as_xyz
  1  'x, y, z'
loop_
 _atom_site_type_symbol
 _atom_site_label
 _atom_site_symmetry_multiplicity
 _atom_site_fract_x
 _atom_site_fract_y
 _atom_site_fract_z
 _atom_site_occupancy
 _atom_site_charge
La  La1  1  0.37500000  0.13900000  0.26400000  1.0 1.8090165726
La  La2  1  0.87500000  0.11100000  0.73600000  1.0 1.8090165726
La  La3  1  0.86100000  0.12500000  0.23600000  1.0 1.8090165726
La  La4  1  0.88900000  0.62500000  0.76400000  1.0 1.8090165726
H  H1  1  0.24420000  0.81790000  0.88510000  1.0 0.1437416694
H  H2  1  0.93280000  0.35910000  0.11490000  1.0 0.1437416694
H  H3  1  0.18210000  0.06720000  0.42630000  1.0 0.1437416694
H  H4  1  0.64090000  0.75580000  0.57370000  1.0 0.1437416694
H  H5  1  0.81720000  0.43210000  0.92630000  1.0 0.1437416694
H  H6  1  0.50580000  0.89090000  0.07370000  1.0 0.1437416694
H  H7  1  0.10910000  0.18280000  0.61490000  1.0 0.1437416694
H  H8  1  0.56790000  0.49420000  0.38510000  1.0 0.1437416694
H  H9  1  0.34590000  0.89820000  0.89610000  1.0 0.1305851436
H  H10  1  0.00210000  0.44980000  0.10390000  1.0 0.1305851436
H  H11  1  0.10180000  0.99790000  0.44770000  1.0 0.1305851436
H  H12  1  0.55020000  0.65410000  0.55230000  1.0 0.1305851436
H  H13  1  0.74790000  0.35180000  0.94770000  1.0 0.1305851436
H  H14  1  0.40410000  0.80020000  0.05230000  1.0 0.1305851436
H  H15  1  0.19980000  0.25210000  0.60390000  1.0 0.1305851436
H  H16  1  0.64820000  0.59590000  0.39610000  1.0 0.1305851436
H  H17  1  0.26480000  0.42190000  0.45230000  1.0 0.1521121583
H  H18  1  0.96960000  0.81250000  0.54770000  1.0 0.1521121583
H  H19  1  0.57810000  0.03040000  0.84290000  1.0 0.1521121583
H  H20  1  0.18750000  0.73520000  0.15710000  1.0 0.1521121583
H  H21  1  0.78040000  0.82810000  0.34290000  1.0 0.1521121583
H  H22  1  0.48520000  0.43750000  0.65710000  1.0 0.1521121583
H  H23  1  0.56250000  0.21960000  0.04770000  1.0 0.1521121583
H  H24  1  0.17190000  0.51480000  0.95230000  1.0 0.1521121583
H  H25  1  0.26890000  0.35580000  0.52410000  1.0 0.1305851436
H  H26  1  0.83170000  0.74480000  0.47590000  1.0 0.1305851436
H  H27  1  0.64420000  0.16830000  0.91310000  1.0 0.1305851436
H  H28  1  0.25520000  0.73110000  0.08690000  1.0 0.1305851436
H  H29  1  0.91830000  0.89420000  0.41310000  1.0 0.1305851436
H  H30  1  0.48110000  0.50520000  0.58690000  1.0 0.1305851436
H  H31  1  0.49480000  0.08170000  0.97590000  1.0 0.1305851436
H  H32  1  0.10580000  0.51890000  0.02410000  1.0 0.1305851436
Pb  Pb1  1  0.00000000  0.00000000  0.00000000  1.0 1.1660748593
Pb  Pb2  1  0.75000000  0.25000000  0.50000000  1.0 1.1641347281
C  C1  1  0.22660000  0.97870000  0.91690000  1.0 0.6085426158
C  C2  1  0.06180000  0.30970000  0.08310000  1.0 0.6085426158
C  C3  1  0.02130000  0.93820000  0.24790000  1.0 0.6085426158
C  C4  1  0.69030000  0.77340000  0.75210000  1.0 0.6085426158
C  C5  1  0.68820000  0.27130000  0.74790000  1.0 0.6085426158
C  C6  1  0.52340000  0.94030000  0.25210000  1.0 0.6085426158
C  C7  1  0.05970000  0.31180000  0.58310000  1.0 0.6085426158
C  C8  1  0.72870000  0.47660000  0.41690000  1.0 0.6085426158
C  C9  1  0.29840000  0.89970000  0.93310000  1.0 -0.1708919071
C  C10  1  0.96660000  0.36530000  0.06690000  1.0 -0.1708919071
C  C11  1  0.10030000  0.03340000  0.39870000  1.0 -0.1708919071
C  C12  1  0.63470000  0.70160000  0.60130000  1.0 -0.1708919071
C  C13  1  0.78340000  0.35030000  0.89870000  1.0 -0.1708919071
C  C14  1  0.45160000  0.88470000  0.10130000  1.0 -0.1708919071
C  C15  1  0.11530000  0.21660000  0.56690000  1.0 -0.1708919071
C  C16  1  0.64970000  0.54840000  0.43310000  1.0 -0.1708919071
C  C17  1  0.15930000  0.24120000  0.31670000  1.0 0.6268325022
C  C18  1  0.92450000  0.84260000  0.68330000  1.0 0.6268325022
C  C19  1  0.75880000  0.07550000  0.91810000  1.0 0.6268325022
C  C20  1  0.15740000  0.84070000  0.08190000  1.0 0.6268325022
C  C21  1  0.82550000  0.00880000  0.41810000  1.0 0.6268325022
C  C22  1  0.59070000  0.40740000  0.58190000  1.0 0.6268325022
C  C23  1  0.59260000  0.17450000  0.18330000  1.0 0.6268325022
C  C24  1  0.99120000  0.40930000  0.81670000  1.0 0.6268325022
C  C25  1  0.26870000  0.34880000  0.44890000  1.0 -0.1708919071
C  C26  1  0.89990000  0.81980000  0.55110000  1.0 -0.1708919071
C  C27  1  0.65120000  0.10010000  0.91990000  1.0 -0.1708919071
C  C28  1  0.18020000  0.73130000  0.08010000  1.0 -0.1708919071
C  C29  1  0.85010000  0.90120000  0.41990000  1.0 -0.1708919071
C  C30  1  0.48130000  0.43020000  0.58010000  1.0 -0.1708919071
C  C31  1  0.56980000  0.14990000  0.05110000  1.0 -0.1708919071
C  C32  1  0.09880000  0.51870000  0.94890000  1.0 -0.1708919071
O  O1  1  0.18130000  0.97040000  0.80930000  1.0 -0.4630552136
O  O2  1  0.16110000  0.37200000  0.19070000  1.0 -0.4630552136
O  O3  1  0.02960000  0.83890000  0.21090000  1.0 -0.4630552136
O  O4  1  0.62800000  0.81870000  0.78910000  1.0 -0.4630552136
O  O5  1  0.58890000  0.27960000  0.71090000  1.0 -0.4630552136
O  O6  1  0.56870000  0.87800000  0.28910000  1.0 -0.4630552136
O  O7  1  0.12200000  0.41110000  0.69070000  1.0 -0.4630552136
O  O8  1  0.72040000  0.43130000  0.30930000  1.0 -0.4630552136
O  O9  1  0.21550000  0.04250000  0.01260000  1.0 -0.5996140444
O  O10  1  0.02990000  0.20290000  0.98740000  1.0 -0.5996140444
O  O11  1  0.95750000  0.97010000  0.17300000  1.0 -0.5996140444
O  O12  1  0.79710000  0.78450000  0.82700000  1.0 -0.5996140444
O  O13  1  0.72010000  0.20750000  0.67300000  1.0 -0.5996140444
O  O14  1  0.53450000  0.04710000  0.32700000  1.0 -0.5996140444
O  O15  1  0.95290000  0.27990000  0.48740000  1.0 -0.5996140444
O  O16  1  0.79250000  0.46550000  0.51260000  1.0 -0.5996140444
O  O17  1  0.37500000  0.94710000  0.07210000  1.0 -0.2133171872
O  O18  1  0.87500000  0.30290000  0.92790000  1.0 -0.2133171872
O  O19  1  0.05290000  0.12500000  0.42790000  1.0 -0.2133171872
O  O20  1  0.69710000  0.62500000  0.57210000  1.0 -0.2133171872
O  O21  1  0.18090000  0.16200000  0.24070000  1.0 -0.5879007035
O  O22  1  0.92130000  0.94020000  0.75930000  1.0 -0.5879007035
O  O23  1  0.83800000  0.07870000  0.01890000  1.0 -0.5879007035
O  O24  1  0.05980000  0.81910000  0.98110000  1.0 -0.5879007035
O  O25  1  0.82870000  0.08800000  0.51890000  1.0 -0.5879007035
O  O26  1  0.56910000  0.30980000  0.48110000  1.0 -0.5879007035
O  O27  1  0.69020000  0.17130000  0.25930000  1.0 -0.5879007035
O  O28  1  0.91200000  0.43090000  0.74070000  1.0 -0.5879007035
O  O29  1  0.06040000  0.24070000  0.29610000  1.0 -0.5507722773
O  O30  1  0.94460000  0.76430000  0.70390000  1.0 -0.5507722773
O  O31  1  0.75930000  0.05540000  0.81970000  1.0 -0.5507722773
O  O32  1  0.23570000  0.93960000  0.18030000  1.0 -0.5507722773
O  O33  1  0.80540000  0.00930000  0.31970000  1.0 -0.5507722773
O  O34  1  0.68960000  0.48570000  0.68030000  1.0 -0.5507722773
O  O35  1  0.51430000  0.19460000  0.20390000  1.0 -0.5507722773
O  O36  1  0.99070000  0.31040000  0.79610000  1.0 -0.5507722773
O  O37  1  0.37500000  0.33480000  0.45980000  1.0 -0.1708919071
O  O38  1  0.87500000  0.91520000  0.54020000  1.0 -0.1708919071
O  O39  1  0.66520000  0.12500000  0.04020000  1.0 -0.1708919071
O  O40  1  0.08480000  0.62500000  0.95980000  1.0 -0.1708919071
O  O41  1  0.39610000  0.11700000  0.45370000  1.0 -0.2519826619
O  O42  1  0.66330000  0.94240000  0.54630000  1.0 -0.2519826619
O  O43  1  0.88300000  0.33670000  0.27910000  1.0 -0.2519826619
O  O44  1  0.05760000  0.60390000  0.72090000  1.0 -0.255864484
O  O45  1  0.08670000  0.13300000  0.77910000  1.0 -0.255864484
O  O46  1  0.35390000  0.30760000  0.22090000  1.0 -0.2519826619
O  O47  1  0.69240000  0.91330000  0.04630000  1.0 -0.2519826619
O  O48  1  0.86700000  0.64610000  0.95370000  1.0 -0.2519826619
