# DDEC6 charges by PACMAN v1.1 (https://github.com/mtap-research/PACMAN-charge/)
data_NUXMAU_FSR_pacman
_symmetry_space_group_name_H-M   'P 1'
_cell_length_a   4.32760000
_cell_length_b   6.76240000
_cell_length_c   17.31810000
_cell_angle_alpha   90.00000000
_cell_angle_beta   90.00000000
_cell_angle_gamma   90.00000000
_symmetry_Int_Tables_number   1
_chemical_formula_structural   Cu2P2(CO2)3
_chemical_formula_sum   'Cu4 P4 C6 O12'
_cell_volume   506.81354257
_cell_formula_units_Z   2
loop_
 _symmetry_equiv_pos_site_id
 _symmetry_equiv_pos_as_xyz
  1  'x, y, z'
loop_
 _atom_site_type_symbol
 _atom_site_label
 _atom_site_symmetry_multiplicity
 _atom_site_fract_x
 _atom_site_fract_y
 _atom_site_fract_z
 _atom_site_occupancy
 _atom_site_charge
Cu  Cu1  1  0.00700000  0.22530000  0.25670000  1.0 1.0392627292
Cu  Cu2  1  0.99300000  0.22530000  0.74330000  1.0 1.0392627292
Cu  Cu3  1  0.99300000  0.72530000  0.75670000  1.0 1.0392627292
Cu  Cu4  1  0.00700000  0.72530000  0.24330000  1.0 1.0392627292
P  P1  1  0.47400000  0.99100000  0.16030000  1.0 1.3137844377
P  P2  1  0.52600000  0.99100000  0.83970000  1.0 1.3137844377
P  P3  1  0.52600000  0.49100000  0.66030000  1.0 1.3137844377
P  P4  1  0.47400000  0.49100000  0.33970000  1.0 1.3137844377
C  C1  1  0.63600000  0.04100000  0.06290000  1.0 -0.2632735423
C  C2  1  0.36400000  0.04100000  0.93710000  1.0 -0.2632735423
C  C3  1  0.36400000  0.54100000  0.56290000  1.0 -0.2632735423
C  C4  1  0.63600000  0.54100000  0.43710000  1.0 -0.2632735423
C  C5  1  0.50000000  0.92300000  0.00000000  1.0 0.2659135633
C  C6  1  0.50000000  0.42300000  0.50000000  1.0 0.2659135633
O  O1  1  0.32700000  0.18600000  0.18640000  1.0 -0.7259205259
O  O2  1  0.67300000  0.18600000  0.81360000  1.0 -0.7259205259
O  O3  1  0.67300000  0.68600000  0.68640000  1.0 -0.7259205259
O  O4  1  0.32700000  0.68600000  0.31360000  1.0 -0.7259205259
O  O5  1  0.77400000  0.96200000  0.21470000  1.0 -0.7958271033
O  O6  1  0.22600000  0.96200000  0.78530000  1.0 -0.7958271033
O  O7  1  0.22600000  0.46200000  0.71470000  1.0 -0.7958271033
O  O8  1  0.77400000  0.46200000  0.28530000  1.0 -0.7958271033
O  O9  1  0.28600000  0.80700000  0.16270000  1.0 -0.700982777
O  O10  1  0.71400000  0.80700000  0.83730000  1.0 -0.700982777
O  O11  1  0.71400000  0.30700000  0.66270000  1.0 -0.700982777
O  O12  1  0.28600000  0.30700000  0.33730000  1.0 -0.700982777
