# DDEC6 charges by PACMAN v1.1 (https://github.com/mtap-research/PACMAN-charge/)
data_NUYNAY_ASR_pacman
_symmetry_space_group_name_H-M   'P 1'
_cell_length_a   11.69180000
_cell_length_b   11.69180000
_cell_length_c   13.89370000
_cell_angle_alpha   90.00000000
_cell_angle_beta   90.00000000
_cell_angle_gamma   120.00000000
_symmetry_Int_Tables_number   1
_chemical_formula_structural   Ti3C24O13
_chemical_formula_sum   'Ti6 C48 O26'
_cell_volume   1644.79320909
_cell_formula_units_Z   2
loop_
 _symmetry_equiv_pos_site_id
 _symmetry_equiv_pos_as_xyz
  1  'x, y, z'
loop_
 _atom_site_type_symbol
 _atom_site_label
 _atom_site_symmetry_multiplicity
 _atom_site_fract_x
 _atom_site_fract_y
 _atom_site_fract_z
 _atom_site_occupancy
 _atom_site_charge
Ti  Ti1  1  0.50222000  0.18541000  0.33954000  1.0 1.7780790227
Ti  Ti2  1  0.68319000  0.49778000  0.33954000  1.0 1.7780790227
Ti  Ti3  1  0.81459000  0.31681000  0.33954000  1.0 1.7780790227
Ti  Ti4  1  0.52601000  0.75748000  0.83941000  1.0 1.6868171988
Ti  Ti5  1  0.23147000  0.47399000  0.83941000  1.0 1.6868171988
Ti  Ti6  1  0.24252000  0.76853000  0.83941000  1.0 1.6868171988
C  C1  1  0.45667000  0.37945000  0.45490000  1.0 0.5964681802
C  C2  1  0.92278000  0.54333000  0.45490000  1.0 0.5964681802
C  C3  1  0.62055000  0.07722000  0.45490000  1.0 0.5964681802
C  C4  1  0.39952000  0.50179000  0.72811000  1.0 0.4875970182
C  C5  1  0.10227000  0.60048000  0.72811000  1.0 0.4875970182
C  C6  1  0.49821000  0.89773000  0.72811000  1.0 0.4875970182
C  C7  1  0.32975000  0.37092000  0.48360000  1.0 -0.11727498
C  C8  1  0.04117000  0.67025000  0.48360000  1.0 -0.11727498
C  C9  1  0.62908000  0.95883000  0.48360000  1.0 -0.11727498
C  C10  1  0.45350000  0.43161000  0.66332000  1.0 -0.0709502649
C  C11  1  0.97811000  0.54650000  0.66332000  1.0 -0.0709502649
C  C12  1  0.56839000  0.02189000  0.66332000  1.0 -0.0709502649
C  C13  1  0.37426000  0.50796000  0.51891000  1.0 -0.02144211
C  C14  1  0.13370000  0.62574000  0.51891000  1.0 -0.0279427971
C  C15  1  0.49204000  0.86630000  0.51891000  1.0 -0.0279427971
C  C16  1  0.34446000  0.28729000  0.64496000  1.0 -0.0709502649
C  C17  1  0.94283000  0.65554000  0.64496000  1.0 -0.0709502649
C  C18  1  0.71271000  0.05717000  0.64496000  1.0 -0.0600986308
C  C19  1  0.48833000  0.54335000  0.58692000  1.0 0.0057311813
C  C20  1  0.05502000  0.51167000  0.58692000  1.0 0.0057311813
C  C21  1  0.45665000  0.94498000  0.58692000  1.0 0.0057311813
C  C22  1  0.25125000  0.27553000  0.56392000  1.0 0.0962582303
C  C23  1  0.02428000  0.74875000  0.56392000  1.0 0.0946209428
C  C24  1  0.72447000  0.97572000  0.56392000  1.0 0.0962582303
C  C25  1  0.58904000  0.44705000  0.01710000  1.0 -0.0709502649
C  C26  1  0.85801000  0.41096000  0.01710000  1.0 -0.0600986308
C  C27  1  0.55295000  0.14199000  0.01710000  1.0 -0.0773206318
C  C28  1  0.39310000  0.33823000  0.11772000  1.0 -0.0418433832
C  C29  1  0.94513000  0.60690000  0.11772000  1.0 -0.0418433832
C  C30  1  0.66177000  0.05487000  0.11772000  1.0 -0.0418433832
C  C31  1  0.45617000  0.32244000  0.02734000  1.0 -0.0418433832
C  C32  1  0.86627000  0.54383000  0.02734000  1.0 -0.0279427971
C  C33  1  0.67756000  0.13373000  0.02734000  1.0 -0.0418433832
C  C34  1  0.35579000  0.44461000  0.11582000  1.0 -0.0600986308
C  C35  1  0.08882000  0.64421000  0.11582000  1.0 -0.0709502649
C  C36  1  0.55539000  0.91118000  0.11582000  1.0 -0.0541980921
C  C37  1  0.48451000  0.57230000  0.10616000  1.0 -0.0022240656
C  C38  1  0.08779000  0.51549000  0.10616000  1.0 -0.0022240656
C  C39  1  0.42770000  0.91221000  0.10616000  1.0 -0.0022240656
C  C40  1  0.56345000  0.56272000  0.01346000  1.0 -0.0600986308
C  C41  1  0.99927000  0.43655000  0.01346000  1.0 -0.0600986308
C  C42  1  0.43728000  0.00073000  0.01346000  1.0 -0.0541980921
C  C43  1  0.46195000  0.56337000  0.93953000  1.0 0.4575415847
C  C44  1  0.10142000  0.53805000  0.93953000  1.0 0.4575415847
C  C45  1  0.43663000  0.89858000  0.93953000  1.0 0.4575415847
C  C46  1  0.47501000  0.35543000  0.21212000  1.0 0.6074654755
C  C47  1  0.88042000  0.52499000  0.21212000  1.0 0.6074654755
C  C48  1  0.64457000  0.11958000  0.21212000  1.0 0.6074654755
O  O1  1  0.49607000  0.58217000  0.77594000  1.0 -0.4607969525
O  O2  1  0.08610000  0.50393000  0.77594000  1.0 -0.4607969525
O  O3  1  0.41783000  0.91390000  0.77594000  1.0 -0.4607969525
O  O4  1  0.44321000  0.26530000  0.44215000  1.0 -0.5987993978
O  O5  1  0.82209000  0.55679000  0.44215000  1.0 -0.5987993978
O  O6  1  0.73470000  0.17791000  0.44215000  1.0 -0.5987993978
O  O7  1  0.27530000  0.44675000  0.70826000  1.0 -0.5697748961
O  O8  1  0.17145000  0.72470000  0.70826000  1.0 -0.5697748961
O  O9  1  0.55325000  0.82855000  0.70826000  1.0 -0.5697748961
O  O10  1  0.56912000  0.46938000  0.44127000  1.0 -0.5054566167
O  O11  1  0.90026000  0.43088000  0.44127000  1.0 -0.5054566167
O  O12  1  0.53062000  0.09974000  0.44127000  1.0 -0.5054566167
O  O13  1  0.47220000  0.67679000  0.95422000  1.0 -0.5697748961
O  O14  1  0.20459000  0.52780000  0.95422000  1.0 -0.5697748961
O  O15  1  0.32321000  0.79541000  0.95422000  1.0 -0.5697748961
O  O16  1  0.46704000  0.24305000  0.22840000  1.0 -0.6126550041
O  O17  1  0.77601000  0.53296000  0.22840000  1.0 -0.6126550041
O  O18  1  0.75695000  0.22399000  0.22840000  1.0 -0.6126550041
O  O19  1  0.38707000  0.47570000  0.88495000  1.0 -0.4607969525
O  O20  1  0.08863000  0.61293000  0.88495000  1.0 -0.4607969525
O  O21  1  0.52430000  0.91137000  0.88495000  1.0 -0.4607969525
O  O22  1  0.53363000  0.45961000  0.26160000  1.0 -0.6126550041
O  O23  1  0.92598000  0.46637000  0.26160000  1.0 -0.6126550041
O  O24  1  0.54039000  0.07402000  0.26160000  1.0 -0.6126550041
O  O25  1  0.33333333  0.66666667  0.80382000  1.0 -1.1105793419
O  O26  1  0.66666667  0.33333333  0.33550000  1.0 -1.2076815071
