# DDEC6 charges by PACMAN v1.1 (https://github.com/mtap-research/PACMAN-charge/)
data_NUYNEC_ASR_pacman
_symmetry_space_group_name_H-M   'P 1'
_cell_length_a   12.65390000
_cell_length_b   12.65390000
_cell_length_c   15.11510000
_cell_angle_alpha   90.00000000
_cell_angle_beta   90.00000000
_cell_angle_gamma   120.00000000
_symmetry_Int_Tables_number   1
_chemical_formula_structural   Ti3C24O13
_chemical_formula_sum   'Ti6 C48 O26'
_cell_volume   2095.99601466
_cell_formula_units_Z   2
loop_
 _symmetry_equiv_pos_site_id
 _symmetry_equiv_pos_as_xyz
  1  'x, y, z'
loop_
 _atom_site_type_symbol
 _atom_site_label
 _atom_site_symmetry_multiplicity
 _atom_site_fract_x
 _atom_site_fract_y
 _atom_site_fract_z
 _atom_site_occupancy
 _atom_site_charge
Ti  Ti1  1  0.52750000  0.21230000  0.35853000  1.0 1.2867097199
Ti  Ti2  1  0.68480000  0.47250000  0.35853000  1.0 1.2867097199
Ti  Ti3  1  0.78770000  0.31520000  0.35853000  1.0 1.2867097199
Ti  Ti4  1  0.49026000  0.75639000  0.81731000  1.0 1.1306218843
Ti  Ti5  1  0.26613000  0.50974000  0.81731000  1.0 1.1306218843
Ti  Ti6  1  0.24361000  0.73387000  0.81731000  1.0 1.1306218843
C  C1  1  0.50300000  0.39620000  0.47915000  1.0 0.5776527067
C  C2  1  0.89320000  0.49700000  0.47915000  1.0 0.5776527067
C  C3  1  0.60380000  0.10680000  0.47915000  1.0 0.5776527067
C  C4  1  0.43740000  0.59610000  0.72361000  1.0 0.4164739589
C  C5  1  0.15870000  0.56260000  0.72361000  1.0 0.4081715534
C  C6  1  0.40390000  0.84130000  0.72361000  1.0 0.4081715534
C  C7  1  0.40254000  0.42000000  0.52076000  1.0 -0.0592635004
C  C8  1  0.01746000  0.59746000  0.52076000  1.0 -0.0592635004
C  C9  1  0.58000000  0.98254000  0.52076000  1.0 -0.0592635004
C  C10  1  0.54032000  0.60332000  0.66622000  1.0 -0.0501436759
C  C11  1  0.06300000  0.45968000  0.66622000  1.0 -0.0501436759
C  C12  1  0.39668000  0.93700000  0.66622000  1.0 -0.0501436759
C  C13  1  0.41218000  0.54752000  0.52254000  1.0 -0.1092384319
C  C14  1  0.13534000  0.58782000  0.52254000  1.0 -0.1092384319
C  C15  1  0.45248000  0.86466000  0.52254000  1.0 -0.1092384319
C  C16  1  0.53781000  0.48142000  0.65561000  1.0 -0.0390338746
C  C17  1  0.94361000  0.46219000  0.65561000  1.0 -0.0297608507
C  C18  1  0.51858000  0.05639000  0.65561000  1.0 -0.0297608507
C  C19  1  0.52184000  0.64615000  0.57513000  1.0 -0.0501436759
C  C20  1  0.12431000  0.47816000  0.57513000  1.0 -0.0501436759
C  C21  1  0.35385000  0.87569000  0.57513000  1.0 -0.0501436759
C  C22  1  0.42050000  0.38448000  0.61224000  1.0 -0.1277858575
C  C23  1  0.96398000  0.57950000  0.61224000  1.0 -0.1231092771
C  C24  1  0.61552000  0.03602000  0.61224000  1.0 -0.1277858575
C  C25  1  0.49477000  0.43394000  0.99884000  1.0 0.039578484
C  C26  1  0.93917000  0.50523000  0.99884000  1.0 0.039578484
C  C27  1  0.56606000  0.06083000  0.99884000  1.0 0.039578484
C  C28  1  0.47050000  0.41238000  0.16183000  1.0 -0.0297608507
C  C29  1  0.94188000  0.52950000  0.16183000  1.0 -0.0297608507
C  C30  1  0.58762000  0.05812000  0.16183000  1.0 -0.0297608507
C  C31  1  0.53724000  0.40007000  0.08186000  1.0 -0.0501436759
C  C32  1  0.86283000  0.46276000  0.08186000  1.0 -0.0592635004
C  C33  1  0.59993000  0.13717000  0.08186000  1.0 -0.0592635004
C  C34  1  0.49814000  0.54358000  0.17193000  1.0 -0.0689981826
C  C35  1  0.04544000  0.50186000  0.17193000  1.0 -0.0689981826
C  C36  1  0.45642000  0.95456000  0.17193000  1.0 -0.0689981826
C  C37  1  0.47710000  0.59594000  0.08916000  1.0 -0.0120332481
C  C38  1  0.11884000  0.52290000  0.08916000  1.0 -0.0224612343
C  C39  1  0.40406000  0.88116000  0.08916000  1.0 -0.0224612343
C  C40  1  0.52467000  0.56616000  0.00562000  1.0 -0.0689981826
C  C41  1  0.04149000  0.47533000  0.00562000  1.0 -0.0689981826
C  C42  1  0.43384000  0.95851000  0.00562000  1.0 -0.0689981826
C  C43  1  0.44351000  0.56912000  0.93002000  1.0 0.5979443927
C  C44  1  0.12561000  0.55649000  0.93002000  1.0 0.5979443927
C  C45  1  0.43088000  0.87439000  0.93002000  1.0 0.5979443927
C  C46  1  0.51332000  0.38860000  0.24951000  1.0 0.3121298094
C  C47  1  0.87528000  0.48668000  0.24951000  1.0 0.3121298094
C  C48  1  0.61140000  0.12472000  0.24951000  1.0 0.3121298094
O  O1  1  0.43225000  0.68870000  0.70891000  1.0 -0.2831716995
O  O2  1  0.25645000  0.56775000  0.70891000  1.0 -0.2831716995
O  O3  1  0.31130000  0.74355000  0.70891000  1.0 -0.2831716995
O  O4  1  0.48479000  0.31651000  0.41903000  1.0 -0.3467238109
O  O5  1  0.83172000  0.51521000  0.41903000  1.0 -0.3467238109
O  O6  1  0.68349000  0.16828000  0.41903000  1.0 -0.3467238109
O  O7  1  0.61320000  0.48320000  0.46866000  1.0 -0.4506775399
O  O8  1  0.87000000  0.38680000  0.46866000  1.0 -0.4506775399
O  O9  1  0.51680000  0.13000000  0.46866000  1.0 -0.4506775399
O  O10  1  0.49798000  0.62502000  0.86057000  1.0 -0.458655264
O  O11  1  0.12704000  0.50202000  0.86057000  1.0 -0.458655264
O  O12  1  0.37498000  0.87296000  0.86057000  1.0 -0.458655264
O  O13  1  0.56028000  0.31810000  0.25412000  1.0 -0.42565551
O  O14  1  0.75782000  0.43972000  0.25412000  1.0 -0.42565551
O  O15  1  0.68190000  0.24218000  0.25412000  1.0 -0.42565551
O  O16  1  0.33190000  0.49407000  0.92108000  1.0 -0.4821578225
O  O17  1  0.16217000  0.66810000  0.92108000  1.0 -0.4850452503
O  O18  1  0.50593000  0.83783000  0.92108000  1.0 -0.4821578225
O  O19  1  0.52705000  0.41053000  0.32778000  1.0 -0.2393527935
O  O20  1  0.88348000  0.47295000  0.32778000  1.0 -0.2393527935
O  O21  1  0.58947000  0.11652000  0.32778000  1.0 -0.2393527935
O  O22  1  0.39440000  0.50384000  0.76780000  1.0 -0.3937913239
O  O23  1  0.10944000  0.60560000  0.76780000  1.0 -0.3937913239
O  O24  1  0.49616000  0.89056000  0.76780000  1.0 -0.3937913239
O  O25  1  0.66666667  0.33333333  0.40397000  1.0 -0.8935321232
O  O26  1  0.33333333  0.66666667  0.84779000  1.0 -0.9172487517
