# DDEC6 charges by PACMAN v1.1 (https://github.com/mtap-research/PACMAN-charge/)
data_OBAHOR_ASR_pacman
_symmetry_space_group_name_H-M   'P 1'
_cell_length_a   18.14100000
_cell_length_b   18.14100000
_cell_length_c   18.14100000
_cell_angle_alpha   109.72200000
_cell_angle_beta   109.72200000
_cell_angle_gamma   109.72200000
_symmetry_Int_Tables_number   1
_chemical_formula_structural   ZnH43C46N3O4
_chemical_formula_sum   'Zn6 H258 C276 N18 O24'
_cell_volume   4552.63572657
_cell_formula_units_Z   6
loop_
 _symmetry_equiv_pos_site_id
 _symmetry_equiv_pos_as_xyz
  1  'x, y, z'
loop_
 _atom_site_type_symbol
 _atom_site_label
 _atom_site_symmetry_multiplicity
 _atom_site_fract_x
 _atom_site_fract_y
 _atom_site_fract_z
 _atom_site_occupancy
 _atom_site_charge
Zn  Zn1  1  0.74711000  0.14872000  0.66288000  1.0 0.7795929602
Zn  Zn2  1  0.14872000  0.66288000  0.74711000  1.0 0.7795929602
Zn  Zn3  1  0.66288000  0.74711000  0.14872000  1.0 0.7795929602
Zn  Zn4  1  0.25289000  0.85128000  0.33712000  1.0 0.7795929602
Zn  Zn5  1  0.85128000  0.33712000  0.25289000  1.0 0.7795929602
Zn  Zn6  1  0.33712000  0.25289000  0.85128000  1.0 0.7795929602
H  H1  1  0.79700000  0.97260000  0.60380000  1.0 0.0799586837
H  H2  1  0.97260000  0.60380000  0.79700000  1.0 0.0799586837
H  H3  1  0.60380000  0.79700000  0.97260000  1.0 0.0799586837
H  H4  1  0.20300000  0.02740000  0.39620000  1.0 0.0799586837
H  H5  1  0.02740000  0.39620000  0.20300000  1.0 0.0799586837
H  H6  1  0.39620000  0.20300000  0.02740000  1.0 0.0799586837
H  H7  1  0.70930000  0.84880000  0.45470000  1.0 0.0679982181
H  H8  1  0.84880000  0.45470000  0.70930000  1.0 0.0679982181
H  H9  1  0.45470000  0.70930000  0.84880000  1.0 0.0679982181
H  H10  1  0.29070000  0.15120000  0.54530000  1.0 0.0679982181
H  H11  1  0.15120000  0.54530000  0.29070000  1.0 0.0679982181
H  H12  1  0.54530000  0.29070000  0.15120000  1.0 0.0679982181
H  H13  1  0.59950000  0.70900000  0.42050000  1.0 0.0885567135
H  H14  1  0.70900000  0.42050000  0.59950000  1.0 0.0885567135
H  H15  1  0.42050000  0.59950000  0.70900000  1.0 0.0885567135
H  H16  1  0.40050000  0.29100000  0.57950000  1.0 0.0885567135
H  H17  1  0.29100000  0.57950000  0.40050000  1.0 0.0885567135
H  H18  1  0.57950000  0.40050000  0.29100000  1.0 0.0885567135
H  H19  1  0.77520000  0.95660000  0.71870000  1.0 0.0609236414
H  H20  1  0.95660000  0.71870000  0.77520000  1.0 0.0609236414
H  H21  1  0.71870000  0.77520000  0.95660000  1.0 0.0609236414
H  H22  1  0.22480000  0.04340000  0.28130000  1.0 0.0609236414
H  H23  1  0.04340000  0.28130000  0.22480000  1.0 0.0609236414
H  H24  1  0.28130000  0.22480000  0.04340000  1.0 0.0609236414
H  H25  1  0.52540000  0.61720000  0.46550000  1.0 0.0496742683
H  H26  1  0.61720000  0.46550000  0.52540000  1.0 0.0496742683
H  H27  1  0.46550000  0.52540000  0.61720000  1.0 0.0496742683
H  H28  1  0.47460000  0.38280000  0.53450000  1.0 0.0496742683
H  H29  1  0.38280000  0.53450000  0.47460000  1.0 0.0496742683
H  H30  1  0.53450000  0.47460000  0.38280000  1.0 0.0496742683
H  H31  1  0.58950000  0.64120000  0.56610000  1.0 0.0679982181
H  H32  1  0.64120000  0.56610000  0.58950000  1.0 0.0679982181
H  H33  1  0.56610000  0.58950000  0.64120000  1.0 0.0679982181
H  H34  1  0.41050000  0.35880000  0.43390000  1.0 0.0609236414
H  H35  1  0.35880000  0.43390000  0.41050000  1.0 0.0609236414
H  H36  1  0.43390000  0.41050000  0.35880000  1.0 0.0609236414
H  H37  1  0.51260000  0.66830000  0.54720000  1.0 0.0609236414
H  H38  1  0.66830000  0.54720000  0.51260000  1.0 0.0609236414
H  H39  1  0.54720000  0.51260000  0.66830000  1.0 0.0609236414
H  H40  1  0.48740000  0.33170000  0.45280000  1.0 0.0609236414
H  H41  1  0.33170000  0.45280000  0.48740000  1.0 0.0609236414
H  H42  1  0.45280000  0.48740000  0.33170000  1.0 0.0609236414
H  H43  1  0.70640000  0.87320000  0.77370000  1.0 0.0496742683
H  H44  1  0.87320000  0.77370000  0.70640000  1.0 0.0496742683
H  H45  1  0.77370000  0.70640000  0.87320000  1.0 0.0496742683
H  H46  1  0.29360000  0.12680000  0.22630000  1.0 0.0496742683
H  H47  1  0.12680000  0.22630000  0.29360000  1.0 0.0496742683
H  H48  1  0.22630000  0.29360000  0.12680000  1.0 0.0496742683
H  H49  1  0.60130000  0.79730000  0.70330000  1.0 0.0496742683
H  H50  1  0.79730000  0.70330000  0.60130000  1.0 0.0496742683
H  H51  1  0.70330000  0.60130000  0.79730000  1.0 0.0496742683
H  H52  1  0.39870000  0.20270000  0.29670000  1.0 0.0496742683
H  H53  1  0.20270000  0.29670000  0.39870000  1.0 0.0496742683
H  H54  1  0.29670000  0.39870000  0.20270000  1.0 0.0496742683
H  H55  1  0.67670000  0.76810000  0.72280000  1.0 0.0609236414
H  H56  1  0.76810000  0.72280000  0.67670000  1.0 0.0609236414
H  H57  1  0.72280000  0.67670000  0.76810000  1.0 0.0609236414
H  H58  1  0.32330000  0.23190000  0.27720000  1.0 0.0609236414
H  H59  1  0.23190000  0.27720000  0.32330000  1.0 0.0609236414
H  H60  1  0.27720000  0.32330000  0.23190000  1.0 0.0609236414
H  H61  1  0.59670000  0.70490000  0.41840000  1.0 0.0885567135
H  H62  1  0.70490000  0.41840000  0.59670000  1.0 0.0885567135
H  H63  1  0.41840000  0.59670000  0.70490000  1.0 0.0885567135
H  H64  1  0.40330000  0.29510000  0.58160000  1.0 0.0885567135
H  H65  1  0.29510000  0.58160000  0.40330000  1.0 0.0885567135
H  H66  1  0.58160000  0.40330000  0.29510000  1.0 0.0885567135
H  H67  1  0.59680000  0.74510000  0.65230000  1.0 0.0496742683
H  H68  1  0.74510000  0.65230000  0.59680000  1.0 0.0496742683
H  H69  1  0.65230000  0.59680000  0.74510000  1.0 0.0496742683
H  H70  1  0.40320000  0.25490000  0.34770000  1.0 0.0496742683
H  H71  1  0.25490000  0.34770000  0.40320000  1.0 0.0496742683
H  H72  1  0.34770000  0.40320000  0.25490000  1.0 0.0496742683
H  H73  1  0.81480000  0.91870000  0.66090000  1.0 0.0496742683
H  H74  1  0.91870000  0.66090000  0.81480000  1.0 0.0496742683
H  H75  1  0.66090000  0.81480000  0.91870000  1.0 0.0496742683
H  H76  1  0.18520000  0.08130000  0.33910000  1.0 0.0496742683
H  H77  1  0.08130000  0.33910000  0.18520000  1.0 0.0496742683
H  H78  1  0.33910000  0.18520000  0.08130000  1.0 0.0496742683
H  H79  1  0.74210000  0.83400000  0.50210000  1.0 0.0799586837
H  H80  1  0.83400000  0.50210000  0.74210000  1.0 0.0799586837
H  H81  1  0.50210000  0.74210000  0.83400000  1.0 0.0799586837
H  H82  1  0.25790000  0.16600000  0.49790000  1.0 0.0799586837
H  H83  1  0.16600000  0.49790000  0.25790000  1.0 0.0799586837
H  H84  1  0.49790000  0.25790000  0.16600000  1.0 0.0799586837
H  H85  1  0.47200000  0.60510000  0.41220000  1.0 0.0679982181
H  H86  1  0.60510000  0.41220000  0.47200000  1.0 0.0679982181
H  H87  1  0.41220000  0.47200000  0.60510000  1.0 0.0679982181
H  H88  1  0.52800000  0.39490000  0.58780000  1.0 0.0679982181
H  H89  1  0.39490000  0.58780000  0.52800000  1.0 0.0679982181
H  H90  1  0.58780000  0.52800000  0.39490000  1.0 0.0679982181
H  H91  1  0.49610000  0.58970000  0.49710000  1.0 0.0321152826
H  H92  1  0.58970000  0.49710000  0.49610000  1.0 0.0321152826
H  H93  1  0.49710000  0.49610000  0.58970000  1.0 0.0321152826
H  H94  1  0.50390000  0.41030000  0.50290000  1.0 0.0321152826
H  H95  1  0.41030000  0.50290000  0.50390000  1.0 0.0321152826
H  H96  1  0.50290000  0.50390000  0.41030000  1.0 0.0321152826
H  H97  1  0.45140000  0.65110000  0.48910000  1.0 0.0321152826
H  H98  1  0.65110000  0.48910000  0.45140000  1.0 0.0321152826
H  H99  1  0.48910000  0.45140000  0.65110000  1.0 0.0321152826
H  H100  1  0.54860000  0.34890000  0.51090000  1.0 0.0321152826
H  H101  1  0.34890000  0.51090000  0.54860000  1.0 0.0321152826
H  H102  1  0.51090000  0.54860000  0.34890000  1.0 0.0321152826
H  H103  1  0.81670000  0.94250000  0.79630000  1.0 0.0609236414
H  H104  1  0.94250000  0.79630000  0.81670000  1.0 0.0609236414
H  H105  1  0.79630000  0.81670000  0.94250000  1.0 0.0609236414
H  H106  1  0.18330000  0.05750000  0.20370000  1.0 0.0609236414
H  H107  1  0.05750000  0.20370000  0.18330000  1.0 0.0609236414
H  H108  1  0.20370000  0.18330000  0.05750000  1.0 0.0609236414
H  H109  1  0.71920000  0.91240000  0.78770000  1.0 0.0679982181
H  H110  1  0.91240000  0.78770000  0.71920000  1.0 0.0679982181
H  H111  1  0.78770000  0.71920000  0.91240000  1.0 0.0679982181
H  H112  1  0.28080000  0.08760000  0.21230000  1.0 0.0679982181
H  H113  1  0.08760000  0.21230000  0.28080000  1.0 0.0679982181
H  H114  1  0.21230000  0.28080000  0.08760000  1.0 0.0679982181
H  H115  1  0.76360000  0.85060000  0.79430000  1.0 0.0609236414
H  H116  1  0.85060000  0.79430000  0.76360000  1.0 0.0609236414
H  H117  1  0.79430000  0.76360000  0.85060000  1.0 0.0609236414
H  H118  1  0.23640000  0.14940000  0.20570000  1.0 0.0609236414
H  H119  1  0.14940000  0.20570000  0.23640000  1.0 0.0609236414
H  H120  1  0.20570000  0.23640000  0.14940000  1.0 0.0609236414
H  H121  1  0.64540000  0.80560000  0.71840000  1.0 0.0321152826
H  H122  1  0.80560000  0.71840000  0.64540000  1.0 0.0321152826
H  H123  1  0.71840000  0.64540000  0.80560000  1.0 0.0321152826
H  H124  1  0.35460000  0.19440000  0.28160000  1.0 0.0321152826
H  H125  1  0.19440000  0.28160000  0.35460000  1.0 0.0321152826
H  H126  1  0.28160000  0.35460000  0.19440000  1.0 0.0321152826
H  H127  1  0.54730000  0.67020000  0.57750000  1.0 0.0609236414
H  H128  1  0.67020000  0.57750000  0.54730000  1.0 0.0609236414
H  H129  1  0.57750000  0.54730000  0.67020000  1.0 0.0609236414
H  H130  1  0.45270000  0.32980000  0.42250000  1.0 0.0609236414
H  H131  1  0.32980000  0.42250000  0.45270000  1.0 0.0609236414
H  H132  1  0.42250000  0.45270000  0.32980000  1.0 0.0609236414
H  H133  1  0.66470000  0.78960000  0.46310000  1.0 0.0609236414
H  H134  1  0.78960000  0.46310000  0.66470000  1.0 0.0609236414
H  H135  1  0.46310000  0.66470000  0.78960000  1.0 0.0609236414
H  H136  1  0.33530000  0.21040000  0.53690000  1.0 0.0609236414
H  H137  1  0.21040000  0.53690000  0.33530000  1.0 0.0609236414
H  H138  1  0.53690000  0.33530000  0.21040000  1.0 0.0609236414
H  H139  1  0.76270000  0.92500000  0.60410000  1.0 0.0609236414
H  H140  1  0.92500000  0.60410000  0.76270000  1.0 0.0609236414
H  H141  1  0.60410000  0.76270000  0.92500000  1.0 0.0609236414
H  H142  1  0.23730000  0.07500000  0.39590000  1.0 0.0609236414
H  H143  1  0.07500000  0.39590000  0.23730000  1.0 0.0609236414
H  H144  1  0.39590000  0.23730000  0.07500000  1.0 0.0609236414
H  H145  1  0.76290000  0.95830000  0.80970000  1.0 0.0496742683
H  H146  1  0.95830000  0.80970000  0.76290000  1.0 0.0496742683
H  H147  1  0.80970000  0.76290000  0.95830000  1.0 0.0496742683
H  H148  1  0.23710000  0.04170000  0.19030000  1.0 0.0496742683
H  H149  1  0.04170000  0.19030000  0.23710000  1.0 0.0496742683
H  H150  1  0.19030000  0.23710000  0.04170000  1.0 0.0496742683
H  H151  1  0.83840000  0.98290000  0.78130000  1.0 0.0799586837
H  H152  1  0.98290000  0.78130000  0.83840000  1.0 0.0799586837
H  H153  1  0.78130000  0.83840000  0.98290000  1.0 0.0799586837
H  H154  1  0.16160000  0.01710000  0.21870000  1.0 0.0799586837
H  H155  1  0.01710000  0.21870000  0.16160000  1.0 0.0799586837
H  H156  1  0.21870000  0.16160000  0.01710000  1.0 0.0799586837
H  H157  1  0.76460000  0.01320000  0.75670000  1.0 0.0799586837
H  H158  1  0.01320000  0.75670000  0.76460000  1.0 0.0799586837
H  H159  1  0.75670000  0.76460000  0.01320000  1.0 0.0799586837
H  H160  1  0.23540000  0.98680000  0.24330000  1.0 0.0799586837
H  H161  1  0.98680000  0.24330000  0.23540000  1.0 0.0799586837
H  H162  1  0.24330000  0.23540000  0.98680000  1.0 0.0799586837
H  H163  1  0.55620000  0.64020000  0.37570000  1.0 0.0496742683
H  H164  1  0.64020000  0.37570000  0.55620000  1.0 0.0496742683
H  H165  1  0.37570000  0.55620000  0.64020000  1.0 0.0496742683
H  H166  1  0.44380000  0.35980000  0.62430000  1.0 0.0496742683
H  H167  1  0.35980000  0.62430000  0.44380000  1.0 0.0496742683
H  H168  1  0.62430000  0.44380000  0.35980000  1.0 0.0496742683
H  H169  1  0.56170000  0.58750000  0.43070000  1.0 0.0198897866
H  H170  1  0.58750000  0.43070000  0.56170000  1.0 0.0198897866
H  H171  1  0.43070000  0.56170000  0.58750000  1.0 0.0198897866
H  H172  1  0.43830000  0.41250000  0.56930000  1.0 0.0198897866
H  H173  1  0.41250000  0.56930000  0.43830000  1.0 0.0198897866
H  H174  1  0.56930000  0.43830000  0.41250000  1.0 0.0198897866
H  H175  1  0.47900000  0.60590000  0.40020000  1.0 0.0609236414
H  H176  1  0.60590000  0.40020000  0.47900000  1.0 0.0609236414
H  H177  1  0.40020000  0.47900000  0.60590000  1.0 0.0609236414
H  H178  1  0.52100000  0.39410000  0.59980000  1.0 0.0609236414
H  H179  1  0.39410000  0.59980000  0.52100000  1.0 0.0609236414
H  H180  1  0.59980000  0.52100000  0.39410000  1.0 0.0609236414
H  H181  1  0.47670000  0.85680000  0.51040000  1.0 0.2776009134
H  H182  1  0.85680000  0.51040000  0.47670000  1.0 0.2776009134
H  H183  1  0.51040000  0.47670000  0.85680000  1.0 0.2776009134
H  H184  1  0.52330000  0.14320000  0.48960000  1.0 0.2776009134
H  H185  1  0.14320000  0.48960000  0.52330000  1.0 0.2776009134
H  H186  1  0.48960000  0.52330000  0.14320000  1.0 0.2776009134
H  H187  1  0.74140000  0.12960000  0.48050000  1.0 0.1111300118
H  H188  1  0.12960000  0.48050000  0.74140000  1.0 0.1111300118
H  H189  1  0.48050000  0.74140000  0.12960000  1.0 0.1111300118
H  H190  1  0.25860000  0.87040000  0.51950000  1.0 0.1111300118
H  H191  1  0.87040000  0.51950000  0.25860000  1.0 0.1111300118
H  H192  1  0.51950000  0.25860000  0.87040000  1.0 0.1111300118
H  H193  1  0.65400000  0.02110000  0.32750000  1.0 0.1205128721
H  H194  1  0.02110000  0.32750000  0.65400000  1.0 0.1205128721
H  H195  1  0.32750000  0.65400000  0.02110000  1.0 0.1205128721
H  H196  1  0.34600000  0.97890000  0.67250000  1.0 0.1205128721
H  H197  1  0.97890000  0.67250000  0.34600000  1.0 0.1205128721
H  H198  1  0.67250000  0.34600000  0.97890000  1.0 0.1205128721
H  H199  1  0.52640000  0.88560000  0.27680000  1.0 0.1111300118
H  H200  1  0.88560000  0.27680000  0.52640000  1.0 0.1111300118
H  H201  1  0.27680000  0.52640000  0.88560000  1.0 0.1111300118
H  H202  1  0.47360000  0.11440000  0.72320000  1.0 0.1111300118
H  H203  1  0.11440000  0.72320000  0.47360000  1.0 0.1111300118
H  H204  1  0.72320000  0.47360000  0.11440000  1.0 0.1111300118
H  H205  1  0.49140000  0.86060000  0.38270000  1.0 0.1315715677
H  H206  1  0.86060000  0.38270000  0.49140000  1.0 0.1315715677
H  H207  1  0.38270000  0.49140000  0.86060000  1.0 0.1315715677
H  H208  1  0.50860000  0.13940000  0.61730000  1.0 0.1315715677
H  H209  1  0.13940000  0.61730000  0.50860000  1.0 0.1315715677
H  H210  1  0.61730000  0.50860000  0.13940000  1.0 0.1315715677
H  H211  1  0.43020000  0.75260000  0.54620000  1.0 0.1680883856
H  H212  1  0.75260000  0.54620000  0.43020000  1.0 0.1680883856
H  H213  1  0.54620000  0.43020000  0.75260000  1.0 0.1680883856
H  H214  1  0.56980000  0.24740000  0.45380000  1.0 0.1680883856
H  H215  1  0.24740000  0.45380000  0.56980000  1.0 0.1680883856
H  H216  1  0.45380000  0.56980000  0.24740000  1.0 0.1680883856
H  H217  1  0.32550000  0.65290000  0.56250000  1.0 0.1446362576
H  H218  1  0.65290000  0.56250000  0.32550000  1.0 0.1446362576
H  H219  1  0.56250000  0.32550000  0.65290000  1.0 0.1446362576
H  H220  1  0.67450000  0.34710000  0.43750000  1.0 0.1446362576
H  H221  1  0.34710000  0.43750000  0.67450000  1.0 0.1446362576
H  H222  1  0.43750000  0.67450000  0.34710000  1.0 0.1446362576
H  H223  1  0.39520000  0.86160000  0.79770000  1.0 0.1111300118
H  H224  1  0.86160000  0.79770000  0.39520000  1.0 0.1111300118
H  H225  1  0.79770000  0.39520000  0.86160000  1.0 0.1111300118
H  H226  1  0.60480000  0.13840000  0.20230000  1.0 0.1111300118
H  H227  1  0.13840000  0.20230000  0.60480000  1.0 0.1111300118
H  H228  1  0.20230000  0.60480000  0.13840000  1.0 0.1111300118
H  H229  1  0.49980000  0.96180000  0.78160000  1.0 0.1111300118
H  H230  1  0.96180000  0.78160000  0.49980000  1.0 0.1111300118
H  H231  1  0.78160000  0.49980000  0.96180000  1.0 0.1111300118
H  H232  1  0.50020000  0.03820000  0.21840000  1.0 0.1111300118
H  H233  1  0.03820000  0.21840000  0.50020000  1.0 0.1111300118
H  H234  1  0.21840000  0.50020000  0.03820000  1.0 0.1111300118
H  H235  1  0.68550000  0.19320000  0.79680000  1.0 0.1111300118
H  H236  1  0.19320000  0.79680000  0.68550000  1.0 0.1111300118
H  H237  1  0.79680000  0.68550000  0.19320000  1.0 0.1111300118
H  H238  1  0.31450000  0.80680000  0.20320000  1.0 0.1111300118
H  H239  1  0.80680000  0.20320000  0.31450000  1.0 0.1111300118
H  H240  1  0.20320000  0.31450000  0.80680000  1.0 0.1111300118
H  H241  1  0.76510000  0.29400000  0.95330000  1.0 0.1111300118
H  H242  1  0.29400000  0.95330000  0.76510000  1.0 0.1111300118
H  H243  1  0.95330000  0.76510000  0.29400000  1.0 0.1111300118
H  H244  1  0.23490000  0.70600000  0.04670000  1.0 0.1111300118
H  H245  1  0.70600000  0.04670000  0.23490000  1.0 0.1111300118
H  H246  1  0.04670000  0.23490000  0.70600000  1.0 0.1111300118
H  H247  1  0.74810000  0.08600000  0.99770000  1.0 0.1315715677
H  H248  1  0.08600000  0.99770000  0.74810000  1.0 0.1315715677
H  H249  1  0.99770000  0.74810000  0.08600000  1.0 0.1315715677
H  H250  1  0.25190000  0.91400000  0.00230000  1.0 0.1315715677
H  H251  1  0.91400000  0.00230000  0.25190000  1.0 0.1315715677
H  H252  1  0.00230000  0.25190000  0.91400000  1.0 0.1315715677
H  H253  1  0.66540000  0.98460000  0.84040000  1.0 0.1205128721
H  H254  1  0.98460000  0.84040000  0.66540000  1.0 0.1205128721
H  H255  1  0.84040000  0.66540000  0.98460000  1.0 0.1205128721
H  H256  1  0.33460000  0.01540000  0.15960000  1.0 0.1205128721
H  H257  1  0.01540000  0.15960000  0.33460000  1.0 0.1205128721
H  H258  1  0.15960000  0.33460000  0.01540000  1.0 0.1205128721
C  C1  1  0.75250000  0.91580000  0.58990000  1.0 -0.0592099788
C  C2  1  0.91580000  0.58990000  0.75250000  1.0 -0.0592099788
C  C3  1  0.58990000  0.75250000  0.91580000  1.0 -0.0592099788
C  C4  1  0.24750000  0.08420000  0.41010000  1.0 -0.0592099788
C  C5  1  0.08420000  0.41010000  0.24750000  1.0 -0.0592099788
C  C6  1  0.41010000  0.24750000  0.08420000  1.0 -0.0592099788
C  C7  1  0.70030000  0.84230000  0.50140000  1.0 -0.0697992856
C  C8  1  0.84230000  0.50140000  0.70030000  1.0 -0.0697992856
C  C9  1  0.50140000  0.70030000  0.84230000  1.0 -0.0697992856
C  C10  1  0.29970000  0.15770000  0.49860000  1.0 -0.0697992856
C  C11  1  0.15770000  0.49860000  0.29970000  1.0 -0.0697992856
C  C12  1  0.49860000  0.29970000  0.15770000  1.0 -0.0697992856
C  C13  1  0.63510000  0.75930000  0.48100000  1.0 -0.0799232332
C  C14  1  0.75930000  0.48100000  0.63510000  1.0 -0.0799232332
C  C15  1  0.48100000  0.63510000  0.75930000  1.0 -0.0799232332
C  C16  1  0.36490000  0.24070000  0.51900000  1.0 -0.0799232332
C  C17  1  0.24070000  0.51900000  0.36490000  1.0 -0.0799232332
C  C18  1  0.51900000  0.36490000  0.24070000  1.0 -0.0799232332
C  C19  1  0.62220000  0.74980000  0.54930000  1.0 0.0198897866
C  C20  1  0.74980000  0.54930000  0.62220000  1.0 0.0198897866
C  C21  1  0.54930000  0.62220000  0.74980000  1.0 0.0198897866
C  C22  1  0.37780000  0.25020000  0.45070000  1.0 0.0198897866
C  C23  1  0.25020000  0.45070000  0.37780000  1.0 0.0198897866
C  C24  1  0.45070000  0.37780000  0.25020000  1.0 0.0198897866
C  C25  1  0.67450000  0.82340000  0.63790000  1.0 0.0496742683
C  C26  1  0.82340000  0.63790000  0.67450000  1.0 0.0496742683
C  C27  1  0.63790000  0.67450000  0.82340000  1.0 0.0496742683
C  C28  1  0.32550000  0.17660000  0.36210000  1.0 0.0496742683
C  C29  1  0.17660000  0.36210000  0.32550000  1.0 0.0496742683
C  C30  1  0.36210000  0.32550000  0.17660000  1.0 0.0496742683
C  C31  1  0.73950000  0.90640000  0.65820000  1.0 -0.0298458503
C  C32  1  0.90640000  0.65820000  0.73950000  1.0 -0.0298458503
C  C33  1  0.65820000  0.73950000  0.90640000  1.0 -0.0298458503
C  C34  1  0.26050000  0.09360000  0.34180000  1.0 -0.0298458503
C  C35  1  0.09360000  0.34180000  0.26050000  1.0 -0.0298458503
C  C36  1  0.34180000  0.26050000  0.09360000  1.0 -0.0298458503
C  C37  1  0.55690000  0.66180000  0.53040000  1.0 -0.0921624386
C  C38  1  0.66180000  0.53040000  0.55690000  1.0 -0.0921624386
C  C39  1  0.53040000  0.55690000  0.66180000  1.0 -0.0921624386
C  C40  1  0.44310000  0.33820000  0.46960000  1.0 -0.0921624386
C  C41  1  0.33820000  0.46960000  0.44310000  1.0 -0.0921624386
C  C42  1  0.46960000  0.44310000  0.33820000  1.0 -0.0921624386
C  C43  1  0.66370000  0.81470000  0.71680000  1.0 -0.1320210443
C  C44  1  0.81470000  0.71680000  0.66370000  1.0 -0.1320210443
C  C45  1  0.71680000  0.66370000  0.81470000  1.0 -0.1320210443
C  C46  1  0.33630000  0.18530000  0.28320000  1.0 -0.1320210443
C  C47  1  0.18530000  0.28320000  0.33630000  1.0 -0.1320210443
C  C48  1  0.28320000  0.33630000  0.18530000  1.0 -0.1320210443
C  C49  1  0.62620000  0.73930000  0.48290000  1.0 -0.0489224216
C  C50  1  0.73930000  0.48290000  0.62620000  1.0 -0.0489224216
C  C51  1  0.48290000  0.62620000  0.73930000  1.0 -0.0592099788
C  C52  1  0.37380000  0.26070000  0.51710000  1.0 -0.0592099788
C  C53  1  0.26070000  0.51710000  0.37380000  1.0 -0.0592099788
C  C54  1  0.51710000  0.37380000  0.26070000  1.0 -0.0489224216
C  C55  1  0.58300000  0.71280000  0.52740000  1.0 0.0679982181
C  C56  1  0.71280000  0.52740000  0.58300000  1.0 0.0679982181
C  C57  1  0.52740000  0.58300000  0.71280000  1.0 0.0679982181
C  C58  1  0.41700000  0.28720000  0.47260000  1.0 0.0679982181
C  C59  1  0.28720000  0.47260000  0.41700000  1.0 0.0679982181
C  C60  1  0.47260000  0.41700000  0.28720000  1.0 0.0679982181
C  C61  1  0.62630000  0.76300000  0.62170000  1.0 -0.0010900739
C  C62  1  0.76300000  0.62170000  0.62630000  1.0 -0.0010900739
C  C63  1  0.62170000  0.62630000  0.76300000  1.0 -0.0010900739
C  C64  1  0.37370000  0.23700000  0.37830000  1.0 -0.0010900739
C  C65  1  0.23700000  0.37830000  0.37370000  1.0 -0.0010900739
C  C66  1  0.37830000  0.37370000  0.23700000  1.0 -0.0010900739
C  C67  1  0.71270000  0.83980000  0.67150000  1.0 0.0496742683
C  C68  1  0.83980000  0.67150000  0.71270000  1.0 0.0496742683
C  C69  1  0.67150000  0.71270000  0.83980000  1.0 0.0496742683
C  C70  1  0.28730000  0.16020000  0.32850000  1.0 0.0496742683
C  C71  1  0.16020000  0.32850000  0.28730000  1.0 0.0496742683
C  C72  1  0.32850000  0.28730000  0.16020000  1.0 0.0496742683
C  C73  1  0.75580000  0.86620000  0.62690000  1.0 -0.0489224216
C  C74  1  0.86620000  0.62690000  0.75580000  1.0 -0.0489224216
C  C75  1  0.62690000  0.75580000  0.86620000  1.0 -0.0489224216
C  C76  1  0.24420000  0.13380000  0.37310000  1.0 -0.0489224216
C  C77  1  0.13380000  0.37310000  0.24420000  1.0 -0.0489224216
C  C78  1  0.37310000  0.24420000  0.13380000  1.0 -0.0489224216
C  C79  1  0.71260000  0.81590000  0.53260000  1.0 -0.0592099788
C  C80  1  0.81590000  0.53260000  0.71260000  1.0 -0.0592099788
C  C81  1  0.53260000  0.71260000  0.81590000  1.0 -0.0592099788
C  C82  1  0.28740000  0.18410000  0.46740000  1.0 -0.0592099788
C  C83  1  0.18410000  0.46740000  0.28740000  1.0 -0.0592099788
C  C84  1  0.46740000  0.28740000  0.18410000  1.0 -0.0592099788
C  C85  1  0.49340000  0.63330000  0.47750000  1.0 -0.1904209066
C  C86  1  0.63330000  0.47750000  0.49340000  1.0 -0.1904209066
C  C87  1  0.47750000  0.49340000  0.63330000  1.0 -0.1904209066
C  C88  1  0.50660000  0.36670000  0.52250000  1.0 -0.1904209066
C  C89  1  0.36670000  0.52250000  0.50660000  1.0 -0.1904209066
C  C90  1  0.52250000  0.50660000  0.36670000  1.0 -0.1904209066
C  C91  1  0.75670000  0.89050000  0.77060000  1.0 -0.1445797094
C  C92  1  0.89050000  0.77060000  0.75670000  1.0 -0.1445797094
C  C93  1  0.77060000  0.75670000  0.89050000  1.0 -0.1445797094
C  C94  1  0.24330000  0.10950000  0.22940000  1.0 -0.1445797094
C  C95  1  0.10950000  0.22940000  0.24330000  1.0 -0.1445797094
C  C96  1  0.22940000  0.24330000  0.10950000  1.0 -0.1445797094
C  C97  1  0.71320000  0.87800000  0.67450000  1.0 0.0609236414
C  C98  1  0.87800000  0.67450000  0.71320000  1.0 0.0609236414
C  C99  1  0.67450000  0.71320000  0.87800000  1.0 0.0609236414
C  C100  1  0.28680000  0.12200000  0.32550000  1.0 0.0609236414
C  C101  1  0.12200000  0.32550000  0.28680000  1.0 0.0609236414
C  C102  1  0.32550000  0.28680000  0.12200000  1.0 0.0609236414
C  C103  1  0.64930000  0.80230000  0.66650000  1.0 -0.0489224216
C  C104  1  0.80230000  0.66650000  0.64930000  1.0 -0.0489224216
C  C105  1  0.66650000  0.64930000  0.80230000  1.0 -0.0489224216
C  C106  1  0.35070000  0.19770000  0.33350000  1.0 -0.0489224216
C  C107  1  0.19770000  0.33350000  0.35070000  1.0 -0.0489224216
C  C108  1  0.33350000  0.35070000  0.19770000  1.0 -0.0489224216
C  C109  1  0.59100000  0.72190000  0.58290000  1.0 -0.02020097
C  C110  1  0.72190000  0.58290000  0.59100000  1.0 -0.02020097
C  C111  1  0.58290000  0.59100000  0.72190000  1.0 -0.02020097
C  C112  1  0.40900000  0.27810000  0.41710000  1.0 -0.02020097
C  C113  1  0.27810000  0.41710000  0.40900000  1.0 -0.02020097
C  C114  1  0.41710000  0.40900000  0.27810000  1.0 -0.02020097
C  C115  1  0.59680000  0.71720000  0.50710000  1.0 0.0609236414
C  C116  1  0.71720000  0.50710000  0.59680000  1.0 0.0609236414
C  C117  1  0.50710000  0.59680000  0.71720000  1.0 0.0609236414
C  C118  1  0.40320000  0.28280000  0.49290000  1.0 0.0609236414
C  C119  1  0.28280000  0.49290000  0.40320000  1.0 0.0609236414
C  C120  1  0.49290000  0.40320000  0.28280000  1.0 0.0609236414
C  C121  1  0.66080000  0.79290000  0.51500000  1.0 0.0021708525
C  C122  1  0.79290000  0.51500000  0.66080000  1.0 0.0021708525
C  C123  1  0.51500000  0.66080000  0.79290000  1.0 0.0021708525
C  C124  1  0.33920000  0.20710000  0.48500000  1.0 0.0021708525
C  C125  1  0.20710000  0.48500000  0.33920000  1.0 0.0021708525
C  C126  1  0.48500000  0.33920000  0.20710000  1.0 0.0021708525
C  C127  1  0.71900000  0.87330000  0.59870000  1.0 0.0198897866
C  C128  1  0.87330000  0.59870000  0.71900000  1.0 0.0198897866
C  C129  1  0.59870000  0.71900000  0.87330000  1.0 0.0198897866
C  C130  1  0.28100000  0.12670000  0.40130000  1.0 0.0198897866
C  C131  1  0.12670000  0.40130000  0.28100000  1.0 0.0198897866
C  C132  1  0.40130000  0.28100000  0.12670000  1.0 0.0198897866
C  C133  1  0.77510000  0.96560000  0.76320000  1.0 -0.2110240915
C  C134  1  0.96560000  0.76320000  0.77510000  1.0 -0.2110240915
C  C135  1  0.76320000  0.77510000  0.96560000  1.0 -0.2110240915
C  C136  1  0.22490000  0.03440000  0.23680000  1.0 -0.2110240915
C  C137  1  0.03440000  0.23680000  0.22490000  1.0 -0.2110240915
C  C138  1  0.23680000  0.22490000  0.03440000  1.0 -0.2110240915
C  C139  1  0.54410000  0.63060000  0.42140000  1.0 -0.1783705511
C  C140  1  0.63060000  0.42140000  0.54410000  1.0 -0.1783705511
C  C141  1  0.42140000  0.54410000  0.63060000  1.0 -0.1783705511
C  C142  1  0.45590000  0.36940000  0.57860000  1.0 -0.1783705511
C  C143  1  0.36940000  0.57860000  0.45590000  1.0 -0.1783705511
C  C144  1  0.57860000  0.45590000  0.36940000  1.0 -0.1783705511
C  C145  1  0.68999000  0.07417000  0.46029000  1.0 0.0799586837
C  C146  1  0.07417000  0.46029000  0.68999000  1.0 0.0799586837
C  C147  1  0.46029000  0.68999000  0.07417000  1.0 0.0799586837
C  C148  1  0.31001000  0.92583000  0.53971000  1.0 0.0799586837
C  C149  1  0.92583000  0.53971000  0.31001000  1.0 0.0799586837
C  C150  1  0.53971000  0.31001000  0.92583000  1.0 0.0799586837
C  C151  1  0.63835000  0.01026000  0.36923000  1.0 -0.1210798567
C  C152  1  0.01026000  0.36923000  0.63835000  1.0 -0.1210798567
C  C153  1  0.36923000  0.63835000  0.01026000  1.0 -0.1210798567
C  C154  1  0.36165000  0.98974000  0.63077000  1.0 -0.1210798567
C  C155  1  0.98974000  0.63077000  0.36165000  1.0 -0.1210798567
C  C156  1  0.63077000  0.36165000  0.98974000  1.0 -0.1210798567
C  C157  1  0.56364000  0.93055000  0.33969000  1.0 -0.0489224216
C  C158  1  0.93055000  0.33969000  0.56364000  1.0 -0.0489224216
C  C159  1  0.33969000  0.56364000  0.93055000  1.0 -0.0489224216
C  C160  1  0.43636000  0.06945000  0.66031000  1.0 -0.0489224216
C  C161  1  0.06945000  0.66031000  0.43636000  1.0 -0.0489224216
C  C162  1  0.66031000  0.43636000  0.06945000  1.0 -0.0489224216
C  C163  1  0.54259000  0.91569000  0.40191000  1.0 -0.1904209066
C  C164  1  0.91569000  0.40191000  0.54259000  1.0 -0.1904209066
C  C165  1  0.40191000  0.54259000  0.91569000  1.0 -0.1904209066
C  C166  1  0.45741000  0.08431000  0.59809000  1.0 -0.1904209066
C  C167  1  0.08431000  0.59809000  0.45741000  1.0 -0.1904209066
C  C168  1  0.59809000  0.45741000  0.08431000  1.0 -0.1904209066
C  C169  1  0.59804000  0.98305000  0.49261000  1.0 0.1205128721
C  C170  1  0.98305000  0.49261000  0.59804000  1.0 0.1205128721
C  C171  1  0.49261000  0.59804000  0.98305000  1.0 0.1205128721
C  C172  1  0.40196000  0.01695000  0.50739000  1.0 0.1205128721
C  C173  1  0.01695000  0.50739000  0.40196000  1.0 0.1205128721
C  C174  1  0.50739000  0.40196000  0.01695000  1.0 0.1205128721
C  C175  1  0.58516000  0.97688000  0.56572000  1.0 0.2012766889
C  C176  1  0.97688000  0.56572000  0.58516000  1.0 0.2012766889
C  C177  1  0.56572000  0.58516000  0.97688000  1.0 0.2012766889
C  C178  1  0.41484000  0.02312000  0.43428000  1.0 0.2012766889
C  C179  1  0.02312000  0.43428000  0.41484000  1.0 0.2012766889
C  C180  1  0.43428000  0.41484000  0.02312000  1.0 0.2012766889
C  C181  1  0.61422000  0.01714000  0.70400000  1.0 0.0609236414
C  C182  1  0.01714000  0.70400000  0.61422000  1.0 0.0496742683
C  C183  1  0.70400000  0.61422000  0.01714000  1.0 0.0496742683
C  C184  1  0.38578000  0.98286000  0.29600000  1.0 0.0496742683
C  C185  1  0.98286000  0.29600000  0.38578000  1.0 0.0609236414
C  C186  1  0.29600000  0.38578000  0.98286000  1.0 0.0496742683
C  C187  1  0.53724000  0.93048000  0.64735000  1.0 0.0321152826
C  C188  1  0.93048000  0.64735000  0.53724000  1.0 0.0321152826
C  C189  1  0.64735000  0.53724000  0.93048000  1.0 0.0321152826
C  C190  1  0.46276000  0.06952000  0.35265000  1.0 0.0321152826
C  C191  1  0.06952000  0.35265000  0.46276000  1.0 0.0321152826
C  C192  1  0.35265000  0.46276000  0.06952000  1.0 0.0321152826
C  C193  1  0.47561000  0.86820000  0.66170000  1.0 -0.0298458503
C  C194  1  0.86820000  0.66170000  0.47561000  1.0 -0.0298458503
C  C195  1  0.66170000  0.47561000  0.86820000  1.0 -0.0298458503
C  C196  1  0.52439000  0.13180000  0.33830000  1.0 -0.0298458503
C  C197  1  0.13180000  0.33830000  0.52439000  1.0 -0.0298458503
C  C198  1  0.33830000  0.52439000  0.13180000  1.0 -0.0298458503
C  C199  1  0.42310000  0.77522000  0.59722000  1.0 -0.2676104017
C  C200  1  0.77522000  0.59722000  0.42310000  1.0 -0.2676104017
C  C201  1  0.59722000  0.42310000  0.77522000  1.0 -0.2676104017
C  C202  1  0.57690000  0.22478000  0.40278000  1.0 -0.2676104017
C  C203  1  0.22478000  0.40278000  0.57690000  1.0 -0.2676104017
C  C204  1  0.40278000  0.57690000  0.22478000  1.0 -0.2676104017
C  C205  1  0.36082000  0.71595000  0.60705000  1.0 -0.2863087017
C  C206  1  0.71595000  0.60705000  0.36082000  1.0 -0.2863087017
C  C207  1  0.60705000  0.36082000  0.71595000  1.0 -0.2863087017
C  C208  1  0.63918000  0.28405000  0.39295000  1.0 -0.2863087017
C  C209  1  0.28405000  0.39295000  0.63918000  1.0 -0.2863087017
C  C210  1  0.39295000  0.63918000  0.28405000  1.0 -0.2863087017
C  C211  1  0.34903000  0.74695000  0.68099000  1.0 -0.0697992856
C  C212  1  0.74695000  0.68099000  0.34903000  1.0 -0.0697992856
C  C213  1  0.68099000  0.34903000  0.74695000  1.0 -0.0697992856
C  C214  1  0.65097000  0.25305000  0.31901000  1.0 -0.0697992856
C  C215  1  0.25305000  0.31901000  0.65097000  1.0 -0.0697992856
C  C216  1  0.31901000  0.65097000  0.25305000  1.0 -0.0697992856
C  C217  1  0.40196000  0.83948000  0.74634000  1.0 -0.0592099788
C  C218  1  0.83948000  0.74634000  0.40196000  1.0 -0.0592099788
C  C219  1  0.74634000  0.40196000  0.83948000  1.0 -0.0592099788
C  C220  1  0.59804000  0.16052000  0.25366000  1.0 -0.0592099788
C  C221  1  0.16052000  0.25366000  0.59804000  1.0 -0.0592099788
C  C222  1  0.25366000  0.59804000  0.16052000  1.0 -0.0592099788
C  C223  1  0.46420000  0.89897000  0.73663000  1.0 -0.1210798567
C  C224  1  0.89897000  0.73663000  0.46420000  1.0 -0.1210798567
C  C225  1  0.73663000  0.46420000  0.89897000  1.0 -0.1210798567
C  C226  1  0.53580000  0.10103000  0.26337000  1.0 -0.1210798567
C  C227  1  0.10103000  0.26337000  0.53580000  1.0 -0.1210798567
C  C228  1  0.26337000  0.53580000  0.10103000  1.0 -0.1210798567
C  C229  1  0.27662000  0.68220000  0.68690000  1.0 0.5192917875
C  C230  1  0.68220000  0.68690000  0.27662000  1.0 0.5192917875
C  C231  1  0.68690000  0.27662000  0.68220000  1.0 0.5192917875
C  C232  1  0.72338000  0.31780000  0.31310000  1.0 0.5192917875
C  C233  1  0.31780000  0.31310000  0.72338000  1.0 0.5192917875
C  C234  1  0.31310000  0.72338000  0.31780000  1.0 0.5192917875
C  C235  1  0.66516000  0.07829000  0.80341000  1.0 0.0679982181
C  C236  1  0.07829000  0.80341000  0.66516000  1.0 0.0679982181
C  C237  1  0.80341000  0.66516000  0.07829000  1.0 0.0679982181
C  C238  1  0.33484000  0.92171000  0.19659000  1.0 0.0679982181
C  C239  1  0.92171000  0.19659000  0.33484000  1.0 0.0679982181
C  C240  1  0.19659000  0.33484000  0.92171000  1.0 0.0679982181
C  C241  1  0.69679000  0.17108000  0.83760000  1.0 -0.1210798567
C  C242  1  0.17108000  0.83760000  0.69679000  1.0 -0.1210798567
C  C243  1  0.83760000  0.69679000  0.17108000  1.0 -0.1210798567
C  C244  1  0.30321000  0.82892000  0.16240000  1.0 -0.1210798567
C  C245  1  0.82892000  0.16240000  0.30321000  1.0 -0.1210798567
C  C246  1  0.16240000  0.30321000  0.82892000  1.0 -0.1210798567
C  C247  1  0.74444000  0.23107000  0.93054000  1.0 -0.1031024586
C  C248  1  0.23107000  0.93054000  0.74444000  1.0 -0.1031024586
C  C249  1  0.93054000  0.74444000  0.23107000  1.0 -0.1031024586
C  C250  1  0.25556000  0.76893000  0.06946000  1.0 -0.1031024586
C  C251  1  0.76893000  0.06946000  0.25556000  1.0 -0.1031024586
C  C252  1  0.06946000  0.25556000  0.76893000  1.0 -0.1031024586
C  C253  1  0.76199000  0.19938000  0.99022000  1.0 -0.02020097
C  C254  1  0.19938000  0.99022000  0.76199000  1.0 -0.02020097
C  C255  1  0.99022000  0.76199000  0.19938000  1.0 -0.02020097
C  C256  1  0.23801000  0.80062000  0.00978000  1.0 -0.02020097
C  C257  1  0.80062000  0.00978000  0.23801000  1.0 -0.02020097
C  C258  1  0.00978000  0.23801000  0.80062000  1.0 -0.02020097
C  C259  1  0.73396000  0.10756000  0.95686000  1.0 -0.1031024586
C  C260  1  0.10756000  0.95686000  0.73396000  1.0 -0.1050174096
C  C261  1  0.95686000  0.73396000  0.10756000  1.0 -0.1031024586
C  C262  1  0.26604000  0.89244000  0.04314000  1.0 -0.1031024586
C  C263  1  0.89244000  0.04314000  0.26604000  1.0 -0.1031024586
C  C264  1  0.04314000  0.26604000  0.89244000  1.0 -0.1031024586
C  C265  1  0.68512000  0.04736000  0.86325000  1.0 -0.2110240915
C  C266  1  0.04736000  0.86325000  0.68512000  1.0 -0.2110240915
C  C267  1  0.86325000  0.68512000  0.04736000  1.0 -0.2110240915
C  C268  1  0.31488000  0.95264000  0.13675000  1.0 -0.2110240915
C  C269  1  0.95264000  0.13675000  0.31488000  1.0 -0.2110240915
C  C270  1  0.13675000  0.31488000  0.95264000  1.0 -0.2110240915
C  C271  1  0.80437000  0.26192000  0.09038000  1.0 0.5316180876
C  C272  1  0.26192000  0.09038000  0.80437000  1.0 0.5316180876
C  C273  1  0.09038000  0.80437000  0.26192000  1.0 0.5316180876
C  C274  1  0.19563000  0.73808000  0.90962000  1.0 0.5316180876
C  C275  1  0.73808000  0.90962000  0.19563000  1.0 0.5316180876
C  C276  1  0.90962000  0.19563000  0.73808000  1.0 0.5316180876
N  N1  1  0.67119000  0.06195000  0.52185000  1.0 -0.2443239995
N  N2  1  0.06195000  0.52185000  0.67119000  1.0 -0.2443239995
N  N3  1  0.52185000  0.67119000  0.06195000  1.0 -0.2443239995
N  N4  1  0.32881000  0.93805000  0.47815000  1.0 -0.2443239995
N  N5  1  0.93805000  0.47815000  0.32881000  1.0 -0.2443239995
N  N6  1  0.47815000  0.32881000  0.93805000  1.0 -0.2443239995
N  N7  1  0.64235000  0.04466000  0.65150000  1.0 -0.3699821043
N  N8  1  0.04466000  0.65150000  0.64235000  1.0 -0.3699821043
N  N9  1  0.65150000  0.64235000  0.04466000  1.0 -0.3699821043
N  N10  1  0.35765000  0.95534000  0.34850000  1.0 -0.3699821043
N  N11  1  0.95534000  0.34850000  0.35765000  1.0 -0.3699821043
N  N12  1  0.34850000  0.35765000  0.95534000  1.0 -0.3699821043
N  N13  1  0.52141000  0.90805000  0.56063000  1.0 -0.3699821043
N  N14  1  0.90805000  0.56063000  0.52141000  1.0 -0.3699821043
N  N15  1  0.56063000  0.52141000  0.90805000  1.0 -0.3699821043
N  N16  1  0.47859000  0.09195000  0.43937000  1.0 -0.3699821043
N  N17  1  0.09195000  0.43937000  0.47859000  1.0 -0.3699821043
N  N18  1  0.43937000  0.47859000  0.09195000  1.0 -0.3699821043
O  O1  1  0.26363000  0.71719000  0.75121000  1.0 -0.5084578701
O  O2  1  0.71719000  0.75121000  0.26363000  1.0 -0.5084578701
O  O3  1  0.75121000  0.26363000  0.71719000  1.0 -0.5084578701
O  O4  1  0.73637000  0.28281000  0.24879000  1.0 -0.5084578701
O  O5  1  0.28281000  0.24879000  0.73637000  1.0 -0.5084578701
O  O6  1  0.24879000  0.73637000  0.28281000  1.0 -0.5084578701
O  O7  1  0.23254000  0.60012000  0.62856000  1.0 -0.5233587035
O  O8  1  0.60012000  0.62856000  0.23254000  1.0 -0.5233587035
O  O9  1  0.62856000  0.23254000  0.60012000  1.0 -0.5233587035
O  O10  1  0.76746000  0.39988000  0.37144000  1.0 -0.5233587035
O  O11  1  0.39988000  0.37144000  0.76746000  1.0 -0.5233587035
O  O12  1  0.37144000  0.76746000  0.39988000  1.0 -0.5233587035
O  O13  1  0.81191000  0.33846000  0.11931000  1.0 -0.5435407468
O  O14  1  0.33846000  0.11931000  0.81191000  1.0 -0.5435407468
O  O15  1  0.11931000  0.81191000  0.33846000  1.0 -0.5435407468
O  O16  1  0.18809000  0.66154000  0.88069000  1.0 -0.5435407468
O  O17  1  0.66154000  0.88069000  0.18809000  1.0 -0.5435407468
O  O18  1  0.88069000  0.18809000  0.66154000  1.0 -0.5435407468
O  O19  1  0.82832000  0.23268000  0.14301000  1.0 -0.5233587035
O  O20  1  0.23268000  0.14301000  0.82832000  1.0 -0.5233587035
O  O21  1  0.14301000  0.82832000  0.23268000  1.0 -0.5233587035
O  O22  1  0.17168000  0.76732000  0.85699000  1.0 -0.5233587035
O  O23  1  0.76732000  0.85699000  0.17168000  1.0 -0.5233587035
O  O24  1  0.85699000  0.17168000  0.76732000  1.0 -0.5233587035
