# DDEC6 charges by PACMAN v1.1 (https://github.com/mtap-research/PACMAN-charge/)
data_OBENAL01_FSR_pacman
_symmetry_space_group_name_H-M   'P 1'
_cell_length_a   16.02240000
_cell_length_b   16.02240000
_cell_length_c   16.02240000
_cell_angle_alpha   160.59900000
_cell_angle_beta   134.25200000
_cell_angle_gamma   50.13120000
_symmetry_Int_Tables_number   1
_chemical_formula_structural   Co5H36(C7O10)2
_chemical_formula_sum   'Co10 H72 C28 O40'
_cell_volume   976.11732729
_cell_formula_units_Z   2
loop_
 _symmetry_equiv_pos_site_id
 _symmetry_equiv_pos_as_xyz
  1  'x, y, z'
loop_
 _atom_site_type_symbol
 _atom_site_label
 _atom_site_symmetry_multiplicity
 _atom_site_fract_x
 _atom_site_fract_y
 _atom_site_fract_z
 _atom_site_occupancy
 _atom_site_charge
Co  Co1  1  0.12551000  0.99540000  0.62091000  1.0 0.7424298061
Co  Co2  1  0.62551000  0.00460000  0.13011000  1.0 0.7424298061
Co  Co3  1  0.37449000  0.99540000  0.86989000  1.0 0.7424298061
Co  Co4  1  0.87449000  0.00460000  0.37909000  1.0 0.7424298061
Co  Co5  1  0.00000000  0.50000000  0.00000000  1.0 0.7226508391
Co  Co6  1  0.50000000  0.50000000  0.50000000  1.0 0.7226508391
Co  Co7  1  0.30905000  0.55145000  0.24240000  1.0 0.5469201935
Co  Co8  1  0.80905000  0.56665000  0.75760000  1.0 0.5442493094
Co  Co9  1  0.19095000  0.43335000  0.24240000  1.0 0.5469201935
Co  Co10  1  0.69095000  0.44855000  0.75760000  1.0 0.5442493094
H  H1  1  0.31730000  0.99700000  0.67970000  1.0 0.1989171488
H  H2  1  0.81730000  0.13760000  0.32030000  1.0 0.1989171488
H  H3  1  0.18270000  0.86240000  0.67970000  1.0 0.1989171488
H  H4  1  0.68270000  0.00300000  0.32030000  1.0 0.1989171488
H  H5  1  0.02220000  0.21880000  0.87520000  1.0 0.1604195518
H  H6  1  0.52220000  0.64700000  0.80340000  1.0 0.1604195518
H  H7  1  0.15640000  0.35300000  0.87520000  1.0 0.1604195518
H  H8  1  0.34360000  0.21880000  0.19660000  1.0 0.1604195518
H  H9  1  0.97780000  0.78120000  0.12480000  1.0 0.1604195518
H  H10  1  0.47780000  0.35300000  0.19660000  1.0 0.1604195518
H  H11  1  0.84360000  0.64700000  0.12480000  1.0 0.1604195518
H  H12  1  0.65640000  0.78120000  0.80340000  1.0 0.1604195518
H  H13  1  0.31140000  0.11990000  0.80850000  1.0 0.2123716605
H  H14  1  0.81140000  0.00290000  0.19150000  1.0 0.2123716605
H  H15  1  0.18860000  0.99710000  0.80850000  1.0 0.2123716605
H  H16  1  0.68860000  0.88010000  0.19150000  1.0 0.2123716605
H  H17  1  0.02750000  0.64480000  0.30030000  1.0 0.1702505407
H  H18  1  0.52750000  0.22720000  0.38270000  1.0 0.1702505407
H  H19  1  0.15550000  0.77280000  0.30030000  1.0 0.1702505407
H  H20  1  0.34450000  0.64480000  0.61730000  1.0 0.1702505407
H  H21  1  0.97250000  0.35520000  0.69970000  1.0 0.1702505407
H  H22  1  0.47250000  0.77280000  0.61730000  1.0 0.1702505407
H  H23  1  0.84450000  0.22720000  0.69970000  1.0 0.1702505407
H  H24  1  0.65550000  0.35520000  0.38270000  1.0 0.1702505407
H  H25  1  0.06490000  0.23220000  0.67110000  1.0 0.1027107371
H  H26  1  0.56490000  0.89380000  0.83270000  1.0 0.1027107371
H  H27  1  0.93890000  0.10620000  0.67110000  1.0 0.1027107371
H  H28  1  0.56110000  0.23220000  0.16730000  1.0 0.1027107371
H  H29  1  0.93510000  0.76780000  0.32890000  1.0 0.1027107371
H  H30  1  0.43510000  0.10620000  0.16730000  1.0 0.1027107371
H  H31  1  0.06110000  0.89380000  0.32890000  1.0 0.1027107371
H  H32  1  0.43890000  0.76780000  0.83270000  1.0 0.1027107371
H  H33  1  0.38670000  0.65200000  0.12710000  1.0 0.0712566303
H  H34  1  0.88670000  0.75960000  0.73470000  1.0 0.0712566303
H  H35  1  0.97510000  0.24040000  0.12710000  1.0 0.0712566303
H  H36  1  0.52490000  0.65200000  0.26530000  1.0 0.0712566303
H  H37  1  0.61330000  0.34800000  0.87290000  1.0 0.0712566303
H  H38  1  0.11330000  0.24040000  0.26530000  1.0 0.0712566303
H  H39  1  0.02490000  0.75960000  0.87290000  1.0 0.0712566303
H  H40  1  0.47510000  0.34800000  0.73470000  1.0 0.0712566303
H  H41  1  0.31200000  0.28970000  0.68010000  1.0 0.0760152621
H  H42  1  0.81200000  0.13190000  0.02230000  1.0 0.0760152621
H  H43  1  0.89040000  0.86810000  0.68010000  1.0 0.0760152621
H  H44  1  0.60960000  0.28970000  0.97770000  1.0 0.0760152621
H  H45  1  0.68800000  0.71030000  0.31990000  1.0 0.0760152621
H  H46  1  0.18800000  0.86810000  0.97770000  1.0 0.0760152621
H  H47  1  0.10960000  0.13190000  0.31990000  1.0 0.0760152621
H  H48  1  0.39040000  0.71030000  0.02230000  1.0 0.0760152621
H  H49  1  0.43230000  0.16090000  0.65580000  1.0 0.0712566303
H  H50  1  0.93230000  0.27650000  0.27140000  1.0 0.0712566303
H  H51  1  0.99490000  0.72350000  0.65580000  1.0 0.0712566303
H  H52  1  0.50510000  0.16090000  0.72860000  1.0 0.0712566303
H  H53  1  0.56770000  0.83910000  0.34420000  1.0 0.0712566303
H  H54  1  0.06770000  0.72350000  0.72860000  1.0 0.0712566303
H  H55  1  0.00510000  0.27650000  0.34420000  1.0 0.0712566303
H  H56  1  0.49490000  0.83910000  0.27140000  1.0 0.0712566303
H  H57  1  0.32730000  0.45110000  0.84260000  1.0 0.0712566303
H  H58  1  0.82730000  0.98470000  0.87620000  1.0 0.0712566303
H  H59  1  0.89150000  0.01530000  0.84260000  1.0 0.0712566303
H  H60  1  0.60850000  0.45110000  0.12380000  1.0 0.0712566303
H  H61  1  0.67270000  0.54890000  0.15740000  1.0 0.0712566303
H  H62  1  0.17270000  0.01530000  0.12380000  1.0 0.0712566303
H  H63  1  0.10850000  0.98470000  0.15740000  1.0 0.0712566303
H  H64  1  0.39150000  0.54890000  0.87620000  1.0 0.0712566303
H  H65  1  0.34450000  0.73100000  0.15570000  1.0 0.0712566303
H  H66  1  0.84450000  0.68880000  0.61350000  1.0 0.0712566303
H  H67  1  0.92470000  0.31120000  0.15570000  1.0 0.0712566303
H  H68  1  0.57530000  0.73100000  0.38650000  1.0 0.0712566303
H  H69  1  0.65550000  0.26900000  0.84430000  1.0 0.0712566303
H  H70  1  0.15550000  0.31120000  0.38650000  1.0 0.0712566303
H  H71  1  0.07530000  0.68880000  0.84430000  1.0 0.0712566303
H  H72  1  0.42470000  0.26900000  0.61350000  1.0 0.0712566303
C  C1  1  0.39970000  0.42770000  0.02800000  1.0 0.1757800897
C  C2  1  0.89970000  0.87170000  0.97200000  1.0 0.1757800897
C  C3  1  0.10030000  0.12830000  0.02800000  1.0 0.1757800897
C  C4  1  0.60030000  0.57230000  0.97200000  1.0 0.1757800897
C  C5  1  0.42970000  0.49980000  0.02590000  1.0 0.0211480527
C  C6  1  0.92970000  0.90380000  0.92990000  1.0 0.0211480527
C  C7  1  0.02610000  0.09620000  0.02590000  1.0 0.0211480527
C  C8  1  0.47390000  0.49980000  0.07010000  1.0 0.0211480527
C  C9  1  0.57030000  0.50020000  0.97410000  1.0 0.0211480527
C  C10  1  0.07030000  0.09620000  0.07010000  1.0 0.0211480527
C  C11  1  0.97390000  0.90380000  0.97410000  1.0 0.0211480527
C  C12  1  0.52610000  0.50020000  0.92990000  1.0 0.0211480527
C  C13  1  0.39800000  0.32240000  0.77160000  1.0 -0.1616410537
C  C14  1  0.89800000  0.12640000  0.07560000  1.0 -0.1616410537
C  C15  1  0.94920000  0.87360000  0.77160000  1.0 -0.1616410537
C  C16  1  0.55080000  0.32240000  0.92440000  1.0 -0.1616410537
C  C17  1  0.60200000  0.67760000  0.22840000  1.0 -0.1616410537
C  C18  1  0.10200000  0.87360000  0.92440000  1.0 -0.1616410537
C  C19  1  0.05080000  0.12640000  0.22840000  1.0 -0.1616410537
C  C20  1  0.44920000  0.67760000  0.07560000  1.0 -0.1616410537
C  C21  1  0.56200000  0.59100000  0.20500000  1.0 -0.1179863977
C  C22  1  0.06200000  0.85700000  0.97100000  1.0 -0.1179863977
C  C23  1  0.11400000  0.14300000  0.20500000  1.0 -0.1179863977
C  C24  1  0.38600000  0.59100000  0.02900000  1.0 -0.1179863977
C  C25  1  0.43800000  0.40900000  0.79500000  1.0 -0.1179863977
C  C26  1  0.93800000  0.14300000  0.02900000  1.0 -0.1179863977
C  C27  1  0.88600000  0.85700000  0.79500000  1.0 -0.1179863977
C  C28  1  0.61400000  0.40900000  0.97100000  1.0 -0.1179863977
O  O1  1  0.29380000  0.89680000  0.60300000  1.0 -0.2620262968
O  O2  1  0.79380000  0.19080000  0.39700000  1.0 -0.2620262968
O  O3  1  0.20620000  0.80920000  0.60300000  1.0 -0.2620262968
O  O4  1  0.70620000  0.10320000  0.39700000  1.0 -0.2620262968
O  O5  1  0.07480000  0.28040000  0.94220000  1.0 -0.3144112172
O  O6  1  0.57480000  0.63260000  0.79440000  1.0 -0.3144112172
O  O7  1  0.16180000  0.36740000  0.94220000  1.0 -0.3144112172
O  O8  1  0.33820000  0.28040000  0.20560000  1.0 -0.3144112172
O  O9  1  0.92520000  0.71960000  0.05780000  1.0 -0.3144112172
O  O10  1  0.42520000  0.36740000  0.20560000  1.0 -0.3144112172
O  O11  1  0.83820000  0.63260000  0.05780000  1.0 -0.3144112172
O  O12  1  0.66180000  0.71960000  0.79440000  1.0 -0.3144112172
O  O13  1  0.28820000  0.17620000  0.88800000  1.0 -0.3002574908
O  O14  1  0.78820000  0.90020000  0.11200000  1.0 -0.3002574908
O  O15  1  0.21180000  0.09980000  0.88800000  1.0 -0.3002574908
O  O16  1  0.71180000  0.82380000  0.11200000  1.0 -0.3002574908
O  O17  1  0.08000000  0.62930000  0.29030000  1.0 -0.325278988
O  O18  1  0.58000000  0.28970000  0.45070000  1.0 -0.325278988
O  O19  1  0.16100000  0.71030000  0.29030000  1.0 -0.325278988
O  O20  1  0.33900000  0.62930000  0.54930000  1.0 -0.325278988
O  O21  1  0.92000000  0.37070000  0.70970000  1.0 -0.325278988
O  O22  1  0.42000000  0.71030000  0.54930000  1.0 -0.325278988
O  O23  1  0.83900000  0.28970000  0.70970000  1.0 -0.325278988
O  O24  1  0.66100000  0.37070000  0.45070000  1.0 -0.325278988
O  O25  1  0.03720000  0.20410000  0.67050000  1.0 -0.195543045
O  O26  1  0.53720000  0.86670000  0.83310000  1.0 -0.195543045
O  O27  1  0.96640000  0.13330000  0.67050000  1.0 -0.195543045
O  O28  1  0.53360000  0.20410000  0.16690000  1.0 -0.195543045
O  O29  1  0.96280000  0.79590000  0.32950000  1.0 -0.195543045
O  O30  1  0.46280000  0.13330000  0.16690000  1.0 -0.195543045
O  O31  1  0.03360000  0.86670000  0.32950000  1.0 -0.195543045
O  O32  1  0.46640000  0.79590000  0.83310000  1.0 -0.195543045
O  O33  1  0.37860000  0.61590000  0.23730000  1.0 -0.5691413003
O  O34  1  0.87860000  0.64130000  0.76270000  1.0 -0.5691413003
O  O35  1  0.12140000  0.35870000  0.23730000  1.0 -0.5691413003
O  O36  1  0.62140000  0.38410000  0.76270000  1.0 -0.5691413003
O  O37  1  0.38070000  0.20710000  0.82640000  1.0 -0.5064037161
O  O38  1  0.88070000  0.05430000  0.17360000  1.0 -0.5064037161
O  O39  1  0.11930000  0.94570000  0.82640000  1.0 -0.5064037161
O  O40  1  0.61930000  0.79290000  0.17360000  1.0 -0.5064037161
