# DDEC6 charges by PACMAN v1.1 (https://github.com/mtap-research/PACMAN-charge/)
data_OBENAL02_FSR_pacman
_symmetry_space_group_name_H-M   'P 1'
_cell_length_a   15.93070000
_cell_length_b   15.93070000
_cell_length_c   15.93070000
_cell_angle_alpha   160.58300000
_cell_angle_beta   134.25200000
_cell_angle_gamma   50.13810000
_symmetry_Int_Tables_number   1
_chemical_formula_structural   Co5H36(C7O10)2
_chemical_formula_sum   'Co10 H72 C28 O40'
_cell_volume   960.21004272
_cell_formula_units_Z   2
loop_
 _symmetry_equiv_pos_site_id
 _symmetry_equiv_pos_as_xyz
  1  'x, y, z'
loop_
 _atom_site_type_symbol
 _atom_site_label
 _atom_site_symmetry_multiplicity
 _atom_site_fract_x
 _atom_site_fract_y
 _atom_site_fract_z
 _atom_site_occupancy
 _atom_site_charge
Co  Co1  1  0.12551000  0.99550000  0.62101000  1.0 0.7364470578
Co  Co2  1  0.62551000  0.00450000  0.13001000  1.0 0.7364470578
Co  Co3  1  0.37449000  0.99550000  0.86999000  1.0 0.7364470578
Co  Co4  1  0.87449000  0.00450000  0.37899000  1.0 0.7364470578
Co  Co5  1  0.00000000  0.50000000  0.00000000  1.0 0.7025236405
Co  Co6  1  0.50000000  0.50000000  0.50000000  1.0 0.7025236405
Co  Co7  1  0.30906000  0.55126000  0.24220000  1.0 0.5456638552
Co  Co8  1  0.80906000  0.56686000  0.75780000  1.0 0.543516121
Co  Co9  1  0.19094000  0.43314000  0.24220000  1.0 0.5456638552
Co  Co10  1  0.69094000  0.44874000  0.75780000  1.0 0.543516121
H  H1  1  0.31770000  0.99930000  0.68160000  1.0 0.1978132344
H  H2  1  0.81770000  0.13610000  0.31840000  1.0 0.1978132344
H  H3  1  0.18230000  0.86390000  0.68160000  1.0 0.1978132344
H  H4  1  0.68230000  0.00070000  0.31840000  1.0 0.1978132344
H  H5  1  0.02060000  0.21720000  0.87120000  1.0 0.1582969941
H  H6  1  0.52060000  0.64940000  0.80340000  1.0 0.1582969941
H  H7  1  0.15400000  0.35060000  0.87120000  1.0 0.1582969941
H  H8  1  0.34600000  0.21720000  0.19660000  1.0 0.1582969941
H  H9  1  0.97940000  0.78280000  0.12880000  1.0 0.1582969941
H  H10  1  0.47940000  0.35060000  0.19660000  1.0 0.1582969941
H  H11  1  0.84600000  0.64940000  0.12880000  1.0 0.1582969941
H  H12  1  0.65400000  0.78280000  0.80340000  1.0 0.1582969941
H  H13  1  0.31320000  0.12100000  0.80780000  1.0 0.2129044525
H  H14  1  0.81320000  0.00540000  0.19220000  1.0 0.2129044525
H  H15  1  0.18680000  0.99460000  0.80780000  1.0 0.2129044525
H  H16  1  0.68680000  0.87900000  0.19220000  1.0 0.2129044525
H  H17  1  0.06300000  0.23240000  0.66940000  1.0 0.0971738744
H  H18  1  0.56300000  0.89360000  0.83060000  1.0 0.0971738744
H  H19  1  0.93700000  0.10640000  0.66940000  1.0 0.0971738744
H  H20  1  0.56300000  0.23240000  0.16940000  1.0 0.0971738744
H  H21  1  0.93700000  0.76760000  0.33060000  1.0 0.0971738744
H  H22  1  0.43700000  0.10640000  0.16940000  1.0 0.0971738744
H  H23  1  0.06300000  0.89360000  0.33060000  1.0 0.0971738744
H  H24  1  0.43700000  0.76760000  0.83060000  1.0 0.0971738744
H  H25  1  0.38880000  0.64880000  0.12640000  1.0 0.0682928966
H  H26  1  0.88880000  0.76240000  0.74000000  1.0 0.0682928966
H  H27  1  0.97760000  0.23760000  0.12640000  1.0 0.0682928966
H  H28  1  0.52240000  0.64880000  0.26000000  1.0 0.0682928966
H  H29  1  0.61120000  0.35120000  0.87360000  1.0 0.0682928966
H  H30  1  0.11120000  0.23760000  0.26000000  1.0 0.0682928966
H  H31  1  0.02240000  0.76240000  0.87360000  1.0 0.0682928966
H  H32  1  0.47760000  0.35120000  0.74000000  1.0 0.0682928966
H  H33  1  0.30830000  0.29970000  0.68980000  1.0 0.0760917879
H  H34  1  0.80830000  0.11850000  0.00860000  1.0 0.0760917879
H  H35  1  0.89010000  0.88150000  0.68980000  1.0 0.0760917879
H  H36  1  0.60990000  0.29970000  0.99140000  1.0 0.0760917879
H  H37  1  0.69170000  0.70030000  0.31020000  1.0 0.0760917879
H  H38  1  0.19170000  0.88150000  0.99140000  1.0 0.0760917879
H  H39  1  0.10990000  0.11850000  0.31020000  1.0 0.0760917879
H  H40  1  0.39010000  0.70030000  0.00860000  1.0 0.0760917879
H  H41  1  0.42700000  0.15980000  0.65160000  1.0 0.0682928966
H  H42  1  0.92700000  0.27540000  0.26720000  1.0 0.0682928966
H  H43  1  0.99180000  0.72460000  0.65160000  1.0 0.0682928966
H  H44  1  0.50820000  0.15980000  0.73280000  1.0 0.0682928966
H  H45  1  0.57300000  0.84020000  0.34840000  1.0 0.0682928966
H  H46  1  0.07300000  0.72460000  0.73280000  1.0 0.0682928966
H  H47  1  0.00820000  0.27540000  0.34840000  1.0 0.0682928966
H  H48  1  0.49180000  0.84020000  0.26720000  1.0 0.0682928966
H  H49  1  0.32480000  0.44380000  0.83260000  1.0 0.0682928966
H  H50  1  0.82480000  0.99220000  0.88100000  1.0 0.0682928966
H  H51  1  0.88880000  0.00780000  0.83260000  1.0 0.0682928966
H  H52  1  0.61120000  0.44380000  0.11900000  1.0 0.0682928966
H  H53  1  0.67520000  0.55620000  0.16740000  1.0 0.0682928966
H  H54  1  0.17520000  0.00780000  0.11900000  1.0 0.0682928966
H  H55  1  0.11120000  0.99220000  0.16740000  1.0 0.0682928966
H  H56  1  0.38880000  0.55620000  0.88100000  1.0 0.0682928966
H  H57  1  0.34150000  0.72520000  0.14690000  1.0 0.0682928966
H  H58  1  0.84150000  0.69460000  0.61630000  1.0 0.0682928966
H  H59  1  0.92170000  0.30540000  0.14690000  1.0 0.0682928966
H  H60  1  0.57830000  0.72520000  0.38370000  1.0 0.0682928966
H  H61  1  0.65850000  0.27480000  0.85310000  1.0 0.0682928966
H  H62  1  0.15850000  0.30540000  0.38370000  1.0 0.0682928966
H  H63  1  0.07830000  0.69460000  0.85310000  1.0 0.0682928966
H  H64  1  0.42170000  0.27480000  0.61630000  1.0 0.0682928966
H  H65  1  0.02800000  0.64390000  0.29950000  1.0 0.1656720872
H  H66  1  0.52800000  0.22850000  0.38410000  1.0 0.1656720872
H  H67  1  0.15560000  0.77150000  0.29950000  1.0 0.1656720872
H  H68  1  0.34440000  0.64390000  0.61590000  1.0 0.1656720872
H  H69  1  0.97200000  0.35610000  0.70050000  1.0 0.1656720872
H  H70  1  0.47200000  0.77150000  0.61590000  1.0 0.1656720872
H  H71  1  0.84440000  0.22850000  0.70050000  1.0 0.1656720872
H  H72  1  0.65560000  0.35610000  0.38410000  1.0 0.1656720872
C  C1  1  0.39980000  0.42480000  0.02500000  1.0 0.1978132344
C  C2  1  0.89980000  0.87480000  0.97500000  1.0 0.1944756127
C  C3  1  0.10020000  0.12520000  0.02500000  1.0 0.1978132344
C  C4  1  0.60020000  0.57520000  0.97500000  1.0 0.1978132344
C  C5  1  0.43050000  0.49260000  0.01990000  1.0 0.0170355964
C  C6  1  0.93050000  0.91060000  0.93790000  1.0 0.0170355964
C  C7  1  0.02730000  0.08940000  0.01990000  1.0 0.0170355964
C  C8  1  0.47270000  0.49260000  0.06210000  1.0 0.0170355964
C  C9  1  0.56950000  0.50740000  0.98010000  1.0 0.0170355964
C  C10  1  0.06950000  0.08940000  0.06210000  1.0 0.0170355964
C  C11  1  0.97270000  0.91060000  0.98010000  1.0 0.0170355964
C  C12  1  0.52730000  0.50740000  0.93790000  1.0 0.0170355964
C  C13  1  0.39520000  0.32520000  0.77400000  1.0 -0.158868783
C  C14  1  0.89520000  0.12120000  0.07000000  1.0 -0.158868783
C  C15  1  0.94880000  0.87880000  0.77400000  1.0 -0.158868783
C  C16  1  0.55120000  0.32520000  0.93000000  1.0 -0.158868783
C  C17  1  0.60480000  0.67480000  0.22600000  1.0 -0.158868783
C  C18  1  0.10480000  0.87880000  0.93000000  1.0 -0.158868783
C  C19  1  0.05120000  0.12120000  0.22600000  1.0 -0.158868783
C  C20  1  0.44880000  0.67480000  0.07000000  1.0 -0.158868783
C  C21  1  0.56410000  0.58410000  0.20000000  1.0 -0.1117722475
C  C22  1  0.06410000  0.86410000  0.98000000  1.0 -0.1117722475
C  C23  1  0.11590000  0.13590000  0.20000000  1.0 -0.1117722475
C  C24  1  0.38410000  0.58410000  0.02000000  1.0 -0.1117722475
C  C25  1  0.43590000  0.41590000  0.80000000  1.0 -0.1117722475
C  C26  1  0.93590000  0.13590000  0.02000000  1.0 -0.1117722475
C  C27  1  0.88410000  0.86410000  0.80000000  1.0 -0.1117722475
C  C28  1  0.61590000  0.41590000  0.98000000  1.0 -0.1117722475
O  O1  1  0.29410000  0.89810000  0.60400000  1.0 -0.2615045689
O  O2  1  0.79410000  0.19010000  0.39600000  1.0 -0.2615045689
O  O3  1  0.20590000  0.80990000  0.60400000  1.0 -0.2615045689
O  O4  1  0.70590000  0.10190000  0.39600000  1.0 -0.2615045689
O  O5  1  0.07350000  0.27890000  0.93860000  1.0 -0.318122425
O  O6  1  0.57350000  0.63490000  0.79460000  1.0 -0.318122425
O  O7  1  0.15970000  0.36510000  0.93860000  1.0 -0.318122425
O  O8  1  0.34030000  0.27890000  0.20540000  1.0 -0.318122425
O  O9  1  0.92650000  0.72110000  0.06140000  1.0 -0.318122425
O  O10  1  0.42650000  0.36510000  0.20540000  1.0 -0.318122425
O  O11  1  0.84030000  0.63490000  0.06140000  1.0 -0.318122425
O  O12  1  0.65970000  0.72110000  0.79460000  1.0 -0.318122425
O  O13  1  0.03550000  0.20430000  0.66920000  1.0 -0.1846660458
O  O14  1  0.53550000  0.86630000  0.83120000  1.0 -0.1846660458
O  O15  1  0.96490000  0.13370000  0.66920000  1.0 -0.1846660458
O  O16  1  0.53510000  0.20430000  0.16880000  1.0 -0.1846660458
O  O17  1  0.96450000  0.79570000  0.33080000  1.0 -0.1846660458
O  O18  1  0.46450000  0.13370000  0.16880000  1.0 -0.1846660458
O  O19  1  0.03510000  0.86630000  0.33080000  1.0 -0.1846660458
O  O20  1  0.46490000  0.79570000  0.83120000  1.0 -0.1846660458
O  O21  1  0.37890000  0.61690000  0.23800000  1.0 -0.5720335328
O  O22  1  0.87890000  0.64090000  0.76200000  1.0 -0.5720335328
O  O23  1  0.12110000  0.35910000  0.23800000  1.0 -0.5720335328
O  O24  1  0.62110000  0.38310000  0.76200000  1.0 -0.5720335328
O  O25  1  0.38000000  0.20800000  0.82800000  1.0 -0.4916988396
O  O26  1  0.88000000  0.05200000  0.17200000  1.0 -0.4916988396
O  O27  1  0.12000000  0.94800000  0.82800000  1.0 -0.4916988396
O  O28  1  0.62000000  0.79200000  0.17200000  1.0 -0.4916988396
O  O29  1  0.28970000  0.17670000  0.88700000  1.0 -0.3065384411
O  O30  1  0.78970000  0.90270000  0.11300000  1.0 -0.3065384411
O  O31  1  0.21030000  0.09730000  0.88700000  1.0 -0.3065384411
O  O32  1  0.71030000  0.82330000  0.11300000  1.0 -0.3065384411
O  O33  1  0.08080000  0.62880000  0.29000000  1.0 -0.318122425
O  O34  1  0.58080000  0.29080000  0.45200000  1.0 -0.318122425
O  O35  1  0.16120000  0.70920000  0.29000000  1.0 -0.318122425
O  O36  1  0.33880000  0.62880000  0.54800000  1.0 -0.318122425
O  O37  1  0.91920000  0.37120000  0.71000000  1.0 -0.318122425
O  O38  1  0.41920000  0.70920000  0.54800000  1.0 -0.318122425
O  O39  1  0.83880000  0.29080000  0.71000000  1.0 -0.318122425
O  O40  1  0.66120000  0.37120000  0.45200000  1.0 -0.318122425
