# DDEC6 charges by PACMAN v1.1 (https://github.com/mtap-research/PACMAN-charge/)
data_OBESIB_FSR_pacman
_symmetry_space_group_name_H-M   'P 1'
_cell_length_a   11.43750000
_cell_length_b   14.07200000
_cell_length_c   16.11670000
_cell_angle_alpha   90.00000000
_cell_angle_beta   90.00000000
_cell_angle_gamma   90.00000000
_symmetry_Int_Tables_number   1
_chemical_formula_structural   ZnH10C12NO4
_chemical_formula_sum   'Zn8 H80 C96 N8 O32'
_cell_volume   2593.95868995
_cell_formula_units_Z   8
loop_
 _symmetry_equiv_pos_site_id
 _symmetry_equiv_pos_as_xyz
  1  'x, y, z'
loop_
 _atom_site_type_symbol
 _atom_site_label
 _atom_site_symmetry_multiplicity
 _atom_site_fract_x
 _atom_site_fract_y
 _atom_site_fract_z
 _atom_site_occupancy
 _atom_site_charge
Zn  Zn1  1  0.25000000  0.19153000  0.00000000  1.0 0.8089687313
Zn  Zn2  1  0.25000000  0.39251000  0.00000000  1.0 0.8174132194
Zn  Zn3  1  0.75000000  0.19153000  0.50000000  1.0 0.8089687313
Zn  Zn4  1  0.75000000  0.39251000  0.50000000  1.0 0.8174132194
Zn  Zn5  1  0.25000000  0.80847000  0.50000000  1.0 0.8089687313
Zn  Zn6  1  0.25000000  0.60749000  0.50000000  1.0 0.8174132194
Zn  Zn7  1  0.75000000  0.80847000  0.00000000  1.0 0.8089687313
Zn  Zn8  1  0.75000000  0.60749000  0.00000000  1.0 0.8174132194
H  H1  1  0.46138000  0.16048000  0.74415000  1.0 0.1118348695
H  H2  1  0.60140000  0.16456000  0.79639000  1.0 0.1118348695
H  H3  1  0.44011000  0.41578000  0.73108000  1.0 0.1118348695
H  H4  1  0.37031000  0.30244000  0.70629000  1.0 0.1016175483
H  H5  1  0.61410000  0.41915000  0.79903000  1.0 0.1215973339
H  H6  1  0.68623000  0.30804000  0.82790000  1.0 0.1016175483
H  H7  1  0.42254000  0.54873000  0.95849000  1.0 0.1016175483
H  H8  1  0.43048000  0.72424000  0.95989000  1.0 0.1215973339
H  H9  1  0.42909000  0.86014000  0.04557000  1.0 0.1266345914
H  H10  1  0.41757000  0.03574000  0.04943000  1.0 0.0915542132
H  H11  1  0.03862000  0.16048000  0.25585000  1.0 0.1118348695
H  H12  1  0.89860000  0.16456000  0.20361000  1.0 0.1118348695
H  H13  1  0.05989000  0.41578000  0.26892000  1.0 0.1118348695
H  H14  1  0.12969000  0.30244000  0.29371000  1.0 0.1016175483
H  H15  1  0.88590000  0.41915000  0.20097000  1.0 0.1215973339
H  H16  1  0.81377000  0.30804000  0.17210000  1.0 0.1016175483
H  H17  1  0.07746000  0.54873000  0.04151000  1.0 0.1016175483
H  H18  1  0.06952000  0.72424000  0.04011000  1.0 0.1215973339
H  H19  1  0.07091000  0.86014000  0.95443000  1.0 0.1266345914
H  H20  1  0.08243000  0.03574000  0.95057000  1.0 0.0915542132
H  H21  1  0.53862000  0.16048000  0.24415000  1.0 0.1118348695
H  H22  1  0.39860000  0.16456000  0.29639000  1.0 0.1118348695
H  H23  1  0.55989000  0.41578000  0.23108000  1.0 0.1118348695
H  H24  1  0.62969000  0.30244000  0.20629000  1.0 0.1016175483
H  H25  1  0.38590000  0.41915000  0.29903000  1.0 0.1215973339
H  H26  1  0.31377000  0.30804000  0.32790000  1.0 0.1016175483
H  H27  1  0.57746000  0.54873000  0.45849000  1.0 0.1016175483
H  H28  1  0.56952000  0.72424000  0.45989000  1.0 0.1215973339
H  H29  1  0.57091000  0.86014000  0.54557000  1.0 0.1266345914
H  H30  1  0.58243000  0.03574000  0.54943000  1.0 0.0915542132
H  H31  1  0.96138000  0.16048000  0.75585000  1.0 0.1118348695
H  H32  1  0.10140000  0.16456000  0.70361000  1.0 0.1118348695
H  H33  1  0.94011000  0.41578000  0.76892000  1.0 0.1118348695
H  H34  1  0.87031000  0.30244000  0.79371000  1.0 0.1016175483
H  H35  1  0.11410000  0.41915000  0.70097000  1.0 0.1215973339
H  H36  1  0.18623000  0.30804000  0.67210000  1.0 0.1016175483
H  H37  1  0.92254000  0.54873000  0.54151000  1.0 0.1016175483
H  H38  1  0.93048000  0.72424000  0.54011000  1.0 0.1215973339
H  H39  1  0.92909000  0.86014000  0.45443000  1.0 0.1266345914
H  H40  1  0.91757000  0.03574000  0.45057000  1.0 0.0915542132
H  H41  1  0.46138000  0.83952000  0.75585000  1.0 0.1118348695
H  H42  1  0.60140000  0.83544000  0.70361000  1.0 0.1118348695
H  H43  1  0.44011000  0.58422000  0.76892000  1.0 0.1118348695
H  H44  1  0.37031000  0.69756000  0.79371000  1.0 0.1016175483
H  H45  1  0.61410000  0.58085000  0.70097000  1.0 0.1215973339
H  H46  1  0.68623000  0.69196000  0.67210000  1.0 0.1016175483
H  H47  1  0.42254000  0.45127000  0.54151000  1.0 0.1016175483
H  H48  1  0.43048000  0.27576000  0.54011000  1.0 0.1215973339
H  H49  1  0.42909000  0.13986000  0.45443000  1.0 0.1266345914
H  H50  1  0.41757000  0.96426000  0.45057000  1.0 0.0915542132
H  H51  1  0.03862000  0.83952000  0.24415000  1.0 0.1118348695
H  H52  1  0.89860000  0.83544000  0.29639000  1.0 0.1118348695
H  H53  1  0.05989000  0.58422000  0.23108000  1.0 0.1118348695
H  H54  1  0.12969000  0.69756000  0.20629000  1.0 0.1016175483
H  H55  1  0.88590000  0.58085000  0.29903000  1.0 0.1215973339
H  H56  1  0.81377000  0.69196000  0.32790000  1.0 0.1016175483
H  H57  1  0.07746000  0.45127000  0.45849000  1.0 0.1016175483
H  H58  1  0.06952000  0.27576000  0.45989000  1.0 0.1215973339
H  H59  1  0.07091000  0.13986000  0.54557000  1.0 0.1266345914
H  H60  1  0.08243000  0.96426000  0.54943000  1.0 0.0915542132
H  H61  1  0.53862000  0.83952000  0.25585000  1.0 0.1118348695
H  H62  1  0.39860000  0.83544000  0.20361000  1.0 0.1118348695
H  H63  1  0.55989000  0.58422000  0.26892000  1.0 0.1118348695
H  H64  1  0.62969000  0.69756000  0.29371000  1.0 0.1016175483
H  H65  1  0.38590000  0.58085000  0.20097000  1.0 0.1215973339
H  H66  1  0.31377000  0.69196000  0.17210000  1.0 0.1016175483
H  H67  1  0.57746000  0.45127000  0.04151000  1.0 0.1016175483
H  H68  1  0.56952000  0.27576000  0.04011000  1.0 0.1215973339
H  H69  1  0.57091000  0.13986000  0.95443000  1.0 0.1266345914
H  H70  1  0.58243000  0.96426000  0.95057000  1.0 0.0915542132
H  H71  1  0.96138000  0.83952000  0.74415000  1.0 0.1118348695
H  H72  1  0.10140000  0.83544000  0.79639000  1.0 0.1118348695
H  H73  1  0.94011000  0.58422000  0.73108000  1.0 0.1118348695
H  H74  1  0.87031000  0.69756000  0.70629000  1.0 0.1016175483
H  H75  1  0.11410000  0.58085000  0.79903000  1.0 0.1215973339
H  H76  1  0.18623000  0.69196000  0.82790000  1.0 0.1016175483
H  H77  1  0.92254000  0.45127000  0.95849000  1.0 0.1016175483
H  H78  1  0.93048000  0.27576000  0.95989000  1.0 0.1215973339
H  H79  1  0.92909000  0.13986000  0.04557000  1.0 0.1266345914
H  H80  1  0.91757000  0.96426000  0.04943000  1.0 0.0915542132
C  C1  1  0.42181000  0.29579000  0.89604000  1.0 0.5911188136
C  C2  1  0.49022000  0.29460000  0.81775000  1.0 0.0530213016
C  C3  1  0.53035000  0.20635000  0.76913000  1.0 -0.2613756907
C  C4  1  0.44565000  0.33799000  0.73463000  1.0 -0.2489903782
C  C5  1  0.61024000  0.34109000  0.79804000  1.0 -0.2613756907
C  C6  1  0.56648000  0.29292000  0.71605000  1.0 0.0530213016
C  C7  1  0.62675000  0.29184000  0.63420000  1.0 0.5911188136
C  C8  1  0.34667000  0.59000000  0.97771000  1.0 0.1118348695
C  C9  1  0.35014000  0.68854000  0.97791000  1.0 -0.1643341993
C  C10  1  0.34927000  0.89549000  0.02486000  1.0 -0.1776505996
C  C11  1  0.34458000  0.99399000  0.02590000  1.0 0.1016175483
C  C12  1  0.07819000  0.29579000  0.10396000  1.0 0.5911188136
C  C13  1  0.00978000  0.29460000  0.18225000  1.0 0.0530213016
C  C14  1  0.96965000  0.20635000  0.23087000  1.0 -0.2613756907
C  C15  1  0.05435000  0.33799000  0.26537000  1.0 -0.2489903782
C  C16  1  0.88976000  0.34109000  0.20196000  1.0 -0.2613756907
C  C17  1  0.93352000  0.29292000  0.28395000  1.0 0.0530213016
C  C18  1  0.87325000  0.29184000  0.36580000  1.0 0.5911188136
C  C19  1  0.15333000  0.59000000  0.02229000  1.0 0.1118348695
C  C20  1  0.14986000  0.68854000  0.02209000  1.0 -0.1643341993
C  C21  1  0.15073000  0.89549000  0.97514000  1.0 -0.1776505996
C  C22  1  0.15542000  0.99399000  0.97410000  1.0 0.1016175483
C  C23  1  0.57819000  0.29579000  0.39604000  1.0 0.5911188136
C  C24  1  0.50978000  0.29460000  0.31775000  1.0 0.0530213016
C  C25  1  0.46965000  0.20635000  0.26913000  1.0 -0.2613756907
C  C26  1  0.55435000  0.33799000  0.23463000  1.0 -0.2489903782
C  C27  1  0.38976000  0.34109000  0.29804000  1.0 -0.2613756907
C  C28  1  0.43352000  0.29292000  0.21605000  1.0 0.0530213016
C  C29  1  0.37325000  0.29184000  0.13420000  1.0 0.5911188136
C  C30  1  0.65333000  0.59000000  0.47771000  1.0 0.1118348695
C  C31  1  0.64986000  0.68854000  0.47791000  1.0 -0.1643341993
C  C32  1  0.65073000  0.89549000  0.52486000  1.0 -0.1776505996
C  C33  1  0.65542000  0.99399000  0.52590000  1.0 0.1016175483
C  C34  1  0.92181000  0.29579000  0.60396000  1.0 0.5911188136
C  C35  1  0.99022000  0.29460000  0.68225000  1.0 0.0530213016
C  C36  1  0.03035000  0.20635000  0.73087000  1.0 -0.2613756907
C  C37  1  0.94565000  0.33799000  0.76537000  1.0 -0.2489903782
C  C38  1  0.11024000  0.34109000  0.70196000  1.0 -0.2613756907
C  C39  1  0.06648000  0.29292000  0.78395000  1.0 0.0530213016
C  C40  1  0.12675000  0.29184000  0.86580000  1.0 0.5911188136
C  C41  1  0.84667000  0.59000000  0.52229000  1.0 0.1118348695
C  C42  1  0.85014000  0.68854000  0.52209000  1.0 -0.1643341993
C  C43  1  0.84927000  0.89549000  0.47514000  1.0 -0.1776505996
C  C44  1  0.84458000  0.99399000  0.47410000  1.0 0.1016175483
C  C45  1  0.25000000  0.73980000  0.00000000  1.0 0.0915542132
C  C46  1  0.25000000  0.84431000  0.00000000  1.0 0.1118348695
C  C47  1  0.75000000  0.73980000  0.50000000  1.0 0.0915542132
C  C48  1  0.75000000  0.84431000  0.50000000  1.0 0.1118348695
C  C49  1  0.42181000  0.70421000  0.60396000  1.0 0.5911188136
C  C50  1  0.49022000  0.70540000  0.68225000  1.0 0.0530213016
C  C51  1  0.53035000  0.79365000  0.73087000  1.0 -0.2613756907
C  C52  1  0.44565000  0.66201000  0.76537000  1.0 -0.2489903782
C  C53  1  0.61024000  0.65891000  0.70196000  1.0 -0.2613756907
C  C54  1  0.56648000  0.70708000  0.78395000  1.0 0.0530213016
C  C55  1  0.62675000  0.70816000  0.86580000  1.0 0.5911188136
C  C56  1  0.34667000  0.41000000  0.52229000  1.0 0.1118348695
C  C57  1  0.35014000  0.31146000  0.52209000  1.0 -0.1643341993
C  C58  1  0.34927000  0.10451000  0.47514000  1.0 -0.1776505996
C  C59  1  0.34458000  0.00601000  0.47410000  1.0 0.1016175483
C  C60  1  0.07819000  0.70421000  0.39604000  1.0 0.5911188136
C  C61  1  0.00978000  0.70540000  0.31775000  1.0 0.0530213016
C  C62  1  0.96965000  0.79365000  0.26913000  1.0 -0.2613756907
C  C63  1  0.05435000  0.66201000  0.23463000  1.0 -0.2489903782
C  C64  1  0.88976000  0.65891000  0.29804000  1.0 -0.2613756907
C  C65  1  0.93352000  0.70708000  0.21605000  1.0 0.0530213016
C  C66  1  0.87325000  0.70816000  0.13420000  1.0 0.5911188136
C  C67  1  0.15333000  0.41000000  0.47771000  1.0 0.1118348695
C  C68  1  0.14986000  0.31146000  0.47791000  1.0 -0.1643341993
C  C69  1  0.15073000  0.10451000  0.52486000  1.0 -0.1776505996
C  C70  1  0.15542000  0.00601000  0.52590000  1.0 0.1016175483
C  C71  1  0.57819000  0.70421000  0.10396000  1.0 0.5911188136
C  C72  1  0.50978000  0.70540000  0.18225000  1.0 0.0530213016
C  C73  1  0.46965000  0.79365000  0.23087000  1.0 -0.2613756907
C  C74  1  0.55435000  0.66201000  0.26537000  1.0 -0.2489903782
C  C75  1  0.38976000  0.65891000  0.20196000  1.0 -0.2613756907
C  C76  1  0.43352000  0.70708000  0.28395000  1.0 0.0530213016
C  C77  1  0.37325000  0.70816000  0.36580000  1.0 0.5911188136
C  C78  1  0.65333000  0.41000000  0.02229000  1.0 0.1118348695
C  C79  1  0.64986000  0.31146000  0.02209000  1.0 -0.1643341993
C  C80  1  0.65073000  0.10451000  0.97514000  1.0 -0.1776505996
C  C81  1  0.65542000  0.00601000  0.97410000  1.0 0.1016175483
C  C82  1  0.92181000  0.70421000  0.89604000  1.0 0.5911188136
C  C83  1  0.99022000  0.70540000  0.81775000  1.0 0.0530213016
C  C84  1  0.03035000  0.79365000  0.76913000  1.0 -0.2613756907
C  C85  1  0.94565000  0.66201000  0.73463000  1.0 -0.2489903782
C  C86  1  0.11024000  0.65891000  0.79804000  1.0 -0.2613756907
C  C87  1  0.06648000  0.70708000  0.71605000  1.0 0.0530213016
C  C88  1  0.12675000  0.70816000  0.63420000  1.0 0.5911188136
C  C89  1  0.84667000  0.41000000  0.97771000  1.0 0.1118348695
C  C90  1  0.85014000  0.31146000  0.97791000  1.0 -0.1643341993
C  C91  1  0.84927000  0.10451000  0.02486000  1.0 -0.1776505996
C  C92  1  0.84458000  0.00601000  0.02590000  1.0 0.1016175483
C  C93  1  0.25000000  0.26020000  0.50000000  1.0 0.0915542132
C  C94  1  0.25000000  0.15569000  0.50000000  1.0 0.1118348695
C  C95  1  0.75000000  0.26020000  0.00000000  1.0 0.0915542132
C  C96  1  0.75000000  0.15569000  0.00000000  1.0 0.1118348695
N  N1  1  0.25000000  0.54116000  0.00000000  1.0 -0.2101734493
N  N2  1  0.25000000  0.04314000  0.00000000  1.0 -0.2179531966
N  N3  1  0.75000000  0.54116000  0.50000000  1.0 -0.2101734493
N  N4  1  0.75000000  0.04314000  0.50000000  1.0 -0.2179531966
N  N5  1  0.25000000  0.45884000  0.50000000  1.0 -0.2101734493
N  N6  1  0.25000000  0.95686000  0.50000000  1.0 -0.2179531966
N  N7  1  0.75000000  0.45884000  0.00000000  1.0 -0.2101734493
N  N8  1  0.75000000  0.95686000  0.00000000  1.0 -0.2179531966
O  O1  1  0.38190000  0.37664000  0.91786000  1.0 -0.5401238118
O  O2  1  0.40463000  0.21619000  0.93239000  1.0 -0.5562804256
O  O3  1  0.63245000  0.37043000  0.59532000  1.0 -0.5401238118
O  O4  1  0.66744000  0.21167000  0.61030000  1.0 -0.5540409599
O  O5  1  0.11810000  0.37664000  0.08214000  1.0 -0.5401238118
O  O6  1  0.09537000  0.21619000  0.06761000  1.0 -0.5562804256
O  O7  1  0.86755000  0.37043000  0.40468000  1.0 -0.5401238118
O  O8  1  0.83256000  0.21167000  0.38970000  1.0 -0.5540409599
O  O9  1  0.61810000  0.37664000  0.41786000  1.0 -0.5401238118
O  O10  1  0.59537000  0.21619000  0.43239000  1.0 -0.5562804256
O  O11  1  0.36755000  0.37043000  0.09532000  1.0 -0.5401238118
O  O12  1  0.33256000  0.21167000  0.11030000  1.0 -0.5540409599
O  O13  1  0.88190000  0.37664000  0.58214000  1.0 -0.5401238118
O  O14  1  0.90463000  0.21619000  0.56761000  1.0 -0.5562804256
O  O15  1  0.13245000  0.37043000  0.90468000  1.0 -0.5401238118
O  O16  1  0.16744000  0.21167000  0.88970000  1.0 -0.5540409599
O  O17  1  0.38190000  0.62336000  0.58214000  1.0 -0.5401238118
O  O18  1  0.40463000  0.78381000  0.56761000  1.0 -0.5562804256
O  O19  1  0.63245000  0.62957000  0.90468000  1.0 -0.5401238118
O  O20  1  0.66744000  0.78833000  0.88970000  1.0 -0.5540409599
O  O21  1  0.11810000  0.62336000  0.41786000  1.0 -0.5401238118
O  O22  1  0.09537000  0.78381000  0.43239000  1.0 -0.5562804256
O  O23  1  0.86755000  0.62957000  0.09532000  1.0 -0.5401238118
O  O24  1  0.83256000  0.78833000  0.11030000  1.0 -0.5540409599
O  O25  1  0.61810000  0.62336000  0.08214000  1.0 -0.5401238118
O  O26  1  0.59537000  0.78381000  0.06761000  1.0 -0.5562804256
O  O27  1  0.36755000  0.62957000  0.40468000  1.0 -0.5401238118
O  O28  1  0.33256000  0.78833000  0.38970000  1.0 -0.5540409599
O  O29  1  0.88190000  0.62336000  0.91786000  1.0 -0.5401238118
O  O30  1  0.90463000  0.78381000  0.93239000  1.0 -0.5562804256
O  O31  1  0.13245000  0.62957000  0.59532000  1.0 -0.5401238118
O  O32  1  0.16744000  0.78833000  0.61030000  1.0 -0.5540409599
