# DDEC6 charges by PACMAN v1.1 (https://github.com/mtap-research/PACMAN-charge/)
data_OCINEW_ASR_pacman
_symmetry_space_group_name_H-M   'P 1'
_cell_length_a   16.24700000
_cell_length_b   21.04030000
_cell_length_c   22.83950000
_cell_angle_alpha   90.00000000
_cell_angle_beta   105.81100000
_cell_angle_gamma   90.00000000
_symmetry_Int_Tables_number   1
_chemical_formula_structural   Co2B10H44C48N2O13
_chemical_formula_sum   'Co8 B40 H176 C192 N8 O52'
_cell_volume   7512.10365802
_cell_formula_units_Z   4
loop_
 _symmetry_equiv_pos_site_id
 _symmetry_equiv_pos_as_xyz
  1  'x, y, z'
loop_
 _atom_site_type_symbol
 _atom_site_label
 _atom_site_symmetry_multiplicity
 _atom_site_fract_x
 _atom_site_fract_y
 _atom_site_fract_z
 _atom_site_occupancy
 _atom_site_charge
Co  Co1  1  0.58998000  0.12352000  0.45916000  1.0 0.9505462529
Co  Co2  1  0.52267000  0.06879000  0.30555000  1.0 1.05748235
Co  Co3  1  0.41002000  0.62352000  0.04084000  1.0 0.9505462529
Co  Co4  1  0.47733000  0.56879000  0.19445000  1.0 1.05748235
Co  Co5  1  0.41002000  0.87648000  0.54084000  1.0 0.9505462529
Co  Co6  1  0.47733000  0.93121000  0.69445000  1.0 1.05748235
Co  Co7  1  0.58998000  0.37648000  0.95916000  1.0 0.9505462529
Co  Co8  1  0.52267000  0.43121000  0.80555000  1.0 1.05748235
B  B1  1  0.67690000  0.45240000  0.50960000  1.0 -0.1899947754
B  B2  1  0.76180000  0.40740000  0.49570000  1.0 -0.2108410398
B  B3  1  0.85710000  0.42750000  0.55270000  1.0 -0.1809644258
B  B4  1  0.83240000  0.48490000  0.60170000  1.0 -0.2400876804
B  B5  1  0.72150000  0.50020000  0.57590000  1.0 -0.2001774503
B  B6  1  0.72570000  0.47770000  0.45320000  1.0 -0.2193449382
B  B7  1  0.83740000  0.46210000  0.47940000  1.0 -0.2108410398
B  B8  1  0.87940000  0.50920000  0.54470000  1.0 -0.2193449382
B  B9  1  0.79400000  0.55380000  0.55910000  1.0 -0.2331846499
B  B10  1  0.79710000  0.53920000  0.48390000  1.0 -0.1809644258
B  B11  1  0.32310000  0.95240000  0.99040000  1.0 -0.1899947754
B  B12  1  0.23820000  0.90740000  0.00430000  1.0 -0.2108410398
B  B13  1  0.14290000  0.92750000  0.94730000  1.0 -0.1809644258
B  B14  1  0.16760000  0.98490000  0.89830000  1.0 -0.2331846499
B  B15  1  0.27850000  0.00020000  0.92410000  1.0 -0.2001774503
B  B16  1  0.27430000  0.97770000  0.04680000  1.0 -0.2193449382
B  B17  1  0.16260000  0.96210000  0.02060000  1.0 -0.2108410398
B  B18  1  0.12060000  0.00920000  0.95530000  1.0 -0.2193449382
B  B19  1  0.20600000  0.05380000  0.94090000  1.0 -0.2331846499
B  B20  1  0.20290000  0.03920000  0.01610000  1.0 -0.1809644258
B  B21  1  0.32310000  0.54760000  0.49040000  1.0 -0.1899947754
B  B22  1  0.23820000  0.59260000  0.50430000  1.0 -0.2108410398
B  B23  1  0.14290000  0.57250000  0.44730000  1.0 -0.1809644258
B  B24  1  0.16760000  0.51510000  0.39830000  1.0 -0.2331846499
B  B25  1  0.27850000  0.49980000  0.42410000  1.0 -0.2001774503
B  B26  1  0.27430000  0.52230000  0.54680000  1.0 -0.2193449382
B  B27  1  0.16260000  0.53790000  0.52060000  1.0 -0.2108410398
B  B28  1  0.12060000  0.49080000  0.45530000  1.0 -0.2193449382
B  B29  1  0.20600000  0.44620000  0.44090000  1.0 -0.2331846499
B  B30  1  0.20290000  0.46080000  0.51610000  1.0 -0.1809644258
B  B31  1  0.67690000  0.04760000  0.00960000  1.0 -0.1899947754
B  B32  1  0.76180000  0.09260000  0.99570000  1.0 -0.2108410398
B  B33  1  0.85710000  0.07250000  0.05270000  1.0 -0.1809644258
B  B34  1  0.83240000  0.01510000  0.10170000  1.0 -0.2400876804
B  B35  1  0.72150000  0.99980000  0.07590000  1.0 -0.2001774503
B  B36  1  0.72570000  0.02230000  0.95320000  1.0 -0.2193449382
B  B37  1  0.83740000  0.03790000  0.97940000  1.0 -0.2108410398
B  B38  1  0.87940000  0.99080000  0.04470000  1.0 -0.2193449382
B  B39  1  0.79400000  0.94620000  0.05910000  1.0 -0.2331846499
B  B40  1  0.79710000  0.96080000  0.98390000  1.0 -0.1809644258
H  H1  1  0.61100000  0.43410000  0.49810000  1.0 0.0507226158
H  H2  1  0.75120000  0.35960000  0.47560000  1.0 0.0126780699
H  H3  1  0.90790000  0.39210000  0.56940000  1.0 -0.0100250668
H  H4  1  0.86770000  0.48700000  0.65010000  1.0 0.0126780699
H  H5  1  0.68390000  0.51270000  0.60780000  1.0 0.0126780699
H  H6  1  0.69120000  0.47630000  0.40460000  1.0 0.0126780699
H  H7  1  0.87590000  0.44990000  0.44810000  1.0 0.0372087102
H  H8  1  0.94520000  0.52770000  0.55570000  1.0 0.0802719792
H  H9  1  0.80320000  0.60160000  0.57920000  1.0 -0.0100250668
H  H10  1  0.80860000  0.57810000  0.45490000  1.0 -0.0100250668
H  H11  1  0.69660000  0.39210000  0.62710000  1.0 0.1584808336
H  H12  1  0.84610000  0.35380000  0.65390000  1.0 0.2610187498
H  H13  1  0.81630000  0.26980000  0.58760000  1.0 0.1505850768
H  H14  1  0.75920000  0.17920000  0.53500000  1.0 0.1015315583
H  H15  1  0.52680000  0.24560000  0.51240000  1.0 0.1134796037
H  H16  1  0.58160000  0.33570000  0.56520000  1.0 0.1505850768
H  H17  1  0.58420000  0.56040000  0.50220000  1.0 0.1505850768
H  H18  1  0.68820000  0.65080000  0.50560000  1.0 0.2783755765
H  H19  1  0.42280000  0.54300000  0.31260000  1.0 0.1407894911
H  H20  1  0.48110000  0.53490000  0.41470000  1.0 0.2075167053
H  H21  1  0.80550000  0.21680000  0.43120000  1.0 0.1208108191
H  H22  1  0.91560000  0.27430000  0.41130000  1.0 0.1407894911
H  H23  1  0.81450000  0.24690000  0.23260000  1.0 0.1208108191
H  H24  1  0.70450000  0.19030000  0.25200000  1.0 0.1288896524
H  H25  1  0.84270000  0.41240000  0.32300000  1.0 0.190313089
H  H26  1  0.71770000  0.46840000  0.28700000  1.0 0.1505850768
H  H27  1  0.70630000  0.40910000  0.11820000  1.0 0.1134796037
H  H28  1  0.83590000  0.35950000  0.15420000  1.0 0.1208108191
H  H29  1  0.99650000  0.40490000  0.21630000  1.0 0.1407894911
H  H30  1  0.09430000  0.36190000  0.14980000  1.0 0.1208108191
H  H31  1  0.20200000  0.40350000  0.11190000  1.0 0.1134796037
H  H32  1  0.34280000  0.43770000  0.28150000  1.0 0.1208108191
H  H33  1  0.24090000  0.39020000  0.31930000  1.0 0.1505850768
H  H34  1  0.18300000  0.23590000  0.23820000  1.0 0.1288896524
H  H35  1  0.31170000  0.18580000  0.26070000  1.0 0.1288896524
H  H36  1  0.34890000  0.22760000  0.43650000  1.0 0.1288896524
H  H37  1  0.21650000  0.27420000  0.41430000  1.0 0.1288896524
H  H38  1  0.04350000  0.24080000  0.35500000  1.0 0.1407894911
H  H39  1  0.62300000  0.62540000  0.29230000  1.0 0.1208108191
H  H40  1  0.68140000  0.63050000  0.39300000  1.0 0.17522842
H  H41  1  0.80100000  0.36160000  0.63600000  1.0 0.1505850768
H  H42  1  0.65850000  0.39710000  0.63700000  1.0 0.2610187498
H  H43  1  0.65290000  0.62060000  0.49800000  1.0 0.1407894911
H  H44  1  0.57890000  0.59030000  0.54420000  1.0 0.269944209
H  H45  1  0.38900000  0.93410000  0.00190000  1.0 0.0507226158
H  H46  1  0.24880000  0.85960000  0.02440000  1.0 0.0126780699
H  H47  1  0.09210000  0.89210000  0.93060000  1.0 -0.0100250668
H  H48  1  0.13230000  0.98700000  0.84990000  1.0 0.0126780699
H  H49  1  0.31610000  0.01270000  0.89220000  1.0 0.0126780699
H  H50  1  0.30880000  0.97630000  0.09540000  1.0 0.0126780699
H  H51  1  0.12410000  0.94990000  0.05190000  1.0 0.0372087102
H  H52  1  0.05480000  0.02770000  0.94430000  1.0 0.0802719792
H  H53  1  0.19680000  0.10160000  0.92080000  1.0 -0.0100250668
H  H54  1  0.19140000  0.07810000  0.04510000  1.0 -0.0100250668
H  H55  1  0.30340000  0.89210000  0.87290000  1.0 0.1584808336
H  H56  1  0.15390000  0.85380000  0.84610000  1.0 0.2610187498
H  H57  1  0.18370000  0.76980000  0.91240000  1.0 0.1505850768
H  H58  1  0.24080000  0.67920000  0.96500000  1.0 0.1015315583
H  H59  1  0.47320000  0.74560000  0.98760000  1.0 0.1134796037
H  H60  1  0.41840000  0.83570000  0.93480000  1.0 0.1505850768
H  H61  1  0.41580000  0.06040000  0.99780000  1.0 0.1505850768
H  H62  1  0.31180000  0.15080000  0.99440000  1.0 0.2783755765
H  H63  1  0.57720000  0.04300000  0.18740000  1.0 0.1407894911
H  H64  1  0.51890000  0.03490000  0.08530000  1.0 0.2075167053
H  H65  1  0.19450000  0.71680000  0.06880000  1.0 0.1208108191
H  H66  1  0.08440000  0.77430000  0.08870000  1.0 0.1407894911
H  H67  1  0.18550000  0.74690000  0.26740000  1.0 0.1208108191
H  H68  1  0.29550000  0.69030000  0.24800000  1.0 0.1288896524
H  H69  1  0.15730000  0.91240000  0.17700000  1.0 0.190313089
H  H70  1  0.28230000  0.96840000  0.21300000  1.0 0.1505850768
H  H71  1  0.29370000  0.90910000  0.38180000  1.0 0.1134796037
H  H72  1  0.16410000  0.85950000  0.34580000  1.0 0.1208108191
H  H73  1  0.00350000  0.90490000  0.28370000  1.0 0.1407894911
H  H74  1  0.90570000  0.86190000  0.35020000  1.0 0.1208108191
H  H75  1  0.79800000  0.90350000  0.38810000  1.0 0.1134796037
H  H76  1  0.65720000  0.93770000  0.21850000  1.0 0.1208108191
H  H77  1  0.75910000  0.89020000  0.18070000  1.0 0.1584808336
H  H78  1  0.81700000  0.73590000  0.26180000  1.0 0.1288896524
H  H79  1  0.68830000  0.68580000  0.23930000  1.0 0.1288896524
H  H80  1  0.65110000  0.72760000  0.06350000  1.0 0.1288896524
H  H81  1  0.78350000  0.77420000  0.08570000  1.0 0.1288896524
H  H82  1  0.95650000  0.74080000  0.14500000  1.0 0.1407894911
H  H83  1  0.37700000  0.12540000  0.20770000  1.0 0.1208108191
H  H84  1  0.31860000  0.13050000  0.10700000  1.0 0.17522842
H  H85  1  0.19900000  0.86160000  0.86400000  1.0 0.1505850768
H  H86  1  0.34150000  0.89710000  0.86300000  1.0 0.2610187498
H  H87  1  0.34710000  0.12060000  0.00200000  1.0 0.1407894911
H  H88  1  0.42110000  0.09030000  0.95580000  1.0 0.269944209
H  H89  1  0.38900000  0.56590000  0.50190000  1.0 0.0507226158
H  H90  1  0.24880000  0.64040000  0.52440000  1.0 0.0126780699
H  H91  1  0.09210000  0.60790000  0.43060000  1.0 -0.0100250668
H  H92  1  0.13230000  0.51300000  0.34990000  1.0 0.0126780699
H  H93  1  0.31610000  0.48730000  0.39220000  1.0 0.0126780699
H  H94  1  0.30880000  0.52370000  0.59540000  1.0 0.0126780699
H  H95  1  0.12410000  0.55010000  0.55190000  1.0 0.0372087102
H  H96  1  0.05480000  0.47230000  0.44430000  1.0 0.0802719792
H  H97  1  0.19680000  0.39840000  0.42080000  1.0 -0.0100250668
H  H98  1  0.19140000  0.42190000  0.54510000  1.0 -0.0100250668
H  H99  1  0.30340000  0.60790000  0.37290000  1.0 0.1584808336
H  H100  1  0.15390000  0.64620000  0.34610000  1.0 0.2610187498
H  H101  1  0.18370000  0.73020000  0.41240000  1.0 0.1505850768
H  H102  1  0.24080000  0.82080000  0.46500000  1.0 0.1015315583
H  H103  1  0.47320000  0.75440000  0.48760000  1.0 0.1134796037
H  H104  1  0.41840000  0.66430000  0.43480000  1.0 0.1505850768
H  H105  1  0.41580000  0.43960000  0.49780000  1.0 0.1505850768
H  H106  1  0.31180000  0.34920000  0.49440000  1.0 0.2783755765
H  H107  1  0.57720000  0.45700000  0.68740000  1.0 0.1407894911
H  H108  1  0.51890000  0.46510000  0.58530000  1.0 0.2075167053
H  H109  1  0.19450000  0.78320000  0.56880000  1.0 0.1208108191
H  H110  1  0.08440000  0.72570000  0.58870000  1.0 0.1407894911
H  H111  1  0.18550000  0.75310000  0.76740000  1.0 0.1208108191
H  H112  1  0.29550000  0.80970000  0.74800000  1.0 0.1288896524
H  H113  1  0.15730000  0.58760000  0.67700000  1.0 0.190313089
H  H114  1  0.28230000  0.53160000  0.71300000  1.0 0.1505850768
H  H115  1  0.29370000  0.59090000  0.88180000  1.0 0.1134796037
H  H116  1  0.16410000  0.64050000  0.84580000  1.0 0.1208108191
H  H117  1  0.00350000  0.59510000  0.78370000  1.0 0.1407894911
H  H118  1  0.90570000  0.63810000  0.85020000  1.0 0.1208108191
H  H119  1  0.79800000  0.59650000  0.88810000  1.0 0.1134796037
H  H120  1  0.65720000  0.56230000  0.71850000  1.0 0.1208108191
H  H121  1  0.75910000  0.60980000  0.68070000  1.0 0.1584808336
H  H122  1  0.81700000  0.76410000  0.76180000  1.0 0.1288896524
H  H123  1  0.68830000  0.81420000  0.73930000  1.0 0.1288896524
H  H124  1  0.65110000  0.77240000  0.56350000  1.0 0.1288896524
H  H125  1  0.78350000  0.72580000  0.58570000  1.0 0.1288896524
H  H126  1  0.95650000  0.75920000  0.64500000  1.0 0.1407894911
H  H127  1  0.37700000  0.37460000  0.70770000  1.0 0.1208108191
H  H128  1  0.31860000  0.36950000  0.60700000  1.0 0.17522842
H  H129  1  0.19900000  0.63840000  0.36400000  1.0 0.1505850768
H  H130  1  0.34150000  0.60290000  0.36300000  1.0 0.2610187498
H  H131  1  0.34710000  0.37940000  0.50200000  1.0 0.1407894911
H  H132  1  0.42110000  0.40970000  0.45580000  1.0 0.269944209
H  H133  1  0.61100000  0.06590000  0.99810000  1.0 0.0507226158
H  H134  1  0.75120000  0.14040000  0.97560000  1.0 0.0126780699
H  H135  1  0.90790000  0.10790000  0.06940000  1.0 -0.0100250668
H  H136  1  0.86770000  0.01300000  0.15010000  1.0 0.0126780699
H  H137  1  0.68390000  0.98730000  0.10780000  1.0 0.0126780699
H  H138  1  0.69120000  0.02370000  0.90460000  1.0 0.0126780699
H  H139  1  0.87590000  0.05010000  0.94810000  1.0 0.0372087102
H  H140  1  0.94520000  0.97230000  0.05570000  1.0 0.0802719792
H  H141  1  0.80320000  0.89840000  0.07920000  1.0 -0.0100250668
H  H142  1  0.80860000  0.92190000  0.95490000  1.0 -0.0100250668
H  H143  1  0.69660000  0.10790000  0.12710000  1.0 0.1584808336
H  H144  1  0.84610000  0.14620000  0.15390000  1.0 0.269944209
H  H145  1  0.81630000  0.23020000  0.08760000  1.0 0.1505850768
H  H146  1  0.75920000  0.32080000  0.03500000  1.0 0.1015315583
H  H147  1  0.52680000  0.25440000  0.01240000  1.0 0.1134796037
H  H148  1  0.58160000  0.16430000  0.06520000  1.0 0.1505850768
H  H149  1  0.58420000  0.93960000  0.00220000  1.0 0.1505850768
H  H150  1  0.68820000  0.84920000  0.00560000  1.0 0.2783755765
H  H151  1  0.42280000  0.95700000  0.81260000  1.0 0.1407894911
H  H152  1  0.48110000  0.96510000  0.91470000  1.0 0.2075167053
H  H153  1  0.80550000  0.28320000  0.93120000  1.0 0.1208108191
H  H154  1  0.91560000  0.22570000  0.91130000  1.0 0.1407894911
H  H155  1  0.81450000  0.25310000  0.73260000  1.0 0.1208108191
H  H156  1  0.70450000  0.30970000  0.75200000  1.0 0.1288896524
H  H157  1  0.84270000  0.08760000  0.82300000  1.0 0.190313089
H  H158  1  0.71770000  0.03160000  0.78700000  1.0 0.1505850768
H  H159  1  0.70630000  0.09090000  0.61820000  1.0 0.1134796037
H  H160  1  0.83590000  0.14050000  0.65420000  1.0 0.1208108191
H  H161  1  0.99650000  0.09510000  0.71630000  1.0 0.1407894911
H  H162  1  0.09430000  0.13810000  0.64980000  1.0 0.1208108191
H  H163  1  0.20200000  0.09650000  0.61190000  1.0 0.1134796037
H  H164  1  0.34280000  0.06230000  0.78150000  1.0 0.1208108191
H  H165  1  0.24090000  0.10980000  0.81930000  1.0 0.1505850768
H  H166  1  0.18300000  0.26410000  0.73820000  1.0 0.1288896524
H  H167  1  0.31170000  0.31420000  0.76070000  1.0 0.1288896524
H  H168  1  0.34890000  0.27240000  0.93650000  1.0 0.1208108191
H  H169  1  0.21650000  0.22580000  0.91430000  1.0 0.1288896524
H  H170  1  0.04350000  0.25920000  0.85500000  1.0 0.1407894911
H  H171  1  0.62300000  0.87460000  0.79230000  1.0 0.1208108191
H  H172  1  0.68140000  0.86950000  0.89300000  1.0 0.17522842
H  H173  1  0.80100000  0.13840000  0.13600000  1.0 0.1505850768
H  H174  1  0.65850000  0.10290000  0.13700000  1.0 0.2610187498
H  H175  1  0.65290000  0.87940000  0.99800000  1.0 0.1407894911
H  H176  1  0.57890000  0.90970000  0.04420000  1.0 0.269944209
C  C1  1  0.75930000  0.42580000  0.56930000  1.0 -0.1098020207
C  C2  1  0.70430000  0.53060000  0.50401000  1.0 -0.0965250141
C  C3  1  0.74340000  0.37440000  0.61270000  1.0 0.2075167053
C  C4  1  0.70490000  0.31380000  0.57980000  1.0 0.0272814414
C  C5  1  0.75740000  0.26600000  0.57190000  1.0 -0.1592921844
C  C6  1  0.72250000  0.21130000  0.54030000  1.0 0.1015315583
C  C7  1  0.58580000  0.25020000  0.52700000  1.0 0.1015315583
C  C8  1  0.61880000  0.30460000  0.55850000  1.0 -0.1592921844
C  C9  1  0.62880000  0.57840000  0.48560000  1.0 0.1584808336
C  C10  1  0.58860000  0.58160000  0.41720000  1.0 0.0693899741
C  C11  1  0.47770000  0.55890000  0.32890000  1.0 0.0621173459
C  C12  1  0.51130000  0.55530000  0.39090000  1.0 -0.1592921844
C  C13  1  0.67360000  0.15670000  0.35540000  1.0 0.5914073766
C  C14  1  0.74310000  0.19623000  0.34350000  1.0 -0.0292493162
C  C15  1  0.80730000  0.22250000  0.39120000  1.0 -0.069374434
C  C16  1  0.87370000  0.25700000  0.37900000  1.0 -0.1288920871
C  C17  1  0.87880000  0.26636000  0.32010000  1.0 0.0621173459
C  C18  1  0.81330000  0.24080000  0.27270000  1.0 -0.1393177134
C  C19  1  0.74710000  0.20670000  0.28430000  1.0 -0.0900347492
C  C20  1  0.95150000  0.29860000  0.30632000  1.0 0.0372087102
C  C21  1  0.93770000  0.34920000  0.26463000  1.0 0.0372087102
C  C22  1  0.85260000  0.38085000  0.24230000  1.0 0.0507226158
C  C23  1  0.81600000  0.41300000  0.28140000  1.0 -0.1098020207
C  C24  1  0.74060000  0.44600000  0.26000000  1.0 -0.069374434
C  C25  1  0.69880000  0.44600000  0.19880000  1.0 -0.0218083003
C  C26  1  0.73470000  0.41130000  0.15940000  1.0 -0.0900347492
C  C27  1  0.81150000  0.38060000  0.18110000  1.0 -0.1519160575
C  C28  1  0.61810000  0.48260000  0.17344000  1.0 0.5509546505
C  C29  1  0.00600000  0.37140000  0.24390000  1.0 -0.1592921844
C  C30  1  0.08820000  0.34490000  0.26320000  1.0 0.0272814414
C  C31  1  0.15630000  0.37170000  0.23910000  1.0 0.0693899741
C  C32  1  0.14490000  0.37620000  0.17650000  1.0 -0.1393177134
C  C33  1  0.20900000  0.40220000  0.15370000  1.0 -0.0900347492
C  C34  1  0.28280000  0.42600000  0.19320000  1.0 0.0005109889
C  C35  1  0.29340000  0.42170000  0.25480000  1.0 -0.069374434
C  C36  1  0.23170000  0.39400000  0.27750000  1.0 -0.0783630847
C  C37  1  0.34670000  0.46130000  0.16810000  1.0 0.5509546505
C  C38  1  0.10260000  0.29579000  0.30629000  1.0 0.0507226158
C  C39  1  0.18620000  0.26200000  0.32380000  1.0 0.0802719792
C  C40  1  0.21620000  0.23420000  0.27830000  1.0 -0.1393177134
C  C41  1  0.29340000  0.20460000  0.29180000  1.0 -0.0900347492
C  C42  1  0.34570000  0.20200000  0.35113000  1.0 -0.0218083003
C  C43  1  0.31540000  0.22892000  0.39630000  1.0 -0.0900347492
C  C44  1  0.23640000  0.25760000  0.38300000  1.0 -0.1098020207
C  C45  1  0.43120000  0.17012000  0.36430000  1.0 0.5914073766
C  C46  1  0.03380000  0.27360000  0.32665000  1.0 -0.1519160575
C  C47  1  0.59260000  0.60790000  0.31750000  1.0 0.0693899741
C  C48  1  0.62920000  0.61010000  0.37780000  1.0 -0.1393177134
C  C49  1  0.24070000  0.92580000  0.93070000  1.0 -0.1098020207
C  C50  1  0.29570000  0.03060000  0.99599000  1.0 -0.0965250141
C  C51  1  0.25660000  0.87440000  0.88730000  1.0 0.2075167053
C  C52  1  0.29510000  0.81380000  0.92020000  1.0 0.0243913283
C  C53  1  0.24260000  0.76600000  0.92810000  1.0 -0.1592921844
C  C54  1  0.27750000  0.71130000  0.95970000  1.0 0.1015315583
C  C55  1  0.41420000  0.75020000  0.97300000  1.0 0.1015315583
C  C56  1  0.38120000  0.80460000  0.94150000  1.0 -0.1592921844
C  C57  1  0.37120000  0.07840000  0.01440000  1.0 0.1584808336
C  C58  1  0.41140000  0.08160000  0.08280000  1.0 0.0693899741
C  C59  1  0.52230000  0.05890000  0.17110000  1.0 0.0621173459
C  C60  1  0.48870000  0.05530000  0.10910000  1.0 -0.1592921844
C  C61  1  0.32640000  0.65670000  0.14460000  1.0 0.5914073766
C  C62  1  0.25690000  0.69623000  0.15650000  1.0 -0.0292493162
C  C63  1  0.19270000  0.72250000  0.10880000  1.0 -0.069374434
C  C64  1  0.12630000  0.75700000  0.12100000  1.0 -0.1288920871
C  C65  1  0.12120000  0.76636000  0.17990000  1.0 0.0621173459
C  C66  1  0.18670000  0.74080000  0.22730000  1.0 -0.1393177134
C  C67  1  0.25290000  0.70670000  0.21570000  1.0 -0.0783630847
C  C68  1  0.04850000  0.79860000  0.19368000  1.0 0.0372087102
C  C69  1  0.06230000  0.84920000  0.23537000  1.0 0.0372087102
C  C70  1  0.14740000  0.88085000  0.25770000  1.0 0.0507226158
C  C71  1  0.18400000  0.91300000  0.21860000  1.0 -0.1098020207
C  C72  1  0.25940000  0.94600000  0.24000000  1.0 -0.069374434
C  C73  1  0.30120000  0.94600000  0.30120000  1.0 -0.0218083003
C  C74  1  0.26530000  0.91130000  0.34060000  1.0 -0.0900347492
C  C75  1  0.18850000  0.88060000  0.31890000  1.0 -0.1519160575
C  C76  1  0.38190000  0.98260000  0.32656000  1.0 0.5509546505
C  C77  1  0.99400000  0.87140000  0.25610000  1.0 -0.1592921844
C  C78  1  0.91180000  0.84490000  0.23680000  1.0 0.0272814414
C  C79  1  0.84370000  0.87170000  0.26090000  1.0 0.0693899741
C  C80  1  0.85510000  0.87620000  0.32350000  1.0 -0.1393177134
C  C81  1  0.79100000  0.90220000  0.34630000  1.0 -0.0900347492
C  C82  1  0.71720000  0.92600000  0.30680000  1.0 0.0005109889
C  C83  1  0.70660000  0.92170000  0.24520000  1.0 -0.069374434
C  C84  1  0.76830000  0.89400000  0.22250000  1.0 -0.0783630847
C  C85  1  0.65330000  0.96130000  0.33190000  1.0 0.5509546505
C  C86  1  0.89740000  0.79579000  0.19371000  1.0 0.0507226158
C  C87  1  0.81380000  0.76200000  0.17620000  1.0 0.0802719792
C  C88  1  0.78380000  0.73420000  0.22170000  1.0 -0.1393177134
C  C89  1  0.70660000  0.70460000  0.20820000  1.0 -0.0900347492
C  C90  1  0.65430000  0.70200000  0.14887000  1.0 -0.0218083003
C  C91  1  0.68460000  0.72892000  0.10370000  1.0 -0.0900347492
C  C92  1  0.76360000  0.75760000  0.11700000  1.0 -0.1098020207
C  C93  1  0.56880000  0.67012000  0.13570000  1.0 0.5914073766
C  C94  1  0.96620000  0.77360000  0.17335000  1.0 -0.1519160575
C  C95  1  0.40740000  0.10790000  0.18250000  1.0 0.0693899741
C  C96  1  0.37080000  0.11010000  0.12220000  1.0 -0.1393177134
C  C97  1  0.24070000  0.57420000  0.43070000  1.0 -0.1098020207
C  C98  1  0.29570000  0.46940000  0.49599000  1.0 -0.0965250141
C  C99  1  0.25660000  0.62560000  0.38730000  1.0 0.2075167053
C  C100  1  0.29510000  0.68620000  0.42020000  1.0 0.0243913283
C  C101  1  0.24260000  0.73400000  0.42810000  1.0 -0.1592921844
C  C102  1  0.27750000  0.78870000  0.45970000  1.0 0.1015315583
C  C103  1  0.41420000  0.74980000  0.47300000  1.0 0.1015315583
C  C104  1  0.38120000  0.69540000  0.44150000  1.0 -0.1592921844
C  C105  1  0.37120000  0.42160000  0.51440000  1.0 0.1584808336
C  C106  1  0.41140000  0.41840000  0.58280000  1.0 0.0693899741
C  C107  1  0.52230000  0.44110000  0.67110000  1.0 0.0621173459
C  C108  1  0.48870000  0.44470000  0.60910000  1.0 -0.1592921844
C  C109  1  0.32640000  0.84330000  0.64460000  1.0 0.5914073766
C  C110  1  0.25690000  0.80377000  0.65650000  1.0 -0.0292493162
C  C111  1  0.19270000  0.77750000  0.60880000  1.0 -0.069374434
C  C112  1  0.12630000  0.74300000  0.62100000  1.0 -0.1288920871
C  C113  1  0.12120000  0.73364000  0.67990000  1.0 0.0621173459
C  C114  1  0.18670000  0.75920000  0.72730000  1.0 -0.1393177134
C  C115  1  0.25290000  0.79330000  0.71570000  1.0 -0.0900347492
C  C116  1  0.04850000  0.70140000  0.69368000  1.0 0.0372087102
C  C117  1  0.06230000  0.65080000  0.73537000  1.0 0.0372087102
C  C118  1  0.14740000  0.61915000  0.75770000  1.0 0.0507226158
C  C119  1  0.18400000  0.58700000  0.71860000  1.0 -0.1098020207
C  C120  1  0.25940000  0.55400000  0.74000000  1.0 -0.069374434
C  C121  1  0.30120000  0.55400000  0.80120000  1.0 -0.0218083003
C  C122  1  0.26530000  0.58870000  0.84060000  1.0 -0.0900347492
C  C123  1  0.18850000  0.61940000  0.81890000  1.0 -0.1519160575
C  C124  1  0.38190000  0.51740000  0.82656000  1.0 0.5509546505
C  C125  1  0.99400000  0.62860000  0.75610000  1.0 -0.1592921844
C  C126  1  0.91180000  0.65510000  0.73680000  1.0 0.0272814414
C  C127  1  0.84370000  0.62830000  0.76090000  1.0 0.0693899741
C  C128  1  0.85510000  0.62380000  0.82350000  1.0 -0.1393177134
C  C129  1  0.79100000  0.59780000  0.84630000  1.0 -0.0900347492
C  C130  1  0.71720000  0.57400000  0.80680000  1.0 0.0005109889
C  C131  1  0.70660000  0.57830000  0.74520000  1.0 -0.069374434
C  C132  1  0.76830000  0.60600000  0.72250000  1.0 -0.0783630847
C  C133  1  0.65330000  0.53870000  0.83190000  1.0 0.5509546505
C  C134  1  0.89740000  0.70421000  0.69371000  1.0 0.0507226158
C  C135  1  0.81380000  0.73800000  0.67620000  1.0 0.0802719792
C  C136  1  0.78380000  0.76580000  0.72170000  1.0 -0.1393177134
C  C137  1  0.70660000  0.79540000  0.70820000  1.0 -0.0900347492
C  C138  1  0.65430000  0.79800000  0.64887000  1.0 -0.0218083003
C  C139  1  0.68460000  0.77108000  0.60370000  1.0 -0.0900347492
C  C140  1  0.76360000  0.74240000  0.61700000  1.0 -0.1098020207
C  C141  1  0.56880000  0.82988000  0.63570000  1.0 0.5914073766
C  C142  1  0.96620000  0.72640000  0.67335000  1.0 -0.1519160575
C  C143  1  0.40740000  0.39210000  0.68250000  1.0 0.0693899741
C  C144  1  0.37080000  0.38990000  0.62220000  1.0 -0.1393177134
C  C145  1  0.75930000  0.07420000  0.06930000  1.0 -0.1098020207
C  C146  1  0.70430000  0.96940000  0.00401000  1.0 -0.0965250141
C  C147  1  0.74340000  0.12560000  0.11270000  1.0 0.2048027845
C  C148  1  0.70490000  0.18620000  0.07980000  1.0 0.0272814414
C  C149  1  0.75740000  0.23400000  0.07190000  1.0 -0.1592921844
C  C150  1  0.72250000  0.28870000  0.04030000  1.0 0.1015315583
C  C151  1  0.58580000  0.24980000  0.02700000  1.0 0.1015315583
C  C152  1  0.61880000  0.19540000  0.05850000  1.0 -0.1592921844
C  C153  1  0.62880000  0.92160000  0.98560000  1.0 0.1584808336
C  C154  1  0.58860000  0.91840000  0.91720000  1.0 0.0693899741
C  C155  1  0.47770000  0.94110000  0.82890000  1.0 0.0621173459
C  C156  1  0.51130000  0.94470000  0.89090000  1.0 -0.1592921844
C  C157  1  0.67360000  0.34330000  0.85540000  1.0 0.5914073766
C  C158  1  0.74310000  0.30377000  0.84350000  1.0 -0.0292493162
C  C159  1  0.80730000  0.27750000  0.89120000  1.0 -0.069374434
C  C160  1  0.87370000  0.24300000  0.87900000  1.0 -0.1288920871
C  C161  1  0.87880000  0.23364000  0.82010000  1.0 0.0621173459
C  C162  1  0.81330000  0.25920000  0.77270000  1.0 -0.1393177134
C  C163  1  0.74710000  0.29330000  0.78430000  1.0 -0.0900347492
C  C164  1  0.95150000  0.20140000  0.80632000  1.0 0.0372087102
C  C165  1  0.93770000  0.15080000  0.76463000  1.0 0.0372087102
C  C166  1  0.85260000  0.11915000  0.74230000  1.0 0.0507226158
C  C167  1  0.81600000  0.08700000  0.78140000  1.0 -0.1098020207
C  C168  1  0.74060000  0.05400000  0.76000000  1.0 -0.069374434
C  C169  1  0.69880000  0.05400000  0.69880000  1.0 -0.0218083003
C  C170  1  0.73470000  0.08870000  0.65940000  1.0 -0.0900347492
C  C171  1  0.81150000  0.11940000  0.68110000  1.0 -0.1519160575
C  C172  1  0.61810000  0.01740000  0.67344000  1.0 0.5509546505
C  C173  1  0.00600000  0.12860000  0.74390000  1.0 -0.1592921844
C  C174  1  0.08820000  0.15510000  0.76320000  1.0 0.0272814414
C  C175  1  0.15630000  0.12830000  0.73910000  1.0 0.0693899741
C  C176  1  0.14490000  0.12380000  0.67650000  1.0 -0.1393177134
C  C177  1  0.20900000  0.09780000  0.65370000  1.0 -0.0900347492
C  C178  1  0.28280000  0.07400000  0.69320000  1.0 -0.0006170493
C  C179  1  0.29340000  0.07830000  0.75480000  1.0 -0.069374434
C  C180  1  0.23170000  0.10600000  0.77750000  1.0 -0.0783630847
C  C181  1  0.34670000  0.03870000  0.66810000  1.0 0.5509546505
C  C182  1  0.10260000  0.20421000  0.80629000  1.0 0.0507226158
C  C183  1  0.18620000  0.23800000  0.82380000  1.0 0.0802719792
C  C184  1  0.21620000  0.26580000  0.77830000  1.0 -0.1393177134
C  C185  1  0.29340000  0.29540000  0.79180000  1.0 -0.0900347492
C  C186  1  0.34570000  0.29800000  0.85113000  1.0 -0.0218083003
C  C187  1  0.31540000  0.27108000  0.89630000  1.0 -0.0900347492
C  C188  1  0.23640000  0.24240000  0.88300000  1.0 -0.1098020207
C  C189  1  0.43120000  0.32988000  0.86430000  1.0 0.5914073766
C  C190  1  0.03380000  0.22640000  0.82665000  1.0 -0.1519160575
C  C191  1  0.59260000  0.89210000  0.81750000  1.0 0.0693899741
C  C192  1  0.62920000  0.88990000  0.87780000  1.0 -0.1393177134
N  N1  1  0.63730000  0.20337000  0.51711000  1.0 -0.2781837104
N  N2  1  0.51670000  0.58275000  0.29088000  1.0 -0.2400876804
N  N3  1  0.36270000  0.70337000  0.98289000  1.0 -0.2781837104
N  N4  1  0.48330000  0.08275000  0.20912000  1.0 -0.2400876804
N  N5  1  0.36270000  0.79663000  0.48289000  1.0 -0.2781837104
N  N6  1  0.48330000  0.41725000  0.70912000  1.0 -0.2400876804
N  N7  1  0.63730000  0.29663000  0.01711000  1.0 -0.2781837104
N  N8  1  0.51670000  0.91725000  0.79088000  1.0 -0.2400876804
O  O1  1  0.55364000  0.04531000  0.40152000  1.0 -0.428912115
O  O2  1  0.80100000  0.36190000  0.66180000  1.0 -0.2400876804
O  O3  1  0.64260000  0.63720000  0.50950000  1.0 -0.3000036447
O  O4  1  0.66620000  0.15905000  0.40938000  1.0 -0.5423505424
O  O5  1  0.62890000  0.12490000  0.31299000  1.0 -0.5002785592
O  O6  1  0.58510000  0.50976000  0.21036000  1.0 -0.5155999779
O  O7  1  0.58710000  0.48506000  0.11603000  1.0 -0.4422778382
O  O8  1  0.34080000  0.45817000  0.11213000  1.0 -0.4217708825
O  O9  1  0.40270000  0.49207000  0.20678000  1.0 -0.5129392414
O  O10  1  0.44950000  0.14378000  0.31994000  1.0 -0.52794784
O  O11  1  0.47818000  0.17131000  0.41804000  1.0 -0.52794784
O  O12  1  0.71040000  0.39420000  0.65160000  1.0 -0.2193449382
O  O13  1  0.56790000  0.56990000  0.51240000  1.0 -0.2878759845
O  O14  1  0.44636000  0.54531000  0.09848000  1.0 -0.4217708825
O  O15  1  0.19900000  0.86190000  0.83820000  1.0 -0.2400876804
O  O16  1  0.35740000  0.13720000  0.99050000  1.0 -0.3000036447
O  O17  1  0.33380000  0.65905000  0.09062000  1.0 -0.5423505424
O  O18  1  0.37110000  0.62490000  0.18701000  1.0 -0.5002785592
O  O19  1  0.41490000  0.00976000  0.28964000  1.0 -0.5155999779
O  O20  1  0.41290000  0.98506000  0.38397000  1.0 -0.4422778382
O  O21  1  0.65920000  0.95817000  0.38787000  1.0 -0.4119360664
O  O22  1  0.59730000  0.99207000  0.29322000  1.0 -0.5129392414
O  O23  1  0.55050000  0.64378000  0.18006000  1.0 -0.52794784
O  O24  1  0.52182000  0.67131000  0.08196000  1.0 -0.52794784
O  O25  1  0.28960000  0.89420000  0.84840000  1.0 -0.2193449382
O  O26  1  0.43210000  0.06990000  0.98760000  1.0 -0.2878759845
O  O27  1  0.44636000  0.95469000  0.59848000  1.0 -0.4217708825
O  O28  1  0.19900000  0.63810000  0.33820000  1.0 -0.2400876804
O  O29  1  0.35740000  0.36280000  0.49050000  1.0 -0.3000036447
O  O30  1  0.33380000  0.84095000  0.59062000  1.0 -0.5423505424
O  O31  1  0.37110000  0.87510000  0.68701000  1.0 -0.5002785592
O  O32  1  0.41490000  0.49024000  0.78964000  1.0 -0.5155999779
O  O33  1  0.41290000  0.51494000  0.88397000  1.0 -0.4422778382
O  O34  1  0.65920000  0.54183000  0.88787000  1.0 -0.4119360664
O  O35  1  0.59730000  0.50793000  0.79322000  1.0 -0.5129392414
O  O36  1  0.55050000  0.85622000  0.68006000  1.0 -0.52794784
O  O37  1  0.52182000  0.82869000  0.58196000  1.0 -0.52794784
O  O38  1  0.28960000  0.60580000  0.34840000  1.0 -0.2193449382
O  O39  1  0.43210000  0.43010000  0.48760000  1.0 -0.2878759845
O  O40  1  0.55364000  0.45469000  0.90152000  1.0 -0.428912115
O  O41  1  0.80100000  0.13810000  0.16180000  1.0 -0.2400876804
O  O42  1  0.64260000  0.86280000  0.00950000  1.0 -0.3000036447
O  O43  1  0.66620000  0.34095000  0.90938000  1.0 -0.5423505424
O  O44  1  0.62890000  0.37510000  0.81299000  1.0 -0.5002785592
O  O45  1  0.58510000  0.99024000  0.71036000  1.0 -0.5155999779
O  O46  1  0.58710000  0.01494000  0.61603000  1.0 -0.4422778382
O  O47  1  0.34080000  0.04183000  0.61213000  1.0 -0.4119360664
O  O48  1  0.40270000  0.00793000  0.70678000  1.0 -0.5129392414
O  O49  1  0.44950000  0.35622000  0.81994000  1.0 -0.52794784
O  O50  1  0.47818000  0.32869000  0.91804000  1.0 -0.52794784
O  O51  1  0.71040000  0.10580000  0.15160000  1.0 -0.2193449382
O  O52  1  0.56790000  0.93010000  0.01240000  1.0 -0.2878759845
