# DDEC6 charges by PACMAN v1.1 (https://github.com/mtap-research/PACMAN-charge/)
data_OCINAS_FSR_pacman
_symmetry_space_group_name_H-M   'P 1'
_cell_length_a   11.63640000
_cell_length_b   15.58500000
_cell_length_c   18.82300000
_cell_angle_alpha   93.57700000
_cell_angle_beta   97.13100000
_cell_angle_gamma   89.72200000
_symmetry_Int_Tables_number   1
_chemical_formula_structural   Zn2B10H42C48N2O11
_chemical_formula_sum   'Zn4 B20 H84 C96 N4 O22'
_cell_volume   3380.59527359
_cell_formula_units_Z   2
loop_
 _symmetry_equiv_pos_site_id
 _symmetry_equiv_pos_as_xyz
  1  'x, y, z'
loop_
 _atom_site_type_symbol
 _atom_site_label
 _atom_site_symmetry_multiplicity
 _atom_site_fract_x
 _atom_site_fract_y
 _atom_site_fract_z
 _atom_site_occupancy
 _atom_site_charge
Zn  Zn1  1  0.54991000  0.74924000  0.07014000  1.0 0.8414991895
Zn  Zn2  1  0.57990000  0.75647000  0.22668000  1.0 0.8414991895
Zn  Zn3  1  0.45009000  0.25076000  0.92986000  1.0 0.8414991895
Zn  Zn4  1  0.42010000  0.24353000  0.77332000  1.0 0.8414991895
B  B1  1  0.45920000  0.75950000  0.61490000  1.0 -0.1595817352
B  B2  1  0.56400000  0.73070000  0.68620000  1.0 -0.1816401159
B  B3  1  0.51760000  0.63750000  0.72330000  1.0 -0.2329623638
B  B4  1  0.38200000  0.61290000  0.67820000  1.0 -0.202006509
B  B5  1  0.34360000  0.68900000  0.61150000  1.0 -0.1595817352
B  B6  1  0.61930000  0.62750000  0.66140000  1.0 -0.2109813443
B  B7  1  0.50350000  0.55480000  0.65570000  1.0 -0.2329623638
B  B8  1  0.39650000  0.58310000  0.58760000  1.0 -0.202006509
B  B9  1  0.44500000  0.67310000  0.54890000  1.0 -0.1595817352
B  B10  1  0.54370000  0.59470000  0.57600000  1.0 -0.168232133
B  B11  1  0.54080000  0.24050000  0.38510000  1.0 -0.1595817352
B  B12  1  0.43600000  0.26930000  0.31380000  1.0 -0.1816401159
B  B13  1  0.48240000  0.36250000  0.27670000  1.0 -0.2329623638
B  B14  1  0.61800000  0.38710000  0.32180000  1.0 -0.202006509
B  B15  1  0.65640000  0.31100000  0.38850000  1.0 -0.1595817352
B  B16  1  0.38070000  0.37250000  0.33860000  1.0 -0.2109813443
B  B17  1  0.49650000  0.44520000  0.34430000  1.0 -0.2329623638
B  B18  1  0.60350000  0.41690000  0.41240000  1.0 -0.202006509
B  B19  1  0.55500000  0.32690000  0.45110000  1.0 -0.1595817352
B  B20  1  0.45630000  0.40530000  0.42400000  1.0 -0.168232133
H  H1  1  0.44610000  0.82780000  0.60060000  1.0 -0.0295065207
H  H2  1  0.61880000  0.78060000  0.71970000  1.0 -0.0418442348
H  H3  1  0.54140000  0.62460000  0.78120000  1.0 0.0329532755
H  H4  1  0.31440000  0.58390000  0.70680000  1.0 -0.0295065207
H  H5  1  0.25270000  0.71080000  0.59590000  1.0 -0.0418442348
H  H6  1  0.71150000  0.60870000  0.67740000  1.0 -0.0100728843
H  H7  1  0.51790000  0.48600000  0.66820000  1.0 0.0502554985
H  H8  1  0.33910000  0.53330000  0.55580000  1.0 -0.0100728843
H  H9  1  0.42150000  0.68280000  0.49040000  1.0 -0.0192134743
H  H10  1  0.58670000  0.55430000  0.53570000  1.0 0.0429676535
H  H11  1  0.37500000  0.84310000  0.72970000  1.0 0.1508261894
H  H12  1  0.23600000  0.71080000  0.72330000  1.0 0.2859938541
H  H13  1  0.51380000  0.87770000  0.83200000  1.0 0.1403454309
H  H14  1  0.58190000  0.86160000  0.95080000  1.0 0.1231502319
H  H15  1  0.39890000  0.65110000  0.95500000  1.0 0.1288827626
H  H16  1  0.32420000  0.66220000  0.83450000  1.0 0.1508261894
H  H17  1  0.74670000  0.70670000  0.57550000  1.0 0.1005265904
H  H18  1  0.69640000  0.82360000  0.64230000  1.0 0.3404509971
H  H19  1  0.57100000  0.86150000  0.48240000  1.0 0.1925447682
H  H20  1  0.54010000  0.86420000  0.35940000  1.0 0.1288827626
H  H21  1  0.68600000  0.64020000  0.33600000  1.0 0.1588276351
H  H22  1  0.72350000  0.63390000  0.45880000  1.0 0.2592214743
H  H23  1  0.39860000  0.48850000  0.05580000  1.0 0.1288827626
H  H24  1  0.28260000  0.36740000  0.05720000  1.0 0.1288827626
H  H25  1  0.14510000  0.47430000  0.22910000  1.0 0.1403454309
H  H26  1  0.27060000  0.59010000  0.23290000  1.0 0.1403454309
H  H27  1  0.26460000  0.24860000  0.14560000  1.0 0.1588276351
H  H28  1  0.25390000  0.10830000  0.25730000  1.0 0.1288827626
H  H29  1  0.36960000  0.98560000  0.26240000  1.0 0.1403454309
H  H30  1  0.26820000  0.92850000  0.05190000  1.0 0.1231502319
H  H31  1  0.15090000  0.05030000  0.04740000  1.0 0.1288827626
H  H32  1  0.02310000  0.04230000  0.23180000  1.0 0.1288827626
H  H33  1  0.90160000  0.92610000  0.23460000  1.0 0.1403454309
H  H34  1  0.69300000  0.00970000  0.06440000  1.0 0.1288827626
H  H35  1  0.80930000  0.12980000  0.06650000  1.0 0.1288827626
H  H36  1  0.86620000  0.25830000  0.14570000  1.0 0.1288827626
H  H37  1  0.88010000  0.40070000  0.23810000  1.0 0.1508261894
H  H38  1  0.76700000  0.52220000  0.23790000  1.0 0.1588276351
H  H39  1  0.86010000  0.57570000  0.04550000  1.0 0.1288827626
H  H40  1  0.97840000  0.45490000  0.04780000  1.0 0.1288827626
H  H41  1  0.27730000  0.77260000  0.73630000  1.0 0.0502554985
H  H42  1  0.40080000  0.90700000  0.76480000  1.0 0.2808710336
H  H43  1  0.55390000  0.17220000  0.39940000  1.0 -0.0295065207
H  H44  1  0.38120000  0.21940000  0.28030000  1.0 -0.0418442348
H  H45  1  0.45860000  0.37540000  0.21880000  1.0 0.0329532755
H  H46  1  0.68560000  0.41610000  0.29320000  1.0 -0.0295065207
H  H47  1  0.74730000  0.28920000  0.40410000  1.0 -0.0418442348
H  H48  1  0.28850000  0.39130000  0.32260000  1.0 -0.0100728843
H  H49  1  0.48210000  0.51400000  0.33180000  1.0 0.0502554985
H  H50  1  0.66090000  0.46670000  0.44420000  1.0 -0.0100728843
H  H51  1  0.57850000  0.31720000  0.50960000  1.0 -0.0192134743
H  H52  1  0.41330000  0.44570000  0.46430000  1.0 0.0429676535
H  H53  1  0.62500000  0.15690000  0.27030000  1.0 0.1508261894
H  H54  1  0.76400000  0.28920000  0.27670000  1.0 0.2808710336
H  H55  1  0.48620000  0.12230000  0.16800000  1.0 0.1403454309
H  H56  1  0.41810000  0.13840000  0.04920000  1.0 0.1231502319
H  H57  1  0.60110000  0.34890000  0.04500000  1.0 0.1288827626
H  H58  1  0.67580000  0.33780000  0.16550000  1.0 0.1508261894
H  H59  1  0.25330000  0.29330000  0.42450000  1.0 0.1005265904
H  H60  1  0.30360000  0.17640000  0.35770000  1.0 0.3404509971
H  H61  1  0.42900000  0.13850000  0.51760000  1.0 0.1925447682
H  H62  1  0.45990000  0.13580000  0.64060000  1.0 0.1288827626
H  H63  1  0.31400000  0.35980000  0.66400000  1.0 0.1588276351
H  H64  1  0.27650000  0.36610000  0.54120000  1.0 0.2592214743
H  H65  1  0.60140000  0.51150000  0.94420000  1.0 0.1288827626
H  H66  1  0.71740000  0.63260000  0.94280000  1.0 0.1288827626
H  H67  1  0.85490000  0.52570000  0.77090000  1.0 0.1403454309
H  H68  1  0.72940000  0.40990000  0.76710000  1.0 0.1403454309
H  H69  1  0.73540000  0.75140000  0.85440000  1.0 0.1588276351
H  H70  1  0.74610000  0.89170000  0.74270000  1.0 0.1288827626
H  H71  1  0.63040000  0.01440000  0.73760000  1.0 0.1403454309
H  H72  1  0.73180000  0.07150000  0.94810000  1.0 0.1231502319
H  H73  1  0.84910000  0.94970000  0.95260000  1.0 0.1288827626
H  H74  1  0.97690000  0.95770000  0.76820000  1.0 0.1288827626
H  H75  1  0.09840000  0.07390000  0.76540000  1.0 0.1403454309
H  H76  1  0.30700000  0.99030000  0.93560000  1.0 0.1288827626
H  H77  1  0.19070000  0.87020000  0.93350000  1.0 0.1288827626
H  H78  1  0.13380000  0.74170000  0.85430000  1.0 0.1288827626
H  H79  1  0.11990000  0.59930000  0.76190000  1.0 0.1508261894
H  H80  1  0.23300000  0.47780000  0.76210000  1.0 0.1588276351
H  H81  1  0.13990000  0.42430000  0.95450000  1.0 0.1288827626
H  H82  1  0.02160000  0.54510000  0.95220000  1.0 0.1288827626
H  H83  1  0.72270000  0.22740000  0.26370000  1.0 0.0502554985
H  H84  1  0.59920000  0.09300000  0.23520000  1.0 0.2808710336
C  C1  1  0.42320000  0.71630000  0.69160000  1.0 -0.0418442348
C  C2  1  0.57370000  0.70020000  0.59750000  1.0 -0.0418442348
C  C3  1  0.36290000  0.78280000  0.74270000  1.0 0.1403454309
C  C4  1  0.41260000  0.77150000  0.82080000  1.0 0.1005265904
C  C5  1  0.48910000  0.83040000  0.85580000  1.0 -0.1816401159
C  C6  1  0.52970000  0.81970000  0.92640000  1.0 0.0804516753
C  C7  1  0.42340000  0.69710000  0.92960000  1.0 0.1005265904
C  C8  1  0.37800000  0.70370000  0.85770000  1.0 -0.1278963736
C  C9  1  0.67560000  0.74230000  0.56500000  1.0 0.1588276351
C  C10  1  0.64840000  0.74650000  0.48370000  1.0 0.1403454309
C  C11  1  0.59550000  0.81460000  0.45340000  1.0 -0.1204614987
C  C12  1  0.57720000  0.81530000  0.37950000  1.0 0.1005265904
C  C13  1  0.66180000  0.68640000  0.36600000  1.0 0.0893496402
C  C14  1  0.68360000  0.68210000  0.43920000  1.0 -0.113229998
C  C15  1  0.42110000  0.62880000  0.14530000  1.0 0.5910620639
C  C16  1  0.34490000  0.55200000  0.14410000  1.0 -0.0100728843
C  C17  1  0.34830000  0.48510000  0.09160000  1.0 -0.0556031646
C  C18  1  0.27800000  0.41380000  0.09190000  1.0 -0.1391374705
C  C19  1  0.20050000  0.40890000  0.14240000  1.0 0.0893496402
C  C20  1  0.19770000  0.47630000  0.19450000  1.0 -0.0810453253
C  C21  1  0.27090000  0.54580000  0.19590000  1.0 -0.0418442348
C  C22  1  0.12890000  0.33030000  0.14340000  1.0 0.0502554985
C  C23  1  0.18310000  0.25070000  0.14580000  1.0 -0.1204614987
C  C24  1  0.12400000  0.17400000  0.14850000  1.0 0.0429676535
C  C25  1  0.19160000  0.09280000  0.15140000  1.0 0.0893496402
C  C26  1  0.25700000  0.07200000  0.21510000  1.0 -0.1001305742
C  C27  1  0.32660000  0.99920000  0.21830000  1.0 -0.0556031646
C  C28  1  0.33300000  0.94680000  0.15680000  1.0 -0.0192134743
C  C29  1  0.26620000  0.96550000  0.09380000  1.0 -0.1001305742
C  C30  1  0.19620000  0.03810000  0.09110000  1.0 -0.1486245444
C  C31  1  0.41310000  0.87120000  0.15800000  1.0 0.5910620639
C  C32  1  0.00180000  0.17630000  0.14710000  1.0 0.0329532755
C  C33  1  0.93060000  0.09830000  0.14800000  1.0 0.0893496402
C  C34  1  0.95550000  0.03620000  0.19790000  1.0 -0.113229998
C  C35  1  0.88400000  0.96640000  0.19900000  1.0 -0.0810453253
C  C36  1  0.78610000  0.95360000  0.14870000  1.0 -0.0100728843
C  C37  1  0.75970000  0.01620000  0.09890000  1.0 -0.0898130214
C  C38  1  0.83000000  0.08720000  0.09970000  1.0 -0.1204614987
C  C39  1  0.70870000  0.87760000  0.14820000  1.0 0.5910620639
C  C40  1  0.94770000  0.25610000  0.14550000  1.0 -0.1595817352
C  C41  1  0.00780000  0.33300000  0.14350000  1.0 0.0429676535
C  C42  1  0.94030000  0.41430000  0.14280000  1.0 0.0804516753
C  C43  1  0.87660000  0.43630000  0.19870000  1.0 -0.113229998
C  C44  1  0.80860000  0.50830000  0.19840000  1.0 -0.0463258004
C  C45  1  0.79920000  0.56140000  0.14150000  1.0 -0.0100728843
C  C46  1  0.86410000  0.54020000  0.08500000  1.0 -0.0898130214
C  C47  1  0.93410000  0.46790000  0.08620000  1.0 -0.1391374705
C  C48  1  0.72110000  0.63790000  0.14060000  1.0 0.5910620639
C  C49  1  0.57680000  0.28370000  0.30840000  1.0 -0.0418442348
C  C50  1  0.42630000  0.29980000  0.40250000  1.0 -0.0418442348
C  C51  1  0.63710000  0.21720000  0.25730000  1.0 0.1403454309
C  C52  1  0.58740000  0.22850000  0.17920000  1.0 0.1005265904
C  C53  1  0.51090000  0.16960000  0.14420000  1.0 -0.1816401159
C  C54  1  0.47030000  0.18030000  0.07360000  1.0 0.0804516753
C  C55  1  0.57660000  0.30290000  0.07040000  1.0 0.1005265904
C  C56  1  0.62200000  0.29630000  0.14230000  1.0 -0.1278963736
C  C57  1  0.32440000  0.25770000  0.43500000  1.0 0.1588276351
C  C58  1  0.35160000  0.25350000  0.51630000  1.0 0.1508261894
C  C59  1  0.40450000  0.18540000  0.54660000  1.0 -0.1278963736
C  C60  1  0.42280000  0.18470000  0.62050000  1.0 0.1005265904
C  C61  1  0.33820000  0.31360000  0.63400000  1.0 0.0893496402
C  C62  1  0.31640000  0.31790000  0.56080000  1.0 -0.1204614987
C  C63  1  0.57890000  0.37120000  0.85470000  1.0 0.5910620639
C  C64  1  0.65510000  0.44800000  0.85590000  1.0 -0.0100728843
C  C65  1  0.65170000  0.51490000  0.90840000  1.0 -0.0556031646
C  C66  1  0.72200000  0.58620000  0.90810000  1.0 -0.1391374705
C  C67  1  0.79950000  0.59110000  0.85760000  1.0 0.0893496402
C  C68  1  0.80230000  0.52370000  0.80550000  1.0 -0.0810453253
C  C69  1  0.72910000  0.45420000  0.80410000  1.0 -0.0418442348
C  C70  1  0.87110000  0.66970000  0.85660000  1.0 0.0502554985
C  C71  1  0.81690000  0.74930000  0.85420000  1.0 -0.1204614987
C  C72  1  0.87600000  0.82600000  0.85150000  1.0 0.0429676535
C  C73  1  0.80840000  0.90720000  0.84860000  1.0 0.0893496402
C  C74  1  0.74300000  0.92800000  0.78490000  1.0 -0.1001305742
C  C75  1  0.67340000  0.00080000  0.78170000  1.0 -0.0556031646
C  C76  1  0.66700000  0.05320000  0.84320000  1.0 -0.0192134743
C  C77  1  0.73380000  0.03450000  0.90620000  1.0 -0.1001305742
C  C78  1  0.80380000  0.96190000  0.90890000  1.0 -0.1486245444
C  C79  1  0.58690000  0.12880000  0.84200000  1.0 0.5910620639
C  C80  1  0.99820000  0.82370000  0.85290000  1.0 0.0329532755
C  C81  1  0.06940000  0.90170000  0.85200000  1.0 0.0893496402
C  C82  1  0.04450000  0.96380000  0.80210000  1.0 -0.113229998
C  C83  1  0.11600000  0.03360000  0.80100000  1.0 -0.0810453253
C  C84  1  0.21390000  0.04640000  0.85130000  1.0 -0.0192134743
C  C85  1  0.24030000  0.98380000  0.90110000  1.0 -0.0898130214
C  C86  1  0.17000000  0.91280000  0.90030000  1.0 -0.1204614987
C  C87  1  0.29130000  0.12240000  0.85180000  1.0 0.5910620639
C  C88  1  0.05230000  0.74390000  0.85450000  1.0 -0.1595817352
C  C89  1  0.99220000  0.66700000  0.85650000  1.0 0.0429676535
C  C90  1  0.05970000  0.58570000  0.85720000  1.0 0.0804516753
C  C91  1  0.12340000  0.56370000  0.80130000  1.0 -0.113229998
C  C92  1  0.19140000  0.49170000  0.80160000  1.0 -0.0463258004
C  C93  1  0.20080000  0.43860000  0.85850000  1.0 -0.0100728843
C  C94  1  0.13590000  0.45980000  0.91500000  1.0 -0.0898130214
C  C95  1  0.06590000  0.53210000  0.91380000  1.0 -0.1391374705
C  C96  1  0.27890000  0.36210000  0.85940000  1.0 0.5910620639
N  N1  1  0.49990000  0.75360000  0.96318000  1.0 -0.2211506864
N  N2  1  0.60740000  0.75350000  0.33510000  1.0 -0.2454314431
N  N3  1  0.50010000  0.24640000  0.03682000  1.0 -0.2211506864
N  N4  1  0.39260000  0.24650000  0.66490000  1.0 -0.2445120117
O  O1  1  0.24570000  0.76330000  0.73540000  1.0 -0.4109425446
O  O2  1  0.69690000  0.82510000  0.59780000  1.0 -0.5486703814
O  O3  1  0.46290000  0.64198000  0.08768000  1.0 -0.5486703814
O  O4  1  0.44080000  0.67483000  0.20302000  1.0 -0.5056378743
O  O5  1  0.47480000  0.85924000  0.21690000  1.0 -0.5029738645
O  O6  1  0.41440000  0.82481000  0.10113000  1.0 -0.5200158358
O  O7  1  0.71060000  0.83861000  0.20522000  1.0 -0.4830739548
O  O8  1  0.64730000  0.85682000  0.08994000  1.0 -0.5200158358
O  O9  1  0.68140000  0.65708000  0.19941000  1.0 -0.5200158358
O  O10  1  0.69840000  0.67608000  0.08377000  1.0 -0.5274420282
O  O11  1  0.38860000  0.87650000  0.72620000  1.0 -0.4109425446
O  O12  1  0.75430000  0.23670000  0.26460000  1.0 -0.4109425446
O  O13  1  0.30310000  0.17490000  0.40220000  1.0 -0.5486703814
O  O14  1  0.53710000  0.35802000  0.91232000  1.0 -0.5551206371
O  O15  1  0.55920000  0.32517000  0.79698000  1.0 -0.5029738645
O  O16  1  0.52520000  0.14076000  0.78310000  1.0 -0.5029738645
O  O17  1  0.58560000  0.17519000  0.89887000  1.0 -0.5200158358
O  O18  1  0.28940000  0.16139000  0.79478000  1.0 -0.4830739548
O  O19  1  0.35270000  0.14318000  0.91006000  1.0 -0.5200158358
O  O20  1  0.31860000  0.34292000  0.80059000  1.0 -0.5200158358
O  O21  1  0.30160000  0.32392000  0.91623000  1.0 -0.5274420282
O  O22  1  0.61140000  0.12350000  0.27380000  1.0 -0.404159238
