# DDEC6 charges by PACMAN v1.1 (https://github.com/mtap-research/PACMAN-charge/)
data_OCUVUF_ASR_pacman
_symmetry_space_group_name_H-M   'P 1'
_cell_length_a   23.66700000
_cell_length_b   23.66700000
_cell_length_c   26.62220000
_cell_angle_alpha   64.45730000
_cell_angle_beta   115.54300000
_cell_angle_gamma   89.98190000
_symmetry_Int_Tables_number   1
_chemical_formula_structural   K3Dy2As2H8W21C12N2O63
_chemical_formula_sum   'K12 Dy8 As8 H32 W84 C48 N8 O252'
_cell_volume   11817.45383713
_cell_formula_units_Z   4
loop_
 _symmetry_equiv_pos_site_id
 _symmetry_equiv_pos_as_xyz
  1  'x, y, z'
loop_
 _atom_site_type_symbol
 _atom_site_label
 _atom_site_symmetry_multiplicity
 _atom_site_fract_x
 _atom_site_fract_y
 _atom_site_fract_z
 _atom_site_occupancy
 _atom_site_charge
K  K1  1  0.85217000  0.40737000  0.27960000  1.0 1.0110401481
K  K2  1  0.59263000  0.14783000  0.77960000  1.0 1.0110401481
K  K3  1  0.09460000  0.75280000  0.48040000  1.0 0.8721491664
K  K4  1  0.24720000  0.90540000  0.98040000  1.0 0.8721491664
K  K5  1  0.91760000  0.75040000  0.48720000  1.0 0.879160123
K  K6  1  0.24960000  0.08240000  0.98720000  1.0 0.879160123
K  K7  1  0.93190000  0.73950000  0.33180000  1.0 0.879160123
K  K8  1  0.26050000  0.06810000  0.83180000  1.0 0.879160123
K  K9  1  0.08100000  0.06780000  0.83200000  1.0 0.879160123
K  K10  1  0.93220000  0.91900000  0.33200000  1.0 0.879160123
K  K11  1  0.48110000  0.66770000  0.53430000  1.0 0.9308611422
K  K12  1  0.33230000  0.51890000  0.03430000  1.0 0.9308611422
Dy  Dy1  1  0.90618000  0.34270000  0.58484000  1.0 2.3302162021
Dy  Dy2  1  0.65730000  0.09382000  0.08484000  1.0 2.3402615159
Dy  Dy3  1  0.97654000  0.47538000  0.73572000  1.0 2.3237737982
Dy  Dy4  1  0.52462000  0.02346000  0.23572000  1.0 2.3237737982
Dy  Dy5  1  0.94680000  0.78766000  0.08788000  1.0 2.3002619117
Dy  Dy6  1  0.21234000  0.05320000  0.58788000  1.0 2.3002619117
Dy  Dy7  1  0.23034000  0.72472000  0.22309000  1.0 2.3002619117
Dy  Dy8  1  0.27528000  0.76966000  0.72309000  1.0 2.3002619117
As  As1  1  0.76531000  0.48913000  0.48032000  1.0 1.0924896567
As  As2  1  0.51087000  0.23469000  0.98032000  1.0 1.0924896567
As  As3  1  0.93302000  0.32918000  0.83715000  1.0 1.0596654384
As  As4  1  0.67082000  0.06698000  0.33715000  1.0 1.0596654384
As  As5  1  0.98519000  0.75051000  0.97904000  1.0 1.0773934691
As  As6  1  0.24949000  0.01481000  0.47904000  1.0 1.0773934691
As  As7  1  0.19459000  0.58251000  0.33417000  1.0 1.0738365024
As  As8  1  0.41749000  0.80541000  0.83417000  1.0 1.0738365024
H  H1  1  0.15780000  0.96260000  0.21020000  1.0 0.0914593905
H  H2  1  0.03740000  0.84220000  0.71020000  1.0 0.0914593905
H  H3  1  0.14690000  0.41650000  0.59500000  1.0 0.1083719468
H  H4  1  0.58350000  0.85310000  0.09500000  1.0 0.1083719468
H  H5  1  0.27350000  0.31430000  0.76230000  1.0 0.1083719468
H  H6  1  0.68570000  0.72650000  0.26230000  1.0 0.1083719468
H  H7  1  0.05230000  0.41710000  0.60590000  1.0 0.071309529
H  H8  1  0.58290000  0.94770000  0.10590000  1.0 0.071309529
H  H9  1  0.25500000  0.21140000  0.82350000  1.0 0.1083719468
H  H10  1  0.78860000  0.74500000  0.32350000  1.0 0.1083719468
H  H11  1  0.10930000  0.07870000  0.99970000  1.0 0.1083719468
H  H12  1  0.92130000  0.89070000  0.49970000  1.0 0.1083719468
H  H13  1  0.14110000  0.86190000  0.20590000  1.0 0.071309529
H  H14  1  0.13810000  0.85890000  0.70590000  1.0 0.071309529
H  H15  1  0.11670000  0.99370000  0.26340000  1.0 0.1083719468
H  H16  1  0.00630000  0.88330000  0.76340000  1.0 0.1083719468
H  H17  1  0.04990000  0.09010000  0.04530000  1.0 0.1207810573
H  H18  1  0.90990000  0.95010000  0.54530000  1.0 0.1207810573
H  H19  1  0.02000000  0.01200000  0.09950000  1.0 0.1083719468
H  H20  1  0.98800000  0.98000000  0.59950000  1.0 0.1083719468
H  H21  1  0.02920000  0.91300000  0.09600000  1.0 0.071309529
H  H22  1  0.08700000  0.97080000  0.59600000  1.0 0.071309529
H  H23  1  0.06660000  0.92320000  0.31440000  1.0 0.1083719468
H  H24  1  0.07680000  0.93340000  0.81440000  1.0 0.1083719468
H  H25  1  0.17440000  0.50420000  0.55130000  1.0 0.1207810573
H  H26  1  0.49580000  0.82560000  0.05130000  1.0 0.1207810573
H  H27  1  0.10900000  0.60500000  0.50620000  1.0 0.1083719468
H  H28  1  0.39500000  0.89100000  0.00620000  1.0 0.1083719468
H  H29  1  0.10220000  0.39580000  0.72280000  1.0 0.0914593905
H  H30  1  0.60420000  0.89780000  0.22280000  1.0 0.0914593905
H  H31  1  0.20020000  0.40420000  0.72550000  1.0 0.1083719468
H  H32  1  0.59580000  0.79980000  0.22550000  1.0 0.1083719468
W  W1  1  0.68579000  0.57407000  0.30008000  1.0 2.4303017228
W  W2  1  0.42593000  0.31421000  0.80008000  1.0 2.4351682036
W  W3  1  0.59300000  0.48162000  0.37949000  1.0 2.3302162021
W  W4  1  0.51838000  0.40700000  0.87949000  1.0 2.3302162021
W  W5  1  0.62472000  0.63428000  0.37869000  1.0 2.4303017228
W  W6  1  0.36572000  0.37528000  0.87869000  1.0 2.4303017228
W  W7  1  0.81033000  0.44449000  0.39349000  1.0 2.3509539931
W  W8  1  0.55551000  0.18967000  0.89349000  1.0 2.3509539931
W  W9  1  0.83570000  0.58696000  0.38465000  1.0 2.3901415556
W  W10  1  0.41304000  0.16430000  0.88465000  1.0 2.3901415556
W  W11  1  0.77334000  0.64286000  0.46549000  1.0 2.3402615159
W  W12  1  0.35714000  0.22666000  0.96549000  1.0 2.3509539931
W  W13  1  0.69301000  0.55761000  0.53729000  1.0 2.3901415556
W  W14  1  0.44239000  0.30699000  0.03729000  1.0 2.3901415556
W  W15  1  0.65815000  0.40549000  0.54126000  1.0 2.3901415556
W  W16  1  0.59451000  0.34185000  0.04126000  1.0 2.3901415556
W  W17  1  0.72107000  0.35477000  0.47035000  1.0 2.3991809457
W  W18  1  0.64523000  0.27893000  0.97035000  1.0 2.3991809457
W  W19  1  0.93110000  0.52488000  0.55970000  1.0 2.2297241657
W  W20  1  0.47512000  0.06890000  0.05970000  1.0 2.2297241657
W  W21  1  0.82221000  0.40933000  0.65813000  1.0 2.4774054854
W  W22  1  0.59067000  0.17779000  0.15813000  1.0 2.4774054854
W  W23  1  0.02623000  0.29245000  0.76238000  1.0 2.2521108954
W  W24  1  0.70755000  0.97377000  0.26238000  1.0 2.2521108954
W  W25  1  0.80707000  0.26155000  0.77706000  1.0 2.4109796056
W  W26  1  0.73845000  0.19293000  0.27706000  1.0 2.4109796056
W  W27  1  0.76682000  0.41458000  0.77173000  1.0 2.3697802394
W  W28  1  0.58542000  0.23318000  0.27173000  1.0 2.3607779353
W  W29  1  0.89754000  0.46448000  0.84564000  1.0 2.3901415556
W  W30  1  0.53552000  0.10246000  0.34564000  1.0 2.3901415556
W  W31  1  0.06186000  0.37342000  0.92695000  1.0 2.3991809457
W  W32  1  0.62658000  0.93814000  0.42695000  1.0 2.3901415556
W  W33  1  0.09725000  0.22997000  0.93743000  1.0 2.3697802394
W  W34  1  0.77003000  0.90275000  0.43743000  1.0 2.3697802394
W  W35  1  0.95745000  0.17497000  0.85382000  1.0 2.3901415556
W  W36  1  0.82503000  0.04255000  0.35382000  1.0 2.3901415556
W  W37  1  0.88769000  0.18537000  0.93623000  1.0 2.3901415556
W  W38  1  0.81463000  0.11231000  0.43623000  1.0 2.3901415556
W  W39  1  0.02328000  0.24554000  0.01653000  1.0 2.4217795222
W  W40  1  0.75446000  0.97672000  0.51653000  1.0 2.4217795222
W  W41  1  0.85392000  0.33914000  0.93357000  1.0 2.3901415556
W  W42  1  0.66086000  0.14608000  0.43357000  1.0 2.3901415556
W  W43  1  0.02470000  0.71128000  0.87225000  1.0 2.4109796056
W  W44  1  0.28872000  0.97530000  0.37225000  1.0 2.4109796056
W  W45  1  0.87924000  0.67078000  0.88529000  1.0 2.3901415556
W  W46  1  0.32922000  0.12076000  0.38529000  1.0 2.3991809457
W  W47  1  0.88516000  0.84246000  0.80034000  1.0 2.4217795222
W  W48  1  0.15754000  0.11484000  0.30034000  1.0 2.4217795222
W  W49  1  0.11686000  0.78206000  0.95228000  1.0 2.3607779353
W  W50  1  0.21794000  0.88314000  0.45228000  1.0 2.3607779353
W  W51  1  0.11145000  0.62877000  0.03062000  1.0 2.3991809457
W  W52  1  0.37123000  0.88855000  0.53062000  1.0 2.3991809457
W  W53  1  0.96974000  0.58260000  0.04646000  1.0 2.3991809457
W  W54  1  0.41740000  0.03026000  0.54646000  1.0 2.3991809457
W  W55  1  0.84601000  0.70887000  0.97968000  1.0 2.4109796056
W  W56  1  0.29113000  0.15399000  0.47968000  1.0 2.4109796056
W  W57  1  0.85149000  0.87561000  0.89684000  1.0 2.4217795222
W  W58  1  0.12439000  0.14851000  0.39684000  1.0 2.4303017228
W  W59  1  0.97880000  0.91748000  0.87684000  1.0 2.3901415556
W  W60  1  0.08252000  0.02120000  0.37684000  1.0 2.3901415556
W  W61  1  0.09032000  0.63810000  0.15745000  1.0 2.4517766802
W  W62  1  0.36190000  0.90968000  0.65745000  1.0 2.4517766802
W  W63  1  0.09525000  0.84553000  0.05039000  1.0 2.2002672523
W  W64  1  0.15447000  0.90475000  0.55039000  1.0 2.2002672523
W  W65  1  0.08060000  0.74688000  0.25884000  1.0 2.2297241657
W  W66  1  0.25312000  0.91940000  0.75884000  1.0 2.2297241657
W  W67  1  0.21368000  0.47650000  0.27120000  1.0 2.3901415556
W  W68  1  0.52350000  0.78632000  0.77120000  1.0 2.3901415556
W  W69  1  0.33483000  0.54201000  0.33485000  1.0 2.3607779353
W  W70  1  0.45799000  0.66517000  0.83485000  1.0 2.3607779353
W  W71  1  0.32657000  0.63165000  0.41386000  1.0 2.3002619117
W  W72  1  0.36835000  0.67343000  0.91386000  1.0 2.3002619117
W  W73  1  0.19776000  0.65392000  0.43198000  1.0 2.3302162021
W  W74  1  0.34608000  0.80224000  0.93198000  1.0 2.3302162021
W  W75  1  0.06226000  0.58766000  0.36006000  1.0 2.3509539931
W  W76  1  0.41234000  0.93774000  0.86006000  1.0 2.3509539931
W  W77  1  0.07118000  0.50636000  0.28636000  1.0 2.3991809457
W  W78  1  0.49364000  0.92882000  0.78636000  1.0 2.3991809457
W  W79  1  0.30371000  0.41267000  0.43223000  1.0 2.3697802394
W  W80  1  0.58733000  0.69629000  0.93223000  1.0 2.3697802394
W  W81  1  0.15780000  0.44022000  0.44433000  1.0 2.4303017228
W  W82  1  0.55978000  0.84220000  0.94433000  1.0 2.4303017228
W  W83  1  0.29530000  0.50556000  0.51360000  1.0 2.4303017228
W  W84  1  0.49444000  0.70470000  0.01360000  1.0 2.4303017228
C  C1  1  0.10340000  0.98460000  0.02300000  1.0 0.0513404043
C  C2  1  0.01540000  0.89660000  0.52300000  1.0 0.0513404043
C  C3  1  0.03830000  0.81330000  0.31400000  1.0 0.5129824846
C  C4  1  0.18670000  0.96170000  0.81400000  1.0 0.5129824846
C  C5  1  0.13580000  0.93700000  0.22960000  1.0 -0.151965949
C  C6  1  0.06300000  0.86420000  0.72960000  1.0 -0.151965949
C  C7  1  0.07340000  0.85800000  0.28550000  1.0 0.082601872
C  C8  1  0.14200000  0.92660000  0.78550000  1.0 0.082601872
C  C9  1  0.16290000  0.24970000  0.79260000  1.0 0.071309529
C  C10  1  0.75030000  0.83710000  0.29260000  1.0 0.071309529
C  C11  1  0.13920000  0.96480000  0.99570000  1.0 0.5176208585
C  C12  1  0.03520000  0.86080000  0.49570000  1.0 0.5176208585
C  C13  1  0.12030000  0.45570000  0.57900000  1.0 -0.1723412269
C  C14  1  0.54430000  0.87970000  0.07900000  1.0 -0.1723412269
C  C15  1  0.04200000  0.56780000  0.53050000  1.0 0.0513404043
C  C16  1  0.43220000  0.95800000  0.03050000  1.0 0.0513404043
C  C17  1  0.23620000  0.31140000  0.76600000  1.0 -0.0385480127
C  C18  1  0.68860000  0.76380000  0.26600000  1.0 -0.0340882216
C  C19  1  0.06210000  0.45550000  0.58520000  1.0 0.082601872
C  C20  1  0.54450000  0.93790000  0.08520000  1.0 0.082601872
C  C21  1  0.99320000  0.62820000  0.50110000  1.0 0.5264748006
C  C22  1  0.37180000  0.00680000  0.00110000  1.0 0.5264748006
C  C23  1  0.22350000  0.24930000  0.79920000  1.0 -0.1330357299
C  C24  1  0.75070000  0.77650000  0.29920000  1.0 -0.1330357299
C  C25  1  0.09350000  0.04490000  0.02000000  1.0 -0.1605756444
C  C26  1  0.95510000  0.90650000  0.52000000  1.0 -0.1605756444
C  C27  1  0.12530000  0.87490000  0.22700000  1.0 0.0561390936
C  C28  1  0.12510000  0.87470000  0.72700000  1.0 0.0561390936
C  C29  1  0.11210000  0.95530000  0.26180000  1.0 -0.0778454126
C  C30  1  0.04470000  0.88790000  0.76180000  1.0 -0.0778454126
C  C31  1  0.05920000  0.05020000  0.04800000  1.0 -0.0494986742
C  C32  1  0.94980000  0.94080000  0.54800000  1.0 -0.0494986742
C  C33  1  0.03940000  0.00640000  0.07770000  1.0 -0.1723412269
C  C34  1  0.99360000  0.96060000  0.57770000  1.0 -0.1723412269
C  C35  1  0.04710000  0.94510000  0.07720000  1.0 0.0914593905
C  C36  1  0.05490000  0.95290000  0.57720000  1.0 0.0914593905
C  C37  1  0.08150000  0.91390000  0.29110000  1.0 -0.151965949
C  C38  1  0.08610000  0.91850000  0.79110000  1.0 -0.151965949
C  C39  1  0.13590000  0.50690000  0.55280000  1.0 -0.0494986742
C  C40  1  0.49310000  0.86410000  0.05280000  1.0 -0.0494986742
C  C41  1  0.09760000  0.56720000  0.52600000  1.0 -0.151965949
C  C42  1  0.43280000  0.90240000  0.02600000  1.0 -0.151965949
C  C43  1  0.13250000  0.35870000  0.74040000  1.0 0.0513404043
C  C44  1  0.64130000  0.86750000  0.24040000  1.0 0.0513404043
C  C45  1  0.19160000  0.36380000  0.74180000  1.0 -0.1605756444
C  C46  1  0.63620000  0.80840000  0.24180000  1.0 -0.1605756444
C  C47  1  0.14080000  0.18960000  0.81800000  1.0 0.5129824846
C  C48  1  0.81040000  0.85920000  0.31800000  1.0 0.5129824846
N  N1  1  0.07940000  0.93440000  0.05060000  1.0 -0.3506775827
N  N2  1  0.06560000  0.92060000  0.55060000  1.0 -0.3506775827
N  N3  1  0.09240000  0.83840000  0.25490000  1.0 -0.3506775827
N  N4  1  0.16160000  0.90760000  0.75490000  1.0 -0.3506775827
N  N5  1  0.02200000  0.51320000  0.56010000  1.0 -0.3700966865
N  N6  1  0.48680000  0.97800000  0.06010000  1.0 -0.3700966865
N  N7  1  0.11870000  0.30170000  0.76390000  1.0 -0.3343197287
N  N8  1  0.69830000  0.88130000  0.26390000  1.0 -0.3343197287
O  O1  1  0.58950000  0.56310000  0.38300000  1.0 -0.9800999628
O  O2  1  0.43690000  0.41050000  0.88300000  1.0 -0.9800999628
O  O3  1  0.63450000  0.52010000  0.33050000  1.0 -1.0086985052
O  O4  1  0.47990000  0.36550000  0.83050000  1.0 -1.0086985052
O  O5  1  0.65520000  0.62900000  0.32770000  1.0 -0.9696214059
O  O6  1  0.37100000  0.34480000  0.82770000  1.0 -0.9696214059
O  O7  1  0.63100000  0.40020000  0.39870000  1.0 -1.0299424997
O  O8  1  0.59980000  0.36900000  0.89870000  1.0 -1.0299424997
O  O9  1  0.73170000  0.50790000  0.30600000  1.0 -0.9800999628
O  O10  1  0.49210000  0.26830000  0.80600000  1.0 -0.9800999628
O  O11  1  0.75430000  0.61990000  0.30550000  1.0 -0.9696214059
O  O12  1  0.38010000  0.24570000  0.80550000  1.0 -0.9696214059
O  O13  1  0.58440000  0.44560000  0.44910000  1.0 -0.9487648041
O  O14  1  0.55440000  0.41560000  0.94910000  1.0 -0.9487648041
O  O15  1  0.62610000  0.61970000  0.45880000  1.0 -1.0299424997
O  O16  1  0.38030000  0.37390000  0.95880000  1.0 -1.0299424997
O  O17  1  0.64780000  0.49160000  0.52860000  1.0 -1.0187519596
O  O18  1  0.50840000  0.35220000  0.02860000  1.0 -1.0187519596
O  O19  1  0.67600000  0.33960000  0.52220000  1.0 -1.0710563227
O  O20  1  0.66040000  0.32400000  0.02220000  1.0 -1.0710563227
O  O21  1  0.70020000  0.44960000  0.46520000  1.0 -1.0086985052
O  O22  1  0.55040000  0.29980000  0.96520000  1.0 -1.0086985052
O  O23  1  0.74620000  0.40040000  0.40610000  1.0 -1.0000978388
O  O24  1  0.59960000  0.25380000  0.90610000  1.0 -1.0000978388
O  O25  1  0.83860000  0.40240000  0.36290000  1.0 -1.0710563227
O  O26  1  0.59760000  0.16140000  0.86290000  1.0 -1.0710563227
O  O27  1  0.71860000  0.56200000  0.46120000  1.0 -1.0086985052
O  O28  1  0.43800000  0.28140000  0.96120000  1.0 -1.0086985052
O  O29  1  0.76620000  0.51880000  0.40590000  1.0 -1.0187519596
O  O30  1  0.48120000  0.23380000  0.90590000  1.0 -1.0187519596
O  O31  1  0.85240000  0.51660000  0.36990000  1.0 -0.9389717371
O  O32  1  0.48340000  0.14760000  0.86990000  1.0 -0.9389717371
O  O33  1  0.87420000  0.64200000  0.35040000  1.0 -0.821258101
O  O34  1  0.35800000  0.12580000  0.85040000  1.0 -0.821258101
O  O35  1  0.89840000  0.54400000  0.46530000  1.0 -0.8733805449
O  O36  1  0.45600000  0.10160000  0.96530000  1.0 -0.8733805449
O  O37  1  0.79270000  0.63490000  0.40840000  1.0 -0.9192669025
O  O38  1  0.36510000  0.20730000  0.90840000  1.0 -0.9192669025
O  O39  1  0.86670000  0.40630000  0.47850000  1.0 -1.1398848922
O  O40  1  0.59370000  0.13330000  0.97850000  1.0 -1.1398848922
O  O41  1  0.79810000  0.33770000  0.53400000  1.0 -1.0500634581
O  O42  1  0.66230000  0.20190000  0.03400000  1.0 -1.0500634581
O  O43  1  0.69080000  0.68560000  0.40420000  1.0 -0.8878651888
O  O44  1  0.31440000  0.30920000  0.90420000  1.0 -0.8878651888
O  O45  1  0.74710000  0.61830000  0.52790000  1.0 -0.9389717371
O  O46  1  0.38170000  0.25290000  0.02790000  1.0 -0.9389717371
O  O47  1  0.80730000  0.70510000  0.47090000  1.0 -0.7550303966
O  O48  1  0.29490000  0.19270000  0.97090000  1.0 -0.7550303966
O  O49  1  0.85050000  0.56550000  0.53220000  1.0 -0.8878651888
O  O50  1  0.43450000  0.14950000  0.03220000  1.0 -0.8878651888
O  O51  1  0.73500000  0.38560000  0.60870000  1.0 -0.9487648041
O  O52  1  0.61440000  0.26500000  0.10870000  1.0 -0.9487648041
O  O53  1  0.77280000  0.48920000  0.59070000  1.0 -0.9595281092
O  O54  1  0.51080000  0.22720000  0.09070000  1.0 -0.9595281092
O  O55  1  0.98660000  0.10980000  0.84980000  1.0 -0.821258101
O  O56  1  0.89020000  0.01340000  0.34980000  1.0 -0.821258101
O  O57  1  0.14230000  0.46770000  0.28710000  1.0 -1.0000978388
O  O58  1  0.53230000  0.85770000  0.78710000  1.0 -1.0000978388
O  O59  1  0.84730000  0.25410000  0.93080000  1.0 -0.9315418333
O  O60  1  0.74590000  0.15270000  0.43080000  1.0 -0.9315418333
O  O61  1  0.76710000  0.32590000  0.78370000  1.0 -1.0000978388
O  O62  1  0.67410000  0.23290000  0.28370000  1.0 -1.0000978388
O  O63  1  0.88000000  0.36960000  0.84950000  1.0 -1.0187519596
O  O64  1  0.63040000  0.12000000  0.34950000  1.0 -1.0187519596
O  O65  1  0.14270000  0.53770000  0.35840000  1.0 -1.0000978388
O  O66  1  0.46230000  0.85730000  0.85840000  1.0 -1.0000978388
O  O67  1  0.22070000  0.40630000  0.43390000  1.0 -0.9800999628
O  O68  1  0.59370000  0.77930000  0.93390000  1.0 -0.9800999628
O  O69  1  0.93020000  0.13300000  0.91310000  1.0 -0.9001847089
O  O70  1  0.86700000  0.06980000  0.41310000  1.0 -0.9001847089
O  O71  1  0.00890000  0.78390000  0.18630000  1.0 -1.0000978388
O  O72  1  0.21610000  0.99110000  0.68630000  1.0 -1.0000978388
O  O73  1  0.85370000  0.37890000  0.62000000  1.0 -1.1076515944
O  O74  1  0.62110000  0.14630000  0.12000000  1.0 -1.1076515944
O  O75  1  0.94260000  0.30080000  0.98260000  1.0 -1.0187519596
O  O76  1  0.69920000  0.05740000  0.48260000  1.0 -1.0187519596
O  O77  1  0.96080000  0.66940000  0.88110000  1.0 -0.9800999628
O  O78  1  0.33060000  0.03920000  0.38110000  1.0 -0.9800999628
O  O79  1  0.87130000  0.19930000  0.78820000  1.0 -0.9487648041
O  O80  1  0.80070000  0.12870000  0.28820000  1.0 -0.9595281092
O  O81  1  0.16510000  0.55210000  0.20620000  1.0 -0.9315418333
O  O82  1  0.44790000  0.83490000  0.70620000  1.0 -0.9315418333
O  O83  1  0.02630000  0.70170000  0.12360000  1.0 -0.9595281092
O  O84  1  0.29830000  0.97370000  0.62360000  1.0 -0.9595281092
O  O85  1  0.15440000  0.67220000  0.19130000  1.0 -1.0591461093
O  O86  1  0.32780000  0.84560000  0.69130000  1.0 -1.0591461093
O  O87  1  0.26330000  0.40270000  0.35960000  1.0 -1.0299424997
O  O88  1  0.59730000  0.73670000  0.85960000  1.0 -1.0299424997
O  O89  1  0.10980000  0.79100000  0.02160000  1.0 -0.9102126788
O  O90  1  0.20900000  0.89020000  0.52160000  1.0 -0.9102126788
O  O91  1  0.03080000  0.76720000  0.30240000  1.0 -0.6140367419
O  O92  1  0.23280000  0.96920000  0.80240000  1.0 -0.6140367419
O  O93  1  0.89220000  0.73000000  0.04050000  1.0 -1.1300228269
O  O94  1  0.27000000  0.10780000  0.54050000  1.0 -1.1300228269
O  O95  1  0.89880000  0.85120000  0.98030000  1.0 -1.1398848922
O  O96  1  0.14880000  0.10120000  0.48030000  1.0 -1.1398848922
O  O97  1  0.01860000  0.55980000  0.29820000  1.0 -0.9487648041
O  O98  1  0.44020000  0.98140000  0.79820000  1.0 -0.9487648041
O  O99  1  0.90440000  0.25420000  0.85520000  1.0 -1.0187519596
O  O100  1  0.74580000  0.09560000  0.35520000  1.0 -1.0187519596
O  O101  1  0.14020000  0.74840000  0.23420000  1.0 -0.9800999628
O  O102  1  0.25160000  0.85980000  0.73420000  1.0 -0.9696214059
O  O103  1  0.10150000  0.65250000  0.08770000  1.0 -0.9595281092
O  O104  1  0.34750000  0.89850000  0.58770000  1.0 -0.9595281092
O  O105  1  0.05060000  0.85320000  0.90010000  1.0 -0.9102126788
O  O106  1  0.14680000  0.94940000  0.40010000  1.0 -0.9102126788
O  O107  1  0.00730000  0.37610000  0.74280000  1.0 -1.0187519596
O  O108  1  0.62390000  0.99270000  0.24280000  1.0 -1.0187519596
O  O109  1  0.93030000  0.44130000  0.57940000  1.0 -1.0000978388
O  O110  1  0.55870000  0.06970000  0.07940000  1.0 -1.0000978388
O  O111  1  0.12930000  0.60990000  0.41190000  1.0 -0.9102126788
O  O112  1  0.39010000  0.87070000  0.91190000  1.0 -0.9102126788
O  O113  1  0.35490000  0.56910000  0.39740000  1.0 -0.9912816317
O  O114  1  0.43090000  0.64510000  0.89740000  1.0 -0.9912816317
O  O115  1  0.29010000  0.61770000  0.27430000  1.0 -1.0000978388
O  O116  1  0.38230000  0.70990000  0.77430000  1.0 -0.9912816317
O  O117  1  0.87180000  0.41980000  0.91690000  1.0 -1.0299424997
O  O118  1  0.58020000  0.12820000  0.41690000  1.0 -1.0426680476
O  O119  1  0.27840000  0.68600000  0.33130000  1.0 -1.0886041553
O  O120  1  0.31400000  0.72160000  0.83130000  1.0 -1.0886041553
O  O121  1  0.77940000  0.43120000  0.70930000  1.0 -0.8613975079
O  O122  1  0.56880000  0.22060000  0.20930000  1.0 -0.8613975079
O  O123  1  0.09360000  0.63640000  0.95260000  1.0 -1.0187519596
O  O124  1  0.36360000  0.90640000  0.45260000  1.0 -1.0187519596
O  O125  1  0.96970000  0.25030000  0.78760000  1.0 -0.9192669025
O  O126  1  0.74970000  0.03030000  0.28760000  1.0 -0.9192669025
O  O127  1  0.81300000  0.19980000  0.85560000  1.0 -1.0187519596
O  O128  1  0.80020000  0.18700000  0.35560000  1.0 -1.0187519596
O  O129  1  0.16230000  0.69310000  0.01730000  1.0 -0.9595281092
O  O130  1  0.30690000  0.83770000  0.51730000  1.0 -0.9595281092
O  O131  1  0.02320000  0.89960000  0.96020000  1.0 -0.9102126788
O  O132  1  0.10040000  0.97680000  0.46020000  1.0 -0.9102126788
O  O133  1  0.04090000  0.58990000  0.02780000  1.0 -1.0000978388
O  O134  1  0.41010000  0.95910000  0.52780000  1.0 -1.0000978388
O  O135  1  0.93230000  0.90470000  0.80070000  1.0 -0.9389717371
O  O136  1  0.09530000  0.06770000  0.30070000  1.0 -0.9487648041
O  O137  1  0.31580000  0.45460000  0.48130000  1.0 -1.0187519596
O  O138  1  0.54540000  0.68420000  0.98130000  1.0 -1.0187519596
O  O139  1  0.15220000  0.71640000  0.34720000  1.0 -0.9192669025
O  O140  1  0.28360000  0.84780000  0.84720000  1.0 -0.9192669025
O  O141  1  0.03790000  0.82390000  0.07380000  1.0 -0.8878651888
O  O142  1  0.17610000  0.96210000  0.57380000  1.0 -0.8878651888
O  O143  1  0.24650000  0.57050000  0.51090000  1.0 -0.9487648041
O  O144  1  0.42950000  0.75350000  0.01090000  1.0 -0.9487648041
O  O145  1  0.08540000  0.19960000  0.01390000  1.0 -0.9487648041
O  O146  1  0.80040000  0.91460000  0.51390000  1.0 -0.9389717371
O  O147  1  0.18330000  0.13730000  0.85350000  1.0 -0.668871823
O  O148  1  0.86270000  0.81670000  0.35350000  1.0 -0.668871823
O  O149  1  0.03790000  0.72490000  0.95740000  1.0 -1.0086985052
O  O150  1  0.27510000  0.96210000  0.45740000  1.0 -1.0086985052
O  O151  1  0.82600000  0.79640000  0.91510000  1.0 -1.0299424997
O  O152  1  0.20360000  0.17400000  0.41510000  1.0 -1.0299424997
O  O153  1  0.18350000  0.68770000  0.46770000  1.0 -0.668871823
O  O154  1  0.31230000  0.81650000  0.96770000  1.0 -0.668871823
O  O155  1  0.16240000  0.00580000  0.96460000  1.0 -0.689280066
O  O156  1  0.99420000  0.83760000  0.46460000  1.0 -0.689280066
O  O157  1  0.14600000  0.90660000  0.00640000  1.0 -0.6428326796
O  O158  1  0.09340000  0.85400000  0.50640000  1.0 -0.6428326796
O  O159  1  0.92080000  0.59300000  0.95900000  1.0 -1.0086985052
O  O160  1  0.40700000  0.07920000  0.45900000  1.0 -1.0086985052
O  O161  1  0.39490000  0.66270000  0.43610000  1.0 -0.9192669025
O  O162  1  0.33730000  0.60510000  0.93610000  1.0 -0.9192669025
O  O163  1  0.01650000  0.82370000  0.34520000  1.0 -0.6582383544
O  O164  1  0.17630000  0.98350000  0.84520000  1.0 -0.6582383544
O  O165  1  0.08100000  0.27180000  0.85430000  1.0 -0.9192669025
O  O166  1  0.72820000  0.91900000  0.35430000  1.0 -0.9192669025
O  O167  1  0.89030000  0.43570000  0.69820000  1.0 -1.0591461093
O  O168  1  0.56430000  0.10970000  0.19820000  1.0 -1.0591461093
O  O169  1  0.00520000  0.29860000  0.91340000  1.0 -1.0299424997
O  O170  1  0.70140000  0.99480000  0.41340000  1.0 -1.0299424997
O  O171  1  0.99360000  0.29920000  0.68510000  1.0 -1.0426680476
O  O172  1  0.70080000  0.00640000  0.18510000  1.0 -1.0500634581
O  O173  1  0.21640000  0.47260000  0.49450000  1.0 -0.9800999628
O  O174  1  0.52740000  0.78360000  0.99450000  1.0 -0.9800999628
O  O175  1  0.81800000  0.68540000  0.90970000  1.0 -1.0500634581
O  O176  1  0.31460000  0.18200000  0.40970000  1.0 -1.0500634581
O  O177  1  0.94600000  0.61920000  0.51700000  1.0 -0.689280066
O  O178  1  0.38080000  0.05400000  0.01700000  1.0 -0.689280066
O  O179  1  0.09740000  0.75760000  0.89020000  1.0 -0.9192669025
O  O180  1  0.24240000  0.90260000  0.39020000  1.0 -0.9192669025
O  O181  1  0.97180000  0.51760000  0.63490000  1.0 -0.9595281092
O  O182  1  0.48240000  0.02820000  0.13490000  1.0 -0.9595281092
O  O183  1  0.24200000  0.58500000  0.40770000  1.0 -1.0187519596
O  O184  1  0.41500000  0.75800000  0.90770000  1.0 -1.0187519596
O  O185  1  0.96430000  0.18790000  0.98750000  1.0 -0.9102126788
O  O186  1  0.81210000  0.03570000  0.48750000  1.0 -0.9102126788
O  O187  1  0.03360000  0.18180000  0.91380000  1.0 -0.9389717371
O  O188  1  0.81820000  0.96640000  0.41380000  1.0 -0.9389717371
O  O189  1  0.82550000  0.88130000  0.80920000  1.0 -1.0500634581
O  O190  1  0.11870000  0.17450000  0.30920000  1.0 -1.0500634581
O  O191  1  0.93560000  0.69540000  0.97220000  1.0 -1.0086985052
O  O192  1  0.30460000  0.06440000  0.47220000  1.0 -1.0086985052
O  O193  1  0.91890000  0.48090000  0.78640000  1.0 -1.0500634581
O  O194  1  0.51910000  0.08110000  0.28640000  1.0 -1.0500634581
O  O195  1  0.24480000  0.51840000  0.34400000  1.0 -1.0086985052
O  O196  1  0.48160000  0.75520000  0.84400000  1.0 -1.0086985052
O  O197  1  0.35410000  0.55430000  0.50260000  1.0 -1.0086985052
O  O198  1  0.44570000  0.64590000  0.00260000  1.0 -1.0086985052
O  O199  1  0.99740000  0.68220000  0.46630000  1.0 -0.645765546
O  O200  1  0.31780000  0.00260000  0.96630000  1.0 -0.6428326796
O  O201  1  0.03940000  0.41260000  0.84460000  1.0 -1.1076515944
O  O202  1  0.58740000  0.96060000  0.34460000  1.0 -1.1076515944
O  O203  1  0.77610000  0.37310000  0.86100000  1.0 -1.0086985052
O  O204  1  0.62690000  0.22390000  0.36100000  1.0 -1.0086985052
O  O205  1  0.29510000  0.49970000  0.28470000  1.0 -1.0710563227
O  O206  1  0.50030000  0.70490000  0.78470000  1.0 -1.0710563227
O  O207  1  0.93730000  0.82170000  0.90500000  1.0 -1.0187519596
O  O208  1  0.17830000  0.06270000  0.40500000  1.0 -1.0187519596
O  O209  1  0.06660000  0.66400000  0.28870000  1.0 -0.9102126788
O  O210  1  0.33600000  0.93340000  0.78870000  1.0 -0.9102126788
O  O211  1  0.18340000  0.81360000  0.95420000  1.0 -0.7902500809
O  O212  1  0.18640000  0.81660000  0.45420000  1.0 -0.7902500809
O  O213  1  0.27960000  0.67160000  0.44150000  1.0 -0.9389717371
O  O214  1  0.32840000  0.72040000  0.94150000  1.0 -0.9389717371
O  O215  1  0.36250000  0.45010000  0.40910000  1.0 -1.0000978388
O  O216  1  0.54990000  0.63750000  0.90910000  1.0 -1.0000978388
O  O217  1  0.12540000  0.29980000  0.95040000  1.0 -0.9595281092
O  O218  1  0.70020000  0.87460000  0.45040000  1.0 -0.9595281092
O  O219  1  0.16640000  0.17560000  0.97350000  1.0 -0.7392866791
O  O220  1  0.82440000  0.83360000  0.47350000  1.0 -0.7392866791
O  O221  1  0.83620000  0.32660000  0.72450000  1.0 -0.9595281092
O  O222  1  0.67340000  0.16380000  0.22450000  1.0 -0.9595281092
O  O223  1  0.08470000  0.50490000  0.42450000  1.0 -0.9001847089
O  O224  1  0.49510000  0.91530000  0.92450000  1.0 -0.9001847089
O  O225  1  0.01900000  0.59780000  0.11130000  1.0 -0.9696214059
O  O226  1  0.40220000  0.98100000  0.61130000  1.0 -0.9696214059
O  O227  1  0.99480000  0.99000000  0.83790000  1.0 -0.7902500809
O  O228  1  0.01000000  0.00520000  0.33790000  1.0 -0.7902500809
O  O229  1  0.08380000  0.19760000  0.80390000  1.0 -0.5862931342
O  O230  1  0.80240000  0.91620000  0.30390000  1.0 -0.5862931342
O  O231  1  0.06560000  0.31160000  0.01240000  1.0 -1.0500634581
O  O232  1  0.68840000  0.93440000  0.51240000  1.0 -1.0426680476
O  O233  1  0.09190000  0.43990000  0.36810000  1.0 -1.0299424997
O  O234  1  0.56010000  0.90810000  0.86810000  1.0 -1.0299424997
O  O235  1  0.96610000  0.78650000  0.82380000  1.0 -0.9315418333
O  O236  1  0.21350000  0.03390000  0.32380000  1.0 -0.9315418333
O  O237  1  0.80470000  0.48070000  0.79190000  1.0 -1.0710563227
O  O238  1  0.51930000  0.19530000  0.29190000  1.0 -1.0710563227
O  O239  1  0.99730000  0.62010000  0.35950000  1.0 -0.7392866791
O  O240  1  0.37990000  0.00270000  0.85950000  1.0 -0.7392866791
O  O241  1  0.16580000  0.81260000  0.12440000  1.0 -1.0086985052
O  O242  1  0.18740000  0.83420000  0.62440000  1.0 -1.0086985052
O  O243  1  0.89700000  0.94180000  0.86850000  1.0 -0.9912816317
O  O244  1  0.05820000  0.10300000  0.36850000  1.0 -0.9912816317
O  O245  1  0.98410000  0.41810000  0.91040000  1.0 -1.0187519596
O  O246  1  0.58190000  0.01590000  0.41040000  1.0 -1.0187519596
O  O247  1  0.07800000  0.58600000  0.22760000  1.0 -0.9595281092
O  O248  1  0.41400000  0.92200000  0.72760000  1.0 -0.9595281092
O  O249  1  0.88690000  0.61610000  0.03060000  1.0 -1.0710563227
O  O250  1  0.38390000  0.11310000  0.53060000  1.0 -1.075979057
O  O251  1  0.86570000  0.76090000  0.83290000  1.0 -1.0299424997
O  O252  1  0.23910000  0.13430000  0.33290000  1.0 -1.0299424997
