# DDEC6 charges by PACMAN v1.1 (https://github.com/mtap-research/PACMAN-charge/)
data_ODEZAB_ASR_pacman
_symmetry_space_group_name_H-M   'P 1'
_cell_length_a   17.06930000
_cell_length_b   17.06930000
_cell_length_c   17.06930000
_cell_angle_alpha   66.18750000
_cell_angle_beta   66.18750000
_cell_angle_gamma   66.18750000
_symmetry_Int_Tables_number   1
_chemical_formula_structural   CuH8C14O5
_chemical_formula_sum   'Cu6 H48 C84 O30'
_cell_volume   3986.73316011
_cell_formula_units_Z   6
loop_
 _symmetry_equiv_pos_site_id
 _symmetry_equiv_pos_as_xyz
  1  'x, y, z'
loop_
 _atom_site_type_symbol
 _atom_site_label
 _atom_site_symmetry_multiplicity
 _atom_site_fract_x
 _atom_site_fract_y
 _atom_site_fract_z
 _atom_site_occupancy
 _atom_site_charge
Cu  Cu1  1  0.50382000  0.50382000  0.07452000  1.0 0.8620155663
Cu  Cu2  1  0.50382000  0.07452000  0.50382000  1.0 0.8620155663
Cu  Cu3  1  0.07452000  0.50382000  0.50382000  1.0 0.8620155663
Cu  Cu4  1  0.49618000  0.92548000  0.49618000  1.0 0.8620155663
Cu  Cu5  1  0.49618000  0.49618000  0.92548000  1.0 0.8620155663
Cu  Cu6  1  0.92548000  0.49618000  0.49618000  1.0 0.8620155663
H  H1  1  0.23005000  0.52340000  0.23005000  1.0 0.1425082445
H  H2  1  0.52340000  0.23005000  0.23005000  1.0 0.1425082445
H  H3  1  0.23005000  0.23005000  0.52340000  1.0 0.1425082445
H  H4  1  0.76995000  0.76995000  0.47660000  1.0 0.1425082445
H  H5  1  0.47660000  0.76995000  0.76995000  1.0 0.1425082445
H  H6  1  0.76995000  0.47660000  0.76995000  1.0 0.1425082445
H  H7  1  0.20880000  0.54930000  0.99410000  1.0 0.1346182361
H  H8  1  0.54930000  0.99410000  0.20880000  1.0 0.1346182361
H  H9  1  0.99410000  0.20880000  0.54930000  1.0 0.1346182361
H  H10  1  0.79120000  0.00590000  0.45070000  1.0 0.1346182361
H  H11  1  0.45070000  0.79120000  0.00590000  1.0 0.1346182361
H  H12  1  0.00590000  0.45070000  0.79120000  1.0 0.1346182361
H  H13  1  0.79120000  0.45070000  0.00590000  1.0 0.1346182361
H  H14  1  0.45070000  0.00590000  0.79120000  1.0 0.1346182361
H  H15  1  0.00590000  0.79120000  0.45070000  1.0 0.1346182361
H  H16  1  0.20880000  0.99410000  0.54930000  1.0 0.1346182361
H  H17  1  0.54930000  0.20880000  0.99410000  1.0 0.1346182361
H  H18  1  0.99410000  0.54930000  0.20880000  1.0 0.1346182361
H  H19  1  0.10340000  0.39270000  0.10340000  1.0 0.1181581751
H  H20  1  0.39270000  0.10340000  0.10340000  1.0 0.1181581751
H  H21  1  0.10340000  0.10340000  0.39270000  1.0 0.1181581751
H  H22  1  0.89660000  0.89660000  0.60730000  1.0 0.1181581751
H  H23  1  0.60730000  0.89660000  0.89660000  1.0 0.1181581751
H  H24  1  0.89660000  0.60730000  0.89660000  1.0 0.1181581751
H  H25  1  0.91315000  0.72280000  0.91315000  1.0 0.1141533464
H  H26  1  0.72280000  0.91315000  0.91315000  1.0 0.1141533464
H  H27  1  0.91315000  0.91315000  0.72280000  1.0 0.1141533464
H  H28  1  0.08685000  0.08685000  0.27720000  1.0 0.1141533464
H  H29  1  0.27720000  0.08685000  0.08685000  1.0 0.1141533464
H  H30  1  0.08685000  0.27720000  0.08685000  1.0 0.1141533464
H  H31  1  0.99895000  0.82540000  0.99895000  1.0 0.0992498011
H  H32  1  0.82540000  0.99895000  0.99895000  1.0 0.0992498011
H  H33  1  0.99895000  0.99895000  0.82540000  1.0 0.0992498011
H  H34  1  0.00105000  0.00105000  0.17460000  1.0 0.0992498011
H  H35  1  0.17460000  0.00105000  0.00105000  1.0 0.0992498011
H  H36  1  0.00105000  0.17460000  0.00105000  1.0 0.0992498011
H  H37  1  0.91470000  0.80950000  0.99890000  1.0 0.087493882
H  H38  1  0.80950000  0.99890000  0.91470000  1.0 0.087493882
H  H39  1  0.99890000  0.91470000  0.80950000  1.0 0.087493882
H  H40  1  0.08530000  0.00110000  0.19050000  1.0 0.087493882
H  H41  1  0.19050000  0.08530000  0.00110000  1.0 0.087493882
H  H42  1  0.00110000  0.19050000  0.08530000  1.0 0.087493882
H  H43  1  0.08530000  0.19050000  0.00110000  1.0 0.087493882
H  H44  1  0.19050000  0.00110000  0.08530000  1.0 0.087493882
H  H45  1  0.00110000  0.08530000  0.19050000  1.0 0.087493882
H  H46  1  0.91470000  0.99890000  0.80950000  1.0 0.087493882
H  H47  1  0.80950000  0.91470000  0.99890000  1.0 0.087493882
H  H48  1  0.99890000  0.80950000  0.91470000  1.0 0.087493882
C  C1  1  0.33333333  0.52325000  0.06597000  1.0 0.5801958204
C  C2  1  0.52325000  0.06597000  0.33333333  1.0 0.5801958204
C  C3  1  0.06597000  0.33333333  0.52325000  1.0 0.5801958204
C  C4  1  0.66666667  0.93403000  0.47675000  1.0 0.5801958204
C  C5  1  0.47675000  0.66666667  0.93403000  1.0 0.5801958204
C  C6  1  0.93403000  0.47675000  0.66666667  1.0 0.5801958204
C  C7  1  0.66666667  0.47675000  0.93403000  1.0 0.5801958204
C  C8  1  0.47675000  0.93403000  0.66666667  1.0 0.5801958204
C  C9  1  0.93403000  0.66666667  0.47675000  1.0 0.5801958204
C  C10  1  0.33333333  0.06597000  0.52325000  1.0 0.5801958204
C  C11  1  0.52325000  0.33333333  0.06597000  1.0 0.5801958204
C  C12  1  0.06597000  0.52325000  0.33333333  1.0 0.5801958204
C  C13  1  0.23551000  0.53392000  0.10553000  1.0 -0.0264713052
C  C14  1  0.53392000  0.10553000  0.23551000  1.0 -0.0264713052
C  C15  1  0.10553000  0.23551000  0.53392000  1.0 -0.0264713052
C  C16  1  0.76449000  0.89447000  0.46608000  1.0 -0.0264713052
C  C17  1  0.46608000  0.76449000  0.89447000  1.0 -0.0264713052
C  C18  1  0.89447000  0.46608000  0.76449000  1.0 -0.0264713052
C  C19  1  0.76449000  0.46608000  0.89447000  1.0 -0.0264713052
C  C20  1  0.46608000  0.89447000  0.76449000  1.0 -0.0264713052
C  C21  1  0.89447000  0.76449000  0.46608000  1.0 -0.0264713052
C  C22  1  0.23551000  0.10553000  0.53392000  1.0 -0.0264713052
C  C23  1  0.53392000  0.23551000  0.10553000  1.0 -0.0264713052
C  C24  1  0.10553000  0.53392000  0.23551000  1.0 -0.0264713052
C  C25  1  0.19597000  0.52937000  0.19597000  1.0 -0.1078588158
C  C26  1  0.52937000  0.19597000  0.19597000  1.0 -0.1078588158
C  C27  1  0.19597000  0.19597000  0.52937000  1.0 -0.1078588158
C  C28  1  0.80403000  0.80403000  0.47063000  1.0 -0.1078588158
C  C29  1  0.47063000  0.80403000  0.80403000  1.0 -0.1078588158
C  C30  1  0.80403000  0.47063000  0.80403000  1.0 -0.1078588158
C  C31  1  0.18271000  0.54625000  0.05432000  1.0 -0.156574925
C  C32  1  0.54625000  0.05432000  0.18271000  1.0 -0.156574925
C  C33  1  0.05432000  0.18271000  0.54625000  1.0 -0.156574925
C  C34  1  0.81729000  0.94568000  0.45375000  1.0 -0.156574925
C  C35  1  0.45375000  0.81729000  0.94568000  1.0 -0.156574925
C  C36  1  0.94568000  0.45375000  0.81729000  1.0 -0.156574925
C  C37  1  0.81729000  0.45375000  0.94568000  1.0 -0.156574925
C  C38  1  0.45375000  0.94568000  0.81729000  1.0 -0.156574925
C  C39  1  0.94568000  0.81729000  0.45375000  1.0 -0.156574925
C  C40  1  0.18271000  0.05432000  0.54625000  1.0 -0.156574925
C  C41  1  0.54625000  0.18271000  0.05432000  1.0 -0.156574925
C  C42  1  0.05432000  0.54625000  0.18271000  1.0 -0.156574925
C  C43  1  0.09202000  0.55397000  0.09202000  1.0 0.0746337757
C  C44  1  0.55397000  0.09202000  0.09202000  1.0 0.0746337757
C  C45  1  0.09202000  0.09202000  0.55397000  1.0 0.0746337757
C  C46  1  0.90798000  0.90798000  0.44603000  1.0 0.0746337757
C  C47  1  0.44603000  0.90798000  0.90798000  1.0 0.0751119614
C  C48  1  0.90798000  0.44603000  0.90798000  1.0 0.0751119614
C  C49  1  0.06821000  0.40386000  0.06821000  1.0 -0.1022154381
C  C50  1  0.40386000  0.06821000  0.06821000  1.0 -0.1022154381
C  C51  1  0.06821000  0.06821000  0.40386000  1.0 -0.1022154381
C  C52  1  0.93179000  0.93179000  0.59614000  1.0 -0.1022154381
C  C53  1  0.59614000  0.93179000  0.93179000  1.0 -0.1022154381
C  C54  1  0.93179000  0.59614000  0.93179000  1.0 -0.1022154381
C  C55  1  0.02611000  0.49451000  0.02611000  1.0 0.0344106615
C  C56  1  0.49451000  0.02611000  0.02611000  1.0 0.0344106615
C  C57  1  0.02611000  0.02611000  0.49451000  1.0 0.0344106615
C  C58  1  0.97389000  0.97389000  0.50549000  1.0 0.0344106615
C  C59  1  0.50549000  0.97389000  0.97389000  1.0 0.0344106615
C  C60  1  0.97389000  0.50549000  0.97389000  1.0 0.0344106615
C  C61  1  0.03645000  0.56680000  0.03645000  1.0 -0.0827239773
C  C62  1  0.56680000  0.03645000  0.03645000  1.0 -0.0827239773
C  C63  1  0.03645000  0.03645000  0.56680000  1.0 -0.0827239773
C  C64  1  0.96355000  0.96355000  0.43320000  1.0 -0.0827239773
C  C65  1  0.43320000  0.96355000  0.96355000  1.0 -0.0827239773
C  C66  1  0.96355000  0.43320000  0.96355000  1.0 -0.0827239773
C  C67  1  0.99443000  0.65033000  0.99443000  1.0 0.1691109672
C  C68  1  0.65033000  0.99443000  0.99443000  1.0 0.1691109672
C  C69  1  0.99443000  0.99443000  0.65033000  1.0 0.1691109672
C  C70  1  0.00557000  0.00557000  0.34967000  1.0 0.1691109672
C  C71  1  0.34967000  0.00557000  0.00557000  1.0 0.1691109672
C  C72  1  0.00557000  0.34967000  0.00557000  1.0 0.1691109672
C  C73  1  0.94148000  0.66473000  0.94148000  1.0 -0.2358918925
C  C74  1  0.66473000  0.94148000  0.94148000  1.0 -0.2358918925
C  C75  1  0.94148000  0.94148000  0.66473000  1.0 -0.2358918925
C  C76  1  0.05852000  0.05852000  0.33527000  1.0 -0.2358918925
C  C77  1  0.33527000  0.05852000  0.05852000  1.0 -0.2358918925
C  C78  1  0.05852000  0.33527000  0.05852000  1.0 -0.2358918925
C  C79  1  0.98370000  0.78750000  0.98370000  1.0 -0.1457983196
C  C80  1  0.78750000  0.98370000  0.98370000  1.0 -0.1457983196
C  C81  1  0.98370000  0.98370000  0.78750000  1.0 -0.1457983196
C  C82  1  0.01630000  0.01630000  0.21250000  1.0 -0.1457983196
C  C83  1  0.21250000  0.01630000  0.01630000  1.0 -0.1457983196
C  C84  1  0.01630000  0.21250000  0.01630000  1.0 -0.1457983196
O  O1  1  0.37466000  0.52157000  0.11280000  1.0 -0.514215662
O  O2  1  0.52157000  0.11280000  0.37466000  1.0 -0.514215662
O  O3  1  0.11280000  0.37466000  0.52157000  1.0 -0.514215662
O  O4  1  0.62534000  0.88720000  0.47843000  1.0 -0.514215662
O  O5  1  0.47843000  0.62534000  0.88720000  1.0 -0.514215662
O  O6  1  0.88720000  0.47843000  0.62534000  1.0 -0.514215662
O  O7  1  0.62534000  0.47843000  0.88720000  1.0 -0.514215662
O  O8  1  0.47843000  0.88720000  0.62534000  1.0 -0.514215662
O  O9  1  0.88720000  0.62534000  0.47843000  1.0 -0.514215662
O  O10  1  0.37466000  0.11280000  0.52157000  1.0 -0.514215662
O  O11  1  0.52157000  0.37466000  0.11280000  1.0 -0.514215662
O  O12  1  0.11280000  0.52157000  0.37466000  1.0 -0.514215662
O  O13  1  0.36754000  0.51625000  0.98739000  1.0 -0.5336398025
O  O14  1  0.51625000  0.98739000  0.36754000  1.0 -0.5336398025
O  O15  1  0.98739000  0.36754000  0.51625000  1.0 -0.5336398025
O  O16  1  0.63246000  0.01261000  0.48375000  1.0 -0.5336398025
O  O17  1  0.48375000  0.63246000  0.01261000  1.0 -0.5336398025
O  O18  1  0.01261000  0.48375000  0.63246000  1.0 -0.5336398025
O  O19  1  0.63246000  0.48375000  0.01261000  1.0 -0.5336398025
O  O20  1  0.48375000  0.01261000  0.63246000  1.0 -0.5336398025
O  O21  1  0.01261000  0.63246000  0.48375000  1.0 -0.5336398025
O  O22  1  0.36754000  0.98739000  0.51625000  1.0 -0.5336398025
O  O23  1  0.51625000  0.36754000  0.98739000  1.0 -0.5336398025
O  O24  1  0.98739000  0.51625000  0.36754000  1.0 -0.5336398025
O  O25  1  0.00550000  0.71900000  0.00550000  1.0 -0.0827239773
O  O26  1  0.71900000  0.00550000  0.00550000  1.0 -0.0827239773
O  O27  1  0.00550000  0.00550000  0.71900000  1.0 -0.0827239773
O  O28  1  0.99450000  0.99450000  0.28100000  1.0 -0.0827239773
O  O29  1  0.28100000  0.99450000  0.99450000  1.0 -0.0827239773
O  O30  1  0.99450000  0.28100000  0.99450000  1.0 -0.0827239773
