# DDEC6 charges by PACMAN v1.1 (https://github.com/mtap-research/PACMAN-charge/)
data_ODIMAQ_ASR_pacman
_symmetry_space_group_name_H-M   'P 1'
_cell_length_a   14.81270000
_cell_length_b   14.81270000
_cell_length_c   15.61300000
_cell_angle_alpha   90.00000000
_cell_angle_beta   90.00000000
_cell_angle_gamma   120.00000000
_symmetry_Int_Tables_number   1
_chemical_formula_structural   Sm2Zn3H24(C4O5)6
_chemical_formula_sum   'Sm4 Zn6 H48 C48 O60'
_cell_volume   2966.78070488
_cell_formula_units_Z   2
loop_
 _symmetry_equiv_pos_site_id
 _symmetry_equiv_pos_as_xyz
  1  'x, y, z'
loop_
 _atom_site_type_symbol
 _atom_site_label
 _atom_site_symmetry_multiplicity
 _atom_site_fract_x
 _atom_site_fract_y
 _atom_site_fract_z
 _atom_site_occupancy
 _atom_site_charge
Sm  Sm1  1  0.33333333  0.66666667  0.25000000  1.0 1.9307217285
Sm  Sm2  1  0.66666667  0.33333333  0.25000000  1.0 1.9307217285
Sm  Sm3  1  0.66666667  0.33333333  0.75000000  1.0 1.9307217285
Sm  Sm4  1  0.33333333  0.66666667  0.75000000  1.0 1.9307217285
Zn  Zn1  1  0.50000000  0.00000000  0.00000000  1.0 1.0022522892
Zn  Zn2  1  0.00000000  0.50000000  0.00000000  1.0 1.0022522892
Zn  Zn3  1  0.50000000  0.50000000  0.00000000  1.0 1.0022522892
Zn  Zn4  1  0.00000000  0.50000000  0.50000000  1.0 1.0022522892
Zn  Zn5  1  0.50000000  0.00000000  0.50000000  1.0 1.0022522892
Zn  Zn6  1  0.50000000  0.50000000  0.50000000  1.0 1.0022522892
H  H1  1  0.28057000  0.91050000  0.23030000  1.0 0.1234555628
H  H2  1  0.08950000  0.37007000  0.23030000  1.0 0.1234555628
H  H3  1  0.62993000  0.71943000  0.23030000  1.0 0.1234555628
H  H4  1  0.91050000  0.62993000  0.23030000  1.0 0.1234555628
H  H5  1  0.37007000  0.28057000  0.23030000  1.0 0.1234555628
H  H6  1  0.91050000  0.28057000  0.26970000  1.0 0.1234555628
H  H7  1  0.62993000  0.91050000  0.26970000  1.0 0.1234555628
H  H8  1  0.28057000  0.37007000  0.26970000  1.0 0.1234555628
H  H9  1  0.71943000  0.08950000  0.23030000  1.0 0.1234555628
H  H10  1  0.37007000  0.08950000  0.26970000  1.0 0.1234555628
H  H11  1  0.71943000  0.62993000  0.26970000  1.0 0.1234555628
H  H12  1  0.08950000  0.71943000  0.26970000  1.0 0.1234555628
H  H13  1  0.71943000  0.08950000  0.76970000  1.0 0.1234555628
H  H14  1  0.91050000  0.62993000  0.76970000  1.0 0.1234555628
H  H15  1  0.37007000  0.28057000  0.76970000  1.0 0.1234555628
H  H16  1  0.08950000  0.37007000  0.76970000  1.0 0.1234555628
H  H17  1  0.62993000  0.71943000  0.76970000  1.0 0.1234555628
H  H18  1  0.08950000  0.71943000  0.73030000  1.0 0.1234555628
H  H19  1  0.37007000  0.08950000  0.73030000  1.0 0.1234555628
H  H20  1  0.71943000  0.62993000  0.73030000  1.0 0.1234555628
H  H21  1  0.28057000  0.91050000  0.76970000  1.0 0.1234555628
H  H22  1  0.62993000  0.91050000  0.73030000  1.0 0.1234555628
H  H23  1  0.28057000  0.37007000  0.73030000  1.0 0.1234555628
H  H24  1  0.91050000  0.28057000  0.73030000  1.0 0.1234555628
H  H25  1  0.20277000  0.83510000  0.16090000  1.0 0.1401348696
H  H26  1  0.16490000  0.36767000  0.16090000  1.0 0.1401348696
H  H27  1  0.63233000  0.79723000  0.16090000  1.0 0.1401348696
H  H28  1  0.83510000  0.63233000  0.16090000  1.0 0.1401348696
H  H29  1  0.36767000  0.20277000  0.16090000  1.0 0.1401348696
H  H30  1  0.83510000  0.20277000  0.33910000  1.0 0.1401348696
H  H31  1  0.63233000  0.83510000  0.33910000  1.0 0.1401348696
H  H32  1  0.20277000  0.36767000  0.33910000  1.0 0.1401348696
H  H33  1  0.79723000  0.16490000  0.16090000  1.0 0.1401348696
H  H34  1  0.36767000  0.16490000  0.33910000  1.0 0.1401348696
H  H35  1  0.79723000  0.63233000  0.33910000  1.0 0.1401348696
H  H36  1  0.16490000  0.79723000  0.33910000  1.0 0.1401348696
H  H37  1  0.79723000  0.16490000  0.83910000  1.0 0.1401348696
H  H38  1  0.83510000  0.63233000  0.83910000  1.0 0.1401348696
H  H39  1  0.36767000  0.20277000  0.83910000  1.0 0.1401348696
H  H40  1  0.16490000  0.36767000  0.83910000  1.0 0.1401348696
H  H41  1  0.63233000  0.79723000  0.83910000  1.0 0.1401348696
H  H42  1  0.16490000  0.79723000  0.66090000  1.0 0.1401348696
H  H43  1  0.36767000  0.16490000  0.66090000  1.0 0.1401348696
H  H44  1  0.79723000  0.63233000  0.66090000  1.0 0.1401348696
H  H45  1  0.20277000  0.83510000  0.83910000  1.0 0.1401348696
H  H46  1  0.63233000  0.83510000  0.66090000  1.0 0.1401348696
H  H47  1  0.20277000  0.36767000  0.66090000  1.0 0.1401348696
H  H48  1  0.83510000  0.20277000  0.66090000  1.0 0.1401348696
C  C1  1  0.35167000  0.86870000  0.14030000  1.0 0.6332318918
C  C2  1  0.13130000  0.48297000  0.14030000  1.0 0.6332318918
C  C3  1  0.51703000  0.64833000  0.14030000  1.0 0.6332318918
C  C4  1  0.86870000  0.51703000  0.14030000  1.0 0.6332318918
C  C5  1  0.48297000  0.35167000  0.14030000  1.0 0.6332318918
C  C6  1  0.86870000  0.35167000  0.35970000  1.0 0.6332318918
C  C7  1  0.51703000  0.86870000  0.35970000  1.0 0.6332318918
C  C8  1  0.35167000  0.48297000  0.35970000  1.0 0.6332318918
C  C9  1  0.64833000  0.13130000  0.14030000  1.0 0.6332318918
C  C10  1  0.48297000  0.13130000  0.35970000  1.0 0.6332318918
C  C11  1  0.64833000  0.51703000  0.35970000  1.0 0.6332318918
C  C12  1  0.13130000  0.64833000  0.35970000  1.0 0.6332318918
C  C13  1  0.64833000  0.13130000  0.85970000  1.0 0.6332318918
C  C14  1  0.86870000  0.51703000  0.85970000  1.0 0.6332318918
C  C15  1  0.48297000  0.35167000  0.85970000  1.0 0.6332318918
C  C16  1  0.13130000  0.48297000  0.85970000  1.0 0.6332318918
C  C17  1  0.51703000  0.64833000  0.85970000  1.0 0.6332318918
C  C18  1  0.13130000  0.64833000  0.64030000  1.0 0.6332318918
C  C19  1  0.48297000  0.13130000  0.64030000  1.0 0.6332318918
C  C20  1  0.64833000  0.51703000  0.64030000  1.0 0.6332318918
C  C21  1  0.35167000  0.86870000  0.85970000  1.0 0.6332318918
C  C22  1  0.51703000  0.86870000  0.64030000  1.0 0.6332318918
C  C23  1  0.35167000  0.48297000  0.64030000  1.0 0.6332318918
C  C24  1  0.86870000  0.35167000  0.64030000  1.0 0.6332318918
C  C25  1  0.26217000  0.84890000  0.19620000  1.0 -0.1763210609
C  C26  1  0.15110000  0.41327000  0.19620000  1.0 -0.1763210609
C  C27  1  0.58673000  0.73783000  0.19620000  1.0 -0.1763210609
C  C28  1  0.84890000  0.58673000  0.19620000  1.0 -0.1763210609
C  C29  1  0.41327000  0.26217000  0.19620000  1.0 -0.1763210609
C  C30  1  0.84890000  0.26217000  0.30380000  1.0 -0.1763210609
C  C31  1  0.58673000  0.84890000  0.30380000  1.0 -0.1763210609
C  C32  1  0.26217000  0.41327000  0.30380000  1.0 -0.1763210609
C  C33  1  0.73783000  0.15110000  0.19620000  1.0 -0.1763210609
C  C34  1  0.41327000  0.15110000  0.30380000  1.0 -0.1763210609
C  C35  1  0.73783000  0.58673000  0.30380000  1.0 -0.1763210609
C  C36  1  0.15110000  0.73783000  0.30380000  1.0 -0.1763210609
C  C37  1  0.73783000  0.15110000  0.80380000  1.0 -0.1763210609
C  C38  1  0.84890000  0.58673000  0.80380000  1.0 -0.1763210609
C  C39  1  0.41327000  0.26217000  0.80380000  1.0 -0.1763210609
C  C40  1  0.15110000  0.41327000  0.80380000  1.0 -0.1763210609
C  C41  1  0.58673000  0.73783000  0.80380000  1.0 -0.1763210609
C  C42  1  0.15110000  0.73783000  0.69620000  1.0 -0.1763210609
C  C43  1  0.41327000  0.15110000  0.69620000  1.0 -0.1763210609
C  C44  1  0.73783000  0.58673000  0.69620000  1.0 -0.1763210609
C  C45  1  0.26217000  0.84890000  0.80380000  1.0 -0.1763210609
C  C46  1  0.58673000  0.84890000  0.69620000  1.0 -0.1763210609
C  C47  1  0.26217000  0.41327000  0.69620000  1.0 -0.1763210609
C  C48  1  0.84890000  0.26217000  0.69620000  1.0 -0.1763210609
O  O1  1  0.38507000  0.80520000  0.14460000  1.0 -0.6330548688
O  O2  1  0.19480000  0.57987000  0.14460000  1.0 -0.6330548688
O  O3  1  0.42013000  0.61493000  0.14460000  1.0 -0.6330548688
O  O4  1  0.80520000  0.42013000  0.14460000  1.0 -0.6330548688
O  O5  1  0.57987000  0.38507000  0.14460000  1.0 -0.6330548688
O  O6  1  0.80520000  0.38507000  0.35540000  1.0 -0.6330548688
O  O7  1  0.42013000  0.80520000  0.35540000  1.0 -0.6330548688
O  O8  1  0.38507000  0.57987000  0.35540000  1.0 -0.6330548688
O  O9  1  0.61493000  0.19480000  0.14460000  1.0 -0.6330548688
O  O10  1  0.57987000  0.19480000  0.35540000  1.0 -0.6330548688
O  O11  1  0.61493000  0.42013000  0.35540000  1.0 -0.6330548688
O  O12  1  0.19480000  0.61493000  0.35540000  1.0 -0.6330548688
O  O13  1  0.61493000  0.19480000  0.85540000  1.0 -0.6330548688
O  O14  1  0.80520000  0.42013000  0.85540000  1.0 -0.6330548688
O  O15  1  0.57987000  0.38507000  0.85540000  1.0 -0.6330548688
O  O16  1  0.19480000  0.57987000  0.85540000  1.0 -0.6330548688
O  O17  1  0.42013000  0.61493000  0.85540000  1.0 -0.6330548688
O  O18  1  0.19480000  0.61493000  0.64460000  1.0 -0.6330548688
O  O19  1  0.57987000  0.19480000  0.64460000  1.0 -0.6330548688
O  O20  1  0.61493000  0.42013000  0.64460000  1.0 -0.6330548688
O  O21  1  0.38507000  0.80520000  0.85540000  1.0 -0.6330548688
O  O22  1  0.42013000  0.80520000  0.64460000  1.0 -0.6330548688
O  O23  1  0.38507000  0.57987000  0.64460000  1.0 -0.6330548688
O  O24  1  0.80520000  0.38507000  0.64460000  1.0 -0.6330548688
O  O25  1  0.38537000  0.94560000  0.09240000  1.0 -0.5516618629
O  O26  1  0.05440000  0.43977000  0.09240000  1.0 -0.5516618629
O  O27  1  0.56023000  0.61463000  0.09240000  1.0 -0.5516618629
O  O28  1  0.94560000  0.56023000  0.09240000  1.0 -0.5516618629
O  O29  1  0.43977000  0.38537000  0.09240000  1.0 -0.5516618629
O  O30  1  0.94560000  0.38537000  0.40760000  1.0 -0.5516618629
O  O31  1  0.56023000  0.94560000  0.40760000  1.0 -0.5516618629
O  O32  1  0.38537000  0.43977000  0.40760000  1.0 -0.5516618629
O  O33  1  0.61463000  0.05440000  0.09240000  1.0 -0.5516618629
O  O34  1  0.43977000  0.05440000  0.40760000  1.0 -0.5516618629
O  O35  1  0.61463000  0.56023000  0.40760000  1.0 -0.5516618629
O  O36  1  0.05440000  0.61463000  0.40760000  1.0 -0.5516618629
O  O37  1  0.61463000  0.05440000  0.90760000  1.0 -0.5516618629
O  O38  1  0.94560000  0.56023000  0.90760000  1.0 -0.5516618629
O  O39  1  0.43977000  0.38537000  0.90760000  1.0 -0.5516618629
O  O40  1  0.05440000  0.43977000  0.90760000  1.0 -0.5516618629
O  O41  1  0.56023000  0.61463000  0.90760000  1.0 -0.5516618629
O  O42  1  0.05440000  0.61463000  0.59240000  1.0 -0.5516618629
O  O43  1  0.43977000  0.05440000  0.59240000  1.0 -0.5516618629
O  O44  1  0.61463000  0.56023000  0.59240000  1.0 -0.5516618629
O  O45  1  0.38537000  0.94560000  0.90760000  1.0 -0.5516618629
O  O46  1  0.56023000  0.94560000  0.59240000  1.0 -0.5516618629
O  O47  1  0.38537000  0.43977000  0.59240000  1.0 -0.5516618629
O  O48  1  0.94560000  0.38537000  0.59240000  1.0 -0.5516618629
O  O49  1  0.23543000  0.76457000  0.25000000  1.0 -0.216269117
O  O50  1  0.23543000  0.47087000  0.25000000  1.0 -0.216269117
O  O51  1  0.52913000  0.76457000  0.25000000  1.0 -0.216269117
O  O52  1  0.76457000  0.52913000  0.25000000  1.0 -0.216269117
O  O53  1  0.47087000  0.23543000  0.25000000  1.0 -0.216269117
O  O54  1  0.76457000  0.23543000  0.25000000  1.0 -0.216269117
O  O55  1  0.76457000  0.23543000  0.75000000  1.0 -0.216269117
O  O56  1  0.76457000  0.52913000  0.75000000  1.0 -0.216269117
O  O57  1  0.47087000  0.23543000  0.75000000  1.0 -0.216269117
O  O58  1  0.23543000  0.47087000  0.75000000  1.0 -0.216269117
O  O59  1  0.52913000  0.76457000  0.75000000  1.0 -0.216269117
O  O60  1  0.23543000  0.76457000  0.75000000  1.0 -0.216269117
