# DDEC6 charges by PACMAN v1.1 (https://github.com/mtap-research/PACMAN-charge/)
data_ODIXIK_ASR_pacman
_symmetry_space_group_name_H-M   'P 1'
_cell_length_a   13.77500000
_cell_length_b   14.50700000
_cell_length_c   24.24400000
_cell_angle_alpha   83.21700000
_cell_angle_beta   81.79700000
_cell_angle_gamma   65.57200000
_symmetry_Int_Tables_number   1
_chemical_formula_structural   Cd8Si2H40C67O26
_chemical_formula_sum   'Cd16 Si4 H80 C134 O52'
_cell_volume   4356.54664653
_cell_formula_units_Z   2
loop_
 _symmetry_equiv_pos_site_id
 _symmetry_equiv_pos_as_xyz
  1  'x, y, z'
loop_
 _atom_site_type_symbol
 _atom_site_label
 _atom_site_symmetry_multiplicity
 _atom_site_fract_x
 _atom_site_fract_y
 _atom_site_fract_z
 _atom_site_occupancy
 _atom_site_charge
Cd  Cd1  1  0.74745000  0.77374000  0.60062000  1.0 0.9159966608
Cd  Cd2  1  0.25255000  0.22626000  0.39938000  1.0 0.9159966608
Cd  Cd3  1  0.75074000  0.74967000  0.74979000  1.0 0.9938557943
Cd  Cd4  1  0.24926000  0.25033000  0.25021000  1.0 0.9938557943
Cd  Cd5  1  0.27160000  0.25980000  0.10360000  1.0 0.5827596387
Cd  Cd6  1  0.72840000  0.74020000  0.89640000  1.0 0.5827596387
Cd  Cd7  1  0.23510000  0.73670000  0.01390000  1.0 1.0354712208
Cd  Cd8  1  0.76490000  0.26330000  0.98610000  1.0 1.0354712208
Cd  Cd9  1  0.22620000  0.28590000  0.09812000  1.0 0.5913019379
Cd  Cd10  1  0.77380000  0.71410000  0.90188000  1.0 0.5913019379
Cd  Cd11  1  0.23010000  0.78160000  0.48190000  1.0 0.7246117195
Cd  Cd12  1  0.76990000  0.21840000  0.51810000  1.0 0.7246117195
Cd  Cd13  1  0.35380000  0.48040000  0.05590000  1.0 0.9479552707
Cd  Cd14  1  0.64620000  0.51960000  0.94410000  1.0 0.9479552707
Cd  Cd15  1  0.17830000  0.00420000  0.44838000  1.0 0.8476308187
Cd  Cd16  1  0.82170000  0.99580000  0.55162000  1.0 0.8476308187
Si  Si1  1  0.36915000  0.39464000  0.73624000  1.0 0.4915075501
Si  Si2  1  0.63085000  0.60536000  0.26376000  1.0 0.4915075501
Si  Si3  1  0.12890000  0.10540000  0.76470000  1.0 0.523538371
Si  Si4  1  0.87110000  0.89460000  0.23530000  1.0 0.523538371
H  H1  1  0.09130000  0.48130000  0.60780000  1.0 0.1188002502
H  H2  1  0.90870000  0.51870000  0.39220000  1.0 0.1188002502
H  H3  1  0.25590000  0.38060000  0.64210000  1.0 0.1009590637
H  H4  1  0.74410000  0.61940000  0.35790000  1.0 0.1009590637
H  H5  1  0.18530000  0.57270000  0.76460000  1.0 0.107888182
H  H6  1  0.81470000  0.42730000  0.23540000  1.0 0.107888182
H  H7  1  0.02060000  0.67330000  0.73040000  1.0 0.107888182
H  H8  1  0.97940000  0.32670000  0.26960000  1.0 0.107888182
H  H9  1  0.43250000  0.37960000  0.93220000  1.0 0.0890885515
H  H10  1  0.56750000  0.62040000  0.06780000  1.0 0.0890885515
H  H11  1  0.46430000  0.40950000  0.83570000  1.0 0.0890885515
H  H12  1  0.53570000  0.59050000  0.16430000  1.0 0.0890885515
H  H13  1  0.21740000  0.34050000  0.81160000  1.0 0.1009590637
H  H14  1  0.78260000  0.65950000  0.18840000  1.0 0.1009590637
H  H15  1  0.18560000  0.31060000  0.90810000  1.0 0.107888182
H  H16  1  0.81440000  0.68940000  0.09190000  1.0 0.107888182
H  H17  1  0.56110000  0.12930000  0.60250000  1.0 0.1009590637
H  H18  1  0.43890000  0.87070000  0.39750000  1.0 0.1009590637
H  H19  1  0.46060000  0.29590000  0.62770000  1.0 0.1009590637
H  H20  1  0.53940000  0.70410000  0.37230000  1.0 0.1009590637
H  H21  1  0.44620000  0.19450000  0.79050000  1.0 0.107888182
H  H22  1  0.55380000  0.80550000  0.20950000  1.0 0.107888182
H  H23  1  0.54680000  0.02790000  0.76520000  1.0 0.107888182
H  H24  1  0.45320000  0.97210000  0.23480000  1.0 0.107888182
H  H25  1  0.45360000  0.67520000  0.64200000  1.0 0.1009590637
H  H26  1  0.54640000  0.32480000  0.35800000  1.0 0.1009590637
H  H27  1  0.35230000  0.57780000  0.66450000  1.0 0.0890885515
H  H28  1  0.64770000  0.42220000  0.33550000  1.0 0.0890885515
H  H29  1  0.57640000  0.38300000  0.76230000  1.0 0.0890885515
H  H30  1  0.42360000  0.61700000  0.23770000  1.0 0.0890885515
H  H31  1  0.67760000  0.48050000  0.73980000  1.0 0.107888182
H  H32  1  0.32240000  0.51950000  0.26020000  1.0 0.107888182
H  H33  1  0.05110000  0.81260000  0.74670000  1.0 0.1009590637
H  H34  1  0.94890000  0.18740000  0.25330000  1.0 0.1009590637
H  H35  1  0.14830000  0.91370000  0.72360000  1.0 0.0890885515
H  H36  1  0.85170000  0.08630000  0.27640000  1.0 0.0890885515
H  H37  1  0.98610000  0.08270000  0.85500000  1.0 0.1009590637
H  H38  1  0.01390000  0.91730000  0.14500000  1.0 0.1009590637
H  H39  1  0.88890000  0.98160000  0.87810000  1.0 0.1009590637
H  H40  1  0.11110000  0.01840000  0.12190000  1.0 0.1009590637
H  H41  1  0.06450000  0.12820000  0.57040000  1.0 0.1009590637
H  H42  1  0.93550000  0.87180000  0.42960000  1.0 0.1009590637
H  H43  1  0.04020000  0.08980000  0.66570000  1.0 0.1009590637
H  H44  1  0.95980000  0.91020000  0.33430000  1.0 0.1009590637
H  H45  1  0.30380000  0.13410000  0.68520000  1.0 0.1009590637
H  H46  1  0.69620000  0.86590000  0.31480000  1.0 0.1009590637
H  H47  1  0.32750000  0.17240000  0.58980000  1.0 0.107888182
H  H48  1  0.67250000  0.82760000  0.41020000  1.0 0.107888182
H  H49  1  0.96740000  0.46700000  0.73320000  1.0 0.107888182
H  H50  1  0.03260000  0.53300000  0.26680000  1.0 0.107888182
H  H51  1  0.06400000  0.29920000  0.70920000  1.0 0.107888182
H  H52  1  0.93600000  0.70080000  0.29080000  1.0 0.107888182
H  H53  1  0.04820000  0.20200000  0.87270000  1.0 0.0839234059
H  H54  1  0.95180000  0.79800000  0.12730000  1.0 0.0839234059
H  H55  1  0.95160000  0.36990000  0.89660000  1.0 0.1268942555
H  H56  1  0.04840000  0.63010000  0.10340000  1.0 0.1268942555
H  H57  1  0.48340000  0.82650000  0.77040000  1.0 0.107888182
H  H58  1  0.51660000  0.17350000  0.22960000  1.0 0.107888182
H  H59  1  0.31900000  0.92510000  0.73550000  1.0 0.1009590637
H  H60  1  0.68100000  0.07490000  0.26450000  1.0 0.1009590637
H  H61  1  0.24360000  0.11850000  0.85790000  1.0 0.1009590637
H  H62  1  0.75640000  0.88150000  0.14210000  1.0 0.1009590637
H  H63  1  0.40810000  0.01980000  0.89280000  1.0 0.1188002502
H  H64  1  0.59190000  0.98020000  0.10720000  1.0 0.1188002502
H  H65  1  0.38380000  0.56640000  0.77860000  1.0 0.0890885515
H  H66  1  0.61620000  0.43360000  0.22140000  1.0 0.0890885515
H  H67  1  0.48500000  0.66390000  0.75610000  1.0 0.1009590637
H  H68  1  0.51500000  0.33610000  0.24390000  1.0 0.1009590637
H  H69  1  0.64600000  0.49190000  0.62580000  1.0 0.1009590637
H  H70  1  0.35400000  0.50810000  0.37420000  1.0 0.1009590637
H  H71  1  0.54490000  0.39420000  0.64820000  1.0 0.0890885515
H  H72  1  0.45510000  0.60580000  0.35180000  1.0 0.0839234059
H  H73  1  0.00990000  0.85620000  0.86020000  1.0 0.0839234059
H  H74  1  0.99010000  0.14380000  0.13980000  1.0 0.0839234059
H  H75  1  0.11710000  0.94820000  0.83950000  1.0 0.107888182
H  H76  1  0.88290000  0.05180000  0.16050000  1.0 0.1009590637
H  H77  1  0.90800000  0.14170000  0.73400000  1.0 0.1009590637
H  H78  1  0.09200000  0.85830000  0.26600000  1.0 0.1009590637
H  H79  1  0.80090000  0.04960000  0.75480000  1.0 0.1188002502
H  H80  1  0.19910000  0.95040000  0.24520000  1.0 0.1188002502
C  C1  1  0.93370000  0.65190000  0.64470000  1.0 0.568075647
C  C2  1  0.06630000  0.34810000  0.35530000  1.0 0.568075647
C  C3  1  0.04050000  0.58680000  0.66590000  1.0 -0.0189980662
C  C4  1  0.95950000  0.41320000  0.33410000  1.0 -0.0189980662
C  C5  1  0.11040000  0.49980000  0.63970000  1.0 -0.1070932227
C  C6  1  0.88960000  0.50020000  0.36030000  1.0 -0.1070932227
C  C7  1  0.20820000  0.44000000  0.66000000  1.0 -0.1001965693
C  C8  1  0.79180000  0.56000000  0.34000000  1.0 -0.1001965693
C  C9  1  0.23610000  0.46720000  0.70660000  1.0 -0.2087021519
C  C10  1  0.76390000  0.53280000  0.29340000  1.0 -0.2087021519
C  C11  1  0.16620000  0.55410000  0.73280000  1.0 -0.1001965693
C  C12  1  0.83380000  0.44590000  0.26720000  1.0 -0.1001965693
C  C13  1  0.06840000  0.61390000  0.71250000  1.0 -0.1070932227
C  C14  1  0.93160000  0.38610000  0.28750000  1.0 -0.1001965693
C  C15  1  0.30140000  0.30800000  0.99040000  1.0 0.4426727494
C  C16  1  0.69860000  0.69200000  0.00960000  1.0 0.4426727494
C  C17  1  0.30610000  0.34230000  0.92920000  1.0 0.0103043997
C  C18  1  0.69390000  0.65770000  0.07080000  1.0 0.0103043997
C  C19  1  0.38880000  0.37160000  0.90770000  1.0 -0.1070932227
C  C20  1  0.61120000  0.62840000  0.09230000  1.0 -0.1070932227
C  C21  1  0.40770000  0.38940000  0.85040000  1.0 -0.091983931
C  C22  1  0.59230000  0.61060000  0.14960000  1.0 -0.091983931
C  C23  1  0.34380000  0.37780000  0.81460000  1.0 -0.2087021519
C  C24  1  0.65620000  0.62220000  0.18540000  1.0 -0.2087021519
C  C25  1  0.26100000  0.34840000  0.83610000  1.0 -0.1001965693
C  C26  1  0.73900000  0.65160000  0.16390000  1.0 -0.1001965693
C  C27  1  0.24220000  0.33070000  0.89340000  1.0 -0.1001965693
C  C28  1  0.75780000  0.66930000  0.10660000  1.0 -0.1001965693
C  C29  1  0.62670000  0.95520000  0.66520000  1.0 0.4553443094
C  C30  1  0.37330000  0.04480000  0.33480000  1.0 0.4553443094
C  C31  1  0.56350000  0.06280000  0.68140000  1.0 -0.0323672394
C  C32  1  0.43650000  0.93720000  0.31860000  1.0 -0.0323672394
C  C33  1  0.53780000  0.14250000  0.64060000  1.0 -0.1293266863
C  C34  1  0.46220000  0.85750000  0.35940000  1.0 -0.1353835265
C  C35  1  0.47810000  0.24150000  0.65560000  1.0 -0.1001965693
C  C36  1  0.52190000  0.75850000  0.34440000  1.0 -0.1001965693
C  C37  1  0.44390000  0.26100000  0.71150000  1.0 -0.1986832917
C  C38  1  0.55610000  0.73900000  0.28850000  1.0 -0.1986832917
C  C39  1  0.46950000  0.18130000  0.75230000  1.0 -0.091983931
C  C40  1  0.53050000  0.81870000  0.24770000  1.0 -0.091983931
C  C41  1  0.52930000  0.08230000  0.73730000  1.0 -0.1001965693
C  C42  1  0.47070000  0.91770000  0.26270000  1.0 -0.1001965693
C  C43  1  0.64020000  0.65040000  0.67760000  1.0 0.5537905892
C  C44  1  0.35980000  0.34960000  0.32240000  1.0 0.5537905892
C  C45  1  0.57520000  0.58700000  0.68870000  1.0 -0.0126479456
C  C46  1  0.42480000  0.41300000  0.31130000  1.0 -0.0126479456
C  C47  1  0.45480000  0.47120000  0.71560000  1.0 -0.1191326851
C  C48  1  0.54520000  0.52880000  0.28440000  1.0 -0.1191326851
C  C49  1  0.47860000  0.61590000  0.66640000  1.0 -0.0713807584
C  C50  1  0.52140000  0.38410000  0.33360000  1.0 -0.0713807584
C  C51  1  0.41830000  0.55810000  0.67980000  1.0 -0.0828023093
C  C52  1  0.58170000  0.44190000  0.32020000  1.0 -0.0828023093
C  C53  1  0.55140000  0.44230000  0.73790000  1.0 -0.0828023093
C  C54  1  0.44860000  0.55770000  0.26210000  1.0 -0.0828023093
C  C55  1  0.61160000  0.50020000  0.72450000  1.0 -0.0606575329
C  C56  1  0.38840000  0.49980000  0.27550000  1.0 -0.0606575329
C  C57  1  0.89760000  0.82310000  0.83000000  1.0 0.2223602732
C  C58  1  0.10240000  0.17690000  0.17000000  1.0 0.2223602732
C  C59  1  0.96080000  0.88760000  0.81460000  1.0 -0.0014507285
C  C60  1  0.03920000  0.11240000  0.18540000  1.0 -0.0014507285
C  C61  1  0.03790000  0.86740000  0.76870000  1.0 -0.1763023833
C  C62  1  0.96210000  0.13260000  0.23130000  1.0 -0.1763023833
C  C63  1  0.09570000  0.92750000  0.75500000  1.0 -0.1293266863
C  C64  1  0.90430000  0.07250000  0.24500000  1.0 -0.1293266863
C  C65  1  0.07640000  0.00770000  0.78710000  1.0 -0.0606575329
C  C66  1  0.92360000  0.99230000  0.21290000  1.0 -0.0606575329
C  C67  1  0.99930000  0.02790000  0.83300000  1.0 -0.0606575329
C  C68  1  0.00070000  0.97210000  0.16700000  1.0 -0.0606575329
C  C69  1  0.94160000  0.96780000  0.84670000  1.0 -0.0713807584
C  C70  1  0.05840000  0.03220000  0.15330000  1.0 -0.0713807584
C  C71  1  0.21540000  0.17910000  0.50770000  1.0 0.53909794
C  C72  1  0.78460000  0.82090000  0.49230000  1.0 0.53909794
C  C73  1  0.19830000  0.15440000  0.56960000  1.0 -0.0126479456
C  C74  1  0.80170000  0.84560000  0.43040000  1.0 -0.0126479456
C  C75  1  0.11370000  0.12950000  0.59370000  1.0 -0.1001965693
C  C76  1  0.88630000  0.87050000  0.40630000  1.0 -0.1001965693
C  C77  1  0.09880000  0.10650000  0.65070000  1.0 -0.091983931
C  C78  1  0.90120000  0.89350000  0.34930000  1.0 -0.091983931
C  C79  1  0.16970000  0.10790000  0.68570000  1.0 -0.2087021519
C  C80  1  0.83030000  0.89210000  0.31430000  1.0 -0.2087021519
C  C81  1  0.25450000  0.13270000  0.66190000  1.0 -0.1001965693
C  C82  1  0.74550000  0.86730000  0.33810000  1.0 -0.1001965693
C  C83  1  0.26890000  0.15570000  0.60480000  1.0 -0.1001965693
C  C84  1  0.73110000  0.84430000  0.39520000  1.0 -0.1001965693
C  C85  1  0.87760000  0.54240000  0.82960000  1.0 0.53909794
C  C86  1  0.12240000  0.45760000  0.17040000  1.0 0.53909794
C  C87  1  0.95030000  0.43440000  0.81720000  1.0 -0.0014507285
C  C88  1  0.04970000  0.56560000  0.18280000  1.0 -0.0014507285
C  C89  1  0.98380000  0.41330000  0.76150000  1.0 -0.1070932227
C  C90  1  0.01620000  0.58670000  0.23850000  1.0 -0.1070932227
C  C91  1  0.04120000  0.31350000  0.74730000  1.0 -0.1001965693
C  C92  1  0.95880000  0.68650000  0.25270000  1.0 -0.1001965693
C  C93  1  0.06520000  0.23480000  0.78870000  1.0 -0.2213345244
C  C94  1  0.93480000  0.76520000  0.21130000  1.0 -0.2213345244
C  C95  1  0.03190000  0.25570000  0.84440000  1.0 -0.1070932227
C  C96  1  0.96810000  0.74430000  0.15560000  1.0 -0.1070932227
C  C97  1  0.97440000  0.35550000  0.85850000  1.0 -0.0713807584
C  C98  1  0.02560000  0.64450000  0.14150000  1.0 -0.0713807584
C  C99  1  0.56660000  0.85340000  0.85860000  1.0 0.4789374819
C  C100  1  0.43340000  0.14660000  0.14140000  1.0 0.4789374819
C  C101  1  0.46120000  0.91380000  0.83490000  1.0 0.0103043997
C  C102  1  0.53880000  0.08620000  0.16510000  1.0 0.0103043997
C  C103  1  0.43480000  0.88570000  0.78820000  1.0 -0.1070932227
C  C104  1  0.56520000  0.11430000  0.21180000  1.0 -0.1070932227
C  C105  1  0.33710000  0.94440000  0.76740000  1.0 -0.1070932227
C  C106  1  0.66290000  0.05560000  0.23260000  1.0 -0.1070932227
C  C107  1  0.26580000  0.03110000  0.79340000  1.0 -0.2285328159
C  C108  1  0.73420000  0.96890000  0.20660000  1.0 -0.2285328159
C  C109  1  0.29230000  0.05920000  0.84010000  1.0 -0.1001965693
C  C110  1  0.70770000  0.94080000  0.15990000  1.0 -0.1001965693
C  C111  1  0.39000000  0.00060000  0.86090000  1.0 -0.1070932227
C  C112  1  0.61000000  0.99940000  0.13910000  1.0 -0.1070932227
C  C113  1  0.43710000  0.55130000  0.74750000  1.0 -0.091983931
C  C114  1  0.56290000  0.44870000  0.25250000  1.0 -0.091983931
C  C115  1  0.49720000  0.60920000  0.73420000  1.0 -0.0713807584
C  C116  1  0.50280000  0.39080000  0.26580000  1.0 -0.0713807584
C  C117  1  0.59270000  0.50700000  0.65690000  1.0 -0.0713807584
C  C118  1  0.40730000  0.49300000  0.34310000  1.0 -0.0606575329
C  C119  1  0.53270000  0.44890000  0.67010000  1.0 -0.0828023093
C  C120  1  0.46730000  0.55110000  0.32990000  1.0 -0.0828023093
C  C121  1  0.83430000  0.87710000  0.82110000  1.0 0.2358368834
C  C122  1  0.16570000  0.12290000  0.17890000  1.0 0.2358368834
C  C123  1  0.89520000  0.94420000  0.80950000  1.0 0.025313997
C  C124  1  0.10480000  0.05580000  0.19050000  1.0 0.0248383036
C  C125  1  0.98920000  0.91420000  0.83460000  1.0 -0.0189980662
C  C126  1  0.01080000  0.08580000  0.16540000  1.0 -0.0189980662
C  C127  1  0.05290000  0.96880000  0.82230000  1.0 0.0011749569
C  C128  1  0.94710000  0.03120000  0.17770000  1.0 0.0011749569
C  C129  1  0.02270000  0.05360000  0.78480000  1.0 -0.0439127038
C  C130  1  0.97730000  0.94640000  0.21520000  1.0 -0.0439127038
C  C131  1  0.92870000  0.08370000  0.75960000  1.0 -0.1986832917
C  C132  1  0.07130000  0.91630000  0.24040000  1.0 -0.1941637943
C  C133  1  0.86510000  0.02900000  0.77200000  1.0 -0.238829034
C  C134  1  0.13490000  0.97100000  0.22800000  1.0 -0.238829034
O  O1  1  0.36100000  0.30030000  0.02710000  1.0 -0.2213345244
O  O2  1  0.63900000  0.69970000  0.97290000  1.0 -0.2213345244
O  O3  1  0.86840000  0.72650000  0.66990000  1.0 -0.5893965164
O  O4  1  0.13160000  0.27350000  0.33010000  1.0 -0.5893965164
O  O5  1  0.91380000  0.62850000  0.59960000  1.0 -0.5344459812
O  O6  1  0.08620000  0.37150000  0.40040000  1.0 -0.5344459812
O  O7  1  0.21720000  0.28020000  0.00960000  1.0 -0.575950692
O  O8  1  0.78280000  0.71980000  0.99040000  1.0 -0.575950692
O  O9  1  0.62900000  0.88170000  0.69270000  1.0 -0.4344366888
O  O10  1  0.37100000  0.11830000  0.30730000  1.0 -0.4344366888
O  O11  1  0.65190000  0.93440000  0.61810000  1.0 0.0646656727
O  O12  1  0.34810000  0.06560000  0.38190000  1.0 0.0652820667
O  O13  1  0.65020000  0.68370000  0.62920000  1.0 -0.5074837903
O  O14  1  0.34980000  0.31630000  0.37080000  1.0 -0.5074837903
O  O15  1  0.67920000  0.66280000  0.71600000  1.0 -0.5152817766
O  O16  1  0.32080000  0.33720000  0.28400000  1.0 -0.5152817766
O  O17  1  0.28440000  0.20930000  0.49040000  1.0 -0.4881766016
O  O18  1  0.71560000  0.79070000  0.50960000  1.0 -0.4881766016
O  O19  1  0.15780000  0.16250000  0.47750000  1.0 -0.5893965164
O  O20  1  0.84220000  0.83750000  0.52250000  1.0 -0.5893965164
O  O21  1  0.85150000  0.59610000  0.78960000  1.0 -0.4881766016
O  O22  1  0.14850000  0.40390000  0.21040000  1.0 -0.4881766016
O  O23  1  0.63100000  0.76860000  0.83110000  1.0 -0.6359842817
O  O24  1  0.36900000  0.23140000  0.16890000  1.0 -0.6359842817
O  O25  1  0.58940000  0.87170000  0.89990000  1.0 -0.4000842372
O  O26  1  0.41060000  0.12830000  0.10010000  1.0 -0.4000842372
O  O27  1  0.89790000  0.56620000  0.87780000  1.0 -0.5402585367
O  O28  1  0.10210000  0.43380000  0.12220000  1.0 -0.5402585367
O  O29  1  0.84440000  0.81920000  0.87110000  1.0 -0.3299587617
O  O30  1  0.15560000  0.18080000  0.12890000  1.0 -0.3299587617
O  O31  1  0.88290000  0.78470000  0.78690000  1.0 -0.1709195773
O  O32  1  0.11710000  0.21530000  0.21310000  1.0 -0.1763023833
O  O33  1  0.22400000  0.58400000  0.99900000  1.0 -0.7113737265
O  O34  1  0.77600000  0.41600000  0.00100000  1.0 -0.7113737265
O  O35  1  0.31060000  0.36910000  0.02020000  1.0 -0.2213345244
O  O36  1  0.68940000  0.63090000  0.97980000  1.0 -0.2213345244
O  O37  1  0.76880000  0.87780000  0.78220000  1.0 -0.4114721218
O  O38  1  0.23120000  0.12220000  0.21780000  1.0 -0.4114721218
O  O39  1  0.20800000  0.91910000  0.41590000  1.0 -0.5491779248
O  O40  1  0.79200000  0.08090000  0.58410000  1.0 -0.5491779248
O  O41  1  0.28800000  0.86100000  0.54130000  1.0 -0.1001965693
O  O42  1  0.71200000  0.13900000  0.45870000  1.0 -0.1001965693
O  O43  1  0.04890000  0.87600000  0.51160000  1.0 -0.1070932227
O  O44  1  0.95110000  0.12400000  0.48840000  1.0 -0.1070932227
O  O45  1  0.69600000  0.94900000  0.61000000  1.0 -0.091983931
O  O46  1  0.30400000  0.05100000  0.39000000  1.0 -0.091983931
O  O47  1  0.23300000  0.63880000  0.08700000  1.0 -0.823200802
O  O48  1  0.76700000  0.36120000  0.91300000  1.0 -0.823200802
O  O49  1  0.31320000  0.92000000  0.50820000  1.0 -0.1469601566
O  O50  1  0.68680000  0.08000000  0.49180000  1.0 -0.1469601566
O  O51  1  0.07200000  0.95000000  0.51770000  1.0 -0.1709195773
O  O52  1  0.92800000  0.05000000  0.48230000  1.0 -0.1709195773
