# DDEC6 charges by PACMAN v1.1 (https://github.com/mtap-research/PACMAN-charge/)
data_ODIXAC_ASR_pacman
_symmetry_space_group_name_H-M   'P 1'
_cell_length_a   13.98170000
_cell_length_b   14.18170000
_cell_length_c   14.27000000
_cell_angle_alpha   115.92200000
_cell_angle_beta   113.19600000
_cell_angle_gamma   97.14400000
_symmetry_Int_Tables_number   1
_chemical_formula_structural   Cd2SiH18C28O9
_chemical_formula_sum   'Cd4 Si2 H36 C56 O18'
_cell_volume   2183.44459143
_cell_formula_units_Z   2
loop_
 _symmetry_equiv_pos_site_id
 _symmetry_equiv_pos_as_xyz
  1  'x, y, z'
loop_
 _atom_site_type_symbol
 _atom_site_label
 _atom_site_symmetry_multiplicity
 _atom_site_fract_x
 _atom_site_fract_y
 _atom_site_fract_z
 _atom_site_occupancy
 _atom_site_charge
Cd  Cd1  1  0.50489000  0.38427000  0.18529000  1.0 0.983026965
Cd  Cd2  1  0.49511000  0.61573000  0.81471000  1.0 0.983026965
Cd  Cd3  1  0.50000000  0.50000000  0.00000000  1.0 1.1304271058
Cd  Cd4  1  0.00000000  0.50000000  0.50000000  1.0 1.012008293
Si  Si1  1  0.76388000  0.14398000  0.67870000  1.0 0.6354112461
Si  Si2  1  0.23612000  0.85602000  0.32130000  1.0 0.6354112461
H  H1  1  0.68440000  0.74100000  0.53310000  1.0 0.1251927451
H  H2  1  0.31560000  0.25900000  0.46690000  1.0 0.1251927451
H  H3  1  0.75920000  0.93220000  0.68030000  1.0 0.1090312982
H  H4  1  0.24080000  0.06780000  0.31970000  1.0 0.1090312982
H  H5  1  0.55010000  0.08210000  0.86530000  1.0 0.1197566711
H  H6  1  0.44990000  0.91790000  0.13470000  1.0 0.1197566711
H  H7  1  0.13210000  0.43130000  0.90170000  1.0 0.1090312982
H  H8  1  0.86790000  0.56870000  0.09830000  1.0 0.1090312982
H  H9  1  0.56690000  0.19980000  0.58260000  1.0 0.1090312982
H  H10  1  0.43310000  0.80020000  0.41740000  1.0 0.1090312982
H  H11  1  0.13950000  0.14210000  0.88980000  1.0 0.1197566711
H  H12  1  0.86050000  0.85790000  0.11020000  1.0 0.1197566711
H  H13  1  0.61980000  0.02380000  0.73330000  1.0 0.1090312982
H  H14  1  0.38020000  0.97620000  0.26670000  1.0 0.1090312982
H  H15  1  0.78370000  0.29870000  0.43780000  1.0 0.0757681377
H  H16  1  0.21630000  0.70130000  0.56220000  1.0 0.0757681377
H  H17  1  0.57060000  0.81250000  0.27300000  1.0 0.1090312982
H  H18  1  0.42940000  0.18750000  0.72700000  1.0 0.1090312982
H  H19  1  0.64230000  0.00270000  0.41940000  1.0 0.1090312982
H  H20  1  0.35770000  0.99730000  0.58060000  1.0 0.1090312982
H  H21  1  0.94610000  0.06240000  0.76910000  1.0 0.1027306751
H  H22  1  0.05390000  0.93760000  0.23090000  1.0 0.1027306751
H  H23  1  0.49720000  0.25860000  0.44910000  1.0 0.1197566711
H  H24  1  0.50280000  0.74140000  0.55090000  1.0 0.1197566711
H  H25  1  0.70340000  0.40690000  0.98850000  1.0 0.1197566711
H  H26  1  0.29660000  0.59310000  0.01150000  1.0 0.1197566711
H  H27  1  0.77970000  0.34930000  0.86340000  1.0 0.1090312982
H  H28  1  0.22030000  0.65070000  0.13660000  1.0 0.1090312982
H  H29  1  0.85260000  0.23870000  0.57010000  1.0 0.1027306751
H  H30  1  0.14740000  0.76130000  0.42990000  1.0 0.1027306751
H  H31  1  0.93860000  0.35710000  0.79630000  1.0 0.1090312982
H  H32  1  0.06140000  0.64290000  0.20370000  1.0 0.1090312982
H  H33  1  0.83900000  0.29800000  0.26900000  1.0 0.4112667427
H  H34  1  0.16100000  0.70200000  0.73100000  1.0 0.4112667427
H  H35  1  0.77320000  0.35500000  0.30900000  1.0 0.4112667427
H  H36  1  0.22680000  0.64500000  0.69100000  1.0 0.4112667427
C  C1  1  0.70690000  0.18020000  0.78370000  1.0 -0.196349816
C  C2  1  0.29310000  0.81980000  0.21630000  1.0 -0.196349816
C  C3  1  0.92050000  0.20090000  0.76880000  1.0 -0.2192894682
C  C4  1  0.07950000  0.79910000  0.23120000  1.0 -0.2192894682
C  C5  1  0.58640000  0.31990000  0.34170000  1.0 0.5668185786
C  C6  1  0.41360000  0.68010000  0.65830000  1.0 0.5668185786
C  C7  1  0.61820000  0.25000000  0.93750000  1.0 -0.0121938619
C  C8  1  0.38180000  0.75000000  0.06250000  1.0 -0.0121938619
C  C9  1  0.71730000  0.21160000  0.59020000  1.0 -0.2086799979
C  C10  1  0.28270000  0.78840000  0.40980000  1.0 -0.2086799979
C  C11  1  0.61960000  0.75810000  0.38840000  1.0 -0.0156733923
C  C12  1  0.38040000  0.24190000  0.61160000  1.0 -0.0156733923
C  C13  1  0.56660000  0.28720000  0.01560000  1.0 0.5668185786
C  C14  1  0.43340000  0.71280000  0.98440000  1.0 0.5668185786
C  C15  1  0.67600000  0.79430000  0.51000000  1.0 -0.0996518102
C  C16  1  0.32400000  0.20570000  0.49000000  1.0 -0.0996518102
C  C17  1  0.72020000  0.90840000  0.59770000  1.0 -0.0901147499
C  C18  1  0.27980000  0.09160000  0.40230000  1.0 -0.0901147499
C  C19  1  0.59510000  0.13620000  0.86320000  1.0 -0.0996518102
C  C20  1  0.40490000  0.86380000  0.13680000  1.0 -0.0996518102
C  C21  1  0.70820000  0.98890000  0.56640000  1.0 -0.2086799979
C  C22  1  0.29180000  0.01110000  0.43360000  1.0 -0.2086799979
C  C23  1  0.09450000  0.35700000  0.87700000  1.0 -0.0996518102
C  C24  1  0.90550000  0.64300000  0.12300000  1.0 -0.0996518102
C  C25  1  0.61110000  0.21910000  0.55290000  1.0 -0.0821525817
C  C26  1  0.38890000  0.78090000  0.44710000  1.0 -0.0821525817
C  C27  1  0.09890000  0.18500000  0.86800000  1.0 -0.0996518102
C  C28  1  0.90110000  0.81500000  0.13200000  1.0 -0.0996518102
C  C29  1  0.63790000  0.10170000  0.78560000  1.0 -0.0901147499
C  C30  1  0.36210000  0.89830000  0.21440000  1.0 -0.0901147499
C  C31  1  0.73910000  0.27790000  0.46640000  1.0 -0.1312348336
C  C32  1  0.26090000  0.72210000  0.53360000  1.0 -0.1312348336
C  C33  1  0.28130000  0.34400000  0.97830000  1.0 0.59663461
C  C34  1  0.71870000  0.65600000  0.02170000  1.0 0.59663461
C  C35  1  0.60820000  0.83660000  0.35580000  1.0 -0.0901147499
C  C36  1  0.39180000  0.16340000  0.64420000  1.0 -0.0901147499
C  C37  1  0.57000000  0.63550000  0.29060000  1.0 0.5934946373
C  C38  1  0.43000000  0.36450000  0.70940000  1.0 0.5934946373
C  C39  1  0.15560000  0.29400000  0.90620000  1.0 -0.0156733923
C  C40  1  0.84440000  0.70600000  0.09380000  1.0 -0.0156733923
C  C41  1  0.65140000  0.95010000  0.44330000  1.0 -0.0821525817
C  C42  1  0.34860000  0.04990000  0.55670000  1.0 -0.0821525817
C  C43  1  0.98320000  0.13820000  0.79780000  1.0 -0.0901147499
C  C44  1  0.01680000  0.86180000  0.20220000  1.0 -0.0901147499
C  C45  1  0.63260000  0.28310000  0.42870000  1.0 -0.0121938619
C  C46  1  0.36740000  0.71690000  0.57130000  1.0 -0.0121938619
C  C47  1  0.56940000  0.25420000  0.47330000  1.0 -0.0996518102
C  C48  1  0.43060000  0.74580000  0.52670000  1.0 -0.0996518102
C  C49  1  0.68690000  0.32920000  0.93730000  1.0 -0.0996518102
C  C50  1  0.31310000  0.67080000  0.06270000  1.0 -0.0996518102
C  C51  1  0.73150000  0.29450000  0.86190000  1.0 -0.0821525817
C  C52  1  0.26850000  0.70550000  0.13810000  1.0 -0.0821525817
C  C53  1  0.78010000  0.24230000  0.54550000  1.0 -0.0901147499
C  C54  1  0.21990000  0.75770000  0.45450000  1.0 -0.0901147499
C  C55  1  0.97910000  0.31170000  0.81200000  1.0 -0.0996518102
C  C56  1  0.02090000  0.68830000  0.18800000  1.0 -0.0996518102
O  O1  1  0.57825000  0.39172000  0.06922000  1.0 -0.6076189443
O  O2  1  0.42175000  0.60828000  0.93078000  1.0 -0.6076189443
O  O3  1  0.51670000  0.21903000  0.02840000  1.0 -0.521335797
O  O4  1  0.48330000  0.78097000  0.97160000  1.0 -0.521335797
O  O5  1  0.56500000  0.56517000  0.32140000  1.0 -0.5389587894
O  O6  1  0.43500000  0.43483000  0.67860000  1.0 -0.5389587894
O  O7  1  0.32815000  0.40300000  0.95360000  1.0 -0.5728218719
O  O8  1  0.67185000  0.59700000  0.04640000  1.0 -0.5728218719
O  O9  1  0.64816000  0.35210000  0.30820000  1.0 -0.5777253076
O  O10  1  0.35184000  0.64790000  0.69180000  1.0 -0.5777253076
O  O11  1  0.32623000  0.32090000  0.05710000  1.0 -0.5389587894
O  O12  1  0.67377000  0.67910000  0.94290000  1.0 -0.5389587894
O  O13  1  0.48809000  0.31840000  0.30420000  1.0 -0.521335797
O  O14  1  0.51191000  0.68160000  0.69580000  1.0 -0.521335797
O  O15  1  0.53860000  0.61380000  0.18640000  1.0 -0.5728218719
O  O16  1  0.46140000  0.38620000  0.81360000  1.0 -0.5728218719
O  O17  1  0.84655000  0.37370000  0.31960000  1.0 -0.7275151476
O  O18  1  0.15345000  0.62630000  0.68040000  1.0 -0.7275151476
