# DDEC6 charges by PACMAN v1.1 (https://github.com/mtap-research/PACMAN-charge/)
data_ODIXEG_ASR_pacman
_symmetry_space_group_name_H-M   'P 1'
_cell_length_a   12.70600000
_cell_length_b   12.70600000
_cell_length_c   23.81700000
_cell_angle_alpha   90.00000000
_cell_angle_beta   90.00000000
_cell_angle_gamma   90.00000000
_symmetry_Int_Tables_number   1
_chemical_formula_structural   Zn2SiH16(C7O2)4
_chemical_formula_sum   'Zn4 Si2 H32 C56 O16'
_cell_volume   3845.07449821
_cell_formula_units_Z   2
loop_
 _symmetry_equiv_pos_site_id
 _symmetry_equiv_pos_as_xyz
  1  'x, y, z'
loop_
 _atom_site_type_symbol
 _atom_site_label
 _atom_site_symmetry_multiplicity
 _atom_site_fract_x
 _atom_site_fract_y
 _atom_site_fract_z
 _atom_site_occupancy
 _atom_site_charge
Zn  Zn1  1  0.38242000  0.00000000  0.00000000  1.0 0.9559637669
Zn  Zn2  1  0.00000000  0.38242000  0.50000000  1.0 0.9526943329
Zn  Zn3  1  0.61758000  0.00000000  0.00000000  1.0 0.9559637669
Zn  Zn4  1  0.00000000  0.61758000  0.50000000  1.0 0.9526943329
Si  Si1  1  0.50000000  0.50000000  0.25000000  1.0 0.6444627407
Si  Si2  1  0.50000000  0.50000000  0.75000000  1.0 0.6454227331
H  H1  1  0.34090000  0.36640000  0.19560000  1.0 0.1084588754
H  H2  1  0.63360000  0.34090000  0.69560000  1.0 0.1084588754
H  H3  1  0.65910000  0.63360000  0.19560000  1.0 0.1084588754
H  H4  1  0.36640000  0.65910000  0.69560000  1.0 0.1084588754
H  H5  1  0.34090000  0.63360000  0.80440000  1.0 0.1084588754
H  H6  1  0.65910000  0.36640000  0.80440000  1.0 0.1084588754
H  H7  1  0.36640000  0.34090000  0.30440000  1.0 0.1084588754
H  H8  1  0.63360000  0.65910000  0.30440000  1.0 0.1084588754
H  H9  1  0.65910000  0.63360000  0.80440000  1.0 0.1084588754
H  H10  1  0.36640000  0.65910000  0.30440000  1.0 0.1084588754
H  H11  1  0.34090000  0.36640000  0.80440000  1.0 0.1084588754
H  H12  1  0.63360000  0.34090000  0.30440000  1.0 0.1084588754
H  H13  1  0.65910000  0.36640000  0.19560000  1.0 0.1084588754
H  H14  1  0.34090000  0.63360000  0.19560000  1.0 0.1084588754
H  H15  1  0.63360000  0.65910000  0.69560000  1.0 0.1084588754
H  H16  1  0.36640000  0.34090000  0.69560000  1.0 0.1084588754
H  H17  1  0.34240000  0.23550000  0.12860000  1.0 0.120480037
H  H18  1  0.76450000  0.34240000  0.62860000  1.0 0.120480037
H  H19  1  0.65760000  0.76450000  0.12860000  1.0 0.120480037
H  H20  1  0.23550000  0.65760000  0.62860000  1.0 0.120480037
H  H21  1  0.34240000  0.76450000  0.87140000  1.0 0.120480037
H  H22  1  0.65760000  0.23550000  0.87140000  1.0 0.120480037
H  H23  1  0.23550000  0.34240000  0.37140000  1.0 0.120480037
H  H24  1  0.76450000  0.65760000  0.37140000  1.0 0.120480037
H  H25  1  0.65760000  0.76450000  0.87140000  1.0 0.120480037
H  H26  1  0.23550000  0.65760000  0.37140000  1.0 0.120480037
H  H27  1  0.34240000  0.23550000  0.87140000  1.0 0.120480037
H  H28  1  0.76450000  0.34240000  0.37140000  1.0 0.120480037
H  H29  1  0.65760000  0.23550000  0.12860000  1.0 0.120480037
H  H30  1  0.34240000  0.76450000  0.12860000  1.0 0.120480037
H  H31  1  0.76450000  0.65760000  0.62860000  1.0 0.120480037
H  H32  1  0.23550000  0.34240000  0.62860000  1.0 0.120480037
C  C1  1  0.50000000  0.38257000  0.20289000  1.0 -0.2102425632
C  C2  1  0.61743000  0.50000000  0.70289000  1.0 -0.2102425632
C  C3  1  0.50000000  0.61743000  0.20289000  1.0 -0.2102425632
C  C4  1  0.38257000  0.50000000  0.70289000  1.0 -0.2102425632
C  C5  1  0.50000000  0.61743000  0.79711000  1.0 -0.2102425632
C  C6  1  0.50000000  0.38257000  0.79711000  1.0 -0.2102425632
C  C7  1  0.38257000  0.50000000  0.29711000  1.0 -0.2102425632
C  C8  1  0.61743000  0.50000000  0.29711000  1.0 -0.2102425632
C  C9  1  0.50000000  0.22450000  0.12061000  1.0 -0.034331558
C  C10  1  0.77550000  0.50000000  0.62061000  1.0 -0.034331558
C  C11  1  0.50000000  0.77550000  0.12061000  1.0 -0.034331558
C  C12  1  0.22450000  0.50000000  0.62061000  1.0 -0.034331558
C  C13  1  0.50000000  0.77550000  0.87939000  1.0 -0.034331558
C  C14  1  0.50000000  0.22450000  0.87939000  1.0 -0.034331558
C  C15  1  0.22450000  0.50000000  0.37939000  1.0 -0.034331558
C  C16  1  0.77550000  0.50000000  0.37939000  1.0 -0.034331558
C  C17  1  0.40631000  0.34073000  0.18193000  1.0 -0.0907438782
C  C18  1  0.65927000  0.40631000  0.68193000  1.0 -0.0907438782
C  C19  1  0.59369000  0.65927000  0.18193000  1.0 -0.0907438782
C  C20  1  0.34073000  0.59369000  0.68193000  1.0 -0.0907438782
C  C21  1  0.40631000  0.65927000  0.81807000  1.0 -0.0959030923
C  C22  1  0.59369000  0.34073000  0.81807000  1.0 -0.0959030923
C  C23  1  0.34073000  0.40631000  0.31807000  1.0 -0.0959030923
C  C24  1  0.65927000  0.59369000  0.31807000  1.0 -0.0959030923
C  C25  1  0.59369000  0.65927000  0.81807000  1.0 -0.0959030923
C  C26  1  0.34073000  0.59369000  0.31807000  1.0 -0.0959030923
C  C27  1  0.40631000  0.34073000  0.81807000  1.0 -0.0959030923
C  C28  1  0.65927000  0.40631000  0.31807000  1.0 -0.0959030923
C  C29  1  0.59369000  0.34073000  0.18193000  1.0 -0.0907438782
C  C30  1  0.40631000  0.65927000  0.18193000  1.0 -0.0907438782
C  C31  1  0.65927000  0.59369000  0.68193000  1.0 -0.0907438782
C  C32  1  0.34073000  0.40631000  0.68193000  1.0 -0.0907438782
C  C33  1  0.50000000  0.14120000  0.07636000  1.0 0.6030435327
C  C34  1  0.85880000  0.50000000  0.57636000  1.0 0.6030435327
C  C35  1  0.50000000  0.85880000  0.07636000  1.0 0.6030435327
C  C36  1  0.14120000  0.50000000  0.57636000  1.0 0.6030435327
C  C37  1  0.50000000  0.85880000  0.92364000  1.0 0.6030435327
C  C38  1  0.50000000  0.14120000  0.92364000  1.0 0.6030435327
C  C39  1  0.14120000  0.50000000  0.42364000  1.0 0.6030435327
C  C40  1  0.85880000  0.50000000  0.42364000  1.0 0.6030435327
C  C41  1  0.40723000  0.26308000  0.14188000  1.0 -0.0907438782
C  C42  1  0.73692000  0.40723000  0.64188000  1.0 -0.0907438782
C  C43  1  0.59277000  0.73692000  0.14188000  1.0 -0.0907438782
C  C44  1  0.26308000  0.59277000  0.64188000  1.0 -0.0907438782
C  C45  1  0.40723000  0.73692000  0.85812000  1.0 -0.0907438782
C  C46  1  0.59277000  0.26308000  0.85812000  1.0 -0.0907438782
C  C47  1  0.26308000  0.40723000  0.35812000  1.0 -0.0907438782
C  C48  1  0.73692000  0.59277000  0.35812000  1.0 -0.0907438782
C  C49  1  0.59277000  0.73692000  0.85812000  1.0 -0.0907438782
C  C50  1  0.26308000  0.59277000  0.35812000  1.0 -0.0907438782
C  C51  1  0.40723000  0.26308000  0.85812000  1.0 -0.0907438782
C  C52  1  0.73692000  0.40723000  0.35812000  1.0 -0.0907438782
C  C53  1  0.59277000  0.26308000  0.14188000  1.0 -0.0907438782
C  C54  1  0.40723000  0.73692000  0.14188000  1.0 -0.0907438782
C  C55  1  0.73692000  0.59277000  0.64188000  1.0 -0.0907438782
C  C56  1  0.26308000  0.40723000  0.64188000  1.0 -0.0907438782
O  O1  1  0.41151000  0.11044000  0.05860000  1.0 -0.5433063593
O  O2  1  0.88956000  0.41151000  0.55860000  1.0 -0.5433063593
O  O3  1  0.58849000  0.88956000  0.05860000  1.0 -0.5433063593
O  O4  1  0.11044000  0.58849000  0.55860000  1.0 -0.5433063593
O  O5  1  0.41151000  0.88956000  0.94140000  1.0 -0.5433063593
O  O6  1  0.58849000  0.11044000  0.94140000  1.0 -0.5433063593
O  O7  1  0.11044000  0.41151000  0.44140000  1.0 -0.5433063593
O  O8  1  0.88956000  0.58849000  0.44140000  1.0 -0.5433063593
O  O9  1  0.58849000  0.88956000  0.94140000  1.0 -0.5433063593
O  O10  1  0.11044000  0.58849000  0.44140000  1.0 -0.5433063593
O  O11  1  0.41151000  0.11044000  0.94140000  1.0 -0.5433063593
O  O12  1  0.88956000  0.41151000  0.44140000  1.0 -0.5433063593
O  O13  1  0.58849000  0.11044000  0.05860000  1.0 -0.5433063593
O  O14  1  0.41151000  0.88956000  0.05860000  1.0 -0.5433063593
O  O15  1  0.88956000  0.58849000  0.55860000  1.0 -0.5433063593
O  O16  1  0.11044000  0.41151000  0.55860000  1.0 -0.5433063593
