# DDEC6 charges by PACMAN v1.1 (https://github.com/mtap-research/PACMAN-charge/)
data_ODOCOD_ASR_pacman
_symmetry_space_group_name_H-M   'P 1'
_cell_length_a   21.38120000
_cell_length_b   21.38120000
_cell_length_c   21.38120000
_cell_angle_alpha   60.00000000
_cell_angle_beta   60.00000000
_cell_angle_gamma   60.00000000
_symmetry_Int_Tables_number   1
_chemical_formula_structural   Cu3H96(C27N4)4
_chemical_formula_sum   'Cu6 H192 C216 N32'
_cell_volume   6911.64191906
_cell_formula_units_Z   2
loop_
 _symmetry_equiv_pos_site_id
 _symmetry_equiv_pos_as_xyz
  1  'x, y, z'
loop_
 _atom_site_type_symbol
 _atom_site_label
 _atom_site_symmetry_multiplicity
 _atom_site_fract_x
 _atom_site_fract_y
 _atom_site_fract_z
 _atom_site_occupancy
 _atom_site_charge
Cu  Cu1  1  0.50000000  0.00000000  0.50000000  1.0 -0.0426210225
Cu  Cu2  1  0.00000000  0.50000000  0.00000000  1.0 -0.0426210225
Cu  Cu3  1  0.50000000  0.50000000  0.00000000  1.0 -0.0426210225
Cu  Cu4  1  0.00000000  0.00000000  0.50000000  1.0 -0.0426210225
Cu  Cu5  1  0.00000000  0.50000000  0.50000000  1.0 -0.0452360779
Cu  Cu6  1  0.50000000  0.00000000  0.00000000  1.0 -0.0426210225
H  H1  1  0.46050000  0.99690000  0.38770000  1.0 0.0813108771
H  H2  1  0.99690000  0.46050000  0.15490000  1.0 0.0813108771
H  H3  1  0.38770000  0.15490000  0.46050000  1.0 0.0813108771
H  H4  1  0.15490000  0.38770000  0.99690000  1.0 0.0813108771
H  H5  1  0.38770000  0.46050000  0.99690000  1.0 0.0813108771
H  H6  1  0.15490000  0.99690000  0.46050000  1.0 0.0813108771
H  H7  1  0.46050000  0.38770000  0.15490000  1.0 0.0813108771
H  H8  1  0.99690000  0.15490000  0.38770000  1.0 0.0813108771
H  H9  1  0.99690000  0.38770000  0.46050000  1.0 0.0813108771
H  H10  1  0.46050000  0.15490000  0.99690000  1.0 0.0882950362
H  H11  1  0.15490000  0.46050000  0.38770000  1.0 0.0813108771
H  H12  1  0.38770000  0.99690000  0.15490000  1.0 0.0813108771
H  H13  1  0.53950000  0.00310000  0.84510000  1.0 0.0813108771
H  H14  1  0.00310000  0.53950000  0.61230000  1.0 0.0813108771
H  H15  1  0.61230000  0.84510000  0.00310000  1.0 0.0813108771
H  H16  1  0.84510000  0.61230000  0.53950000  1.0 0.0813108771
H  H17  1  0.61230000  0.53950000  0.84510000  1.0 0.0813108771
H  H18  1  0.84510000  0.00310000  0.61230000  1.0 0.0813108771
H  H19  1  0.53950000  0.61230000  0.00310000  1.0 0.0813108771
H  H20  1  0.00310000  0.84510000  0.53950000  1.0 0.0813108771
H  H21  1  0.00310000  0.61230000  0.84510000  1.0 0.0813108771
H  H22  1  0.53950000  0.84510000  0.61230000  1.0 0.0813108771
H  H23  1  0.84510000  0.53950000  0.00310000  1.0 0.0813108771
H  H24  1  0.61230000  0.00310000  0.53950000  1.0 0.0813108771
H  H25  1  0.53950000  0.00310000  0.61230000  1.0 0.0813108771
H  H26  1  0.00310000  0.53950000  0.84510000  1.0 0.0813108771
H  H27  1  0.61230000  0.84510000  0.53950000  1.0 0.0813108771
H  H28  1  0.84510000  0.61230000  0.00310000  1.0 0.0813108771
H  H29  1  0.61230000  0.53950000  0.00310000  1.0 0.0813108771
H  H30  1  0.84510000  0.00310000  0.53950000  1.0 0.0813108771
H  H31  1  0.53950000  0.61230000  0.84510000  1.0 0.0813108771
H  H32  1  0.00310000  0.84510000  0.61230000  1.0 0.0813108771
H  H33  1  0.00310000  0.61230000  0.53950000  1.0 0.0813108771
H  H34  1  0.53950000  0.84510000  0.00310000  1.0 0.0813108771
H  H35  1  0.84510000  0.53950000  0.61230000  1.0 0.0813108771
H  H36  1  0.61230000  0.00310000  0.84510000  1.0 0.0813108771
H  H37  1  0.46050000  0.99690000  0.15490000  1.0 0.0813108771
H  H38  1  0.99690000  0.46050000  0.38770000  1.0 0.0813108771
H  H39  1  0.38770000  0.15490000  0.99690000  1.0 0.0882950362
H  H40  1  0.15490000  0.38770000  0.46050000  1.0 0.0813108771
H  H41  1  0.38770000  0.46050000  0.15490000  1.0 0.0813108771
H  H42  1  0.15490000  0.99690000  0.38770000  1.0 0.0813108771
H  H43  1  0.46050000  0.38770000  0.99690000  1.0 0.0813108771
H  H44  1  0.99690000  0.15490000  0.46050000  1.0 0.0813108771
H  H45  1  0.99690000  0.38770000  0.15490000  1.0 0.0813108771
H  H46  1  0.46050000  0.15490000  0.38770000  1.0 0.0882950362
H  H47  1  0.15490000  0.46050000  0.99690000  1.0 0.0813108771
H  H48  1  0.38770000  0.99690000  0.46050000  1.0 0.0813108771
H  H49  1  0.60660000  0.14960000  0.23140000  1.0 0.0882950362
H  H50  1  0.14960000  0.60660000  0.01240000  1.0 0.0882950362
H  H51  1  0.23140000  0.01240000  0.60660000  1.0 0.0882950362
H  H52  1  0.01240000  0.23140000  0.14960000  1.0 0.0882950362
H  H53  1  0.23140000  0.60660000  0.14960000  1.0 0.0882950362
H  H54  1  0.01240000  0.14960000  0.60660000  1.0 0.0882950362
H  H55  1  0.60660000  0.23140000  0.01240000  1.0 0.0882950362
H  H56  1  0.14960000  0.01240000  0.23140000  1.0 0.0882950362
H  H57  1  0.14960000  0.23140000  0.60660000  1.0 0.0882950362
H  H58  1  0.60660000  0.01240000  0.14960000  1.0 0.0882950362
H  H59  1  0.01240000  0.60660000  0.23140000  1.0 0.0882950362
H  H60  1  0.23140000  0.14960000  0.01240000  1.0 0.0882950362
H  H61  1  0.39340000  0.85040000  0.98760000  1.0 0.0882950362
H  H62  1  0.85040000  0.39340000  0.76860000  1.0 0.0882950362
H  H63  1  0.76860000  0.98760000  0.85040000  1.0 0.0882950362
H  H64  1  0.98760000  0.76860000  0.39340000  1.0 0.0882950362
H  H65  1  0.76860000  0.39340000  0.98760000  1.0 0.0882950362
H  H66  1  0.98760000  0.85040000  0.76860000  1.0 0.0882950362
H  H67  1  0.39340000  0.76860000  0.85040000  1.0 0.0882950362
H  H68  1  0.85040000  0.98760000  0.39340000  1.0 0.0882950362
H  H69  1  0.85040000  0.76860000  0.98760000  1.0 0.0882950362
H  H70  1  0.39340000  0.98760000  0.76860000  1.0 0.0882950362
H  H71  1  0.98760000  0.39340000  0.85040000  1.0 0.0882950362
H  H72  1  0.76860000  0.85040000  0.39340000  1.0 0.0882950362
H  H73  1  0.39340000  0.85040000  0.76860000  1.0 0.0882950362
H  H74  1  0.85040000  0.39340000  0.98760000  1.0 0.0882950362
H  H75  1  0.76860000  0.98760000  0.39340000  1.0 0.0882950362
H  H76  1  0.98760000  0.76860000  0.85040000  1.0 0.0882950362
H  H77  1  0.76860000  0.39340000  0.85040000  1.0 0.0882950362
H  H78  1  0.98760000  0.85040000  0.39340000  1.0 0.0882950362
H  H79  1  0.39340000  0.76860000  0.98760000  1.0 0.0882950362
H  H80  1  0.85040000  0.98760000  0.76860000  1.0 0.0882950362
H  H81  1  0.85040000  0.76860000  0.39340000  1.0 0.0882950362
H  H82  1  0.39340000  0.98760000  0.85040000  1.0 0.0882950362
H  H83  1  0.98760000  0.39340000  0.76860000  1.0 0.0882950362
H  H84  1  0.76860000  0.85040000  0.98760000  1.0 0.0882950362
H  H85  1  0.60660000  0.14960000  0.01240000  1.0 0.0882950362
H  H86  1  0.14960000  0.60660000  0.23140000  1.0 0.0882950362
H  H87  1  0.23140000  0.01240000  0.14960000  1.0 0.0882950362
H  H88  1  0.01240000  0.23140000  0.60660000  1.0 0.0882950362
H  H89  1  0.23140000  0.60660000  0.01240000  1.0 0.0882950362
H  H90  1  0.01240000  0.14960000  0.23140000  1.0 0.0882950362
H  H91  1  0.60660000  0.23140000  0.14960000  1.0 0.0882950362
H  H92  1  0.14960000  0.01240000  0.60660000  1.0 0.0882950362
H  H93  1  0.14960000  0.23140000  0.01240000  1.0 0.0882950362
H  H94  1  0.60660000  0.01240000  0.23140000  1.0 0.0882950362
H  H95  1  0.01240000  0.60660000  0.14960000  1.0 0.0882950362
H  H96  1  0.23140000  0.14960000  0.60660000  1.0 0.0882950362
H  H97  1  0.46330000  0.06070000  0.26430000  1.0 0.0882950362
H  H98  1  0.06070000  0.46330000  0.21170000  1.0 0.0882950362
H  H99  1  0.26430000  0.21170000  0.46330000  1.0 0.0882950362
H  H100  1  0.21170000  0.26430000  0.06070000  1.0 0.0882950362
H  H101  1  0.26430000  0.46330000  0.06070000  1.0 0.0882950362
H  H102  1  0.21170000  0.06070000  0.46330000  1.0 0.0882950362
H  H103  1  0.46330000  0.26430000  0.21170000  1.0 0.0882950362
H  H104  1  0.06070000  0.21170000  0.26430000  1.0 0.0882950362
H  H105  1  0.06070000  0.26430000  0.46330000  1.0 0.0882950362
H  H106  1  0.46330000  0.21170000  0.06070000  1.0 0.0882950362
H  H107  1  0.21170000  0.46330000  0.26430000  1.0 0.0882950362
H  H108  1  0.26430000  0.06070000  0.21170000  1.0 0.0882950362
H  H109  1  0.53670000  0.93930000  0.78830000  1.0 0.0882950362
H  H110  1  0.93930000  0.53670000  0.73570000  1.0 0.0882950362
H  H111  1  0.73570000  0.78830000  0.93930000  1.0 0.0882950362
H  H112  1  0.78830000  0.73570000  0.53670000  1.0 0.0882950362
H  H113  1  0.73570000  0.53670000  0.78830000  1.0 0.0882950362
H  H114  1  0.78830000  0.93930000  0.73570000  1.0 0.0882950362
H  H115  1  0.53670000  0.73570000  0.93930000  1.0 0.0882950362
H  H116  1  0.93930000  0.78830000  0.53670000  1.0 0.0882950362
H  H117  1  0.93930000  0.73570000  0.78830000  1.0 0.0882950362
H  H118  1  0.53670000  0.78830000  0.73570000  1.0 0.0882950362
H  H119  1  0.78830000  0.53670000  0.93930000  1.0 0.0882950362
H  H120  1  0.73570000  0.93930000  0.53670000  1.0 0.0882950362
H  H121  1  0.53670000  0.93930000  0.73570000  1.0 0.0882950362
H  H122  1  0.93930000  0.53670000  0.78830000  1.0 0.0882950362
H  H123  1  0.73570000  0.78830000  0.53670000  1.0 0.0882950362
H  H124  1  0.78830000  0.73570000  0.93930000  1.0 0.0882950362
H  H125  1  0.73570000  0.53670000  0.93930000  1.0 0.0882950362
H  H126  1  0.78830000  0.93930000  0.53670000  1.0 0.0882950362
H  H127  1  0.53670000  0.73570000  0.78830000  1.0 0.0882950362
H  H128  1  0.93930000  0.78830000  0.73570000  1.0 0.0882950362
H  H129  1  0.93930000  0.73570000  0.53670000  1.0 0.0882950362
H  H130  1  0.53670000  0.78830000  0.93930000  1.0 0.0882950362
H  H131  1  0.78830000  0.53670000  0.73570000  1.0 0.0882950362
H  H132  1  0.73570000  0.93930000  0.78830000  1.0 0.0882950362
H  H133  1  0.46330000  0.06070000  0.21170000  1.0 0.0882950362
H  H134  1  0.06070000  0.46330000  0.26430000  1.0 0.0882950362
H  H135  1  0.26430000  0.21170000  0.06070000  1.0 0.0882950362
H  H136  1  0.21170000  0.26430000  0.46330000  1.0 0.0882950362
H  H137  1  0.26430000  0.46330000  0.21170000  1.0 0.0882950362
H  H138  1  0.21170000  0.06070000  0.26430000  1.0 0.0882950362
H  H139  1  0.46330000  0.26430000  0.06070000  1.0 0.0882950362
H  H140  1  0.06070000  0.21170000  0.46330000  1.0 0.0882950362
H  H141  1  0.06070000  0.26430000  0.21170000  1.0 0.0882950362
H  H142  1  0.46330000  0.21170000  0.26430000  1.0 0.0882950362
H  H143  1  0.21170000  0.46330000  0.06070000  1.0 0.0882950362
H  H144  1  0.26430000  0.06070000  0.46330000  1.0 0.0882950362
H  H145  1  0.58190000  0.09850000  0.35970000  1.0 0.0813108771
H  H146  1  0.09850000  0.58190000  0.95990000  1.0 0.0813108771
H  H147  1  0.35970000  0.95990000  0.58190000  1.0 0.0813108771
H  H148  1  0.95990000  0.35970000  0.09850000  1.0 0.0813108771
H  H149  1  0.35970000  0.58190000  0.09850000  1.0 0.0813108771
H  H150  1  0.95990000  0.09850000  0.58190000  1.0 0.0813108771
H  H151  1  0.58190000  0.35970000  0.95990000  1.0 0.0813108771
H  H152  1  0.09850000  0.95990000  0.35970000  1.0 0.0813108771
H  H153  1  0.09850000  0.35970000  0.58190000  1.0 0.0813108771
H  H154  1  0.58190000  0.95990000  0.09850000  1.0 0.0813108771
H  H155  1  0.95990000  0.58190000  0.35970000  1.0 0.0813108771
H  H156  1  0.35970000  0.09850000  0.95990000  1.0 0.0813108771
H  H157  1  0.41810000  0.90150000  0.04010000  1.0 0.0813108771
H  H158  1  0.90150000  0.41810000  0.64030000  1.0 0.0813108771
H  H159  1  0.64030000  0.04010000  0.90150000  1.0 0.0813108771
H  H160  1  0.04010000  0.64030000  0.41810000  1.0 0.0813108771
H  H161  1  0.64030000  0.41810000  0.04010000  1.0 0.0813108771
H  H162  1  0.04010000  0.90150000  0.64030000  1.0 0.0813108771
H  H163  1  0.41810000  0.64030000  0.90150000  1.0 0.0813108771
H  H164  1  0.90150000  0.04010000  0.41810000  1.0 0.0813108771
H  H165  1  0.90150000  0.64030000  0.04010000  1.0 0.0813108771
H  H166  1  0.41810000  0.04010000  0.64030000  1.0 0.0813108771
H  H167  1  0.04010000  0.41810000  0.90150000  1.0 0.0813108771
H  H168  1  0.64030000  0.90150000  0.41810000  1.0 0.0813108771
H  H169  1  0.41810000  0.90150000  0.64030000  1.0 0.0813108771
H  H170  1  0.90150000  0.41810000  0.04010000  1.0 0.0813108771
H  H171  1  0.64030000  0.04010000  0.41810000  1.0 0.0813108771
H  H172  1  0.04010000  0.64030000  0.90150000  1.0 0.0813108771
H  H173  1  0.64030000  0.41810000  0.90150000  1.0 0.0813108771
H  H174  1  0.04010000  0.90150000  0.41810000  1.0 0.0813108771
H  H175  1  0.41810000  0.64030000  0.04010000  1.0 0.0813108771
H  H176  1  0.90150000  0.04010000  0.64030000  1.0 0.0813108771
H  H177  1  0.90150000  0.64030000  0.41810000  1.0 0.0813108771
H  H178  1  0.41810000  0.04010000  0.90150000  1.0 0.0813108771
H  H179  1  0.04010000  0.41810000  0.64030000  1.0 0.0813108771
H  H180  1  0.64030000  0.90150000  0.04010000  1.0 0.0813108771
H  H181  1  0.58190000  0.09850000  0.95990000  1.0 0.0813108771
H  H182  1  0.09850000  0.58190000  0.35970000  1.0 0.0813108771
H  H183  1  0.35970000  0.95990000  0.09850000  1.0 0.0813108771
H  H184  1  0.95990000  0.35970000  0.58190000  1.0 0.0813108771
H  H185  1  0.35970000  0.58190000  0.95990000  1.0 0.0813108771
H  H186  1  0.95990000  0.09850000  0.35970000  1.0 0.0813108771
H  H187  1  0.58190000  0.35970000  0.09850000  1.0 0.0813108771
H  H188  1  0.09850000  0.95990000  0.58190000  1.0 0.0813108771
H  H189  1  0.09850000  0.35970000  0.95990000  1.0 0.0813108771
H  H190  1  0.58190000  0.95990000  0.35970000  1.0 0.0813108771
H  H191  1  0.95990000  0.58190000  0.09850000  1.0 0.0813108771
H  H192  1  0.35970000  0.09850000  0.58190000  1.0 0.0813108771
C  C1  1  0.53389000  0.11747000  0.23117000  1.0 0.0958910987
C  C2  1  0.11747000  0.53389000  0.11747000  1.0 0.0958910987
C  C3  1  0.23117000  0.11747000  0.53389000  1.0 0.0958910987
C  C4  1  0.11747000  0.23117000  0.11747000  1.0 0.0958910987
C  C5  1  0.23117000  0.53389000  0.11747000  1.0 0.0958910987
C  C6  1  0.11747000  0.11747000  0.53389000  1.0 0.0958910987
C  C7  1  0.53389000  0.23117000  0.11747000  1.0 0.0958910987
C  C8  1  0.11747000  0.11747000  0.23117000  1.0 0.0958910987
C  C9  1  0.11747000  0.23117000  0.53389000  1.0 0.0958910987
C  C10  1  0.53389000  0.11747000  0.11747000  1.0 0.0958910987
C  C11  1  0.11747000  0.53389000  0.23117000  1.0 0.0958910987
C  C12  1  0.23117000  0.11747000  0.11747000  1.0 0.0958910987
C  C13  1  0.46611000  0.88253000  0.88253000  1.0 0.0958910987
C  C14  1  0.88253000  0.46611000  0.76883000  1.0 0.0958910987
C  C15  1  0.76883000  0.88253000  0.88253000  1.0 0.0958910987
C  C16  1  0.88253000  0.76883000  0.46611000  1.0 0.0958910987
C  C17  1  0.76883000  0.46611000  0.88253000  1.0 0.0958910987
C  C18  1  0.88253000  0.88253000  0.76883000  1.0 0.0958910987
C  C19  1  0.46611000  0.76883000  0.88253000  1.0 0.0958910987
C  C20  1  0.88253000  0.88253000  0.46611000  1.0 0.0958910987
C  C21  1  0.88253000  0.76883000  0.88253000  1.0 0.0958910987
C  C22  1  0.46611000  0.88253000  0.76883000  1.0 0.0958910987
C  C23  1  0.88253000  0.46611000  0.88253000  1.0 0.0958910987
C  C24  1  0.76883000  0.88253000  0.46611000  1.0 0.0958910987
C  C25  1  0.48620000  0.03240000  0.35600000  1.0 -0.0870275749
C  C26  1  0.03240000  0.48620000  0.12540000  1.0 -0.0870275749
C  C27  1  0.35600000  0.12540000  0.48620000  1.0 -0.0870275749
C  C28  1  0.12540000  0.35600000  0.03240000  1.0 -0.0870275749
C  C29  1  0.35600000  0.48620000  0.03240000  1.0 -0.0870275749
C  C30  1  0.12540000  0.03240000  0.48620000  1.0 -0.0870275749
C  C31  1  0.48620000  0.35600000  0.12540000  1.0 -0.0870275749
C  C32  1  0.03240000  0.12540000  0.35600000  1.0 -0.0870275749
C  C33  1  0.03240000  0.35600000  0.48620000  1.0 -0.0870275749
C  C34  1  0.48620000  0.12540000  0.03240000  1.0 -0.0870275749
C  C35  1  0.12540000  0.48620000  0.35600000  1.0 -0.0870275749
C  C36  1  0.35600000  0.03240000  0.12540000  1.0 -0.0870275749
C  C37  1  0.51380000  0.96760000  0.87460000  1.0 -0.0870275749
C  C38  1  0.96760000  0.51380000  0.64400000  1.0 -0.0870275749
C  C39  1  0.64400000  0.87460000  0.96760000  1.0 -0.0870275749
C  C40  1  0.87460000  0.64400000  0.51380000  1.0 -0.0870275749
C  C41  1  0.64400000  0.51380000  0.87460000  1.0 -0.0870275749
C  C42  1  0.87460000  0.96760000  0.64400000  1.0 -0.0870275749
C  C43  1  0.51380000  0.64400000  0.96760000  1.0 -0.0870275749
C  C44  1  0.96760000  0.87460000  0.51380000  1.0 -0.0870275749
C  C45  1  0.96760000  0.64400000  0.87460000  1.0 -0.0870275749
C  C46  1  0.51380000  0.87460000  0.64400000  1.0 -0.0870275749
C  C47  1  0.87460000  0.51380000  0.96760000  1.0 -0.0870275749
C  C48  1  0.64400000  0.96760000  0.51380000  1.0 -0.0870275749
C  C49  1  0.51380000  0.96760000  0.64400000  1.0 -0.0870275749
C  C50  1  0.96760000  0.51380000  0.87460000  1.0 -0.0870275749
C  C51  1  0.64400000  0.87460000  0.51380000  1.0 -0.0870275749
C  C52  1  0.87460000  0.64400000  0.96760000  1.0 -0.0870275749
C  C53  1  0.64400000  0.51380000  0.96760000  1.0 -0.0870275749
C  C54  1  0.87460000  0.96760000  0.51380000  1.0 -0.0870275749
C  C55  1  0.51380000  0.64400000  0.87460000  1.0 -0.0870275749
C  C56  1  0.96760000  0.87460000  0.64400000  1.0 -0.0870275749
C  C57  1  0.96760000  0.64400000  0.51380000  1.0 -0.0870275749
C  C58  1  0.51380000  0.87460000  0.96760000  1.0 -0.0870275749
C  C59  1  0.87460000  0.51380000  0.64400000  1.0 -0.0870275749
C  C60  1  0.64400000  0.96760000  0.87460000  1.0 -0.0870275749
C  C61  1  0.48620000  0.03240000  0.12540000  1.0 -0.0870275749
C  C62  1  0.03240000  0.48620000  0.35600000  1.0 -0.0870275749
C  C63  1  0.35600000  0.12540000  0.03240000  1.0 -0.0870275749
C  C64  1  0.12540000  0.35600000  0.48620000  1.0 -0.0870275749
C  C65  1  0.35600000  0.48620000  0.12540000  1.0 -0.0870275749
C  C66  1  0.12540000  0.03240000  0.35600000  1.0 -0.0870275749
C  C67  1  0.48620000  0.35600000  0.03240000  1.0 -0.0870275749
C  C68  1  0.03240000  0.12540000  0.48620000  1.0 -0.0870275749
C  C69  1  0.03240000  0.35600000  0.12540000  1.0 -0.0870275749
C  C70  1  0.48620000  0.12540000  0.35600000  1.0 -0.0870275749
C  C71  1  0.12540000  0.48620000  0.03240000  1.0 -0.0870275749
C  C72  1  0.35600000  0.03240000  0.48620000  1.0 -0.0870275749
C  C73  1  0.57190000  0.12310000  0.26210000  1.0 -0.1042124301
C  C74  1  0.12310000  0.57190000  0.04290000  1.0 -0.1042124301
C  C75  1  0.26210000  0.04290000  0.57190000  1.0 -0.1042124301
C  C76  1  0.04290000  0.26210000  0.12310000  1.0 -0.1042124301
C  C77  1  0.26210000  0.57190000  0.12310000  1.0 -0.1042124301
C  C78  1  0.04290000  0.12310000  0.57190000  1.0 -0.1042124301
C  C79  1  0.57190000  0.26210000  0.04290000  1.0 -0.1042124301
C  C80  1  0.12310000  0.04290000  0.26210000  1.0 -0.1042124301
C  C81  1  0.12310000  0.26210000  0.57190000  1.0 -0.1042124301
C  C82  1  0.57190000  0.04290000  0.12310000  1.0 -0.1042124301
C  C83  1  0.04290000  0.57190000  0.26210000  1.0 -0.1042124301
C  C84  1  0.26210000  0.12310000  0.04290000  1.0 -0.1042124301
C  C85  1  0.42810000  0.87690000  0.95710000  1.0 -0.1042124301
C  C86  1  0.87690000  0.42810000  0.73790000  1.0 -0.1042124301
C  C87  1  0.73790000  0.95710000  0.87690000  1.0 -0.1042124301
C  C88  1  0.95710000  0.73790000  0.42810000  1.0 -0.1042124301
C  C89  1  0.73790000  0.42810000  0.95710000  1.0 -0.1042124301
C  C90  1  0.95710000  0.87690000  0.73790000  1.0 -0.1042124301
C  C91  1  0.42810000  0.73790000  0.87690000  1.0 -0.1042124301
C  C92  1  0.87690000  0.95710000  0.42810000  1.0 -0.1042124301
C  C93  1  0.87690000  0.73790000  0.95710000  1.0 -0.1042124301
C  C94  1  0.42810000  0.95710000  0.73790000  1.0 -0.1042124301
C  C95  1  0.95710000  0.42810000  0.87690000  1.0 -0.1042124301
C  C96  1  0.73790000  0.87690000  0.42810000  1.0 -0.1042124301
C  C97  1  0.42810000  0.87690000  0.73790000  1.0 -0.1042124301
C  C98  1  0.87690000  0.42810000  0.95710000  1.0 -0.1042124301
C  C99  1  0.73790000  0.95710000  0.42810000  1.0 -0.1042124301
C  C100  1  0.95710000  0.73790000  0.87690000  1.0 -0.1042124301
C  C101  1  0.73790000  0.42810000  0.87690000  1.0 -0.1042124301
C  C102  1  0.95710000  0.87690000  0.42810000  1.0 -0.1042124301
C  C103  1  0.42810000  0.73790000  0.95710000  1.0 -0.1042124301
C  C104  1  0.87690000  0.95710000  0.73790000  1.0 -0.1042124301
C  C105  1  0.87690000  0.73790000  0.42810000  1.0 -0.1042124301
C  C106  1  0.42810000  0.95710000  0.87690000  1.0 -0.1042124301
C  C107  1  0.95710000  0.42810000  0.73790000  1.0 -0.1042124301
C  C108  1  0.73790000  0.87690000  0.95710000  1.0 -0.1042124301
C  C109  1  0.57190000  0.12310000  0.04290000  1.0 -0.1042124301
C  C110  1  0.12310000  0.57190000  0.26210000  1.0 -0.1042124301
C  C111  1  0.26210000  0.04290000  0.12310000  1.0 -0.1042124301
C  C112  1  0.04290000  0.26210000  0.57190000  1.0 -0.1042124301
C  C113  1  0.26210000  0.57190000  0.04290000  1.0 -0.1042124301
C  C114  1  0.04290000  0.12310000  0.26210000  1.0 -0.1042124301
C  C115  1  0.57190000  0.26210000  0.12310000  1.0 -0.1042124301
C  C116  1  0.12310000  0.04290000  0.57190000  1.0 -0.1042124301
C  C117  1  0.12310000  0.26210000  0.04290000  1.0 -0.1042124301
C  C118  1  0.57190000  0.04290000  0.26210000  1.0 -0.1042124301
C  C119  1  0.04290000  0.57190000  0.12310000  1.0 -0.1042124301
C  C120  1  0.26210000  0.12310000  0.57190000  1.0 -0.1042124301
C  C121  1  0.49000000  0.06840000  0.28200000  1.0 -0.1461259643
C  C122  1  0.06840000  0.49000000  0.15960000  1.0 -0.1461259643
C  C123  1  0.28200000  0.15960000  0.49000000  1.0 -0.1461259643
C  C124  1  0.15960000  0.28200000  0.06840000  1.0 -0.1461259643
C  C125  1  0.28200000  0.49000000  0.06840000  1.0 -0.1461259643
C  C126  1  0.15960000  0.06840000  0.49000000  1.0 -0.1461259643
C  C127  1  0.49000000  0.28200000  0.15960000  1.0 -0.1461259643
C  C128  1  0.06840000  0.15960000  0.28200000  1.0 -0.1461259643
C  C129  1  0.06840000  0.28200000  0.49000000  1.0 -0.1461259643
C  C130  1  0.49000000  0.15960000  0.06840000  1.0 -0.1461259643
C  C131  1  0.15960000  0.49000000  0.28200000  1.0 -0.1461259643
C  C132  1  0.28200000  0.06840000  0.15960000  1.0 -0.1461259643
C  C133  1  0.51000000  0.93160000  0.84040000  1.0 -0.1461259643
C  C134  1  0.93160000  0.51000000  0.71800000  1.0 -0.1461259643
C  C135  1  0.71800000  0.84040000  0.93160000  1.0 -0.1461259643
C  C136  1  0.84040000  0.71800000  0.51000000  1.0 -0.1461259643
C  C137  1  0.71800000  0.51000000  0.84040000  1.0 -0.1461259643
C  C138  1  0.84040000  0.93160000  0.71800000  1.0 -0.1461259643
C  C139  1  0.51000000  0.71800000  0.93160000  1.0 -0.1461259643
C  C140  1  0.93160000  0.84040000  0.51000000  1.0 -0.1461259643
C  C141  1  0.93160000  0.71800000  0.84040000  1.0 -0.1461259643
C  C142  1  0.51000000  0.84040000  0.71800000  1.0 -0.1461259643
C  C143  1  0.84040000  0.51000000  0.93160000  1.0 -0.1461259643
C  C144  1  0.71800000  0.93160000  0.51000000  1.0 -0.1461259643
C  C145  1  0.51000000  0.93160000  0.71800000  1.0 -0.1461259643
C  C146  1  0.93160000  0.51000000  0.84040000  1.0 -0.1461259643
C  C147  1  0.71800000  0.84040000  0.51000000  1.0 -0.1461259643
C  C148  1  0.84040000  0.71800000  0.93160000  1.0 -0.1461259643
C  C149  1  0.71800000  0.51000000  0.93160000  1.0 -0.1461259643
C  C150  1  0.84040000  0.93160000  0.51000000  1.0 -0.1461259643
C  C151  1  0.51000000  0.71800000  0.84040000  1.0 -0.1461259643
C  C152  1  0.93160000  0.84040000  0.71800000  1.0 -0.1461259643
C  C153  1  0.93160000  0.71800000  0.51000000  1.0 -0.1461259643
C  C154  1  0.51000000  0.84040000  0.93160000  1.0 -0.1461259643
C  C155  1  0.84040000  0.51000000  0.71800000  1.0 -0.1461259643
C  C156  1  0.71800000  0.93160000  0.84040000  1.0 -0.1461259643
C  C157  1  0.49000000  0.06840000  0.15960000  1.0 -0.1461259643
C  C158  1  0.06840000  0.49000000  0.28200000  1.0 -0.1461259643
C  C159  1  0.28200000  0.15960000  0.06840000  1.0 -0.1461259643
C  C160  1  0.15960000  0.28200000  0.49000000  1.0 -0.1461259643
C  C161  1  0.28200000  0.49000000  0.15960000  1.0 -0.1461259643
C  C162  1  0.15960000  0.06840000  0.28200000  1.0 -0.1461259643
C  C163  1  0.49000000  0.28200000  0.06840000  1.0 -0.1461259643
C  C164  1  0.06840000  0.15960000  0.49000000  1.0 -0.1461259643
C  C165  1  0.06840000  0.28200000  0.15960000  1.0 -0.1461259643
C  C166  1  0.49000000  0.15960000  0.28200000  1.0 -0.1461259643
C  C167  1  0.15960000  0.49000000  0.06840000  1.0 -0.1461259643
C  C168  1  0.28200000  0.06840000  0.49000000  1.0 -0.1461259643
C  C169  1  0.55880000  0.08880000  0.34000000  1.0 0.0202050064
C  C170  1  0.08880000  0.55880000  0.01240000  1.0 0.0202050064
C  C171  1  0.34000000  0.01240000  0.55880000  1.0 0.0202050064
C  C172  1  0.01240000  0.34000000  0.08880000  1.0 0.0202050064
C  C173  1  0.34000000  0.55880000  0.08880000  1.0 0.0202050064
C  C174  1  0.01240000  0.08880000  0.55880000  1.0 0.0202050064
C  C175  1  0.55880000  0.34000000  0.01240000  1.0 0.0202050064
C  C176  1  0.08880000  0.01240000  0.34000000  1.0 0.0202050064
C  C177  1  0.08880000  0.34000000  0.55880000  1.0 0.0202050064
C  C178  1  0.55880000  0.01240000  0.08880000  1.0 0.0202050064
C  C179  1  0.01240000  0.55880000  0.34000000  1.0 0.0202050064
C  C180  1  0.34000000  0.08880000  0.01240000  1.0 0.0202050064
C  C181  1  0.44120000  0.91120000  0.98760000  1.0 0.0202050064
C  C182  1  0.91120000  0.44120000  0.66000000  1.0 0.0202050064
C  C183  1  0.66000000  0.98760000  0.91120000  1.0 0.0202050064
C  C184  1  0.98760000  0.66000000  0.44120000  1.0 0.0202050064
C  C185  1  0.66000000  0.44120000  0.98760000  1.0 0.0202050064
C  C186  1  0.98760000  0.91120000  0.66000000  1.0 0.0202050064
C  C187  1  0.44120000  0.66000000  0.91120000  1.0 0.0202050064
C  C188  1  0.91120000  0.98760000  0.44120000  1.0 0.0202050064
C  C189  1  0.91120000  0.66000000  0.98760000  1.0 0.0202050064
C  C190  1  0.44120000  0.98760000  0.66000000  1.0 0.0202050064
C  C191  1  0.98760000  0.44120000  0.91120000  1.0 0.0202050064
C  C192  1  0.66000000  0.91120000  0.44120000  1.0 0.0202050064
C  C193  1  0.44120000  0.91120000  0.66000000  1.0 0.0202050064
C  C194  1  0.91120000  0.44120000  0.98760000  1.0 0.0202050064
C  C195  1  0.66000000  0.98760000  0.44120000  1.0 0.0202050064
C  C196  1  0.98760000  0.66000000  0.91120000  1.0 0.0202050064
C  C197  1  0.66000000  0.44120000  0.91120000  1.0 0.0202050064
C  C198  1  0.98760000  0.91120000  0.44120000  1.0 0.0202050064
C  C199  1  0.44120000  0.66000000  0.98760000  1.0 0.0202050064
C  C200  1  0.91120000  0.98760000  0.66000000  1.0 0.0202050064
C  C201  1  0.91120000  0.66000000  0.44120000  1.0 0.0202050064
C  C202  1  0.44120000  0.98760000  0.91120000  1.0 0.0202050064
C  C203  1  0.98760000  0.44120000  0.66000000  1.0 0.0202050064
C  C204  1  0.66000000  0.91120000  0.98760000  1.0 0.0202050064
C  C205  1  0.55880000  0.08880000  0.01240000  1.0 0.0202050064
C  C206  1  0.08880000  0.55880000  0.34000000  1.0 0.0202050064
C  C207  1  0.34000000  0.01240000  0.08880000  1.0 0.0202050064
C  C208  1  0.01240000  0.34000000  0.55880000  1.0 0.0202050064
C  C209  1  0.34000000  0.55880000  0.01240000  1.0 0.0202050064
C  C210  1  0.01240000  0.08880000  0.34000000  1.0 0.0202050064
C  C211  1  0.55880000  0.34000000  0.08880000  1.0 0.0202050064
C  C212  1  0.08880000  0.01240000  0.55880000  1.0 0.0202050064
C  C213  1  0.08880000  0.34000000  0.01240000  1.0 0.0202050064
C  C214  1  0.55880000  0.01240000  0.34000000  1.0 0.0202050064
C  C215  1  0.01240000  0.55880000  0.08880000  1.0 0.0202050064
C  C216  1  0.34000000  0.08880000  0.55880000  1.0 0.0202050064
N  N1  1  0.51987000  0.04717000  0.38579000  1.0 -0.0426210225
N  N2  1  0.04717000  0.51987000  0.04717000  1.0 -0.0426210225
N  N3  1  0.38579000  0.04717000  0.51987000  1.0 -0.0426210225
N  N4  1  0.04717000  0.38579000  0.04717000  1.0 -0.0426210225
N  N5  1  0.38579000  0.51987000  0.04717000  1.0 -0.0426210225
N  N6  1  0.04717000  0.04717000  0.51987000  1.0 -0.0426210225
N  N7  1  0.51987000  0.38579000  0.04717000  1.0 -0.0426210225
N  N8  1  0.04717000  0.04717000  0.38579000  1.0 -0.0426210225
N  N9  1  0.04717000  0.38579000  0.51987000  1.0 -0.0426210225
N  N10  1  0.51987000  0.04717000  0.04717000  1.0 -0.0426210225
N  N11  1  0.04717000  0.51987000  0.38579000  1.0 -0.0426210225
N  N12  1  0.38579000  0.04717000  0.04717000  1.0 -0.0426210225
N  N13  1  0.48013000  0.95283000  0.95283000  1.0 -0.0426210225
N  N14  1  0.95283000  0.48013000  0.61421000  1.0 -0.0426210225
N  N15  1  0.61421000  0.95283000  0.95283000  1.0 -0.0426210225
N  N16  1  0.95283000  0.61421000  0.48013000  1.0 -0.0426210225
N  N17  1  0.61421000  0.48013000  0.95283000  1.0 -0.0426210225
N  N18  1  0.95283000  0.95283000  0.61421000  1.0 -0.0426210225
N  N19  1  0.48013000  0.61421000  0.95283000  1.0 -0.0426210225
N  N20  1  0.95283000  0.95283000  0.48013000  1.0 -0.0426210225
N  N21  1  0.95283000  0.61421000  0.95283000  1.0 -0.0426210225
N  N22  1  0.48013000  0.95283000  0.61421000  1.0 -0.0426210225
N  N23  1  0.95283000  0.48013000  0.95283000  1.0 -0.0426210225
N  N24  1  0.61421000  0.95283000  0.48013000  1.0 -0.0426210225
N  N25  1  0.54019000  0.15327000  0.15327000  1.0 -0.2624418222
N  N26  1  0.15327000  0.54019000  0.15327000  1.0 -0.2624418222
N  N27  1  0.15327000  0.15327000  0.54019000  1.0 -0.2624418222
N  N28  1  0.15327000  0.15327000  0.15327000  1.0 -0.2624418222
N  N29  1  0.45981000  0.84673000  0.84673000  1.0 -0.2624418222
N  N30  1  0.84673000  0.45981000  0.84673000  1.0 -0.2624418222
N  N31  1  0.84673000  0.84673000  0.84673000  1.0 -0.2624418222
N  N32  1  0.84673000  0.84673000  0.45981000  1.0 -0.2624418222
