# DDEC6 charges by PACMAN v1.1 (https://github.com/mtap-research/PACMAN-charge/)
data_OFAPIW_ASR_pacman
_symmetry_space_group_name_H-M   'P 1'
_cell_length_a   11.41820000
_cell_length_b   11.41820000
_cell_length_c   15.68700000
_cell_angle_alpha   81.33610000
_cell_angle_beta   98.66390000
_cell_angle_gamma   128.25000000
_symmetry_Int_Tables_number   1
_chemical_formula_structural   CoH13C29(N3O2)2
_chemical_formula_sum   'Co2 H26 C58 N12 O8'
_cell_volume   1583.45791195
_cell_formula_units_Z   2
loop_
 _symmetry_equiv_pos_site_id
 _symmetry_equiv_pos_as_xyz
  1  'x, y, z'
loop_
 _atom_site_type_symbol
 _atom_site_label
 _atom_site_symmetry_multiplicity
 _atom_site_fract_x
 _atom_site_fract_y
 _atom_site_fract_z
 _atom_site_occupancy
 _atom_site_charge
Co  Co1  1  0.13679000  0.86321000  0.88885000  1.0 0.7232754612
Co  Co2  1  0.86321000  0.13679000  0.11115000  1.0 0.7232754612
H  H1  1  0.05530000  0.94470000  0.03150000  1.0 0.1113541944
H  H2  1  0.24650000  0.75350000  0.05950000  1.0 0.1113541944
H  H3  1  0.05760000  0.94240000  0.17640000  1.0 0.1462046438
H  H4  1  0.25490000  0.74510000  0.20540000  1.0 0.1424857461
H  H5  1  0.26370000  0.33370000  0.88710000  1.0 0.1113541944
H  H6  1  0.66630000  0.73630000  0.88710000  1.0 0.1113541944
H  H7  1  0.63210000  0.36790000  0.88020000  1.0 0.1186530837
H  H8  1  0.20370000  0.79630000  0.33580000  1.0 0.1186530837
H  H9  1  0.17000000  0.43680000  0.89380000  1.0 0.1279017413
H  H10  1  0.56320000  0.83000000  0.89380000  1.0 0.1279017413
H  H11  1  0.05300000  0.94700000  0.44780000  1.0 0.1186530837
H  H12  1  0.06440000  0.55240000  0.89450000  1.0 0.1113541944
H  H13  1  0.44760000  0.93560000  0.89450000  1.0 0.1113541944
H  H14  1  0.94470000  0.05530000  0.96850000  1.0 0.1113541944
H  H15  1  0.75350000  0.24650000  0.94050000  1.0 0.1113541944
H  H16  1  0.94240000  0.05760000  0.82360000  1.0 0.1462046438
H  H17  1  0.74510000  0.25490000  0.79460000  1.0 0.1424857461
H  H18  1  0.33370000  0.26370000  0.11290000  1.0 0.1113541944
H  H19  1  0.73630000  0.66630000  0.11290000  1.0 0.1113541944
H  H20  1  0.36790000  0.63210000  0.11980000  1.0 0.1186530837
H  H21  1  0.79630000  0.20370000  0.66420000  1.0 0.1186530837
H  H22  1  0.43680000  0.17000000  0.10620000  1.0 0.1279017413
H  H23  1  0.83000000  0.56320000  0.10620000  1.0 0.1279017413
H  H24  1  0.94700000  0.05300000  0.55220000  1.0 0.1113541944
H  H25  1  0.55240000  0.06440000  0.10550000  1.0 0.1113541944
H  H26  1  0.93560000  0.44760000  0.10550000  1.0 0.1113541944
C  C1  1  0.09628000  0.90372000  0.06724000  1.0 0.0778204863
C  C2  1  0.20799000  0.79201000  0.08325000  1.0 0.0778204863
C  C3  1  0.33731000  0.15615000  0.88496000  1.0 0.5158345931
C  C4  1  0.84385000  0.66269000  0.88496000  1.0 0.5158345931
C  C5  1  0.09702000  0.90298000  0.15473000  1.0 -0.1618312961
C  C6  1  0.21341000  0.78659000  0.17097000  1.0 -0.190574131
C  C7  1  0.43413000  0.32455000  0.88380000  1.0 -0.0113914654
C  C8  1  0.67545000  0.56587000  0.88380000  1.0 -0.0113914654
C  C9  1  0.15597000  0.84403000  0.20987000  1.0 0.1034964406
C  C10  1  0.36699000  0.39255000  0.88594000  1.0 -0.151972971
C  C11  1  0.60745000  0.63301000  0.88594000  1.0 -0.151972971
C  C12  1  0.58713000  0.41287000  0.88229000  1.0 -0.1358301109
C  C13  1  0.16178000  0.83822000  0.30256000  1.0 -0.0113914654
C  C14  1  0.45247000  0.54753000  0.88635000  1.0 0.066406683
C  C15  1  0.38098000  0.61902000  0.88925000  1.0 0.1113541944
C  C16  1  0.23130000  0.54062000  0.89236000  1.0 -0.2046381003
C  C17  1  0.45938000  0.76870000  0.89236000  1.0 -0.2046381003
C  C18  1  0.10001000  0.89999000  0.47285000  1.0 0.1279017413
C  C19  1  0.16780000  0.61196000  0.89341000  1.0 0.0778204863
C  C20  1  0.38804000  0.83220000  0.89341000  1.0 0.0778204863
C  C21  1  0.11013000  0.88987000  0.56880000  1.0 0.0386136526
C  C22  1  0.13890000  0.00290000  0.61080000  1.0 -0.0772012762
C  C23  1  0.99710000  0.86110000  0.61080000  1.0 -0.0772012762
C  C24  1  0.23632000  0.93508000  0.61540000  1.0 -0.0772012762
C  C25  1  0.06492000  0.76368000  0.61540000  1.0 -0.0772012762
C  C26  1  0.14167000  0.98893000  0.70040000  1.0 0.0386136526
C  C27  1  0.01107000  0.85833000  0.70040000  1.0 0.0386136526
C  C28  1  0.24454000  0.93286000  0.70630000  1.0 0.0919182421
C  C29  1  0.06714000  0.75546000  0.70630000  1.0 0.0919182421
C  C30  1  0.90372000  0.09628000  0.93276000  1.0 0.0778204863
C  C31  1  0.79201000  0.20799000  0.91675000  1.0 0.0778204863
C  C32  1  0.15615000  0.33731000  0.11504000  1.0 0.5158345931
C  C33  1  0.66269000  0.84385000  0.11504000  1.0 0.5158345931
C  C34  1  0.90298000  0.09702000  0.84527000  1.0 -0.1618312961
C  C35  1  0.78659000  0.21341000  0.82903000  1.0 -0.190574131
C  C36  1  0.32455000  0.43413000  0.11620000  1.0 -0.0113914654
C  C37  1  0.56587000  0.67545000  0.11620000  1.0 -0.0113914654
C  C38  1  0.84403000  0.15597000  0.79013000  1.0 0.1034964406
C  C39  1  0.39255000  0.36699000  0.11406000  1.0 -0.151972971
C  C40  1  0.63301000  0.60745000  0.11406000  1.0 -0.151972971
C  C41  1  0.41287000  0.58713000  0.11771000  1.0 -0.1358301109
C  C42  1  0.83822000  0.16178000  0.69744000  1.0 -0.0113914654
C  C43  1  0.54753000  0.45247000  0.11365000  1.0 0.066406683
C  C44  1  0.61902000  0.38098000  0.11075000  1.0 0.1113541944
C  C45  1  0.54062000  0.23130000  0.10764000  1.0 -0.2046381003
C  C46  1  0.76870000  0.45938000  0.10764000  1.0 -0.2046381003
C  C47  1  0.89999000  0.10001000  0.52715000  1.0 0.1279017413
C  C48  1  0.61196000  0.16780000  0.10659000  1.0 0.0778204863
C  C49  1  0.83220000  0.38804000  0.10659000  1.0 0.0778204863
C  C50  1  0.88987000  0.11013000  0.43120000  1.0 0.0331158945
C  C51  1  0.00290000  0.13890000  0.38920000  1.0 -0.0772012762
C  C52  1  0.86110000  0.99710000  0.38920000  1.0 -0.0772012762
C  C53  1  0.93508000  0.23632000  0.38460000  1.0 -0.0772012762
C  C54  1  0.76368000  0.06492000  0.38460000  1.0 -0.0772012762
C  C55  1  0.98893000  0.14167000  0.29960000  1.0 0.0386136526
C  C56  1  0.85833000  0.01107000  0.29960000  1.0 0.0386136526
C  C57  1  0.93286000  0.24454000  0.29370000  1.0 0.0919182421
C  C58  1  0.75546000  0.06714000  0.29370000  1.0 0.0919182421
N  N1  1  0.14999000  0.85001000  0.02928000  1.0 -0.2412666893
N  N2  1  0.12392000  0.87608000  0.74840000  1.0 -0.0724770716
N  N3  1  0.24286000  0.75714000  0.89293000  1.0 -0.2412666893
N  N4  1  0.11320000  0.88680000  0.33998000  1.0 -0.1696069753
N  N5  1  0.08598000  0.82962000  0.43136000  1.0 0.0191242107
N  N6  1  0.17038000  0.91402000  0.43136000  1.0 0.0191242107
N  N7  1  0.85001000  0.14999000  0.97072000  1.0 -0.2412666893
N  N8  1  0.87608000  0.12392000  0.25160000  1.0 -0.0724770716
N  N9  1  0.75714000  0.24286000  0.10707000  1.0 -0.2412666893
N  N10  1  0.88680000  0.11320000  0.66002000  1.0 -0.1696069753
N  N11  1  0.82962000  0.08598000  0.56864000  1.0 0.0191242107
N  N12  1  0.91402000  0.17038000  0.56864000  1.0 0.0191242107
O  O1  1  0.20164000  0.08104000  0.88781000  1.0 -0.5028535939
O  O2  1  0.91896000  0.79836000  0.88781000  1.0 -0.5028535939
O  O3  1  0.39717000  0.09479000  0.88315000  1.0 -0.5503648436
O  O4  1  0.90521000  0.60283000  0.88315000  1.0 -0.5503648436
O  O5  1  0.08104000  0.20164000  0.11219000  1.0 -0.5028535939
O  O6  1  0.79836000  0.91896000  0.11219000  1.0 -0.5028535939
O  O7  1  0.09479000  0.39717000  0.11685000  1.0 -0.5503648436
O  O8  1  0.60283000  0.90521000  0.11685000  1.0 -0.5503648436
