# DDEC6 charges by PACMAN v1.1 (https://github.com/mtap-research/PACMAN-charge/)
data_OFIJEW_ASR_pacman
_symmetry_space_group_name_H-M   'P 1'
_cell_length_a   39.51900000
_cell_length_b   39.51900000
_cell_length_c   16.35880000
_cell_angle_alpha   90.00000000
_cell_angle_beta   90.00000000
_cell_angle_gamma   120.00000000
_symmetry_Int_Tables_number   1
_chemical_formula_structural   Zr3Fe8H22(C22O7)2
_chemical_formula_sum   'Zr18 Fe48 H132 C264 O84'
_cell_volume   22125.54451580
_cell_formula_units_Z   6
loop_
 _symmetry_equiv_pos_site_id
 _symmetry_equiv_pos_as_xyz
  1  'x, y, z'
loop_
 _atom_site_type_symbol
 _atom_site_label
 _atom_site_symmetry_multiplicity
 _atom_site_fract_x
 _atom_site_fract_y
 _atom_site_fract_z
 _atom_site_occupancy
 _atom_site_charge
Zr  Zr1  1  0.46422000  0.53578000  0.50000000  1.0 2.3626465371
Zr  Zr2  1  0.53578000  0.46422000  0.50000000  1.0 2.3626465371
Zr  Zr3  1  0.46422000  0.92844000  0.50000000  1.0 2.3626465371
Zr  Zr4  1  0.07156000  0.53578000  0.50000000  1.0 2.3626465371
Zr  Zr5  1  0.92844000  0.46422000  0.50000000  1.0 2.3626465371
Zr  Zr6  1  0.53578000  0.07156000  0.50000000  1.0 2.3626465371
Zr  Zr7  1  0.45529000  0.45529000  0.60762000  1.0 2.3290415974
Zr  Zr8  1  0.54471000  0.54471000  0.60762000  1.0 2.3290415974
Zr  Zr9  1  0.54471000  0.00000000  0.60762000  1.0 2.3290415974
Zr  Zr10  1  0.00000000  0.54471000  0.60762000  1.0 2.3290415974
Zr  Zr11  1  0.00000000  0.45529000  0.60762000  1.0 2.3290415974
Zr  Zr12  1  0.45529000  0.00000000  0.60762000  1.0 2.3290415974
Zr  Zr13  1  0.00000000  0.54471000  0.39238000  1.0 2.3290415974
Zr  Zr14  1  0.54471000  0.00000000  0.39238000  1.0 2.3290415974
Zr  Zr15  1  0.45529000  0.45529000  0.39238000  1.0 2.3290415974
Zr  Zr16  1  0.54471000  0.54471000  0.39238000  1.0 2.3290415974
Zr  Zr17  1  0.45529000  0.00000000  0.39238000  1.0 2.3290415974
Zr  Zr18  1  0.00000000  0.45529000  0.39238000  1.0 2.3290415974
Fe  Fe1  1  0.48500000  0.50600000  0.82800000  1.0 -0.0675410732
Fe  Fe2  1  0.51500000  0.49400000  0.82800000  1.0 -0.0675410732
Fe  Fe3  1  0.49400000  0.97900000  0.82800000  1.0 -0.0675410732
Fe  Fe4  1  0.02100000  0.51500000  0.82800000  1.0 -0.0675410732
Fe  Fe5  1  0.97900000  0.48500000  0.82800000  1.0 -0.0675410732
Fe  Fe6  1  0.50600000  0.02100000  0.82800000  1.0 -0.0675410732
Fe  Fe7  1  0.97900000  0.49400000  0.17200000  1.0 -0.0675410732
Fe  Fe8  1  0.51500000  0.02100000  0.17200000  1.0 -0.0675410732
Fe  Fe9  1  0.50600000  0.48500000  0.17200000  1.0 -0.0675410732
Fe  Fe10  1  0.49400000  0.51500000  0.17200000  1.0 -0.0675410732
Fe  Fe11  1  0.48500000  0.97900000  0.17200000  1.0 -0.0675410732
Fe  Fe12  1  0.02100000  0.50600000  0.17200000  1.0 -0.0675410732
Fe  Fe13  1  0.51500000  0.49400000  0.17200000  1.0 -0.0675410732
Fe  Fe14  1  0.48500000  0.50600000  0.17200000  1.0 -0.0675410732
Fe  Fe15  1  0.50600000  0.02100000  0.17200000  1.0 -0.0675410732
Fe  Fe16  1  0.97900000  0.48500000  0.17200000  1.0 -0.0675410732
Fe  Fe17  1  0.02100000  0.51500000  0.17200000  1.0 -0.0675410732
Fe  Fe18  1  0.49400000  0.97900000  0.17200000  1.0 -0.0675410732
Fe  Fe19  1  0.02100000  0.50600000  0.82800000  1.0 -0.0675410732
Fe  Fe20  1  0.48500000  0.97900000  0.82800000  1.0 -0.0675410732
Fe  Fe21  1  0.49400000  0.51500000  0.82800000  1.0 -0.0675410732
Fe  Fe22  1  0.50600000  0.48500000  0.82800000  1.0 -0.0675410732
Fe  Fe23  1  0.51500000  0.02100000  0.82800000  1.0 -0.0675410732
Fe  Fe24  1  0.97900000  0.49400000  0.82800000  1.0 -0.0675410732
Fe  Fe25  1  0.47400000  0.52000000  0.76200000  1.0 0.2236142589
Fe  Fe26  1  0.52600000  0.48000000  0.76200000  1.0 0.2236142589
Fe  Fe27  1  0.48000000  0.95400000  0.76200000  1.0 0.2236142589
Fe  Fe28  1  0.04600000  0.52600000  0.76200000  1.0 0.2236142589
Fe  Fe29  1  0.95400000  0.47400000  0.76200000  1.0 0.2236142589
Fe  Fe30  1  0.52000000  0.04600000  0.76200000  1.0 0.2236142589
Fe  Fe31  1  0.95400000  0.48000000  0.23800000  1.0 0.2236142589
Fe  Fe32  1  0.52600000  0.04600000  0.23800000  1.0 0.2236142589
Fe  Fe33  1  0.52000000  0.47400000  0.23800000  1.0 0.2236142589
Fe  Fe34  1  0.48000000  0.52600000  0.23800000  1.0 0.2236142589
Fe  Fe35  1  0.47400000  0.95400000  0.23800000  1.0 0.2236142589
Fe  Fe36  1  0.04600000  0.52000000  0.23800000  1.0 0.2236142589
Fe  Fe37  1  0.52600000  0.48000000  0.23800000  1.0 0.2236142589
Fe  Fe38  1  0.47400000  0.52000000  0.23800000  1.0 0.2236142589
Fe  Fe39  1  0.52000000  0.04600000  0.23800000  1.0 0.2236142589
Fe  Fe40  1  0.95400000  0.47400000  0.23800000  1.0 0.2236142589
Fe  Fe41  1  0.04600000  0.52600000  0.23800000  1.0 0.2236142589
Fe  Fe42  1  0.48000000  0.95400000  0.23800000  1.0 0.2236142589
Fe  Fe43  1  0.04600000  0.52000000  0.76200000  1.0 0.2236142589
Fe  Fe44  1  0.47400000  0.95400000  0.76200000  1.0 0.2236142589
Fe  Fe45  1  0.48000000  0.52600000  0.76200000  1.0 0.2236142589
Fe  Fe46  1  0.52000000  0.47400000  0.76200000  1.0 0.2236142589
Fe  Fe47  1  0.52600000  0.04600000  0.76200000  1.0 0.2236142589
Fe  Fe48  1  0.95400000  0.48000000  0.76200000  1.0 0.2236142589
H  H1  1  0.36966000  0.53808000  0.63068000  1.0 0.1104641656
H  H2  1  0.63034000  0.46192000  0.63068000  1.0 0.1104641656
H  H3  1  0.46192000  0.83158000  0.63068000  1.0 0.1104641656
H  H4  1  0.16842000  0.63034000  0.63068000  1.0 0.1104641656
H  H5  1  0.83158000  0.36966000  0.63068000  1.0 0.1104641656
H  H6  1  0.53808000  0.16842000  0.63068000  1.0 0.1104641656
H  H7  1  0.83158000  0.46192000  0.36932000  1.0 0.1104641656
H  H8  1  0.63034000  0.16842000  0.36932000  1.0 0.1104641656
H  H9  1  0.53808000  0.36966000  0.36932000  1.0 0.1104641656
H  H10  1  0.46192000  0.63034000  0.36932000  1.0 0.1104641656
H  H11  1  0.36966000  0.83158000  0.36932000  1.0 0.1104641656
H  H12  1  0.16842000  0.53808000  0.36932000  1.0 0.1104641656
H  H13  1  0.63034000  0.46192000  0.36932000  1.0 0.1104641656
H  H14  1  0.36966000  0.53808000  0.36932000  1.0 0.1104641656
H  H15  1  0.53808000  0.16842000  0.36932000  1.0 0.1104641656
H  H16  1  0.83158000  0.36966000  0.36932000  1.0 0.1104641656
H  H17  1  0.16842000  0.63034000  0.36932000  1.0 0.1104641656
H  H18  1  0.46192000  0.83158000  0.36932000  1.0 0.1104641656
H  H19  1  0.16842000  0.53808000  0.63068000  1.0 0.1104641656
H  H20  1  0.36966000  0.83158000  0.63068000  1.0 0.1104641656
H  H21  1  0.46192000  0.63034000  0.63068000  1.0 0.1104641656
H  H22  1  0.53808000  0.36966000  0.63068000  1.0 0.1104641656
H  H23  1  0.63034000  0.16842000  0.63068000  1.0 0.1104641656
H  H24  1  0.83158000  0.46192000  0.63068000  1.0 0.1104641656
H  H25  1  0.32130000  0.53839000  0.70904000  1.0 0.1104641656
H  H26  1  0.67870000  0.46161000  0.70904000  1.0 0.1104641656
H  H27  1  0.46161000  0.78291000  0.70904000  1.0 0.1104641656
H  H28  1  0.21709000  0.67870000  0.70904000  1.0 0.1104641656
H  H29  1  0.78291000  0.32130000  0.70904000  1.0 0.1104641656
H  H30  1  0.53839000  0.21709000  0.70904000  1.0 0.1104641656
H  H31  1  0.78291000  0.46161000  0.29096000  1.0 0.1104641656
H  H32  1  0.67870000  0.21709000  0.29096000  1.0 0.1104641656
H  H33  1  0.53839000  0.32130000  0.29096000  1.0 0.1104641656
H  H34  1  0.46161000  0.67870000  0.29096000  1.0 0.1104641656
H  H35  1  0.32130000  0.78291000  0.29096000  1.0 0.1104641656
H  H36  1  0.21709000  0.53839000  0.29096000  1.0 0.1104641656
H  H37  1  0.67870000  0.46161000  0.29096000  1.0 0.1104641656
H  H38  1  0.32130000  0.53839000  0.29096000  1.0 0.1104641656
H  H39  1  0.53839000  0.21709000  0.29096000  1.0 0.1104641656
H  H40  1  0.78291000  0.32130000  0.29096000  1.0 0.1104641656
H  H41  1  0.21709000  0.67870000  0.29096000  1.0 0.1104641656
H  H42  1  0.46161000  0.78291000  0.29096000  1.0 0.1104641656
H  H43  1  0.21709000  0.53839000  0.70904000  1.0 0.1104641656
H  H44  1  0.32130000  0.78291000  0.70904000  1.0 0.1104641656
H  H45  1  0.46161000  0.67870000  0.70904000  1.0 0.1104641656
H  H46  1  0.53839000  0.32130000  0.70904000  1.0 0.1104641656
H  H47  1  0.67870000  0.21709000  0.70904000  1.0 0.1104641656
H  H48  1  0.78291000  0.46161000  0.70904000  1.0 0.1104641656
H  H49  1  0.30443000  0.43999000  0.82798000  1.0 0.0978982752
H  H50  1  0.69557000  0.56001000  0.82798000  1.0 0.0978982752
H  H51  1  0.56001000  0.86444000  0.82798000  1.0 0.0978982752
H  H52  1  0.13556000  0.69557000  0.82798000  1.0 0.0978982752
H  H53  1  0.86444000  0.30443000  0.82798000  1.0 0.0978982752
H  H54  1  0.43999000  0.13556000  0.82798000  1.0 0.0978982752
H  H55  1  0.86444000  0.56001000  0.17202000  1.0 0.0978982752
H  H56  1  0.69557000  0.13556000  0.17202000  1.0 0.0978982752
H  H57  1  0.43999000  0.30443000  0.17202000  1.0 0.0978982752
H  H58  1  0.56001000  0.69557000  0.17202000  1.0 0.0978982752
H  H59  1  0.30443000  0.86444000  0.17202000  1.0 0.0978982752
H  H60  1  0.13556000  0.43999000  0.17202000  1.0 0.0978982752
H  H61  1  0.69557000  0.56001000  0.17202000  1.0 0.0978982752
H  H62  1  0.30443000  0.43999000  0.17202000  1.0 0.0978982752
H  H63  1  0.43999000  0.13556000  0.17202000  1.0 0.0978982752
H  H64  1  0.86444000  0.30443000  0.17202000  1.0 0.0978982752
H  H65  1  0.13556000  0.69557000  0.17202000  1.0 0.0978982752
H  H66  1  0.56001000  0.86444000  0.17202000  1.0 0.0978982752
H  H67  1  0.13556000  0.43999000  0.82798000  1.0 0.0978982752
H  H68  1  0.30443000  0.86444000  0.82798000  1.0 0.0978982752
H  H69  1  0.56001000  0.69557000  0.82798000  1.0 0.0978982752
H  H70  1  0.43999000  0.30443000  0.82798000  1.0 0.0978982752
H  H71  1  0.69557000  0.13556000  0.82798000  1.0 0.0978982752
H  H72  1  0.86444000  0.56001000  0.82798000  1.0 0.0978982752
H  H73  1  0.35270000  0.43881000  0.74501000  1.0 0.1190439282
H  H74  1  0.64730000  0.56119000  0.74501000  1.0 0.1190439282
H  H75  1  0.56119000  0.91389000  0.74501000  1.0 0.1190439282
H  H76  1  0.08611000  0.64730000  0.74501000  1.0 0.1190439282
H  H77  1  0.91389000  0.35270000  0.74501000  1.0 0.1190439282
H  H78  1  0.43881000  0.08611000  0.74501000  1.0 0.1190439282
H  H79  1  0.91389000  0.56119000  0.25499000  1.0 0.1190439282
H  H80  1  0.64730000  0.08611000  0.25499000  1.0 0.1190439282
H  H81  1  0.43881000  0.35270000  0.25499000  1.0 0.1190439282
H  H82  1  0.56119000  0.64730000  0.25499000  1.0 0.1190439282
H  H83  1  0.35270000  0.91389000  0.25499000  1.0 0.1190439282
H  H84  1  0.08611000  0.43881000  0.25499000  1.0 0.1190439282
H  H85  1  0.64730000  0.56119000  0.25499000  1.0 0.1190439282
H  H86  1  0.35270000  0.43881000  0.25499000  1.0 0.1190439282
H  H87  1  0.43881000  0.08611000  0.25499000  1.0 0.1190439282
H  H88  1  0.91389000  0.35270000  0.25499000  1.0 0.1190439282
H  H89  1  0.08611000  0.64730000  0.25499000  1.0 0.1190439282
H  H90  1  0.56119000  0.91389000  0.25499000  1.0 0.1190439282
H  H91  1  0.08611000  0.43881000  0.74501000  1.0 0.1190439282
H  H92  1  0.35270000  0.91389000  0.74501000  1.0 0.1190439282
H  H93  1  0.56119000  0.64730000  0.74501000  1.0 0.1190439282
H  H94  1  0.43881000  0.35270000  0.74501000  1.0 0.1190439282
H  H95  1  0.64730000  0.08611000  0.74501000  1.0 0.1190439282
H  H96  1  0.91389000  0.56119000  0.74501000  1.0 0.1190439282
H  H97  1  0.24483000  0.48966000  0.72979000  1.0 0.1190439282
H  H98  1  0.75517000  0.51034000  0.72979000  1.0 0.1190439282
H  H99  1  0.51034000  0.75517000  0.72979000  1.0 0.1190439282
H  H100  1  0.24483000  0.75517000  0.72979000  1.0 0.1190439282
H  H101  1  0.75517000  0.24483000  0.72979000  1.0 0.1190439282
H  H102  1  0.48966000  0.24483000  0.72979000  1.0 0.1190439282
H  H103  1  0.75517000  0.51034000  0.27021000  1.0 0.1190439282
H  H104  1  0.75517000  0.24483000  0.27021000  1.0 0.1190439282
H  H105  1  0.48966000  0.24483000  0.27021000  1.0 0.1190439282
H  H106  1  0.51034000  0.75517000  0.27021000  1.0 0.1190439282
H  H107  1  0.24483000  0.75517000  0.27021000  1.0 0.1190439282
H  H108  1  0.24483000  0.48966000  0.27021000  1.0 0.1190439282
H  H109  1  0.32874000  0.49218000  0.92842000  1.0 0.1104641656
H  H110  1  0.67126000  0.50782000  0.92842000  1.0 0.1104641656
H  H111  1  0.50782000  0.83656000  0.92842000  1.0 0.1104641656
H  H112  1  0.16344000  0.67126000  0.92842000  1.0 0.1104641656
H  H113  1  0.83656000  0.32874000  0.92842000  1.0 0.1104641656
H  H114  1  0.49218000  0.16344000  0.92842000  1.0 0.1104641656
H  H115  1  0.83656000  0.50782000  0.07158000  1.0 0.1104641656
H  H116  1  0.67126000  0.16344000  0.07158000  1.0 0.1104641656
H  H117  1  0.49218000  0.32874000  0.07158000  1.0 0.1104641656
H  H118  1  0.50782000  0.67126000  0.07158000  1.0 0.1104641656
H  H119  1  0.32874000  0.83656000  0.07158000  1.0 0.1104641656
H  H120  1  0.16344000  0.49218000  0.07158000  1.0 0.1104641656
H  H121  1  0.67126000  0.50782000  0.07158000  1.0 0.1104641656
H  H122  1  0.32874000  0.49218000  0.07158000  1.0 0.1104641656
H  H123  1  0.49218000  0.16344000  0.07158000  1.0 0.1104641656
H  H124  1  0.83656000  0.32874000  0.07158000  1.0 0.1104641656
H  H125  1  0.16344000  0.67126000  0.07158000  1.0 0.1104641656
H  H126  1  0.50782000  0.83656000  0.07158000  1.0 0.1104641656
H  H127  1  0.16344000  0.49218000  0.92842000  1.0 0.1104641656
H  H128  1  0.32874000  0.83656000  0.92842000  1.0 0.1104641656
H  H129  1  0.50782000  0.67126000  0.92842000  1.0 0.1104641656
H  H130  1  0.49218000  0.32874000  0.92842000  1.0 0.1104641656
H  H131  1  0.67126000  0.16344000  0.92842000  1.0 0.1104641656
H  H132  1  0.83656000  0.50782000  0.92842000  1.0 0.1104641656
C  C1  1  0.39720000  0.49050000  0.63680000  1.0 0.6125652761
C  C2  1  0.60280000  0.50950000  0.63680000  1.0 0.6125652761
C  C3  1  0.50950000  0.90670000  0.63680000  1.0 0.6125652761
C  C4  1  0.09330000  0.60280000  0.63680000  1.0 0.6125652761
C  C5  1  0.90670000  0.39720000  0.63680000  1.0 0.6125652761
C  C6  1  0.49050000  0.09330000  0.63680000  1.0 0.6125652761
C  C7  1  0.90670000  0.50950000  0.36320000  1.0 0.6125652761
C  C8  1  0.60280000  0.09330000  0.36320000  1.0 0.6125652761
C  C9  1  0.49050000  0.39720000  0.36320000  1.0 0.6125652761
C  C10  1  0.50950000  0.60280000  0.36320000  1.0 0.6125652761
C  C11  1  0.39720000  0.90670000  0.36320000  1.0 0.6125652761
C  C12  1  0.09330000  0.49050000  0.36320000  1.0 0.6125652761
C  C13  1  0.60280000  0.50950000  0.36320000  1.0 0.6125652761
C  C14  1  0.39720000  0.49050000  0.36320000  1.0 0.6125652761
C  C15  1  0.49050000  0.09330000  0.36320000  1.0 0.6125652761
C  C16  1  0.90670000  0.39720000  0.36320000  1.0 0.6125652761
C  C17  1  0.09330000  0.60280000  0.36320000  1.0 0.6125652761
C  C18  1  0.50950000  0.90670000  0.36320000  1.0 0.6125652761
C  C19  1  0.09330000  0.49050000  0.63680000  1.0 0.6125652761
C  C20  1  0.39720000  0.90670000  0.63680000  1.0 0.6125652761
C  C21  1  0.50950000  0.60280000  0.63680000  1.0 0.6125652761
C  C22  1  0.49050000  0.39720000  0.63680000  1.0 0.6125652761
C  C23  1  0.60280000  0.09330000  0.63680000  1.0 0.6125652761
C  C24  1  0.90670000  0.50950000  0.63680000  1.0 0.6125652761
C  C25  1  0.36550000  0.48930000  0.68320000  1.0 -0.0597205894
C  C26  1  0.63450000  0.51070000  0.68320000  1.0 -0.0597205894
C  C27  1  0.51070000  0.87620000  0.68320000  1.0 -0.0597205894
C  C28  1  0.12380000  0.63450000  0.68320000  1.0 -0.0597205894
C  C29  1  0.87620000  0.36550000  0.68320000  1.0 -0.0597205894
C  C30  1  0.48930000  0.12380000  0.68320000  1.0 -0.0597205894
C  C31  1  0.87620000  0.51070000  0.31680000  1.0 -0.0597205894
C  C32  1  0.63450000  0.12380000  0.31680000  1.0 -0.0597205894
C  C33  1  0.48930000  0.36550000  0.31680000  1.0 -0.0597205894
C  C34  1  0.51070000  0.63450000  0.31680000  1.0 -0.0597205894
C  C35  1  0.36550000  0.87620000  0.31680000  1.0 -0.0597205894
C  C36  1  0.12380000  0.48930000  0.31680000  1.0 -0.0597205894
C  C37  1  0.63450000  0.51070000  0.31680000  1.0 -0.0597205894
C  C38  1  0.36550000  0.48930000  0.31680000  1.0 -0.0597205894
C  C39  1  0.48930000  0.12380000  0.31680000  1.0 -0.0597205894
C  C40  1  0.87620000  0.36550000  0.31680000  1.0 -0.0597205894
C  C41  1  0.12380000  0.63450000  0.31680000  1.0 -0.0597205894
C  C42  1  0.51070000  0.87620000  0.31680000  1.0 -0.0597205894
C  C43  1  0.12380000  0.48930000  0.68320000  1.0 -0.0597205894
C  C44  1  0.36550000  0.87620000  0.68320000  1.0 -0.0597205894
C  C45  1  0.51070000  0.63450000  0.68320000  1.0 -0.0597205894
C  C46  1  0.48930000  0.36550000  0.68320000  1.0 -0.0597205894
C  C47  1  0.63450000  0.12380000  0.68320000  1.0 -0.0597205894
C  C48  1  0.87620000  0.51070000  0.68320000  1.0 -0.0597205894
C  C49  1  0.35640000  0.51850000  0.67100000  1.0 -0.0866217437
C  C50  1  0.64360000  0.48150000  0.67100000  1.0 -0.0866217437
C  C51  1  0.48150000  0.83790000  0.67100000  1.0 -0.0866217437
C  C52  1  0.16210000  0.64360000  0.67100000  1.0 -0.0866217437
C  C53  1  0.83790000  0.35640000  0.67100000  1.0 -0.0866217437
C  C54  1  0.51850000  0.16210000  0.67100000  1.0 -0.0866217437
C  C55  1  0.83790000  0.48150000  0.32900000  1.0 -0.0866217437
C  C56  1  0.64360000  0.16210000  0.32900000  1.0 -0.0866217437
C  C57  1  0.51850000  0.35640000  0.32900000  1.0 -0.0866217437
C  C58  1  0.48150000  0.64360000  0.32900000  1.0 -0.0866217437
C  C59  1  0.35640000  0.83790000  0.32900000  1.0 -0.0866217437
C  C60  1  0.16210000  0.51850000  0.32900000  1.0 -0.0866217437
C  C61  1  0.64360000  0.48150000  0.32900000  1.0 -0.0866217437
C  C62  1  0.35640000  0.51850000  0.32900000  1.0 -0.0866217437
C  C63  1  0.51850000  0.16210000  0.32900000  1.0 -0.0866217437
C  C64  1  0.83790000  0.35640000  0.32900000  1.0 -0.0866217437
C  C65  1  0.16210000  0.64360000  0.32900000  1.0 -0.0866217437
C  C66  1  0.48150000  0.83790000  0.32900000  1.0 -0.0866217437
C  C67  1  0.16210000  0.51850000  0.67100000  1.0 -0.0866217437
C  C68  1  0.35640000  0.83790000  0.67100000  1.0 -0.0866217437
C  C69  1  0.48150000  0.64360000  0.67100000  1.0 -0.0866217437
C  C70  1  0.51850000  0.35640000  0.67100000  1.0 -0.0866217437
C  C71  1  0.64360000  0.16210000  0.67100000  1.0 -0.0866217437
C  C72  1  0.83790000  0.48150000  0.67100000  1.0 -0.0866217437
C  C73  1  0.32810000  0.51880000  0.71760000  1.0 -0.1792477626
C  C74  1  0.67190000  0.48120000  0.71760000  1.0 -0.1792477626
C  C75  1  0.48120000  0.80930000  0.71760000  1.0 -0.1792477626
C  C76  1  0.19070000  0.67190000  0.71760000  1.0 -0.1792477626
C  C77  1  0.80930000  0.32810000  0.71760000  1.0 -0.1792477626
C  C78  1  0.51880000  0.19070000  0.71760000  1.0 -0.1792477626
C  C79  1  0.80930000  0.48120000  0.28240000  1.0 -0.1792477626
C  C80  1  0.67190000  0.19070000  0.28240000  1.0 -0.1792477626
C  C81  1  0.51880000  0.32810000  0.28240000  1.0 -0.1792477626
C  C82  1  0.48120000  0.67190000  0.28240000  1.0 -0.1792477626
C  C83  1  0.32810000  0.80930000  0.28240000  1.0 -0.1792477626
C  C84  1  0.19070000  0.51880000  0.28240000  1.0 -0.1792477626
C  C85  1  0.67190000  0.48120000  0.28240000  1.0 -0.1792477626
C  C86  1  0.32810000  0.51880000  0.28240000  1.0 -0.1792477626
C  C87  1  0.51880000  0.19070000  0.28240000  1.0 -0.1792477626
C  C88  1  0.80930000  0.32810000  0.28240000  1.0 -0.1792477626
C  C89  1  0.19070000  0.67190000  0.28240000  1.0 -0.1792477626
C  C90  1  0.48120000  0.80930000  0.28240000  1.0 -0.1792477626
C  C91  1  0.19070000  0.51880000  0.71760000  1.0 -0.1792477626
C  C92  1  0.32810000  0.80930000  0.71760000  1.0 -0.1792477626
C  C93  1  0.48120000  0.67190000  0.71760000  1.0 -0.1792477626
C  C94  1  0.51880000  0.32810000  0.71760000  1.0 -0.1792477626
C  C95  1  0.67190000  0.19070000  0.71760000  1.0 -0.1792477626
C  C96  1  0.80930000  0.48120000  0.71760000  1.0 -0.1792477626
C  C97  1  0.30800000  0.48920000  0.78080000  1.0 0.076462591
C  C98  1  0.69200000  0.51080000  0.78080000  1.0 0.076462591
C  C99  1  0.51080000  0.81880000  0.78080000  1.0 0.076462591
C  C100  1  0.18120000  0.69200000  0.78080000  1.0 0.076462591
C  C101  1  0.81880000  0.30800000  0.78080000  1.0 0.076462591
C  C102  1  0.48920000  0.18120000  0.78080000  1.0 0.076462591
C  C103  1  0.81880000  0.51080000  0.21920000  1.0 0.076462591
C  C104  1  0.69200000  0.18120000  0.21920000  1.0 0.076462591
C  C105  1  0.48920000  0.30800000  0.21920000  1.0 0.076462591
C  C106  1  0.51080000  0.69200000  0.21920000  1.0 0.076462591
C  C107  1  0.30800000  0.81880000  0.21920000  1.0 0.076462591
C  C108  1  0.18120000  0.48920000  0.21920000  1.0 0.076462591
C  C109  1  0.69200000  0.51080000  0.21920000  1.0 0.076462591
C  C110  1  0.30800000  0.48920000  0.21920000  1.0 0.076462591
C  C111  1  0.48920000  0.18120000  0.21920000  1.0 0.076462591
C  C112  1  0.81880000  0.30800000  0.21920000  1.0 0.076462591
C  C113  1  0.18120000  0.69200000  0.21920000  1.0 0.076462591
C  C114  1  0.51080000  0.81880000  0.21920000  1.0 0.076462591
C  C115  1  0.18120000  0.48920000  0.78080000  1.0 0.076462591
C  C116  1  0.30800000  0.81880000  0.78080000  1.0 0.076462591
C  C117  1  0.51080000  0.69200000  0.78080000  1.0 0.076462591
C  C118  1  0.48920000  0.30800000  0.78080000  1.0 0.076462591
C  C119  1  0.69200000  0.18120000  0.78080000  1.0 0.076462591
C  C120  1  0.81880000  0.51080000  0.78080000  1.0 0.076462591
C  C121  1  0.31770000  0.46000000  0.78850000  1.0 -0.1670443593
C  C122  1  0.68230000  0.54000000  0.78850000  1.0 -0.1670443593
C  C123  1  0.54000000  0.85770000  0.78850000  1.0 -0.1670443593
C  C124  1  0.14230000  0.68230000  0.78850000  1.0 -0.1670443593
C  C125  1  0.85770000  0.31770000  0.78850000  1.0 -0.1670443593
C  C126  1  0.46000000  0.14230000  0.78850000  1.0 -0.1670443593
C  C127  1  0.85770000  0.54000000  0.21150000  1.0 -0.1670443593
C  C128  1  0.68230000  0.14230000  0.21150000  1.0 -0.1670443593
C  C129  1  0.46000000  0.31770000  0.21150000  1.0 -0.1670443593
C  C130  1  0.54000000  0.68230000  0.21150000  1.0 -0.1670443593
C  C131  1  0.31770000  0.85770000  0.21150000  1.0 -0.1670443593
C  C132  1  0.14230000  0.46000000  0.21150000  1.0 -0.1670443593
C  C133  1  0.68230000  0.54000000  0.21150000  1.0 -0.1670443593
C  C134  1  0.31770000  0.46000000  0.21150000  1.0 -0.1670443593
C  C135  1  0.46000000  0.14230000  0.21150000  1.0 -0.1670443593
C  C136  1  0.85770000  0.31770000  0.21150000  1.0 -0.1670443593
C  C137  1  0.14230000  0.68230000  0.21150000  1.0 -0.1670443593
C  C138  1  0.54000000  0.85770000  0.21150000  1.0 -0.1670443593
C  C139  1  0.14230000  0.46000000  0.78850000  1.0 -0.1670443593
C  C140  1  0.31770000  0.85770000  0.78850000  1.0 -0.1670443593
C  C141  1  0.54000000  0.68230000  0.78850000  1.0 -0.1670443593
C  C142  1  0.46000000  0.31770000  0.78850000  1.0 -0.1670443593
C  C143  1  0.68230000  0.14230000  0.78850000  1.0 -0.1670443593
C  C144  1  0.85770000  0.54000000  0.78850000  1.0 -0.1670443593
C  C145  1  0.34650000  0.45900000  0.73970000  1.0 -0.0866217437
C  C146  1  0.65350000  0.54100000  0.73970000  1.0 -0.0866217437
C  C147  1  0.54100000  0.88750000  0.73970000  1.0 -0.0866217437
C  C148  1  0.11250000  0.65350000  0.73970000  1.0 -0.0866217437
C  C149  1  0.88750000  0.34650000  0.73970000  1.0 -0.0866217437
C  C150  1  0.45900000  0.11250000  0.73970000  1.0 -0.0866217437
C  C151  1  0.88750000  0.54100000  0.26030000  1.0 -0.0866217437
C  C152  1  0.65350000  0.11250000  0.26030000  1.0 -0.0866217437
C  C153  1  0.45900000  0.34650000  0.26030000  1.0 -0.0866217437
C  C154  1  0.54100000  0.65350000  0.26030000  1.0 -0.0866217437
C  C155  1  0.34650000  0.88750000  0.26030000  1.0 -0.0866217437
C  C156  1  0.11250000  0.45900000  0.26030000  1.0 -0.0866217437
C  C157  1  0.65350000  0.54100000  0.26030000  1.0 -0.0866217437
C  C158  1  0.34650000  0.45900000  0.26030000  1.0 -0.0866217437
C  C159  1  0.45900000  0.11250000  0.26030000  1.0 -0.0866217437
C  C160  1  0.88750000  0.34650000  0.26030000  1.0 -0.0866217437
C  C161  1  0.11250000  0.65350000  0.26030000  1.0 -0.0866217437
C  C162  1  0.54100000  0.88750000  0.26030000  1.0 -0.0866217437
C  C163  1  0.11250000  0.45900000  0.73970000  1.0 -0.0866217437
C  C164  1  0.34650000  0.88750000  0.73970000  1.0 -0.0866217437
C  C165  1  0.54100000  0.65350000  0.73970000  1.0 -0.0866217437
C  C166  1  0.45900000  0.34650000  0.73970000  1.0 -0.0866217437
C  C167  1  0.65350000  0.11250000  0.73970000  1.0 -0.0866217437
C  C168  1  0.88750000  0.54100000  0.73970000  1.0 -0.0866217437
C  C169  1  0.24475000  0.48950000  0.78790000  1.0 -0.1792477626
C  C170  1  0.75525000  0.51050000  0.78790000  1.0 -0.1792477626
C  C171  1  0.51050000  0.75525000  0.78790000  1.0 -0.1792477626
C  C172  1  0.24475000  0.75525000  0.78790000  1.0 -0.1792477626
C  C173  1  0.75525000  0.24475000  0.78790000  1.0 -0.1792477626
C  C174  1  0.48950000  0.24475000  0.78790000  1.0 -0.1792477626
C  C175  1  0.75525000  0.51050000  0.21210000  1.0 -0.1792477626
C  C176  1  0.75525000  0.24475000  0.21210000  1.0 -0.1792477626
C  C177  1  0.48950000  0.24475000  0.21210000  1.0 -0.1792477626
C  C178  1  0.51050000  0.75525000  0.21210000  1.0 -0.1792477626
C  C179  1  0.24475000  0.75525000  0.21210000  1.0 -0.1792477626
C  C180  1  0.24475000  0.48950000  0.21210000  1.0 -0.1792477626
C  C181  1  0.27480000  0.48940000  0.82770000  1.0 0.0117144369
C  C182  1  0.72520000  0.51060000  0.82770000  1.0 0.0117144369
C  C183  1  0.51060000  0.78540000  0.82770000  1.0 0.0117144369
C  C184  1  0.21460000  0.72520000  0.82770000  1.0 0.0117144369
C  C185  1  0.78540000  0.27480000  0.82770000  1.0 0.0117144369
C  C186  1  0.48940000  0.21460000  0.82770000  1.0 0.0117144369
C  C187  1  0.78540000  0.51060000  0.17230000  1.0 0.0117144369
C  C188  1  0.72520000  0.21460000  0.17230000  1.0 0.0117144369
C  C189  1  0.48940000  0.27480000  0.17230000  1.0 0.0117144369
C  C190  1  0.51060000  0.72520000  0.17230000  1.0 0.0117144369
C  C191  1  0.27480000  0.78540000  0.17230000  1.0 0.0117144369
C  C192  1  0.21460000  0.48940000  0.17230000  1.0 0.0117144369
C  C193  1  0.72520000  0.51060000  0.17230000  1.0 0.0117144369
C  C194  1  0.27480000  0.48940000  0.17230000  1.0 0.0117144369
C  C195  1  0.48940000  0.21460000  0.17230000  1.0 0.0117144369
C  C196  1  0.78540000  0.27480000  0.17230000  1.0 0.0117144369
C  C197  1  0.21460000  0.72520000  0.17230000  1.0 0.0117144369
C  C198  1  0.51060000  0.78540000  0.17230000  1.0 0.0117144369
C  C199  1  0.21460000  0.48940000  0.82770000  1.0 0.0117144369
C  C200  1  0.27480000  0.78540000  0.82770000  1.0 0.0117144369
C  C201  1  0.51060000  0.72520000  0.82770000  1.0 0.0117144369
C  C202  1  0.48940000  0.27480000  0.82770000  1.0 0.0117144369
C  C203  1  0.72520000  0.21460000  0.82770000  1.0 0.0117144369
C  C204  1  0.78540000  0.51060000  0.82770000  1.0 0.0117144369
C  C205  1  0.27510000  0.49010000  0.91260000  1.0 0.0282468382
C  C206  1  0.72490000  0.50990000  0.91260000  1.0 0.0282468382
C  C207  1  0.50990000  0.78500000  0.91260000  1.0 0.0282468382
C  C208  1  0.21500000  0.72490000  0.91260000  1.0 0.0282468382
C  C209  1  0.78500000  0.27510000  0.91260000  1.0 0.0282468382
C  C210  1  0.49010000  0.21500000  0.91260000  1.0 0.0282468382
C  C211  1  0.78500000  0.50990000  0.08740000  1.0 0.0282468382
C  C212  1  0.72490000  0.21500000  0.08740000  1.0 0.0282468382
C  C213  1  0.49010000  0.27510000  0.08740000  1.0 0.0282468382
C  C214  1  0.50990000  0.72490000  0.08740000  1.0 0.0282468382
C  C215  1  0.27510000  0.78500000  0.08740000  1.0 0.0282468382
C  C216  1  0.21500000  0.49010000  0.08740000  1.0 0.0282468382
C  C217  1  0.72490000  0.50990000  0.08740000  1.0 0.0282468382
C  C218  1  0.27510000  0.49010000  0.08740000  1.0 0.0282468382
C  C219  1  0.49010000  0.21500000  0.08740000  1.0 0.0282468382
C  C220  1  0.78500000  0.27510000  0.08740000  1.0 0.0282468382
C  C221  1  0.21500000  0.72490000  0.08740000  1.0 0.0282468382
C  C222  1  0.50990000  0.78500000  0.08740000  1.0 0.0282468382
C  C223  1  0.21500000  0.49010000  0.91260000  1.0 0.0282468382
C  C224  1  0.27510000  0.78500000  0.91260000  1.0 0.0282468382
C  C225  1  0.50990000  0.72490000  0.91260000  1.0 0.0282468382
C  C226  1  0.49010000  0.27510000  0.91260000  1.0 0.0282468382
C  C227  1  0.72490000  0.21500000  0.91260000  1.0 0.0282468382
C  C228  1  0.78500000  0.50990000  0.91260000  1.0 0.0282468382
C  C229  1  0.24465000  0.48930000  0.95570000  1.0 -0.0036015864
C  C230  1  0.75535000  0.51070000  0.95570000  1.0 -0.0036015864
C  C231  1  0.51070000  0.75535000  0.95570000  1.0 -0.0036015864
C  C232  1  0.24465000  0.75535000  0.95570000  1.0 -0.0036015864
C  C233  1  0.75535000  0.24465000  0.95570000  1.0 -0.0036015864
C  C234  1  0.48930000  0.24465000  0.95570000  1.0 -0.0036015864
C  C235  1  0.75535000  0.51070000  0.04430000  1.0 -0.0036015864
C  C236  1  0.75535000  0.24465000  0.04430000  1.0 -0.0036015864
C  C237  1  0.48930000  0.24465000  0.04430000  1.0 -0.0036015864
C  C238  1  0.51070000  0.75535000  0.04430000  1.0 -0.0036015864
C  C239  1  0.24465000  0.75535000  0.04430000  1.0 -0.0036015864
C  C240  1  0.24465000  0.48930000  0.04430000  1.0 -0.0036015864
C  C241  1  0.30750000  0.49140000  0.95740000  1.0 -0.1631916653
C  C242  1  0.69250000  0.50860000  0.95740000  1.0 -0.1631916653
C  C243  1  0.50860000  0.81610000  0.95740000  1.0 -0.1631916653
C  C244  1  0.18390000  0.69250000  0.95740000  1.0 -0.1631916653
C  C245  1  0.81610000  0.30750000  0.95740000  1.0 -0.1631916653
C  C246  1  0.49140000  0.18390000  0.95740000  1.0 -0.1631916653
C  C247  1  0.81610000  0.50860000  0.04260000  1.0 -0.1631916653
C  C248  1  0.69250000  0.18390000  0.04260000  1.0 -0.1631916653
C  C249  1  0.49140000  0.30750000  0.04260000  1.0 -0.1631916653
C  C250  1  0.50860000  0.69250000  0.04260000  1.0 -0.1631916653
C  C251  1  0.30750000  0.81610000  0.04260000  1.0 -0.1631916653
C  C252  1  0.18390000  0.49140000  0.04260000  1.0 -0.1631916653
C  C253  1  0.69250000  0.50860000  0.04260000  1.0 -0.1631916653
C  C254  1  0.30750000  0.49140000  0.04260000  1.0 -0.1631916653
C  C255  1  0.49140000  0.18390000  0.04260000  1.0 -0.1631916653
C  C256  1  0.81610000  0.30750000  0.04260000  1.0 -0.1631916653
C  C257  1  0.18390000  0.69250000  0.04260000  1.0 -0.1631916653
C  C258  1  0.50860000  0.81610000  0.04260000  1.0 -0.1631916653
C  C259  1  0.18390000  0.49140000  0.95740000  1.0 -0.1631916653
C  C260  1  0.30750000  0.81610000  0.95740000  1.0 -0.1631916653
C  C261  1  0.50860000  0.69250000  0.95740000  1.0 -0.1631916653
C  C262  1  0.49140000  0.30750000  0.95740000  1.0 -0.1631916653
C  C263  1  0.69250000  0.18390000  0.95740000  1.0 -0.1631916653
C  C264  1  0.81610000  0.50860000  0.95740000  1.0 -0.1631916653
O  O1  1  0.41350000  0.51730000  0.58270000  1.0 -0.5642965763
O  O2  1  0.58650000  0.48270000  0.58270000  1.0 -0.5642965763
O  O3  1  0.48270000  0.89620000  0.58270000  1.0 -0.5642965763
O  O4  1  0.10380000  0.58650000  0.58270000  1.0 -0.5642965763
O  O5  1  0.89620000  0.41350000  0.58270000  1.0 -0.5642965763
O  O6  1  0.51730000  0.10380000  0.58270000  1.0 -0.5642965763
O  O7  1  0.89620000  0.48270000  0.41730000  1.0 -0.5642965763
O  O8  1  0.58650000  0.10380000  0.41730000  1.0 -0.5642965763
O  O9  1  0.51730000  0.41350000  0.41730000  1.0 -0.5642965763
O  O10  1  0.48270000  0.58650000  0.41730000  1.0 -0.5642965763
O  O11  1  0.41350000  0.89620000  0.41730000  1.0 -0.5650351076
O  O12  1  0.10380000  0.51730000  0.41730000  1.0 -0.5650351076
O  O13  1  0.58650000  0.48270000  0.41730000  1.0 -0.5642965763
O  O14  1  0.41350000  0.51730000  0.41730000  1.0 -0.5642965763
O  O15  1  0.51730000  0.10380000  0.41730000  1.0 -0.5642965763
O  O16  1  0.89620000  0.41350000  0.41730000  1.0 -0.5642965763
O  O17  1  0.10380000  0.58650000  0.41730000  1.0 -0.5650351076
O  O18  1  0.48270000  0.89620000  0.41730000  1.0 -0.5650351076
O  O19  1  0.10380000  0.51730000  0.58270000  1.0 -0.5642965763
O  O20  1  0.41350000  0.89620000  0.58270000  1.0 -0.5642965763
O  O21  1  0.48270000  0.58650000  0.58270000  1.0 -0.5642965763
O  O22  1  0.51730000  0.41350000  0.58270000  1.0 -0.5642965763
O  O23  1  0.58650000  0.10380000  0.58270000  1.0 -0.5642965763
O  O24  1  0.89620000  0.48270000  0.58270000  1.0 -0.5642965763
O  O25  1  0.40850000  0.46660000  0.65200000  1.0 -0.5272677669
O  O26  1  0.59150000  0.53340000  0.65200000  1.0 -0.5272677669
O  O27  1  0.53340000  0.94190000  0.65200000  1.0 -0.5272677669
O  O28  1  0.05810000  0.59150000  0.65200000  1.0 -0.5272677669
O  O29  1  0.94190000  0.40850000  0.65200000  1.0 -0.5272677669
O  O30  1  0.46660000  0.05810000  0.65200000  1.0 -0.5272677669
O  O31  1  0.94190000  0.53340000  0.34800000  1.0 -0.5272677669
O  O32  1  0.59150000  0.05810000  0.34800000  1.0 -0.5272677669
O  O33  1  0.46660000  0.40850000  0.34800000  1.0 -0.5272677669
O  O34  1  0.53340000  0.59150000  0.34800000  1.0 -0.5272677669
O  O35  1  0.40850000  0.94190000  0.34800000  1.0 -0.5272677669
O  O36  1  0.05810000  0.46660000  0.34800000  1.0 -0.5272677669
O  O37  1  0.59150000  0.53340000  0.34800000  1.0 -0.5272677669
O  O38  1  0.40850000  0.46660000  0.34800000  1.0 -0.5272677669
O  O39  1  0.46660000  0.05810000  0.34800000  1.0 -0.5272677669
O  O40  1  0.94190000  0.40850000  0.34800000  1.0 -0.5272677669
O  O41  1  0.05810000  0.59150000  0.34800000  1.0 -0.5272677669
O  O42  1  0.53340000  0.94190000  0.34800000  1.0 -0.5272677669
O  O43  1  0.05810000  0.46660000  0.65200000  1.0 -0.5272677669
O  O44  1  0.40850000  0.94190000  0.65200000  1.0 -0.5272677669
O  O45  1  0.53340000  0.59150000  0.65200000  1.0 -0.5272677669
O  O46  1  0.46660000  0.40850000  0.65200000  1.0 -0.5272677669
O  O47  1  0.59150000  0.05810000  0.65200000  1.0 -0.5272677669
O  O48  1  0.94190000  0.53340000  0.65200000  1.0 -0.5272677669
O  O49  1  0.43680000  0.47230000  0.50000000  1.0 -1.0072448978
O  O50  1  0.56320000  0.52770000  0.50000000  1.0 -1.0072448978
O  O51  1  0.52770000  0.96450000  0.50000000  1.0 -1.0072448978
O  O52  1  0.03550000  0.56320000  0.50000000  1.0 -1.0072448978
O  O53  1  0.96450000  0.43680000  0.50000000  1.0 -1.0072448978
O  O54  1  0.47230000  0.03550000  0.50000000  1.0 -1.0072448978
O  O55  1  0.96450000  0.52770000  0.50000000  1.0 -1.0072448978
O  O56  1  0.56320000  0.03550000  0.50000000  1.0 -1.0072448978
O  O57  1  0.47230000  0.43680000  0.50000000  1.0 -1.0072448978
O  O58  1  0.52770000  0.56320000  0.50000000  1.0 -1.0072448978
O  O59  1  0.43680000  0.96450000  0.50000000  1.0 -1.0072448978
O  O60  1  0.03550000  0.47230000  0.50000000  1.0 -1.0072448978
O  O61  1  0.48260000  0.51740000  0.60960000  1.0 -1.0288115968
O  O62  1  0.51740000  0.48260000  0.60960000  1.0 -1.0288115968
O  O63  1  0.48260000  0.96520000  0.60960000  1.0 -1.0288115968
O  O64  1  0.03480000  0.51740000  0.60960000  1.0 -1.0288115968
O  O65  1  0.96520000  0.48260000  0.60960000  1.0 -1.0288115968
O  O66  1  0.51740000  0.03480000  0.60960000  1.0 -1.0288115968
O  O67  1  0.96520000  0.48260000  0.39040000  1.0 -1.0288115968
O  O68  1  0.51740000  0.03480000  0.39040000  1.0 -1.0288115968
O  O69  1  0.51740000  0.48260000  0.39040000  1.0 -1.0288115968
O  O70  1  0.48260000  0.51740000  0.39040000  1.0 -1.0288115968
O  O71  1  0.48260000  0.96520000  0.39040000  1.0 -1.0288115968
O  O72  1  0.03480000  0.51740000  0.39040000  1.0 -1.0288115968
O  O73  1  0.46270000  0.46270000  0.74370000  1.0 -0.6076713829
O  O74  1  0.53730000  0.53730000  0.74370000  1.0 -0.6076713829
O  O75  1  0.53730000  0.00000000  0.74370000  1.0 -0.6076713829
O  O76  1  0.00000000  0.53730000  0.74370000  1.0 -0.6076713829
O  O77  1  0.00000000  0.46270000  0.74370000  1.0 -0.6076713829
O  O78  1  0.46270000  0.00000000  0.74370000  1.0 -0.6076713829
O  O79  1  0.00000000  0.53730000  0.25630000  1.0 -0.6076713829
O  O80  1  0.53730000  0.00000000  0.25630000  1.0 -0.6158015757
O  O81  1  0.46270000  0.46270000  0.25630000  1.0 -0.6076713829
O  O82  1  0.53730000  0.53730000  0.25630000  1.0 -0.6076713829
O  O83  1  0.46270000  0.00000000  0.25630000  1.0 -0.6158015757
O  O84  1  0.00000000  0.46270000  0.25630000  1.0 -0.6076713829
