# DDEC6 charges by PACMAN v1.1 (https://github.com/mtap-research/PACMAN-charge/)
data_OFOCUI_ASR_pacman
_symmetry_space_group_name_H-M   'P 1'
_cell_length_a   27.16420000
_cell_length_b   27.16420000
_cell_length_c   27.16420000
_cell_angle_alpha   114.02900000
_cell_angle_beta   114.02900000
_cell_angle_gamma   114.02900000
_symmetry_Int_Tables_number   1
_chemical_formula_structural   CuH3C8NO4
_chemical_formula_sum   'Cu24 H72 C192 N24 O96'
_cell_volume   12151.71700011
_cell_formula_units_Z   24
loop_
 _symmetry_equiv_pos_site_id
 _symmetry_equiv_pos_as_xyz
  1  'x, y, z'
loop_
 _atom_site_type_symbol
 _atom_site_label
 _atom_site_symmetry_multiplicity
 _atom_site_fract_x
 _atom_site_fract_y
 _atom_site_fract_z
 _atom_site_occupancy
 _atom_site_charge
Cu  Cu1  1  0.96582000  0.75968000  0.25826000  1.0 0.8725656886
Cu  Cu2  1  0.75968000  0.25826000  0.96582000  1.0 0.8725656886
Cu  Cu3  1  0.25826000  0.96582000  0.75968000  1.0 0.8725656886
Cu  Cu4  1  0.03418000  0.24032000  0.74174000  1.0 0.8725656886
Cu  Cu5  1  0.24032000  0.74174000  0.03418000  1.0 0.8725656886
Cu  Cu6  1  0.74174000  0.03418000  0.24032000  1.0 0.8725656886
Cu  Cu7  1  0.00637000  0.69922000  0.20125000  1.0 0.8617996277
Cu  Cu8  1  0.69922000  0.20125000  0.00637000  1.0 0.8617996277
Cu  Cu9  1  0.20125000  0.00637000  0.69922000  1.0 0.8617996277
Cu  Cu10  1  0.99363000  0.30078000  0.79875000  1.0 0.8617996277
Cu  Cu11  1  0.30078000  0.79875000  0.99363000  1.0 0.8617996277
Cu  Cu12  1  0.79875000  0.99363000  0.30078000  1.0 0.8617996277
Cu  Cu13  1  0.73265000  0.52151000  0.71038000  1.0 0.8617996277
Cu  Cu14  1  0.52151000  0.71038000  0.73265000  1.0 0.8617996277
Cu  Cu15  1  0.71038000  0.73265000  0.52151000  1.0 0.8617996277
Cu  Cu16  1  0.26735000  0.47849000  0.28962000  1.0 0.8617996277
Cu  Cu17  1  0.47849000  0.28962000  0.26735000  1.0 0.8617996277
Cu  Cu18  1  0.28962000  0.26735000  0.47849000  1.0 0.8617996277
Cu  Cu19  1  0.79201000  0.47925000  0.76624000  1.0 0.8617996277
Cu  Cu20  1  0.47925000  0.76624000  0.79201000  1.0 0.8617996277
Cu  Cu21  1  0.76624000  0.79201000  0.47925000  1.0 0.8617996277
Cu  Cu22  1  0.20799000  0.52075000  0.23376000  1.0 0.8617996277
Cu  Cu23  1  0.52075000  0.23376000  0.20799000  1.0 0.8725656886
Cu  Cu24  1  0.23376000  0.20799000  0.52075000  1.0 0.8617996277
H  H1  1  0.86950000  0.62430000  0.98320000  1.0 0.1400956087
H  H2  1  0.62430000  0.98320000  0.86950000  1.0 0.1492812354
H  H3  1  0.98320000  0.86950000  0.62430000  1.0 0.1400956087
H  H4  1  0.13050000  0.37570000  0.01680000  1.0 0.1492812354
H  H5  1  0.37570000  0.01680000  0.13050000  1.0 0.1400956087
H  H6  1  0.01680000  0.13050000  0.37570000  1.0 0.1400956087
H  H7  1  0.74920000  0.65340000  0.88000000  1.0 0.1400956087
H  H8  1  0.65340000  0.88000000  0.74920000  1.0 0.1400956087
H  H9  1  0.88000000  0.74920000  0.65340000  1.0 0.1400956087
H  H10  1  0.25080000  0.34660000  0.12000000  1.0 0.1400956087
H  H11  1  0.34660000  0.12000000  0.25080000  1.0 0.1400956087
H  H12  1  0.12000000  0.25080000  0.34660000  1.0 0.1400956087
H  H13  1  0.84360000  0.74600000  0.09080000  1.0 0.1400956087
H  H14  1  0.74600000  0.09080000  0.84360000  1.0 0.1400956087
H  H15  1  0.09080000  0.84360000  0.74600000  1.0 0.1400956087
H  H16  1  0.15640000  0.25400000  0.90920000  1.0 0.1400956087
H  H17  1  0.25400000  0.90920000  0.15640000  1.0 0.1400956087
H  H18  1  0.90920000  0.15640000  0.25400000  1.0 0.1400956087
H  H19  1  0.66970000  0.74210000  0.91460000  1.0 0.1329050858
H  H20  1  0.74210000  0.91460000  0.66970000  1.0 0.1329050858
H  H21  1  0.91460000  0.66970000  0.74210000  1.0 0.1329050858
H  H22  1  0.33030000  0.25790000  0.08540000  1.0 0.1329050858
H  H23  1  0.25790000  0.08540000  0.33030000  1.0 0.1329050858
H  H24  1  0.08540000  0.33030000  0.25790000  1.0 0.1329050858
H  H25  1  0.63490000  0.86270000  0.01420000  1.0 0.1329050858
H  H26  1  0.86270000  0.01420000  0.63490000  1.0 0.1329050858
H  H27  1  0.01420000  0.63490000  0.86270000  1.0 0.1329050858
H  H28  1  0.36510000  0.13730000  0.98580000  1.0 0.1329050858
H  H29  1  0.13730000  0.98580000  0.36510000  1.0 0.1329050858
H  H30  1  0.98580000  0.36510000  0.13730000  1.0 0.1329050858
H  H31  1  0.78370000  0.85810000  0.13130000  1.0 0.1329050858
H  H32  1  0.85810000  0.13130000  0.78370000  1.0 0.1329050858
H  H33  1  0.13130000  0.78370000  0.85810000  1.0 0.1329050858
H  H34  1  0.21630000  0.14190000  0.86870000  1.0 0.1329050858
H  H35  1  0.14190000  0.86870000  0.21630000  1.0 0.1329050858
H  H36  1  0.86870000  0.21630000  0.14190000  1.0 0.1329050858
H  H37  1  0.84600000  0.47910000  0.10660000  1.0 0.1492812354
H  H38  1  0.47910000  0.10660000  0.84600000  1.0 0.1492812354
H  H39  1  0.10660000  0.84600000  0.47910000  1.0 0.1492812354
H  H40  1  0.15400000  0.52090000  0.89340000  1.0 0.1492812354
H  H41  1  0.52090000  0.89340000  0.15400000  1.0 0.1492812354
H  H42  1  0.89340000  0.15400000  0.52090000  1.0 0.1492812354
H  H43  1  0.72380000  0.37700000  0.13560000  1.0 0.1400956087
H  H44  1  0.37700000  0.13560000  0.72380000  1.0 0.1400956087
H  H45  1  0.13560000  0.72380000  0.37700000  1.0 0.1400956087
H  H46  1  0.27620000  0.62300000  0.86440000  1.0 0.1400956087
H  H47  1  0.62300000  0.86440000  0.27620000  1.0 0.1400956087
H  H48  1  0.86440000  0.27620000  0.62300000  1.0 0.1400956087
H  H49  1  0.80690000  0.57770000  0.22020000  1.0 0.1329050858
H  H50  1  0.57770000  0.22020000  0.80690000  1.0 0.1329050858
H  H51  1  0.22020000  0.80690000  0.57770000  1.0 0.1329050858
H  H52  1  0.19310000  0.42230000  0.77980000  1.0 0.1329050858
H  H53  1  0.42230000  0.77980000  0.19310000  1.0 0.1329050858
H  H54  1  0.77980000  0.19310000  0.42230000  1.0 0.1329050858
H  H55  1  0.65560000  0.41880000  0.23790000  1.0 0.1400956087
H  H56  1  0.41880000  0.23790000  0.65560000  1.0 0.1400956087
H  H57  1  0.23790000  0.65560000  0.41880000  1.0 0.1400956087
H  H58  1  0.34440000  0.58120000  0.76210000  1.0 0.1400956087
H  H59  1  0.58120000  0.76210000  0.34440000  1.0 0.1400956087
H  H60  1  0.76210000  0.34440000  0.58120000  1.0 0.1400956087
H  H61  1  0.61980000  0.50970000  0.35650000  1.0 0.1400956087
H  H62  1  0.50970000  0.35650000  0.61980000  1.0 0.1400956087
H  H63  1  0.35650000  0.61980000  0.50970000  1.0 0.1400956087
H  H64  1  0.38020000  0.49030000  0.64350000  1.0 0.1400956087
H  H65  1  0.49030000  0.64350000  0.38020000  1.0 0.1400956087
H  H66  1  0.64350000  0.38020000  0.49030000  1.0 0.1400956087
H  H67  1  0.73820000  0.62040000  0.32780000  1.0 0.1400956087
H  H68  1  0.62040000  0.32780000  0.73820000  1.0 0.1400956087
H  H69  1  0.32780000  0.73820000  0.62040000  1.0 0.1400956087
H  H70  1  0.26180000  0.37960000  0.67220000  1.0 0.1400956087
H  H71  1  0.37960000  0.67220000  0.26180000  1.0 0.1400956087
H  H72  1  0.67220000  0.26180000  0.37960000  1.0 0.1400956087
C  C1  1  0.89820000  0.69160000  0.10890000  1.0 0.590897605
C  C2  1  0.69160000  0.10890000  0.89820000  1.0 0.590897605
C  C3  1  0.10890000  0.89820000  0.69160000  1.0 0.590897605
C  C4  1  0.10180000  0.30840000  0.89110000  1.0 0.590897605
C  C5  1  0.30840000  0.89110000  0.10180000  1.0 0.590897605
C  C6  1  0.89110000  0.10180000  0.30840000  1.0 0.590897605
C  C7  1  0.85440000  0.67750000  0.04050000  1.0 -0.011306234
C  C8  1  0.67750000  0.04050000  0.85440000  1.0 -0.011306234
C  C9  1  0.04050000  0.85440000  0.67750000  1.0 -0.011306234
C  C10  1  0.14560000  0.32250000  0.95950000  1.0 -0.011306234
C  C11  1  0.32250000  0.95950000  0.14560000  1.0 -0.011306234
C  C12  1  0.95950000  0.14560000  0.32250000  1.0 -0.011306234
C  C13  1  0.84600000  0.64130000  0.98130000  1.0 -0.1012322548
C  C14  1  0.64130000  0.98130000  0.84600000  1.0 -0.1012322548
C  C15  1  0.98130000  0.84600000  0.64130000  1.0 -0.1012322548
C  C16  1  0.15400000  0.35870000  0.01870000  1.0 -0.1012322548
C  C17  1  0.35870000  0.01870000  0.15400000  1.0 -0.1012322548
C  C18  1  0.01870000  0.15400000  0.35870000  1.0 -0.1012322548
C  C19  1  0.80590000  0.62820000  0.92020000  1.0 -0.0216153059
C  C20  1  0.62820000  0.92020000  0.80590000  1.0 -0.0216153059
C  C21  1  0.92020000  0.80590000  0.62820000  1.0 -0.0216153059
C  C22  1  0.19410000  0.37180000  0.07980000  1.0 -0.0216153059
C  C23  1  0.37180000  0.07980000  0.19410000  1.0 -0.0216153059
C  C24  1  0.07980000  0.19410000  0.37180000  1.0 -0.0216153059
C  C25  1  0.79810000  0.58860000  0.85600000  1.0 0.590897605
C  C26  1  0.58860000  0.85600000  0.79810000  1.0 0.590897605
C  C27  1  0.85600000  0.79810000  0.58860000  1.0 0.590897605
C  C28  1  0.20190000  0.41140000  0.14400000  1.0 0.590897605
C  C29  1  0.41140000  0.14400000  0.20190000  1.0 0.590897605
C  C30  1  0.14400000  0.20190000  0.41140000  1.0 0.590897605
C  C31  1  0.77590000  0.65930000  0.92030000  1.0 -0.1612640289
C  C32  1  0.65930000  0.92030000  0.77590000  1.0 -0.1612640289
C  C33  1  0.92030000  0.77590000  0.65930000  1.0 -0.1612640289
C  C34  1  0.22410000  0.34070000  0.07970000  1.0 -0.1612640289
C  C35  1  0.34070000  0.07970000  0.22410000  1.0 -0.1612640289
C  C36  1  0.07970000  0.22410000  0.34070000  1.0 -0.1612640289
C  C37  1  0.78700000  0.69890000  0.98150000  1.0 0.1573450485
C  C38  1  0.69890000  0.98150000  0.78700000  1.0 0.1573450485
C  C39  1  0.98150000  0.78700000  0.69890000  1.0 0.1573450485
C  C40  1  0.21300000  0.30110000  0.01850000  1.0 0.1573450485
C  C41  1  0.30110000  0.01850000  0.21300000  1.0 0.1573450485
C  C42  1  0.01850000  0.21300000  0.30110000  1.0 0.1573450485
C  C43  1  0.83150000  0.71420000  0.04740000  1.0 -0.1393678638
C  C44  1  0.71420000  0.04740000  0.83150000  1.0 -0.1292708413
C  C45  1  0.04740000  0.83150000  0.71420000  1.0 -0.1393678638
C  C46  1  0.16850000  0.28580000  0.95260000  1.0 -0.1292708413
C  C47  1  0.28580000  0.95260000  0.16850000  1.0 -0.1393678638
C  C48  1  0.95260000  0.16850000  0.28580000  1.0 -0.1292708413
C  C49  1  0.72330000  0.78480000  0.01690000  1.0 0.165927407
C  C50  1  0.78480000  0.01690000  0.72330000  1.0 0.165927407
C  C51  1  0.01690000  0.72330000  0.78480000  1.0 0.165927407
C  C52  1  0.27670000  0.21520000  0.98310000  1.0 0.165927407
C  C53  1  0.21520000  0.98310000  0.27670000  1.0 0.165927407
C  C54  1  0.98310000  0.27670000  0.21520000  1.0 0.165927407
C  C55  1  0.67980000  0.77380000  0.95650000  1.0 -0.1393678638
C  C56  1  0.77380000  0.95650000  0.67980000  1.0 -0.1393678638
C  C57  1  0.95650000  0.67980000  0.77380000  1.0 -0.1393678638
C  C58  1  0.32020000  0.22620000  0.04350000  1.0 -0.1393678638
C  C59  1  0.22620000  0.04350000  0.32020000  1.0 -0.1393678638
C  C60  1  0.04350000  0.32020000  0.22620000  1.0 -0.1484464182
C  C61  1  0.64750000  0.80560000  0.94980000  1.0 -0.0902502369
C  C62  1  0.80560000  0.94980000  0.64750000  1.0 -0.0902502369
C  C63  1  0.94980000  0.64750000  0.80560000  1.0 -0.0902502369
C  C64  1  0.35250000  0.19440000  0.05020000  1.0 -0.0902502369
C  C65  1  0.19440000  0.05020000  0.35250000  1.0 -0.0902502369
C  C66  1  0.05020000  0.35250000  0.19440000  1.0 -0.0902502369
C  C67  1  0.59070000  0.78240000  0.88400000  1.0 0.5598095475
C  C68  1  0.78240000  0.88400000  0.59070000  1.0 0.5598095475
C  C69  1  0.88400000  0.59070000  0.78240000  1.0 0.5598095475
C  C70  1  0.40930000  0.21760000  0.11600000  1.0 0.5598095475
C  C71  1  0.21760000  0.11600000  0.40930000  1.0 0.5598095475
C  C72  1  0.11600000  0.40930000  0.21760000  1.0 0.5598095475
C  C73  1  0.66080000  0.84820000  0.01600000  1.0 -0.0902502369
C  C74  1  0.84820000  0.01600000  0.66080000  1.0 -0.0902502369
C  C75  1  0.01600000  0.66080000  0.84820000  1.0 -0.0902502369
C  C76  1  0.33920000  0.15180000  0.98400000  1.0 -0.0902502369
C  C77  1  0.15180000  0.98400000  0.33920000  1.0 -0.0902502369
C  C78  1  0.98400000  0.33920000  0.15180000  1.0 -0.0902502369
C  C79  1  0.71180000  0.86900000  0.08400000  1.0 -0.0020725361
C  C80  1  0.86900000  0.08400000  0.71180000  1.0 -0.0020725361
C  C81  1  0.08400000  0.71180000  0.86900000  1.0 -0.0020725361
C  C82  1  0.28820000  0.13100000  0.91600000  1.0 -0.0020725361
C  C83  1  0.13100000  0.91600000  0.28820000  1.0 -0.0020725361
C  C84  1  0.91600000  0.28820000  0.13100000  1.0 -0.0020725361
C  C85  1  0.73070000  0.91730000  0.15510000  1.0 0.5598095475
C  C86  1  0.91730000  0.15510000  0.73070000  1.0 0.5598095475
C  C87  1  0.15510000  0.73070000  0.91730000  1.0 0.5598095475
C  C88  1  0.26930000  0.08270000  0.84490000  1.0 0.5598095475
C  C89  1  0.08270000  0.84490000  0.26930000  1.0 0.5598095475
C  C90  1  0.84490000  0.26930000  0.08270000  1.0 0.5598095475
C  C91  1  0.74690000  0.84120000  0.08660000  1.0 -0.1612640289
C  C92  1  0.84120000  0.08660000  0.74690000  1.0 -0.1612640289
C  C93  1  0.08660000  0.74690000  0.84120000  1.0 -0.1612640289
C  C94  1  0.25310000  0.15880000  0.91340000  1.0 -0.1612640289
C  C95  1  0.15880000  0.91340000  0.25310000  1.0 -0.1650271099
C  C96  1  0.91340000  0.25310000  0.15880000  1.0 -0.1612640289
C  C97  1  0.88240000  0.60600000  0.18360000  1.0 0.5781493206
C  C98  1  0.60600000  0.18360000  0.88240000  1.0 0.5781493206
C  C99  1  0.18360000  0.88240000  0.60600000  1.0 0.5781493206
C  C100  1  0.11760000  0.39400000  0.81640000  1.0 0.5781493206
C  C101  1  0.39400000  0.81640000  0.11760000  1.0 0.5781493206
C  C102  1  0.81640000  0.11760000  0.39400000  1.0 0.5781493206
C  C103  1  0.83410000  0.54030000  0.16890000  1.0 -0.0293473638
C  C104  1  0.54030000  0.16890000  0.83410000  1.0 -0.0293473638
C  C105  1  0.16890000  0.83410000  0.54030000  1.0 -0.0293473638
C  C106  1  0.16590000  0.45970000  0.83110000  1.0 -0.0293473638
C  C107  1  0.45970000  0.83110000  0.16590000  1.0 -0.0293473638
C  C108  1  0.83110000  0.16590000  0.45970000  1.0 -0.0293473638
C  C109  1  0.82280000  0.47780000  0.12420000  1.0 -0.1179862617
C  C110  1  0.47780000  0.12420000  0.82280000  1.0 -0.1179862617
C  C111  1  0.12420000  0.82280000  0.47780000  1.0 -0.1179862617
C  C112  1  0.17720000  0.52220000  0.87580000  1.0 -0.1179862617
C  C113  1  0.52220000  0.87580000  0.17720000  1.0 -0.1179862617
C  C114  1  0.87580000  0.17720000  0.52220000  1.0 -0.1179862617
C  C115  1  0.77680000  0.41690000  0.10900000  1.0 0.0028374987
C  C116  1  0.41690000  0.10900000  0.77680000  1.0 0.0028374987
C  C117  1  0.10900000  0.77680000  0.41690000  1.0 0.0028374987
C  C118  1  0.22320000  0.58310000  0.89100000  1.0 0.0028374987
C  C119  1  0.58310000  0.89100000  0.22320000  1.0 0.0028374987
C  C120  1  0.89100000  0.22320000  0.58310000  1.0 0.0028374987
C  C121  1  0.76100000  0.34430000  0.07290000  1.0 0.571613254
C  C122  1  0.34430000  0.07290000  0.76100000  1.0 0.571613254
C  C123  1  0.07290000  0.76100000  0.34430000  1.0 0.571613254
C  C124  1  0.23900000  0.65570000  0.92710000  1.0 0.571613254
C  C125  1  0.65570000  0.92710000  0.23900000  1.0 0.571613254
C  C126  1  0.92710000  0.23900000  0.65570000  1.0 0.571613254
C  C127  1  0.75110000  0.41780000  0.14250000  1.0 -0.180085646
C  C128  1  0.41780000  0.14250000  0.75110000  1.0 -0.180085646
C  C129  1  0.14250000  0.75110000  0.41780000  1.0 -0.180085646
C  C130  1  0.24890000  0.58220000  0.85750000  1.0 -0.180085646
C  C131  1  0.58220000  0.85750000  0.24890000  1.0 -0.180085646
C  C132  1  0.85750000  0.24890000  0.58220000  1.0 -0.180085646
C  C133  1  0.76670000  0.48090000  0.18680000  1.0 0.1329050858
C  C134  1  0.48090000  0.18680000  0.76670000  1.0 0.1329050858
C  C135  1  0.18680000  0.76670000  0.48090000  1.0 0.1329050858
C  C136  1  0.23330000  0.51910000  0.81320000  1.0 0.1329050858
C  C137  1  0.51910000  0.81320000  0.23330000  1.0 0.1329050858
C  C138  1  0.81320000  0.23330000  0.51910000  1.0 0.1329050858
C  C139  1  0.80320000  0.53860000  0.19550000  1.0 -0.1012322548
C  C140  1  0.53860000  0.19550000  0.80320000  1.0 -0.1012322548
C  C141  1  0.19550000  0.80320000  0.53860000  1.0 -0.1012322548
C  C142  1  0.19680000  0.46140000  0.80450000  1.0 -0.1012322548
C  C143  1  0.46140000  0.80450000  0.19680000  1.0 -0.1012322548
C  C144  1  0.80450000  0.19680000  0.46140000  1.0 -0.1012322548
C  C145  1  0.69960000  0.51970000  0.27420000  1.0 0.1573450485
C  C146  1  0.51970000  0.27420000  0.69960000  1.0 0.1573450485
C  C147  1  0.27420000  0.69960000  0.51970000  1.0 0.1573450485
C  C148  1  0.30040000  0.48030000  0.72580000  1.0 0.1573450485
C  C149  1  0.48030000  0.72580000  0.30040000  1.0 0.1573450485
C  C150  1  0.72580000  0.30040000  0.48030000  1.0 0.1573450485
C  C151  1  0.65990000  0.45770000  0.26460000  1.0 -0.1484464182
C  C152  1  0.45770000  0.26460000  0.65990000  1.0 -0.1484464182
C  C153  1  0.26460000  0.65990000  0.45770000  1.0 -0.1484464182
C  C154  1  0.34010000  0.54230000  0.73540000  1.0 -0.1484464182
C  C155  1  0.54230000  0.73540000  0.34010000  1.0 -0.1484464182
C  C156  1  0.73540000  0.34010000  0.54230000  1.0 -0.1484464182
C  C157  1  0.62730000  0.45090000  0.29170000  1.0 -0.011306234
C  C158  1  0.45090000  0.29170000  0.62730000  1.0 -0.011306234
C  C159  1  0.29170000  0.62730000  0.45090000  1.0 -0.011306234
C  C160  1  0.37270000  0.54910000  0.70830000  1.0 -0.011306234
C  C161  1  0.54910000  0.70830000  0.37270000  1.0 -0.011306234
C  C162  1  0.70830000  0.37270000  0.54910000  1.0 -0.011306234
C  C163  1  0.57930000  0.38040000  0.27520000  1.0 0.5781493206
C  C164  1  0.38040000  0.27520000  0.57930000  1.0 0.5781493206
C  C165  1  0.27520000  0.57930000  0.38040000  1.0 0.5781493206
C  C166  1  0.42070000  0.61960000  0.72480000  1.0 0.5781493206
C  C167  1  0.61960000  0.72480000  0.42070000  1.0 0.5781493206
C  C168  1  0.72480000  0.42070000  0.61960000  1.0 0.5781493206
C  C169  1  0.63990000  0.51150000  0.33580000  1.0 -0.1179862617
C  C170  1  0.51150000  0.33580000  0.63990000  1.0 -0.1149409767
C  C171  1  0.33580000  0.63990000  0.51150000  1.0 -0.1179862617
C  C172  1  0.36010000  0.48850000  0.66420000  1.0 -0.1179862617
C  C173  1  0.48850000  0.66420000  0.36010000  1.0 -0.1179862617
C  C174  1  0.66420000  0.36010000  0.48850000  1.0 -0.1179862617
C  C175  1  0.68580000  0.58200000  0.35230000  1.0 -0.011306234
C  C176  1  0.58200000  0.35230000  0.68580000  1.0 -0.011306234
C  C177  1  0.35230000  0.68580000  0.58200000  1.0 -0.011306234
C  C178  1  0.31420000  0.41800000  0.64770000  1.0 -0.011306234
C  C179  1  0.41800000  0.64770000  0.31420000  1.0 -0.011306234
C  C180  1  0.64770000  0.31420000  0.41800000  1.0 -0.011306234
C  C181  1  0.69490000  0.64570000  0.40400000  1.0 0.590897605
C  C182  1  0.64570000  0.40400000  0.69490000  1.0 0.590897605
C  C183  1  0.40400000  0.69490000  0.64570000  1.0 0.590897605
C  C184  1  0.30510000  0.35430000  0.59600000  1.0 0.590897605
C  C185  1  0.35430000  0.59600000  0.30510000  1.0 0.590897605
C  C186  1  0.59600000  0.30510000  0.35430000  1.0 0.590897605
C  C187  1  0.71050000  0.57850000  0.31940000  1.0 -0.1292708413
C  C188  1  0.57850000  0.31940000  0.71050000  1.0 -0.1179862617
C  C189  1  0.31940000  0.71050000  0.57850000  1.0 -0.1292708413
C  C190  1  0.28950000  0.42150000  0.68060000  1.0 -0.1179862617
C  C191  1  0.42150000  0.68060000  0.28950000  1.0 -0.1292708413
C  C192  1  0.68060000  0.28950000  0.42150000  1.0 -0.1292708413
N  N1  1  0.74810000  0.72520000  0.97160000  1.0 -0.1393678638
N  N2  1  0.72520000  0.97160000  0.74810000  1.0 -0.1393678638
N  N3  1  0.97160000  0.74810000  0.72520000  1.0 -0.1393678638
N  N4  1  0.25190000  0.27480000  0.02840000  1.0 -0.1393678638
N  N5  1  0.27480000  0.02840000  0.25190000  1.0 -0.1393678638
N  N6  1  0.02840000  0.25190000  0.27480000  1.0 -0.1393678638
N  N7  1  0.76310000  0.76490000  0.03120000  1.0 -0.180085646
N  N8  1  0.76490000  0.03120000  0.76310000  1.0 -0.180085646
N  N9  1  0.03120000  0.76310000  0.76490000  1.0 -0.180085646
N  N10  1  0.23690000  0.23510000  0.96880000  1.0 -0.180085646
N  N11  1  0.23510000  0.96880000  0.23690000  1.0 -0.180085646
N  N12  1  0.96880000  0.23690000  0.23510000  1.0 -0.180085646
N  N13  1  0.72410000  0.47380000  0.21220000  1.0 -0.0844969135
N  N14  1  0.47380000  0.21220000  0.72410000  1.0 -0.0844969135
N  N15  1  0.21220000  0.72410000  0.47380000  1.0 -0.0844969135
N  N16  1  0.27590000  0.52620000  0.78780000  1.0 -0.0844969135
N  N17  1  0.52620000  0.78780000  0.27590000  1.0 -0.0844969135
N  N18  1  0.78780000  0.27590000  0.52620000  1.0 -0.0844969135
N  N19  1  0.74020000  0.53060000  0.25540000  1.0 -0.1484464182
N  N20  1  0.53060000  0.25540000  0.74020000  1.0 -0.1484464182
N  N21  1  0.25540000  0.74020000  0.53060000  1.0 -0.1484464182
N  N22  1  0.25980000  0.46940000  0.74460000  1.0 -0.1484464182
N  N23  1  0.46940000  0.74460000  0.25980000  1.0 -0.1484464182
N  N24  1  0.74460000  0.25980000  0.46940000  1.0 -0.1484464182
O  O1  1  0.90088000  0.72342000  0.15930000  1.0 -0.4931303691
O  O2  1  0.72342000  0.15930000  0.90088000  1.0 -0.4931303691
O  O3  1  0.15930000  0.90088000  0.72342000  1.0 -0.4931303691
O  O4  1  0.09912000  0.27658000  0.84070000  1.0 -0.4931303691
O  O5  1  0.27658000  0.84070000  0.09912000  1.0 -0.4931303691
O  O6  1  0.84070000  0.09912000  0.27658000  1.0 -0.4931303691
O  O7  1  0.93730000  0.67555000  0.11075000  1.0 -0.5317783678
O  O8  1  0.67555000  0.11075000  0.93730000  1.0 -0.5317783678
O  O9  1  0.11075000  0.93730000  0.67555000  1.0 -0.5317783678
O  O10  1  0.06270000  0.32445000  0.88925000  1.0 -0.5317783678
O  O11  1  0.32445000  0.88925000  0.06270000  1.0 -0.5317783678
O  O12  1  0.88925000  0.06270000  0.32445000  1.0 -0.5317783678
O  O13  1  0.76344000  0.57951000  0.80075000  1.0 -0.4776397925
O  O14  1  0.57951000  0.80075000  0.76344000  1.0 -0.4776397925
O  O15  1  0.80075000  0.76344000  0.57951000  1.0 -0.4776397925
O  O16  1  0.23656000  0.42049000  0.19925000  1.0 -0.4776397925
O  O17  1  0.42049000  0.19925000  0.23656000  1.0 -0.4776397925
O  O18  1  0.19925000  0.23656000  0.42049000  1.0 -0.4776397925
O  O19  1  0.81104000  0.54610000  0.84806000  1.0 -0.5394123991
O  O20  1  0.54610000  0.84806000  0.81104000  1.0 -0.5394123991
O  O21  1  0.84806000  0.81104000  0.54610000  1.0 -0.5317783678
O  O22  1  0.18896000  0.45390000  0.15194000  1.0 -0.5394123991
O  O23  1  0.45390000  0.15194000  0.18896000  1.0 -0.5394123991
O  O24  1  0.15194000  0.18896000  0.45390000  1.0 -0.5394123991
O  O25  1  0.59092000  0.74985000  0.83383000  1.0 -0.5470645608
O  O26  1  0.74985000  0.83383000  0.59092000  1.0 -0.5470645608
O  O27  1  0.83383000  0.59092000  0.74985000  1.0 -0.5470645608
O  O28  1  0.40908000  0.25015000  0.16617000  1.0 -0.5470645608
O  O29  1  0.25015000  0.16617000  0.40908000  1.0 -0.5470645608
O  O30  1  0.16617000  0.40908000  0.25015000  1.0 -0.5470645608
O  O31  1  0.55747000  0.80071000  0.88242000  1.0 -0.4493053537
O  O32  1  0.80071000  0.88242000  0.55747000  1.0 -0.4493053537
O  O33  1  0.88242000  0.55747000  0.80071000  1.0 -0.4493053537
O  O34  1  0.44253000  0.19929000  0.11758000  1.0 -0.4493053537
O  O35  1  0.19929000  0.11758000  0.44253000  1.0 -0.4493053537
O  O36  1  0.11758000  0.44253000  0.19929000  1.0 -0.4493053537
O  O37  1  0.71656000  0.96110000  0.15364000  1.0 -0.602288443
O  O38  1  0.96110000  0.15364000  0.71656000  1.0 -0.602288443
O  O39  1  0.15364000  0.71656000  0.96110000  1.0 -0.602288443
O  O40  1  0.28344000  0.03890000  0.84636000  1.0 -0.602288443
O  O41  1  0.03890000  0.84636000  0.28344000  1.0 -0.602288443
O  O42  1  0.84636000  0.28344000  0.03890000  1.0 -0.602288443
O  O43  1  0.75988000  0.92209000  0.20393000  1.0 -0.4210338424
O  O44  1  0.92209000  0.20393000  0.75988000  1.0 -0.4210338424
O  O45  1  0.20393000  0.75988000  0.92209000  1.0 -0.4210338424
O  O46  1  0.24012000  0.07791000  0.79607000  1.0 -0.4210338424
O  O47  1  0.07791000  0.79607000  0.24012000  1.0 -0.4210338424
O  O48  1  0.79607000  0.24012000  0.07791000  1.0 -0.4210338424
O  O49  1  0.89221000  0.65968000  0.21971000  1.0 -0.4709556829
O  O50  1  0.65968000  0.21971000  0.89221000  1.0 -0.4709556829
O  O51  1  0.21971000  0.89221000  0.65968000  1.0 -0.4709556829
O  O52  1  0.10779000  0.34032000  0.78029000  1.0 -0.4709556829
O  O53  1  0.34032000  0.78029000  0.10779000  1.0 -0.4709556829
O  O54  1  0.78029000  0.10779000  0.34032000  1.0 -0.4709556829
O  O55  1  0.92327000  0.60739000  0.16744000  1.0 -0.5737701238
O  O56  1  0.60739000  0.16744000  0.92327000  1.0 -0.5737701238
O  O57  1  0.16744000  0.92327000  0.60739000  1.0 -0.5737701238
O  O58  1  0.07673000  0.39261000  0.83256000  1.0 -0.5737701238
O  O59  1  0.39261000  0.83256000  0.07673000  1.0 -0.5737701238
O  O60  1  0.83256000  0.07673000  0.39261000  1.0 -0.5737701238
O  O61  1  0.78593000  0.35047000  0.04030000  1.0 -0.5104831637
O  O62  1  0.35047000  0.04030000  0.78593000  1.0 -0.5104831637
O  O63  1  0.04030000  0.78593000  0.35047000  1.0 -0.5104831637
O  O64  1  0.21407000  0.64953000  0.95970000  1.0 -0.5104831637
O  O65  1  0.64953000  0.95970000  0.21407000  1.0 -0.5104831637
O  O66  1  0.95970000  0.21407000  0.64953000  1.0 -0.5104831637
O  O67  1  0.72452000  0.28815000  0.05573000  1.0 -0.3831762156
O  O68  1  0.28815000  0.05573000  0.72452000  1.0 -0.3831762156
O  O69  1  0.05573000  0.72452000  0.28815000  1.0 -0.3831762156
O  O70  1  0.27548000  0.71185000  0.94427000  1.0 -0.3831762156
O  O71  1  0.71185000  0.94427000  0.27548000  1.0 -0.3831762156
O  O72  1  0.94427000  0.27548000  0.71185000  1.0 -0.3831762156
O  O73  1  0.58392000  0.33716000  0.24572000  1.0 -0.5010681754
O  O74  1  0.33716000  0.24572000  0.58392000  1.0 -0.5010681754
O  O75  1  0.24572000  0.58392000  0.33716000  1.0 -0.5010681754
O  O76  1  0.41608000  0.66284000  0.75428000  1.0 -0.5010681754
O  O77  1  0.66284000  0.75428000  0.41608000  1.0 -0.5010681754
O  O78  1  0.75428000  0.41608000  0.66284000  1.0 -0.5010681754
O  O79  1  0.54940000  0.38251000  0.30029000  1.0 -0.5010681754
O  O80  1  0.38251000  0.30029000  0.54940000  1.0 -0.5010681754
O  O81  1  0.30029000  0.54940000  0.38251000  1.0 -0.5010681754
O  O82  1  0.45060000  0.61749000  0.69971000  1.0 -0.5010681754
O  O83  1  0.61749000  0.69971000  0.45060000  1.0 -0.5010681754
O  O84  1  0.69971000  0.45060000  0.61749000  1.0 -0.5010681754
O  O85  1  0.68980000  0.65220000  0.45090000  1.0 -0.5394123991
O  O86  1  0.65220000  0.45090000  0.68980000  1.0 -0.5394123991
O  O87  1  0.45090000  0.68980000  0.65220000  1.0 -0.5394123991
O  O88  1  0.31020000  0.34780000  0.54910000  1.0 -0.5394123991
O  O89  1  0.34780000  0.54910000  0.31020000  1.0 -0.5394123991
O  O90  1  0.54910000  0.31020000  0.34780000  1.0 -0.5394123991
O  O91  1  0.72969000  0.69656000  0.40685000  1.0 -0.5104831637
O  O92  1  0.69656000  0.40685000  0.72969000  1.0 -0.5104831637
O  O93  1  0.40685000  0.72969000  0.69656000  1.0 -0.5104831637
O  O94  1  0.27031000  0.30344000  0.59315000  1.0 -0.5104831637
O  O95  1  0.30344000  0.59315000  0.27031000  1.0 -0.5104831637
O  O96  1  0.59315000  0.27031000  0.30344000  1.0 -0.5104831637
