# DDEC6 charges by PACMAN v1.1 (https://github.com/mtap-research/PACMAN-charge/)
data_OFODAP_FSR_pacman
_symmetry_space_group_name_H-M   'P 1'
_cell_length_a   12.85970000
_cell_length_b   15.12070000
_cell_length_c   23.51600000
_cell_angle_alpha   90.00000000
_cell_angle_beta   90.00000000
_cell_angle_gamma   90.00000000
_symmetry_Int_Tables_number   1
_chemical_formula_structural   Cd2H27C25N5O11
_chemical_formula_sum   'Cd8 H108 C100 N20 O44'
_cell_volume   4572.63130872
_cell_formula_units_Z   4
loop_
 _symmetry_equiv_pos_site_id
 _symmetry_equiv_pos_as_xyz
  1  'x, y, z'
loop_
 _atom_site_type_symbol
 _atom_site_label
 _atom_site_symmetry_multiplicity
 _atom_site_fract_x
 _atom_site_fract_y
 _atom_site_fract_z
 _atom_site_occupancy
 _atom_site_charge
Cd  Cd1  1  0.63270000  0.63987000  0.61495000  1.0 1.0235020037
Cd  Cd2  1  0.13270000  0.36013000  0.38505000  1.0 1.0235020037
Cd  Cd3  1  0.63270000  0.86013000  0.11495000  1.0 1.0235020037
Cd  Cd4  1  0.13270000  0.13987000  0.88505000  1.0 1.0235020037
Cd  Cd5  1  0.74750000  0.76733000  0.49986000  1.0 0.9343681451
Cd  Cd6  1  0.24750000  0.23267000  0.50014000  1.0 0.9343681451
Cd  Cd7  1  0.74750000  0.73267000  0.99986000  1.0 0.9343681451
Cd  Cd8  1  0.24750000  0.26733000  0.00014000  1.0 0.9343681451
H  H1  1  0.96520000  0.50020000  0.50240000  1.0 0.1106020835
H  H2  1  0.46520000  0.49980000  0.49760000  1.0 0.1106020835
H  H3  1  0.96520000  0.99980000  0.00240000  1.0 0.1106020835
H  H4  1  0.46520000  0.00020000  0.99760000  1.0 0.1106020835
H  H5  1  0.05620000  0.36830000  0.63850000  1.0 0.1223137829
H  H6  1  0.55620000  0.63170000  0.36150000  1.0 0.1223137829
H  H7  1  0.05620000  0.13170000  0.13850000  1.0 0.1223137829
H  H8  1  0.55620000  0.86830000  0.86150000  1.0 0.1223137829
H  H9  1  0.87560000  0.58360000  0.66090000  1.0 0.1223137829
H  H10  1  0.37560000  0.41640000  0.33910000  1.0 0.1223137829
H  H11  1  0.87560000  0.91640000  0.16090000  1.0 0.1223137829
H  H12  1  0.37560000  0.08360000  0.83910000  1.0 0.1223137829
H  H13  1  0.04640000  0.39260000  0.80450000  1.0 0.1223137829
H  H14  1  0.54640000  0.60740000  0.19550000  1.0 0.1223137829
H  H15  1  0.04640000  0.10740000  0.30450000  1.0 0.1223137829
H  H16  1  0.54640000  0.89260000  0.69550000  1.0 0.1223137829
H  H17  1  0.00040000  0.49180000  0.96440000  1.0 0.1304458044
H  H18  1  0.50040000  0.50820000  0.03560000  1.0 0.1304458044
H  H19  1  0.00040000  0.00820000  0.46440000  1.0 0.1304458044
H  H20  1  0.50040000  0.99180000  0.53560000  1.0 0.1304458044
H  H21  1  0.88260000  0.61290000  0.83120000  1.0 0.1223137829
H  H22  1  0.38260000  0.38710000  0.16880000  1.0 0.1223137829
H  H23  1  0.88260000  0.88710000  0.33120000  1.0 0.1223137829
H  H24  1  0.38260000  0.11290000  0.66880000  1.0 0.1223137829
H  H25  1  0.65970000  0.53810000  0.72940000  1.0 0.1106020835
H  H26  1  0.15970000  0.46190000  0.27060000  1.0 0.1106020835
H  H27  1  0.65970000  0.96190000  0.22940000  1.0 0.1106020835
H  H28  1  0.15970000  0.03810000  0.77060000  1.0 0.1106020835
H  H29  1  0.58260000  0.72790000  0.78870000  1.0 0.1304458044
H  H30  1  0.08260000  0.27210000  0.21130000  1.0 0.1304458044
H  H31  1  0.58260000  0.77210000  0.28870000  1.0 0.1304458044
H  H32  1  0.08260000  0.22790000  0.71130000  1.0 0.1304458044
H  H33  1  0.59450000  0.69880000  0.85230000  1.0 0.1304458044
H  H34  1  0.09450000  0.30120000  0.14770000  1.0 0.1304458044
H  H35  1  0.59450000  0.80120000  0.35230000  1.0 0.1304458044
H  H36  1  0.09450000  0.19880000  0.64770000  1.0 0.1304458044
H  H37  1  0.69170000  0.73200000  0.81820000  1.0 0.1382730351
H  H38  1  0.19170000  0.26800000  0.18180000  1.0 0.1382730351
H  H39  1  0.69170000  0.76800000  0.31820000  1.0 0.1382730351
H  H40  1  0.19170000  0.23200000  0.68180000  1.0 0.1382730351
H  H41  1  0.58310000  0.49290000  0.82040000  1.0 0.1304458044
H  H42  1  0.08310000  0.50710000  0.17960000  1.0 0.1304458044
H  H43  1  0.58310000  0.00710000  0.32040000  1.0 0.1304458044
H  H44  1  0.08310000  0.99290000  0.67960000  1.0 0.1304458044
H  H45  1  0.68940000  0.51040000  0.85110000  1.0 0.1382730351
H  H46  1  0.18940000  0.48960000  0.14890000  1.0 0.1382730351
H  H47  1  0.68940000  0.98960000  0.35110000  1.0 0.1382730351
H  H48  1  0.18940000  0.01040000  0.64890000  1.0 0.1382730351
H  H49  1  0.58910000  0.56090000  0.87060000  1.0 0.1491719599
H  H50  1  0.08910000  0.43910000  0.12940000  1.0 0.1491719599
H  H51  1  0.58910000  0.93910000  0.37060000  1.0 0.1491719599
H  H52  1  0.08910000  0.06090000  0.62940000  1.0 0.1491719599
H  H53  1  0.39470000  0.65820000  0.58780000  1.0 0.1106020835
H  H54  1  0.89470000  0.34180000  0.41220000  1.0 0.1106020835
H  H55  1  0.39470000  0.84180000  0.08780000  1.0 0.1106020835
H  H56  1  0.89470000  0.15820000  0.91220000  1.0 0.1106020835
H  H57  1  0.22920000  0.55820000  0.52320000  1.0 0.1382730351
H  H58  1  0.72920000  0.44180000  0.47680000  1.0 0.1382730351
H  H59  1  0.22920000  0.94180000  0.02320000  1.0 0.1382730351
H  H60  1  0.72920000  0.05820000  0.97680000  1.0 0.1382730351
H  H61  1  0.15950000  0.57630000  0.57660000  1.0 0.1304458044
H  H62  1  0.65950000  0.42370000  0.42340000  1.0 0.1304458044
H  H63  1  0.15950000  0.92370000  0.07660000  1.0 0.1304458044
H  H64  1  0.65950000  0.07630000  0.92340000  1.0 0.1304458044
H  H65  1  0.23270000  0.65070000  0.55320000  1.0 0.1304458044
H  H66  1  0.73270000  0.34930000  0.44680000  1.0 0.1304458044
H  H67  1  0.23270000  0.84930000  0.05320000  1.0 0.1304458044
H  H68  1  0.73270000  0.15070000  0.94680000  1.0 0.1304458044
H  H69  1  0.32400000  0.48260000  0.66540000  1.0 0.1382730351
H  H70  1  0.82400000  0.51740000  0.33460000  1.0 0.1382730351
H  H71  1  0.32400000  0.01740000  0.16540000  1.0 0.1382730351
H  H72  1  0.82400000  0.98260000  0.83460000  1.0 0.1382730351
H  H73  1  0.22310000  0.46310000  0.63010000  1.0 0.1304458044
H  H74  1  0.72310000  0.53690000  0.36990000  1.0 0.1304458044
H  H75  1  0.22310000  0.03690000  0.13010000  1.0 0.1304458044
H  H76  1  0.72310000  0.96310000  0.86990000  1.0 0.1304458044
H  H77  1  0.33120000  0.42870000  0.60860000  1.0 0.1382730351
H  H78  1  0.83120000  0.57130000  0.39140000  1.0 0.1382730351
H  H79  1  0.33120000  0.07130000  0.10860000  1.0 0.1382730351
H  H80  1  0.83120000  0.92870000  0.89140000  1.0 0.1382730351
H  H81  1  0.56080000  0.45860000  0.58750000  1.0 0.1106020835
H  H82  1  0.06080000  0.54140000  0.41250000  1.0 0.1106020835
H  H83  1  0.56080000  0.04140000  0.08750000  1.0 0.1106020835
H  H84  1  0.06080000  0.95860000  0.91250000  1.0 0.1106020835
H  H85  1  0.49660000  0.31750000  0.57980000  1.0 0.1382730351
H  H86  1  0.99660000  0.68250000  0.42020000  1.0 0.1382730351
H  H87  1  0.49660000  0.18250000  0.07980000  1.0 0.1382730351
H  H88  1  0.99660000  0.81750000  0.92020000  1.0 0.1382730351
H  H89  1  0.58040000  0.24380000  0.57010000  1.0 0.1491719599
H  H90  1  0.08040000  0.75620000  0.42990000  1.0 0.1491719599
H  H91  1  0.58040000  0.25620000  0.07010000  1.0 0.1491719599
H  H92  1  0.08040000  0.74380000  0.92990000  1.0 0.1491719599
H  H93  1  0.53910000  0.26310000  0.63150000  1.0 0.1382730351
H  H94  1  0.03910000  0.73690000  0.36850000  1.0 0.1382730351
H  H95  1  0.53910000  0.23690000  0.13150000  1.0 0.1382730351
H  H96  1  0.03910000  0.76310000  0.86850000  1.0 0.1382730351
H  H97  1  0.73810000  0.34740000  0.67040000  1.0 0.1304458044
H  H98  1  0.23810000  0.65260000  0.32960000  1.0 0.1304458044
H  H99  1  0.73810000  0.15260000  0.17040000  1.0 0.1304458044
H  H100  1  0.23810000  0.84740000  0.82960000  1.0 0.1304458044
H  H101  1  0.74300000  0.26190000  0.63270000  1.0 0.1304458044
H  H102  1  0.24300000  0.73810000  0.36730000  1.0 0.1382730351
H  H103  1  0.74300000  0.23810000  0.13270000  1.0 0.1304458044
H  H104  1  0.24300000  0.76190000  0.86730000  1.0 0.1382730351
H  H105  1  0.79480000  0.34970000  0.61140000  1.0 0.1304458044
H  H106  1  0.29480000  0.65030000  0.38860000  1.0 0.1304458044
H  H107  1  0.79480000  0.15030000  0.11140000  1.0 0.1304458044
H  H108  1  0.29480000  0.84970000  0.88860000  1.0 0.1304458044
C  C1  1  0.85310000  0.62880000  0.55010000  1.0 0.5498305674
C  C2  1  0.35310000  0.37120000  0.44990000  1.0 0.5498305674
C  C3  1  0.85310000  0.87120000  0.05010000  1.0 0.5498305674
C  C4  1  0.35310000  0.12880000  0.94990000  1.0 0.5498305674
C  C5  1  0.90920000  0.55630000  0.57730000  1.0 -0.0281246271
C  C6  1  0.40920000  0.44370000  0.42270000  1.0 -0.0281246271
C  C7  1  0.90920000  0.94370000  0.07730000  1.0 -0.0281246271
C  C8  1  0.40920000  0.05630000  0.92270000  1.0 -0.0281246271
C  C9  1  0.96600000  0.49380000  0.54170000  1.0 -0.1382298653
C  C10  1  0.46600000  0.50620000  0.45830000  1.0 -0.1382298653
C  C11  1  0.96600000  0.00620000  0.04170000  1.0 -0.1382298653
C  C12  1  0.46600000  0.99380000  0.95830000  1.0 -0.1382298653
C  C13  1  0.01880000  0.42820000  0.56520000  1.0 -0.0281246271
C  C14  1  0.51880000  0.57180000  0.43480000  1.0 -0.0281246271
C  C15  1  0.01880000  0.07180000  0.06520000  1.0 -0.0281246271
C  C16  1  0.51880000  0.92820000  0.93480000  1.0 -0.0281246271
C  C17  1  0.07860000  0.36630000  0.52810000  1.0 0.5757664557
C  C18  1  0.57860000  0.63370000  0.47190000  1.0 0.5757664557
C  C19  1  0.07860000  0.13370000  0.02810000  1.0 0.5757664557
C  C20  1  0.57860000  0.86630000  0.97190000  1.0 0.5757664557
C  C21  1  0.02170000  0.41690000  0.62320000  1.0 -0.1806158644
C  C22  1  0.52170000  0.58310000  0.37680000  1.0 -0.1806158644
C  C23  1  0.02170000  0.08310000  0.12320000  1.0 -0.1806158644
C  C24  1  0.52170000  0.91690000  0.87680000  1.0 -0.1806158644
C  C25  1  0.97320000  0.47770000  0.65960000  1.0 0.1491719599
C  C26  1  0.47320000  0.52230000  0.34040000  1.0 0.1491719599
C  C27  1  0.97320000  0.02230000  0.15960000  1.0 0.1491719599
C  C28  1  0.47320000  0.97770000  0.84040000  1.0 0.1491719599
C  C29  1  0.91270000  0.54590000  0.63720000  1.0 -0.1686991748
C  C30  1  0.41270000  0.45410000  0.36280000  1.0 -0.1686991748
C  C31  1  0.91270000  0.95410000  0.13720000  1.0 -0.1686991748
C  C32  1  0.41270000  0.04590000  0.86280000  1.0 -0.1686991748
C  C33  1  0.96210000  0.50540000  0.80750000  1.0 0.1682228244
C  C34  1  0.46210000  0.49460000  0.19250000  1.0 0.1682228244
C  C35  1  0.96210000  0.99460000  0.30750000  1.0 0.1682228244
C  C36  1  0.46210000  0.00540000  0.69250000  1.0 0.1682228244
C  C37  1  0.01840000  0.43420000  0.82920000  1.0 -0.1686991748
C  C38  1  0.51840000  0.56580000  0.17080000  1.0 -0.1686991748
C  C39  1  0.01840000  0.06580000  0.32920000  1.0 -0.1686991748
C  C40  1  0.51840000  0.93420000  0.67080000  1.0 -0.1686991748
C  C41  1  0.03370000  0.42440000  0.88960000  1.0 -0.0422746163
C  C42  1  0.53370000  0.57560000  0.11040000  1.0 -0.0422746163
C  C43  1  0.03370000  0.07560000  0.38960000  1.0 -0.0422746163
C  C44  1  0.53370000  0.92440000  0.61040000  1.0 -0.0422746163
C  C45  1  0.09350000  0.35080000  0.91340000  1.0 0.5757664557
C  C46  1  0.59350000  0.64920000  0.08660000  1.0 0.5757664557
C  C47  1  0.09350000  0.14920000  0.41340000  1.0 0.5757664557
C  C48  1  0.59350000  0.85080000  0.58660000  1.0 0.5757664557
C  C49  1  0.98900000  0.49410000  0.92540000  1.0 -0.1117136661
C  C50  1  0.48900000  0.50590000  0.07460000  1.0 -0.1117136661
C  C51  1  0.98900000  0.00590000  0.42540000  1.0 -0.1117136661
C  C52  1  0.48900000  0.99410000  0.57460000  1.0 -0.1117136661
C  C53  1  0.93230000  0.56100000  0.90440000  1.0 -0.0062139795
C  C54  1  0.43230000  0.43900000  0.09560000  1.0 -0.0062139795
C  C55  1  0.93230000  0.93900000  0.40440000  1.0 -0.0062139795
C  C56  1  0.43230000  0.06100000  0.59560000  1.0 -0.0062139795
C  C57  1  0.87200000  0.62540000  0.94270000  1.0 0.500302058
C  C58  1  0.37200000  0.37460000  0.05730000  1.0 0.500302058
C  C59  1  0.87200000  0.87460000  0.44270000  1.0 0.500302058
C  C60  1  0.37200000  0.12540000  0.55730000  1.0 0.500302058
C  C61  1  0.92070000  0.56590000  0.84590000  1.0 -0.1806158644
C  C62  1  0.42070000  0.43410000  0.15410000  1.0 -0.1806158644
C  C63  1  0.92070000  0.93410000  0.34590000  1.0 -0.1806158644
C  C64  1  0.42070000  0.06590000  0.65410000  1.0 -0.1806158644
C  C65  1  0.66050000  0.59660000  0.74170000  1.0 0.1891455206
C  C66  1  0.16050000  0.40340000  0.25830000  1.0 0.1891455206
C  C67  1  0.66050000  0.90340000  0.24170000  1.0 0.1891455206
C  C68  1  0.16050000  0.09660000  0.75830000  1.0 0.1891455206
C  C69  1  0.62800000  0.69970000  0.81580000  1.0 -0.3127488925
C  C70  1  0.12800000  0.30030000  0.18420000  1.0 -0.3127488925
C  C71  1  0.62800000  0.80030000  0.31580000  1.0 -0.3127488925
C  C72  1  0.12800000  0.19970000  0.68420000  1.0 -0.3127488925
C  C73  1  0.62600000  0.53690000  0.83850000  1.0 -0.3216681291
C  C74  1  0.12600000  0.46310000  0.16150000  1.0 -0.3216681291
C  C75  1  0.62600000  0.96310000  0.33850000  1.0 -0.3216681291
C  C76  1  0.12600000  0.03690000  0.66150000  1.0 -0.3216681291
C  C77  1  0.39430000  0.60420000  0.60680000  1.0 0.267962579
C  C78  1  0.89430000  0.39580000  0.39320000  1.0 0.267962579
C  C79  1  0.39430000  0.89580000  0.10680000  1.0 0.267962579
C  C80  1  0.89430000  0.10420000  0.89320000  1.0 0.267962579
C  C81  1  0.22540000  0.58820000  0.55910000  1.0 -0.3413383548
C  C82  1  0.72540000  0.41180000  0.44090000  1.0 -0.3413383548
C  C83  1  0.22540000  0.91180000  0.05910000  1.0 -0.3413383548
C  C84  1  0.72540000  0.08820000  0.94090000  1.0 -0.3413383548
C  C85  1  0.29610000  0.47610000  0.62770000  1.0 -0.3127488925
C  C86  1  0.79610000  0.52390000  0.37230000  1.0 -0.3127488925
C  C87  1  0.29610000  0.02390000  0.12770000  1.0 -0.3127488925
C  C88  1  0.79610000  0.97610000  0.87230000  1.0 -0.3127488925
C  C89  1  0.62340000  0.43960000  0.60300000  1.0 0.1682228244
C  C90  1  0.12340000  0.56040000  0.39700000  1.0 0.1682228244
C  C91  1  0.62340000  0.06040000  0.10300000  1.0 0.1682228244
C  C92  1  0.12340000  0.93960000  0.89700000  1.0 0.1682228244
C  C93  1  0.55680000  0.28910000  0.59560000  1.0 -0.3127488925
C  C94  1  0.05680000  0.71090000  0.40440000  1.0 -0.3127488925
C  C95  1  0.55680000  0.21090000  0.09560000  1.0 -0.3127488925
C  C96  1  0.05680000  0.78910000  0.90440000  1.0 -0.3127488925
C  C97  1  0.73700000  0.32520000  0.63210000  1.0 -0.3216681291
C  C98  1  0.23700000  0.67480000  0.36790000  1.0 -0.3216681291
C  C99  1  0.73700000  0.17480000  0.13210000  1.0 -0.3216681291
C  C100  1  0.23700000  0.82520000  0.86790000  1.0 -0.3216681291
N  N1  1  0.98490000  0.46320000  0.71910000  1.0 -0.100281106
N  N2  1  0.48490000  0.53680000  0.28090000  1.0 -0.100281106
N  N3  1  0.98490000  0.03680000  0.21910000  1.0 -0.100281106
N  N4  1  0.48490000  0.96320000  0.78090000  1.0 -0.100281106
N  N5  1  0.94650000  0.51810000  0.74970000  1.0 -0.1248370014
N  N6  1  0.44650000  0.48190000  0.25030000  1.0 -0.1248370014
N  N7  1  0.94650000  0.98190000  0.24970000  1.0 -0.1248370014
N  N8  1  0.44650000  0.01810000  0.75030000  1.0 -0.1248370014
N  N9  1  0.64890000  0.60870000  0.79740000  1.0 0.027260478
N  N10  1  0.14890000  0.39130000  0.20260000  1.0 0.027260478
N  N11  1  0.64890000  0.89130000  0.29740000  1.0 0.027260478
N  N12  1  0.14890000  0.10870000  0.70260000  1.0 0.027260478
N  N13  1  0.31080000  0.55620000  0.59690000  1.0 0.038756233
N  N14  1  0.81080000  0.44380000  0.40310000  1.0 0.038756233
N  N15  1  0.31080000  0.94380000  0.09690000  1.0 0.038756233
N  N16  1  0.81080000  0.05620000  0.90310000  1.0 0.038756233
N  N17  1  0.63590000  0.35160000  0.60330000  1.0 0.027260478
N  N18  1  0.13590000  0.64840000  0.39670000  1.0 0.027260478
N  N19  1  0.63590000  0.14840000  0.10330000  1.0 0.027260478
N  N20  1  0.13590000  0.85160000  0.89670000  1.0 0.027260478
O  O1  1  0.86210000  0.64260000  0.49840000  1.0 -0.5264044289
O  O2  1  0.36210000  0.35740000  0.50160000  1.0 -0.5264044289
O  O3  1  0.86210000  0.85740000  0.99840000  1.0 -0.5264044289
O  O4  1  0.36210000  0.14260000  0.00160000  1.0 -0.5264044289
O  O5  1  0.79330000  0.67800000  0.58090000  1.0 -0.5873947029
O  O6  1  0.29330000  0.32200000  0.41910000  1.0 -0.5873947029
O  O7  1  0.79330000  0.82200000  0.08090000  1.0 -0.5873947029
O  O8  1  0.29330000  0.17800000  0.91910000  1.0 -0.5873947029
O  O9  1  0.08390000  0.38500000  0.47700000  1.0 -0.5873947029
O  O10  1  0.58390000  0.61500000  0.52300000  1.0 -0.5873947029
O  O11  1  0.08390000  0.11500000  0.97700000  1.0 -0.5873947029
O  O12  1  0.58390000  0.88500000  0.02300000  1.0 -0.5873947029
O  O13  1  0.12680000  0.30300000  0.55020000  1.0 -0.5240750198
O  O14  1  0.62680000  0.69700000  0.44980000  1.0 -0.5240750198
O  O15  1  0.12680000  0.19700000  0.05020000  1.0 -0.5240750198
O  O16  1  0.62680000  0.80300000  0.94980000  1.0 -0.5240750198
O  O17  1  0.09150000  0.28400000  0.88320000  1.0 -0.5687348728
O  O18  1  0.59150000  0.71600000  0.11680000  1.0 -0.5687348728
O  O19  1  0.09150000  0.21600000  0.38320000  1.0 -0.5687348728
O  O20  1  0.59150000  0.78400000  0.61680000  1.0 -0.5687348728
O  O21  1  0.13750000  0.35960000  0.96020000  1.0 -0.5362452154
O  O22  1  0.63750000  0.64040000  0.03980000  1.0 -0.5362452154
O  O23  1  0.13750000  0.14040000  0.46020000  1.0 -0.5362452154
O  O24  1  0.63750000  0.85960000  0.53980000  1.0 -0.5362452154
O  O25  1  0.80870000  0.67090000  0.92140000  1.0 -0.4588944946
O  O26  1  0.30870000  0.32910000  0.07860000  1.0 -0.4588944946
O  O27  1  0.80870000  0.82910000  0.42140000  1.0 -0.4588944946
O  O28  1  0.30870000  0.17090000  0.57860000  1.0 -0.4588944946
O  O29  1  0.89440000  0.62510000  0.99150000  1.0 -0.4433018003
O  O30  1  0.39440000  0.37490000  0.00850000  1.0 -0.4433018003
O  O31  1  0.89440000  0.87490000  0.49150000  1.0 -0.4433018003
O  O32  1  0.39440000  0.12510000  0.50850000  1.0 -0.4433018003
O  O33  1  0.67150000  0.64950000  0.70650000  1.0 -0.3823672046
O  O34  1  0.17150000  0.35050000  0.29350000  1.0 -0.3823672046
O  O35  1  0.67150000  0.85050000  0.20650000  1.0 -0.3823672046
O  O36  1  0.17150000  0.14950000  0.79350000  1.0 -0.3823672046
O  O37  1  0.47100000  0.59170000  0.63590000  1.0 -0.4770531539
O  O38  1  0.97100000  0.40830000  0.36410000  1.0 -0.4770531539
O  O39  1  0.47100000  0.90830000  0.13590000  1.0 -0.4770531539
O  O40  1  0.97100000  0.09170000  0.86410000  1.0 -0.4770531539
O  O41  1  0.67630000  0.49560000  0.61860000  1.0 -0.4086124186
O  O42  1  0.17630000  0.50440000  0.38140000  1.0 -0.4086124186
O  O43  1  0.67630000  0.00440000  0.11860000  1.0 -0.4086124186
O  O44  1  0.17630000  0.99560000  0.88140000  1.0 -0.4086124186
