# DDEC6 charges by PACMAN v1.1 (https://github.com/mtap-research/PACMAN-charge/)
data_OFODAP_ASR_pacman
_symmetry_space_group_name_H-M   'P 1'
_cell_length_a   12.85970000
_cell_length_b   15.12070000
_cell_length_c   23.51600000
_cell_angle_alpha   90.00000000
_cell_angle_beta   90.00000000
_cell_angle_gamma   90.00000000
_symmetry_Int_Tables_number   1
_chemical_formula_structural   CdH3C8NO4
_chemical_formula_sum   'Cd8 H24 C64 N8 O32'
_cell_volume   4572.63130872
_cell_formula_units_Z   8
loop_
 _symmetry_equiv_pos_site_id
 _symmetry_equiv_pos_as_xyz
  1  'x, y, z'
loop_
 _atom_site_type_symbol
 _atom_site_label
 _atom_site_symmetry_multiplicity
 _atom_site_fract_x
 _atom_site_fract_y
 _atom_site_fract_z
 _atom_site_occupancy
 _atom_site_charge
Cd  Cd1  1  0.63270000  0.63987000  0.61495000  1.0 1.1171886317
Cd  Cd2  1  0.13270000  0.36013000  0.38505000  1.0 1.1171886317
Cd  Cd3  1  0.63270000  0.86013000  0.11495000  1.0 1.1171886317
Cd  Cd4  1  0.13270000  0.13987000  0.88505000  1.0 1.1171886317
Cd  Cd5  1  0.74750000  0.76733000  0.49986000  1.0 0.9841880492
Cd  Cd6  1  0.24750000  0.23267000  0.50014000  1.0 0.9841880492
Cd  Cd7  1  0.74750000  0.73267000  0.99986000  1.0 0.9841880492
Cd  Cd8  1  0.24750000  0.26733000  0.00014000  1.0 0.9841880492
H  H1  1  0.96520000  0.50020000  0.50240000  1.0 0.1320824615
H  H2  1  0.46520000  0.49980000  0.49760000  1.0 0.1320824615
H  H3  1  0.96520000  0.99980000  0.00240000  1.0 0.1320824615
H  H4  1  0.46520000  0.00020000  0.99760000  1.0 0.1320824615
H  H5  1  0.05620000  0.36830000  0.63850000  1.0 0.1320824615
H  H6  1  0.55620000  0.63170000  0.36150000  1.0 0.1320824615
H  H7  1  0.05620000  0.13170000  0.13850000  1.0 0.1320824615
H  H8  1  0.55620000  0.86830000  0.86150000  1.0 0.1320824615
H  H9  1  0.87560000  0.58360000  0.66090000  1.0 0.1108344087
H  H10  1  0.37560000  0.41640000  0.33910000  1.0 0.1108344087
H  H11  1  0.87560000  0.91640000  0.16090000  1.0 0.1108344087
H  H12  1  0.37560000  0.08360000  0.83910000  1.0 0.1108344087
H  H13  1  0.04640000  0.39260000  0.80450000  1.0 0.1108344087
H  H14  1  0.54640000  0.60740000  0.19550000  1.0 0.1108344087
H  H15  1  0.04640000  0.10740000  0.30450000  1.0 0.1108344087
H  H16  1  0.54640000  0.89260000  0.69550000  1.0 0.1108344087
H  H17  1  0.00040000  0.49180000  0.96440000  1.0 0.1380818031
H  H18  1  0.50040000  0.50820000  0.03560000  1.0 0.1380818031
H  H19  1  0.00040000  0.00820000  0.46440000  1.0 0.1380818031
H  H20  1  0.50040000  0.99180000  0.53560000  1.0 0.1380818031
H  H21  1  0.88260000  0.61290000  0.83120000  1.0 0.1320824615
H  H22  1  0.38260000  0.38710000  0.16880000  1.0 0.1320824615
H  H23  1  0.88260000  0.88710000  0.33120000  1.0 0.1320824615
H  H24  1  0.38260000  0.11290000  0.66880000  1.0 0.1320824615
C  C1  1  0.85310000  0.62880000  0.55010000  1.0 0.5647454254
C  C2  1  0.35310000  0.37120000  0.44990000  1.0 0.5647454254
C  C3  1  0.85310000  0.87120000  0.05010000  1.0 0.5647454254
C  C4  1  0.35310000  0.12880000  0.94990000  1.0 0.5647454254
C  C5  1  0.90920000  0.55630000  0.57730000  1.0 -0.0307405839
C  C6  1  0.40920000  0.44370000  0.42270000  1.0 -0.0307405839
C  C7  1  0.90920000  0.94370000  0.07730000  1.0 -0.0307405839
C  C8  1  0.40920000  0.05630000  0.92270000  1.0 -0.0307405839
C  C9  1  0.96600000  0.49380000  0.54170000  1.0 -0.0887508857
C  C10  1  0.46600000  0.50620000  0.45830000  1.0 -0.0887508857
C  C11  1  0.96600000  0.00620000  0.04170000  1.0 -0.0887508857
C  C12  1  0.46600000  0.99380000  0.95830000  1.0 -0.0887508857
C  C13  1  0.01880000  0.42820000  0.56520000  1.0 -0.0307405839
C  C14  1  0.51880000  0.57180000  0.43480000  1.0 -0.0307405839
C  C15  1  0.01880000  0.07180000  0.06520000  1.0 -0.0307405839
C  C16  1  0.51880000  0.92820000  0.93480000  1.0 -0.0307405839
C  C17  1  0.07860000  0.36630000  0.52810000  1.0 0.6025078885
C  C18  1  0.57860000  0.63370000  0.47190000  1.0 0.6025078885
C  C19  1  0.07860000  0.13370000  0.02810000  1.0 0.6025078885
C  C20  1  0.57860000  0.86630000  0.97190000  1.0 0.6025078885
C  C21  1  0.02170000  0.41690000  0.62320000  1.0 -0.1416583479
C  C22  1  0.52170000  0.58310000  0.37680000  1.0 -0.1416583479
C  C23  1  0.02170000  0.08310000  0.12320000  1.0 -0.1416583479
C  C24  1  0.52170000  0.91690000  0.87680000  1.0 -0.1416583479
C  C25  1  0.97320000  0.47770000  0.65960000  1.0 0.1488221354
C  C26  1  0.47320000  0.52230000  0.34040000  1.0 0.1488221354
C  C27  1  0.97320000  0.02230000  0.15960000  1.0 0.1488221354
C  C28  1  0.47320000  0.97770000  0.84040000  1.0 0.1488221354
C  C29  1  0.91270000  0.54590000  0.63720000  1.0 -0.1600922029
C  C30  1  0.41270000  0.45410000  0.36280000  1.0 -0.1600922029
C  C31  1  0.91270000  0.95410000  0.13720000  1.0 -0.1600922029
C  C32  1  0.41270000  0.04590000  0.86280000  1.0 -0.1600922029
C  C33  1  0.96210000  0.50540000  0.80750000  1.0 0.1488221354
C  C34  1  0.46210000  0.49460000  0.19250000  1.0 0.1488221354
C  C35  1  0.96210000  0.99460000  0.30750000  1.0 0.1488221354
C  C36  1  0.46210000  0.00540000  0.69250000  1.0 0.1488221354
C  C37  1  0.01840000  0.43420000  0.82920000  1.0 -0.1600922029
C  C38  1  0.51840000  0.56580000  0.17080000  1.0 -0.1600922029
C  C39  1  0.01840000  0.06580000  0.32920000  1.0 -0.1600922029
C  C40  1  0.51840000  0.93420000  0.67080000  1.0 -0.1545824417
C  C41  1  0.03370000  0.42440000  0.88960000  1.0 -0.0495132328
C  C42  1  0.53370000  0.57560000  0.11040000  1.0 -0.0495132328
C  C43  1  0.03370000  0.07560000  0.38960000  1.0 -0.0495132328
C  C44  1  0.53370000  0.92440000  0.61040000  1.0 -0.0495132328
C  C45  1  0.09350000  0.35080000  0.91340000  1.0 0.5858371051
C  C46  1  0.59350000  0.64920000  0.08660000  1.0 0.5849041335
C  C47  1  0.09350000  0.14920000  0.41340000  1.0 0.5858371051
C  C48  1  0.59350000  0.85080000  0.58660000  1.0 0.5858371051
C  C49  1  0.98900000  0.49410000  0.92540000  1.0 -0.0887508857
C  C50  1  0.48900000  0.50590000  0.07460000  1.0 -0.0887508857
C  C51  1  0.98900000  0.00590000  0.42540000  1.0 -0.0887508857
C  C52  1  0.48900000  0.99410000  0.57460000  1.0 -0.0887508857
C  C53  1  0.93230000  0.56100000  0.90440000  1.0 -0.0052981283
C  C54  1  0.43230000  0.43900000  0.09560000  1.0 -0.0052981283
C  C55  1  0.93230000  0.93900000  0.40440000  1.0 -0.0052981283
C  C56  1  0.43230000  0.06100000  0.59560000  1.0 -0.0052981283
C  C57  1  0.87200000  0.62540000  0.94270000  1.0 0.5106041125
C  C58  1  0.37200000  0.37460000  0.05730000  1.0 0.5106041125
C  C59  1  0.87200000  0.87460000  0.44270000  1.0 0.5106041125
C  C60  1  0.37200000  0.12540000  0.55730000  1.0 0.5106041125
C  C61  1  0.92070000  0.56590000  0.84590000  1.0 -0.1600922029
C  C62  1  0.42070000  0.43410000  0.15410000  1.0 -0.1600922029
C  C63  1  0.92070000  0.93410000  0.34590000  1.0 -0.1600922029
C  C64  1  0.42070000  0.06590000  0.65410000  1.0 -0.1600922029
N  N1  1  0.98490000  0.46320000  0.71910000  1.0 -0.1290741729
N  N2  1  0.48490000  0.53680000  0.28090000  1.0 -0.1290741729
N  N3  1  0.98490000  0.03680000  0.21910000  1.0 -0.1290741729
N  N4  1  0.48490000  0.96320000  0.78090000  1.0 -0.1290741729
N  N5  1  0.94650000  0.51810000  0.74970000  1.0 -0.1290741729
N  N6  1  0.44650000  0.48190000  0.25030000  1.0 -0.1290741729
N  N7  1  0.94650000  0.98190000  0.24970000  1.0 -0.1290741729
N  N8  1  0.44650000  0.01810000  0.75030000  1.0 -0.1290741729
O  O1  1  0.86210000  0.64260000  0.49840000  1.0 -0.4975664847
O  O2  1  0.36210000  0.35740000  0.50160000  1.0 -0.4975664847
O  O3  1  0.86210000  0.85740000  0.99840000  1.0 -0.4975664847
O  O4  1  0.36210000  0.14260000  0.00160000  1.0 -0.4975664847
O  O5  1  0.79330000  0.67800000  0.58090000  1.0 -0.6389551767
O  O6  1  0.29330000  0.32200000  0.41910000  1.0 -0.6389551767
O  O7  1  0.79330000  0.82200000  0.08090000  1.0 -0.6389551767
O  O8  1  0.29330000  0.17800000  0.91910000  1.0 -0.6389551767
O  O9  1  0.08390000  0.38500000  0.47700000  1.0 -0.5818568774
O  O10  1  0.58390000  0.61500000  0.52300000  1.0 -0.5818568774
O  O11  1  0.08390000  0.11500000  0.97700000  1.0 -0.5818568774
O  O12  1  0.58390000  0.88500000  0.02300000  1.0 -0.5818568774
O  O13  1  0.12680000  0.30300000  0.55020000  1.0 -0.513651491
O  O14  1  0.62680000  0.69700000  0.44980000  1.0 -0.513651491
O  O15  1  0.12680000  0.19700000  0.05020000  1.0 -0.513651491
O  O16  1  0.62680000  0.80300000  0.94980000  1.0 -0.513651491
O  O17  1  0.09150000  0.28400000  0.88320000  1.0 -0.5867556341
O  O18  1  0.59150000  0.71600000  0.11680000  1.0 -0.5867556341
O  O19  1  0.09150000  0.21600000  0.38320000  1.0 -0.5867556341
O  O20  1  0.59150000  0.78400000  0.61680000  1.0 -0.5867556341
O  O21  1  0.13750000  0.35960000  0.96020000  1.0 -0.5360957988
O  O22  1  0.63750000  0.64040000  0.03980000  1.0 -0.5360957988
O  O23  1  0.13750000  0.14040000  0.46020000  1.0 -0.5360957988
O  O24  1  0.63750000  0.85960000  0.53980000  1.0 -0.5360957988
O  O25  1  0.80870000  0.67090000  0.92140000  1.0 -0.4433682271
O  O26  1  0.30870000  0.32910000  0.07860000  1.0 -0.4433682271
O  O27  1  0.80870000  0.82910000  0.42140000  1.0 -0.4433682271
O  O28  1  0.30870000  0.17090000  0.57860000  1.0 -0.4433682271
O  O29  1  0.89440000  0.62510000  0.99150000  1.0 -0.447730393
O  O30  1  0.39440000  0.37490000  0.00850000  1.0 -0.447730393
O  O31  1  0.89440000  0.87490000  0.49150000  1.0 -0.447730393
O  O32  1  0.39440000  0.12510000  0.50850000  1.0 -0.447730393
