# DDEC6 charges by PACMAN v1.1 (https://github.com/mtap-research/PACMAN-charge/)
data_OFORUX_ASR_pacman
_symmetry_space_group_name_H-M   'P 1'
_cell_length_a   27.62000000
_cell_length_b   14.46430000
_cell_length_c   7.21120000
_cell_angle_alpha   90.00000000
_cell_angle_beta   98.94100000
_cell_angle_gamma   90.00000000
_symmetry_Int_Tables_number   1
_chemical_formula_structural   CdCuH22C26N4(ClO)2
_chemical_formula_sum   'Cd4 Cu4 H88 C104 N16 Cl8 O8'
_cell_volume   2845.89687186
_cell_formula_units_Z   4
loop_
 _symmetry_equiv_pos_site_id
 _symmetry_equiv_pos_as_xyz
  1  'x, y, z'
loop_
 _atom_site_type_symbol
 _atom_site_label
 _atom_site_symmetry_multiplicity
 _atom_site_fract_x
 _atom_site_fract_y
 _atom_site_fract_z
 _atom_site_occupancy
 _atom_site_charge
Cd  Cd1  1  0.50000000  0.55830000  0.75000000  1.0 0.7461770036
Cd  Cd2  1  0.50000000  0.44170000  0.25000000  1.0 0.7461770036
Cd  Cd3  1  0.00000000  0.05830000  0.75000000  1.0 0.7461770036
Cd  Cd4  1  0.00000000  0.94170000  0.25000000  1.0 0.7461770036
Cu  Cu1  1  0.75000000  0.75000000  0.50000000  1.0 0.6978757091
Cu  Cu2  1  0.25000000  0.25000000  0.50000000  1.0 0.6978757091
Cu  Cu3  1  0.25000000  0.75000000  0.00000000  1.0 0.6978757091
Cu  Cu4  1  0.75000000  0.25000000  0.00000000  1.0 0.6978757091
H  H1  1  0.83440000  0.48593000  0.52507000  1.0 0.1012023223
H  H2  1  0.16560000  0.51407000  0.47493000  1.0 0.1012023223
H  H3  1  0.16560000  0.48593000  0.97493000  1.0 0.1012023223
H  H4  1  0.83440000  0.51407000  0.02507000  1.0 0.1012023223
H  H5  1  0.33440000  0.98593000  0.52507000  1.0 0.1012023223
H  H6  1  0.66560000  0.01407000  0.47493000  1.0 0.1012023223
H  H7  1  0.66560000  0.98593000  0.97493000  1.0 0.1012023223
H  H8  1  0.33440000  0.01407000  0.02507000  1.0 0.1012023223
H  H9  1  0.80165000  0.32521000  0.46721000  1.0 0.0841040924
H  H10  1  0.19835000  0.67479000  0.53279000  1.0 0.0841040924
H  H11  1  0.19835000  0.32521000  0.03279000  1.0 0.0841040924
H  H12  1  0.80165000  0.67479000  0.96721000  1.0 0.0841040924
H  H13  1  0.30165000  0.82521000  0.46721000  1.0 0.0841040924
H  H14  1  0.69835000  0.17479000  0.53279000  1.0 0.0841040924
H  H15  1  0.69835000  0.82521000  0.03279000  1.0 0.0841040924
H  H16  1  0.30165000  0.17479000  0.96721000  1.0 0.0841040924
H  H17  1  0.71183000  0.29839000  0.36636000  1.0 0.0841040924
H  H18  1  0.28817000  0.70161000  0.63364000  1.0 0.0841040924
H  H19  1  0.28817000  0.29839000  0.13364000  1.0 0.0841040924
H  H20  1  0.71183000  0.70161000  0.86636000  1.0 0.0841040924
H  H21  1  0.21183000  0.79839000  0.36636000  1.0 0.0841040924
H  H22  1  0.78817000  0.20161000  0.63364000  1.0 0.0841040924
H  H23  1  0.78817000  0.79839000  0.13364000  1.0 0.0841040924
H  H24  1  0.21183000  0.20161000  0.86636000  1.0 0.0841040924
H  H25  1  0.65507000  0.43466000  0.31339000  1.0 0.1012023223
H  H26  1  0.34493000  0.56534000  0.68661000  1.0 0.1012023223
H  H27  1  0.34493000  0.43466000  0.18661000  1.0 0.1012023223
H  H28  1  0.65507000  0.56534000  0.81339000  1.0 0.1012023223
H  H29  1  0.15507000  0.93466000  0.31339000  1.0 0.1012023223
H  H30  1  0.84493000  0.06534000  0.68661000  1.0 0.1012023223
H  H31  1  0.84493000  0.93466000  0.18661000  1.0 0.1012023223
H  H32  1  0.15507000  0.06534000  0.81339000  1.0 0.1012023223
H  H33  1  0.63927000  0.58639000  0.30580000  1.0 0.0733842485
H  H34  1  0.36073000  0.41361000  0.69420000  1.0 0.0733842485
H  H35  1  0.36073000  0.58639000  0.19420000  1.0 0.0733842485
H  H36  1  0.63927000  0.41361000  0.80580000  1.0 0.0733842485
H  H37  1  0.13927000  0.08639000  0.30580000  1.0 0.0733842485
H  H38  1  0.86073000  0.91361000  0.69420000  1.0 0.0733842485
H  H39  1  0.86073000  0.08639000  0.19420000  1.0 0.0733842485
H  H40  1  0.13927000  0.91361000  0.80580000  1.0 0.0733842485
H  H41  1  0.61497000  0.72328000  0.23910000  1.0 0.0863439486
H  H42  1  0.38503000  0.27672000  0.76090000  1.0 0.0863439486
H  H43  1  0.38503000  0.72328000  0.26090000  1.0 0.0863439486
H  H44  1  0.61497000  0.27672000  0.73910000  1.0 0.0863439486
H  H45  1  0.11497000  0.22328000  0.23910000  1.0 0.0863439486
H  H46  1  0.88503000  0.77672000  0.76090000  1.0 0.0863439486
H  H47  1  0.88503000  0.22328000  0.26090000  1.0 0.0863439486
H  H48  1  0.11497000  0.77672000  0.73910000  1.0 0.0863439486
H  H49  1  0.64942000  0.82484000  0.32882000  1.0 0.1012023223
H  H50  1  0.35058000  0.17516000  0.67118000  1.0 0.1012023223
H  H51  1  0.35058000  0.82484000  0.17118000  1.0 0.1012023223
H  H52  1  0.64942000  0.17516000  0.82882000  1.0 0.1012023223
H  H53  1  0.14942000  0.32484000  0.32882000  1.0 0.1012023223
H  H54  1  0.85058000  0.67516000  0.67118000  1.0 0.1012023223
H  H55  1  0.85058000  0.32484000  0.17118000  1.0 0.1012023223
H  H56  1  0.14942000  0.67516000  0.82882000  1.0 0.1012023223
H  H57  1  0.65410000  0.86692000  0.66925000  1.0 0.1171666736
H  H58  1  0.34590000  0.13308000  0.33075000  1.0 0.1171666736
H  H59  1  0.34590000  0.86692000  0.83075000  1.0 0.1171666736
H  H60  1  0.65410000  0.13308000  0.16925000  1.0 0.1171666736
H  H61  1  0.15410000  0.36692000  0.66925000  1.0 0.1171666736
H  H62  1  0.84590000  0.63308000  0.33075000  1.0 0.1171666736
H  H63  1  0.84590000  0.36692000  0.83075000  1.0 0.1171666736
H  H64  1  0.15410000  0.63308000  0.16925000  1.0 0.1171666736
H  H65  1  0.60870000  0.86044000  0.95063000  1.0 0.1092237824
H  H66  1  0.39130000  0.13956000  0.04937000  1.0 0.1092237824
H  H67  1  0.39130000  0.86044000  0.54937000  1.0 0.1092237824
H  H68  1  0.60870000  0.13956000  0.45063000  1.0 0.1092237824
H  H69  1  0.10870000  0.36044000  0.95063000  1.0 0.1092237824
H  H70  1  0.89130000  0.63956000  0.04937000  1.0 0.1092237824
H  H71  1  0.89130000  0.36044000  0.54937000  1.0 0.1092237824
H  H72  1  0.10870000  0.63956000  0.45063000  1.0 0.1092237824
H  H73  1  0.54354000  0.73896000  0.95200000  1.0 0.0841040924
H  H74  1  0.45646000  0.26104000  0.04800000  1.0 0.0841040924
H  H75  1  0.45646000  0.73896000  0.54800000  1.0 0.0841040924
H  H76  1  0.54354000  0.26104000  0.45200000  1.0 0.0841040924
H  H77  1  0.04354000  0.23896000  0.95200000  1.0 0.0841040924
H  H78  1  0.95646000  0.76104000  0.04800000  1.0 0.0841040924
H  H79  1  0.95646000  0.23896000  0.54800000  1.0 0.0841040924
H  H80  1  0.04354000  0.76104000  0.45200000  1.0 0.0841040924
H  H81  1  0.56579000  0.63657000  0.43323000  1.0 0.0863439486
H  H82  1  0.43421000  0.36343000  0.56677000  1.0 0.0863439486
H  H83  1  0.43421000  0.63657000  0.06677000  1.0 0.0863439486
H  H84  1  0.56579000  0.36343000  0.93323000  1.0 0.0863439486
H  H85  1  0.06579000  0.13657000  0.43323000  1.0 0.0863439486
H  H86  1  0.93421000  0.86343000  0.56677000  1.0 0.0863439486
H  H87  1  0.93421000  0.13657000  0.06677000  1.0 0.0863439486
H  H88  1  0.06579000  0.86343000  0.93323000  1.0 0.0863439486
C  C1  1  0.76345000  0.55086000  0.45387000  1.0 0.3287045516
C  C2  1  0.23655000  0.44914000  0.54613000  1.0 0.3287045516
C  C3  1  0.23655000  0.55086000  0.04613000  1.0 0.3287045516
C  C4  1  0.76345000  0.44914000  0.95387000  1.0 0.3287045516
C  C5  1  0.26345000  0.05086000  0.45387000  1.0 0.3287045516
C  C6  1  0.73655000  0.94914000  0.54613000  1.0 0.3287045516
C  C7  1  0.73655000  0.05086000  0.04613000  1.0 0.3287045516
C  C8  1  0.26345000  0.94914000  0.95387000  1.0 0.3287045516
C  C9  1  0.79515000  0.47264000  0.47910000  1.0 -0.2121814593
C  C10  1  0.20485000  0.52736000  0.52090000  1.0 -0.2121814593
C  C11  1  0.20485000  0.47264000  0.02090000  1.0 -0.2121814593
C  C12  1  0.79515000  0.52736000  0.97910000  1.0 -0.2121814593
C  C13  1  0.29515000  0.97264000  0.47910000  1.0 -0.2121814593
C  C14  1  0.70485000  0.02736000  0.52090000  1.0 -0.2121814593
C  C15  1  0.70485000  0.97264000  0.02090000  1.0 -0.2121814593
C  C16  1  0.29515000  0.02736000  0.97910000  1.0 -0.2121814593
C  C17  1  0.77652000  0.38408000  0.44762000  1.0 -0.0340160925
C  C18  1  0.22348000  0.61592000  0.55238000  1.0 -0.0340160925
C  C19  1  0.22348000  0.38408000  0.05238000  1.0 -0.0340160925
C  C20  1  0.77652000  0.61592000  0.94762000  1.0 -0.0340160925
C  C21  1  0.27652000  0.88408000  0.44762000  1.0 -0.0340160925
C  C22  1  0.72348000  0.11592000  0.55238000  1.0 -0.0340160925
C  C23  1  0.72348000  0.88408000  0.05238000  1.0 -0.0340160925
C  C24  1  0.27652000  0.11592000  0.94762000  1.0 -0.0340160925
C  C25  1  0.72595000  0.36886000  0.38986000  1.0 -0.1419597111
C  C26  1  0.27405000  0.63114000  0.61014000  1.0 -0.1419597111
C  C27  1  0.27405000  0.36886000  0.11014000  1.0 -0.1419597111
C  C28  1  0.72595000  0.63114000  0.88986000  1.0 -0.1419597111
C  C29  1  0.22595000  0.86886000  0.38986000  1.0 -0.1419597111
C  C30  1  0.77405000  0.13114000  0.61014000  1.0 -0.1419597111
C  C31  1  0.77405000  0.86886000  0.11014000  1.0 -0.1419597111
C  C32  1  0.22595000  0.13114000  0.88986000  1.0 -0.1419597111
C  C33  1  0.69455000  0.44389000  0.36088000  1.0 -0.0830858878
C  C34  1  0.30545000  0.55611000  0.63912000  1.0 -0.0830858878
C  C35  1  0.30545000  0.44389000  0.13912000  1.0 -0.0830858878
C  C36  1  0.69455000  0.55611000  0.86088000  1.0 -0.0830858878
C  C37  1  0.19455000  0.94389000  0.36088000  1.0 -0.0830858878
C  C38  1  0.80545000  0.05611000  0.63912000  1.0 -0.0830858878
C  C39  1  0.80545000  0.94389000  0.13912000  1.0 -0.0830858878
C  C40  1  0.19455000  0.05611000  0.86088000  1.0 -0.0830858878
C  C41  1  0.71219000  0.53539000  0.39244000  1.0 -0.0830858878
C  C42  1  0.28781000  0.46461000  0.60756000  1.0 -0.0830858878
C  C43  1  0.28781000  0.53539000  0.10756000  1.0 -0.0830858878
C  C44  1  0.71219000  0.46461000  0.89244000  1.0 -0.0830858878
C  C45  1  0.21219000  0.03539000  0.39244000  1.0 -0.0830858878
C  C46  1  0.78781000  0.96461000  0.60756000  1.0 -0.0830858878
C  C47  1  0.78781000  0.03539000  0.10756000  1.0 -0.0830858878
C  C48  1  0.21219000  0.96461000  0.89244000  1.0 -0.0830858878
C  C49  1  0.67710000  0.60849000  0.36317000  1.0 0.1092237824
C  C50  1  0.32290000  0.39151000  0.63683000  1.0 0.1092237824
C  C51  1  0.32290000  0.60849000  0.13683000  1.0 0.1092237824
C  C52  1  0.67710000  0.39151000  0.86317000  1.0 0.1092237824
C  C53  1  0.17710000  0.10849000  0.36317000  1.0 0.1092237824
C  C54  1  0.82290000  0.89151000  0.63683000  1.0 0.1092237824
C  C55  1  0.82290000  0.10849000  0.13683000  1.0 0.1092237824
C  C56  1  0.17710000  0.89151000  0.86317000  1.0 0.1092237824
C  C57  1  0.63931000  0.75359000  0.36035000  1.0 -0.0876994386
C  C58  1  0.36069000  0.24641000  0.63965000  1.0 -0.0876994386
C  C59  1  0.36069000  0.75359000  0.13965000  1.0 -0.0876994386
C  C60  1  0.63931000  0.24641000  0.86035000  1.0 -0.0876994386
C  C61  1  0.13931000  0.25359000  0.36035000  1.0 -0.0876994386
C  C62  1  0.86069000  0.74641000  0.63965000  1.0 -0.0876994386
C  C63  1  0.86069000  0.25359000  0.13965000  1.0 -0.0876994386
C  C64  1  0.13931000  0.74641000  0.86035000  1.0 -0.0876994386
C  C65  1  0.61272000  0.75391000  0.52888000  1.0 0.0643253632
C  C66  1  0.38728000  0.24609000  0.47112000  1.0 0.0643253632
C  C67  1  0.38728000  0.75391000  0.97112000  1.0 0.0643253632
C  C68  1  0.61272000  0.24609000  0.02888000  1.0 0.0643253632
C  C69  1  0.11272000  0.25391000  0.52888000  1.0 0.0643253632
C  C70  1  0.88728000  0.74609000  0.47112000  1.0 0.0643253632
C  C71  1  0.88728000  0.25391000  0.97112000  1.0 0.0643253632
C  C72  1  0.11272000  0.74609000  0.02888000  1.0 0.0643253632
C  C73  1  0.62501000  0.81643000  0.67755000  1.0 -0.0876994386
C  C74  1  0.37499000  0.18357000  0.32245000  1.0 -0.0876994386
C  C75  1  0.37499000  0.81643000  0.82245000  1.0 -0.0876994386
C  C76  1  0.62501000  0.18357000  0.17755000  1.0 -0.0876994386
C  C77  1  0.12501000  0.31643000  0.67755000  1.0 -0.0876994386
C  C78  1  0.87499000  0.68357000  0.32245000  1.0 -0.0876994386
C  C79  1  0.87499000  0.31643000  0.82245000  1.0 -0.0876994386
C  C80  1  0.12501000  0.68357000  0.17755000  1.0 -0.0876994386
C  C81  1  0.60017000  0.81233000  0.83233000  1.0 -0.1320255168
C  C82  1  0.39983000  0.18767000  0.16767000  1.0 -0.1320255168
C  C83  1  0.39983000  0.81233000  0.66767000  1.0 -0.1320255168
C  C84  1  0.60017000  0.18767000  0.33233000  1.0 -0.1320255168
C  C85  1  0.10017000  0.31233000  0.83233000  1.0 -0.1320255168
C  C86  1  0.89983000  0.68767000  0.16767000  1.0 -0.1320255168
C  C87  1  0.89983000  0.31233000  0.66767000  1.0 -0.1320255168
C  C88  1  0.10017000  0.68767000  0.33233000  1.0 -0.1320255168
C  C89  1  0.56397000  0.74544000  0.83434000  1.0 0.0841040924
C  C90  1  0.43603000  0.25456000  0.16566000  1.0 0.0841040924
C  C91  1  0.43603000  0.74544000  0.66566000  1.0 0.0841040924
C  C92  1  0.56397000  0.25456000  0.33434000  1.0 0.0841040924
C  C93  1  0.06397000  0.24544000  0.83434000  1.0 0.0841040924
C  C94  1  0.93603000  0.75456000  0.16566000  1.0 0.0841040924
C  C95  1  0.93603000  0.24544000  0.66566000  1.0 0.0841040924
C  C96  1  0.06397000  0.75456000  0.33434000  1.0 0.0841040924
C  C97  1  0.57641000  0.68786000  0.54393000  1.0 0.0372632303
C  C98  1  0.42359000  0.31214000  0.45607000  1.0 0.0372632303
C  C99  1  0.42359000  0.68786000  0.95607000  1.0 0.0372632303
C  C100  1  0.57641000  0.31214000  0.04393000  1.0 0.0372632303
C  C101  1  0.07641000  0.18786000  0.54393000  1.0 0.0372632303
C  C102  1  0.92359000  0.81214000  0.45607000  1.0 0.0372632303
C  C103  1  0.92359000  0.18786000  0.95607000  1.0 0.0372632303
C  C104  1  0.07641000  0.81214000  0.04393000  1.0 0.0372632303
N  N1  1  0.68472000  0.69691000  0.39682000  1.0 -0.2757350944
N  N2  1  0.31528000  0.30309000  0.60318000  1.0 -0.2757350944
N  N3  1  0.31528000  0.69691000  0.10318000  1.0 -0.2757350944
N  N4  1  0.68472000  0.30309000  0.89682000  1.0 -0.2757350944
N  N5  1  0.18472000  0.19691000  0.39682000  1.0 -0.2757350944
N  N6  1  0.81528000  0.80309000  0.60318000  1.0 -0.2757350944
N  N7  1  0.81528000  0.19691000  0.10318000  1.0 -0.2757350944
N  N8  1  0.18472000  0.80309000  0.89682000  1.0 -0.2757350944
N  N9  1  0.55234000  0.68319000  0.69415000  1.0 -0.2308647922
N  N10  1  0.44766000  0.31681000  0.30585000  1.0 -0.2308647922
N  N11  1  0.44766000  0.68319000  0.80585000  1.0 -0.2308647922
N  N12  1  0.55234000  0.31681000  0.19415000  1.0 -0.2308647922
N  N13  1  0.05234000  0.18319000  0.69415000  1.0 -0.2308647922
N  N14  1  0.94766000  0.81681000  0.30585000  1.0 -0.2308647922
N  N15  1  0.94766000  0.18319000  0.80585000  1.0 -0.2308647922
N  N16  1  0.05234000  0.81681000  0.19415000  1.0 -0.2308647922
Cl  Cl1  1  0.44556000  0.44137000  0.90247000  1.0 -0.5052961848
Cl  Cl2  1  0.55444000  0.55863000  0.09753000  1.0 -0.5052961848
Cl  Cl3  1  0.55444000  0.44137000  0.59753000  1.0 -0.5052961848
Cl  Cl4  1  0.44556000  0.55863000  0.40247000  1.0 -0.5052961848
Cl  Cl5  1  0.94556000  0.94137000  0.90247000  1.0 -0.5052961848
Cl  Cl6  1  0.05444000  0.05863000  0.09753000  1.0 -0.5052961848
Cl  Cl7  1  0.05444000  0.94137000  0.59753000  1.0 -0.5052961848
Cl  Cl8  1  0.94556000  0.05863000  0.40247000  1.0 -0.5009259922
O  O1  1  0.78277000  0.63323000  0.48596000  1.0 -0.5009259922
O  O2  1  0.21723000  0.36677000  0.51404000  1.0 -0.5009259922
O  O3  1  0.21723000  0.63323000  0.01404000  1.0 -0.5009259922
O  O4  1  0.78277000  0.36677000  0.98596000  1.0 -0.5009259922
O  O5  1  0.28277000  0.13323000  0.48596000  1.0 -0.5009259922
O  O6  1  0.71723000  0.86677000  0.51404000  1.0 -0.5009259922
O  O7  1  0.71723000  0.13323000  0.01404000  1.0 -0.5009259922
O  O8  1  0.28277000  0.86677000  0.98596000  1.0 -0.5009259922
