# DDEC6 charges by PACMAN v1.1 (https://github.com/mtap-research/PACMAN-charge/)
data_OFUZIZ_FSR_pacman
_symmetry_space_group_name_H-M   'P 1'
_cell_length_a   6.23120000
_cell_length_b   9.36600000
_cell_length_c   9.45000000
_cell_angle_alpha   103.67000000
_cell_angle_beta   108.54100000
_cell_angle_gamma   95.22900000
_symmetry_Int_Tables_number   1
_chemical_formula_structural   Cu2Mo2H4C2N3O7
_chemical_formula_sum   'Cu4 Mo4 H8 C4 N6 O14'
_cell_volume   499.73249584
_cell_formula_units_Z   2
loop_
 _symmetry_equiv_pos_site_id
 _symmetry_equiv_pos_as_xyz
  1  'x, y, z'
loop_
 _atom_site_type_symbol
 _atom_site_label
 _atom_site_symmetry_multiplicity
 _atom_site_fract_x
 _atom_site_fract_y
 _atom_site_fract_z
 _atom_site_occupancy
 _atom_site_charge
Cu  Cu1  1  0.50000000  0.00000000  0.50000000  1.0 0.8800524314
Cu  Cu2  1  0.00000000  0.00000000  0.50000000  1.0 0.4268389781
Cu  Cu3  1  0.55129000  0.87025000  0.13525000  1.0 0.1663703908
Cu  Cu4  1  0.44871000  0.12975000  0.86475000  1.0 0.1663703908
Mo  Mo1  1  0.63653000  0.26932000  0.32193000  1.0 2.159193023
Mo  Mo2  1  0.36347000  0.73068000  0.67807000  1.0 2.159193023
Mo  Mo3  1  0.29176000  0.36401000  0.50893000  1.0 2.2019898732
Mo  Mo4  1  0.70824000  0.63599000  0.49107000  1.0 2.2019898732
H  H1  1  0.95730000  0.82200000  0.95490000  1.0 0.1513727744
H  H2  1  0.04270000  0.17800000  0.04510000  1.0 0.1513727744
H  H3  1  0.74200000  0.42800000  0.63700000  1.0 0.4392850538
H  H4  1  0.25800000  0.57200000  0.36300000  1.0 0.4392850538
H  H5  1  0.34700000  0.88000000  0.13100000  1.0 0.0874100988
H  H6  1  0.65300000  0.12000000  0.86900000  1.0 0.0874100988
H  H7  1  0.75000000  0.88700000  0.11900000  1.0 0.1254212697
H  H8  1  0.25000000  0.11300000  0.88100000  1.0 0.1254212697
C  C1  1  0.24130000  0.88250000  0.15710000  1.0 -0.0469735977
C  C2  1  0.75870000  0.11750000  0.84290000  1.0 -0.0469735977
C  C3  1  0.01360000  0.85460000  0.06300000  1.0 -0.0469735977
C  C4  1  0.98640000  0.14540000  0.93700000  1.0 -0.0469735977
N  N1  1  0.24540000  0.92720000  0.30230000  1.0 -0.1661909158
N  N2  1  0.75460000  0.07280000  0.69770000  1.0 -0.1661909158
N  N3  1  0.03190000  0.92950000  0.30360000  1.0 -0.063117006
N  N4  1  0.96810000  0.07050000  0.69640000  1.0 -0.063117006
N  N5  1  0.88340000  0.88350000  0.15680000  1.0 -0.0469735977
N  N6  1  0.11660000  0.11650000  0.84320000  1.0 -0.0469735977
O  O1  1  0.61310000  0.20060000  0.13290000  1.0 -0.6552889209
O  O2  1  0.38690000  0.79940000  0.86710000  1.0 -0.6552889209
O  O3  1  0.66320000  0.11500000  0.39920000  1.0 -0.7952773134
O  O4  1  0.33680000  0.88500000  0.60080000  1.0 -0.7945548455
O  O5  1  0.33400000  0.28110000  0.30370000  1.0 -0.8338529031
O  O6  1  0.66600000  0.71890000  0.69630000  1.0 -0.8338529031
O  O7  1  0.65230000  0.42180000  0.55060000  1.0 -0.9660867612
O  O8  1  0.34770000  0.57820000  0.44940000  1.0 -0.9660867612
O  O9  1  0.33190000  0.20780000  0.57320000  1.0 -0.7347896258
O  O10  1  0.66810000  0.79220000  0.42680000  1.0 -0.7347896258
O  O11  1  0.98510000  0.33720000  0.41260000  1.0 -0.817542092
O  O12  1  0.01490000  0.66280000  0.58740000  1.0 -0.817542092
O  O13  1  0.66610000  0.49570000  0.30990000  1.0 -0.8117830913
O  O14  1  0.33390000  0.50430000  0.69010000  1.0 -0.8117830913
