# DDEC6 charges by PACMAN v1.1 (https://github.com/mtap-research/PACMAN-charge/)
data_OGAYED_ASR_pacman
_symmetry_space_group_name_H-M   'P 1'
_cell_length_a   27.68750000
_cell_length_b   27.68750000
_cell_length_c   27.68750000
_cell_angle_alpha   90.00000000
_cell_angle_beta   90.00000000
_cell_angle_gamma   90.00000000
_symmetry_Int_Tables_number   1
_chemical_formula_structural   TbH16C36(NO2)8
_chemical_formula_sum   'Tb12 H192 C432 N96 O192'
_cell_volume   21225.17260742
_cell_formula_units_Z   12
loop_
 _symmetry_equiv_pos_site_id
 _symmetry_equiv_pos_as_xyz
  1  'x, y, z'
loop_
 _atom_site_type_symbol
 _atom_site_label
 _atom_site_symmetry_multiplicity
 _atom_site_fract_x
 _atom_site_fract_y
 _atom_site_fract_z
 _atom_site_occupancy
 _atom_site_charge
Tb  Tb1  1  0.00000000  0.50000000  0.20037000  1.0 1.4467782071
Tb  Tb2  1  0.00000000  0.50000000  0.79963000  1.0 1.4467782071
Tb  Tb3  1  0.20037000  0.00000000  0.50000000  1.0 1.4467782071
Tb  Tb4  1  0.79963000  0.00000000  0.50000000  1.0 1.4467782071
Tb  Tb5  1  0.50000000  0.20037000  0.00000000  1.0 1.4467782071
Tb  Tb6  1  0.50000000  0.79963000  0.00000000  1.0 1.4467782071
Tb  Tb7  1  0.50000000  0.00000000  0.79963000  1.0 1.4467782071
Tb  Tb8  1  0.50000000  0.00000000  0.20037000  1.0 1.4467782071
Tb  Tb9  1  0.00000000  0.20037000  0.50000000  1.0 1.4467782071
Tb  Tb10  1  0.00000000  0.79963000  0.50000000  1.0 1.4467782071
Tb  Tb11  1  0.20037000  0.50000000  0.00000000  1.0 1.4467782071
Tb  Tb12  1  0.79963000  0.50000000  0.00000000  1.0 1.4467782071
H  H1  1  0.10860000  0.37110000  0.22940000  1.0 0.1083033301
H  H2  1  0.14500000  0.44960000  0.11370000  1.0 0.0954278906
H  H3  1  0.22670000  0.33670000  0.15410000  1.0 0.124036643
H  H4  1  0.15540000  0.31310000  0.25480000  1.0 0.1313816476
H  H5  1  0.89140000  0.62890000  0.22940000  1.0 0.1083033301
H  H6  1  0.85500000  0.55040000  0.11370000  1.0 0.0954278906
H  H7  1  0.77330000  0.66330000  0.15410000  1.0 0.124036643
H  H8  1  0.84460000  0.68690000  0.25480000  1.0 0.1313816476
H  H9  1  0.89140000  0.37110000  0.77060000  1.0 0.1083033301
H  H10  1  0.85500000  0.44960000  0.88630000  1.0 0.0954278906
H  H11  1  0.77330000  0.33670000  0.84590000  1.0 0.124036643
H  H12  1  0.84460000  0.31310000  0.74520000  1.0 0.1313816476
H  H13  1  0.10860000  0.62890000  0.77060000  1.0 0.1083033301
H  H14  1  0.14500000  0.55040000  0.88630000  1.0 0.0954278906
H  H15  1  0.22670000  0.66330000  0.84590000  1.0 0.124036643
H  H16  1  0.15540000  0.68690000  0.74520000  1.0 0.1313816476
H  H17  1  0.22940000  0.10860000  0.37110000  1.0 0.1083033301
H  H18  1  0.11370000  0.14500000  0.44960000  1.0 0.0954278906
H  H19  1  0.15410000  0.22670000  0.33670000  1.0 0.124036643
H  H20  1  0.25480000  0.15540000  0.31310000  1.0 0.1313816476
H  H21  1  0.22940000  0.89140000  0.62890000  1.0 0.1083033301
H  H22  1  0.11370000  0.85500000  0.55040000  1.0 0.0954278906
H  H23  1  0.15410000  0.77330000  0.66330000  1.0 0.124036643
H  H24  1  0.25480000  0.84460000  0.68690000  1.0 0.1313816476
H  H25  1  0.77060000  0.89140000  0.37110000  1.0 0.1083033301
H  H26  1  0.88630000  0.85500000  0.44960000  1.0 0.0954278906
H  H27  1  0.84590000  0.77330000  0.33670000  1.0 0.124036643
H  H28  1  0.74520000  0.84460000  0.31310000  1.0 0.1313816476
H  H29  1  0.77060000  0.10860000  0.62890000  1.0 0.1083033301
H  H30  1  0.88630000  0.14500000  0.55040000  1.0 0.0954278906
H  H31  1  0.84590000  0.22670000  0.66330000  1.0 0.124036643
H  H32  1  0.74520000  0.15540000  0.68690000  1.0 0.1313816476
H  H33  1  0.37110000  0.22940000  0.10860000  1.0 0.1083033301
H  H34  1  0.44960000  0.11370000  0.14500000  1.0 0.0954278906
H  H35  1  0.33670000  0.15410000  0.22670000  1.0 0.124036643
H  H36  1  0.31310000  0.25480000  0.15540000  1.0 0.1313816476
H  H37  1  0.62890000  0.22940000  0.89140000  1.0 0.1083033301
H  H38  1  0.55040000  0.11370000  0.85500000  1.0 0.0954278906
H  H39  1  0.66330000  0.15410000  0.77330000  1.0 0.124036643
H  H40  1  0.68690000  0.25480000  0.84460000  1.0 0.1313816476
H  H41  1  0.37110000  0.77060000  0.89140000  1.0 0.1083033301
H  H42  1  0.44960000  0.88630000  0.85500000  1.0 0.0954278906
H  H43  1  0.33670000  0.84590000  0.77330000  1.0 0.124036643
H  H44  1  0.31310000  0.74520000  0.84460000  1.0 0.1313816476
H  H45  1  0.62890000  0.77060000  0.10860000  1.0 0.1083033301
H  H46  1  0.55040000  0.88630000  0.14500000  1.0 0.0954278906
H  H47  1  0.66330000  0.84590000  0.22670000  1.0 0.124036643
H  H48  1  0.68690000  0.74520000  0.15540000  1.0 0.1313816476
H  H49  1  0.37110000  0.10860000  0.77060000  1.0 0.1083033301
H  H50  1  0.44960000  0.14500000  0.88630000  1.0 0.0954278906
H  H51  1  0.33670000  0.22670000  0.84590000  1.0 0.124036643
H  H52  1  0.31310000  0.15540000  0.74520000  1.0 0.1313816476
H  H53  1  0.62890000  0.89140000  0.77060000  1.0 0.1083033301
H  H54  1  0.55040000  0.85500000  0.88630000  1.0 0.0954278906
H  H55  1  0.66330000  0.77330000  0.84590000  1.0 0.124036643
H  H56  1  0.68690000  0.84460000  0.74520000  1.0 0.1313816476
H  H57  1  0.37110000  0.89140000  0.22940000  1.0 0.1083033301
H  H58  1  0.44960000  0.85500000  0.11370000  1.0 0.0954278906
H  H59  1  0.33670000  0.77330000  0.15410000  1.0 0.124036643
H  H60  1  0.31310000  0.84460000  0.25480000  1.0 0.1313816476
H  H61  1  0.62890000  0.10860000  0.22940000  1.0 0.1083033301
H  H62  1  0.55040000  0.14500000  0.11370000  1.0 0.0954278906
H  H63  1  0.66330000  0.22670000  0.15410000  1.0 0.124036643
H  H64  1  0.68690000  0.15540000  0.25480000  1.0 0.1313816476
H  H65  1  0.10860000  0.22940000  0.62890000  1.0 0.1083033301
H  H66  1  0.14500000  0.11370000  0.55040000  1.0 0.0954278906
H  H67  1  0.22670000  0.15410000  0.66330000  1.0 0.124036643
H  H68  1  0.15540000  0.25480000  0.68690000  1.0 0.1313816476
H  H69  1  0.89140000  0.22940000  0.37110000  1.0 0.1083033301
H  H70  1  0.85500000  0.11370000  0.44960000  1.0 0.0954278906
H  H71  1  0.77330000  0.15410000  0.33670000  1.0 0.124036643
H  H72  1  0.84460000  0.25480000  0.31310000  1.0 0.1313816476
H  H73  1  0.89140000  0.77060000  0.62890000  1.0 0.1083033301
H  H74  1  0.85500000  0.88630000  0.55040000  1.0 0.0954278906
H  H75  1  0.77330000  0.84590000  0.66330000  1.0 0.124036643
H  H76  1  0.84460000  0.74520000  0.68690000  1.0 0.1313816476
H  H77  1  0.10860000  0.77060000  0.37110000  1.0 0.1083033301
H  H78  1  0.14500000  0.88630000  0.44960000  1.0 0.0954278906
H  H79  1  0.22670000  0.84590000  0.33670000  1.0 0.124036643
H  H80  1  0.15540000  0.74520000  0.31310000  1.0 0.1313816476
H  H81  1  0.22940000  0.37110000  0.89140000  1.0 0.1083033301
H  H82  1  0.11370000  0.44960000  0.85500000  1.0 0.0954278906
H  H83  1  0.15410000  0.33670000  0.77330000  1.0 0.124036643
H  H84  1  0.25480000  0.31310000  0.84460000  1.0 0.1313816476
H  H85  1  0.22940000  0.62890000  0.10860000  1.0 0.1083033301
H  H86  1  0.11370000  0.55040000  0.14500000  1.0 0.0954278906
H  H87  1  0.15410000  0.66330000  0.22670000  1.0 0.124036643
H  H88  1  0.25480000  0.68690000  0.15540000  1.0 0.1313816476
H  H89  1  0.77060000  0.37110000  0.10860000  1.0 0.1083033301
H  H90  1  0.88630000  0.44960000  0.14500000  1.0 0.0954278906
H  H91  1  0.84590000  0.33670000  0.22670000  1.0 0.124036643
H  H92  1  0.74520000  0.31310000  0.15540000  1.0 0.1313816476
H  H93  1  0.77060000  0.62890000  0.89140000  1.0 0.1083033301
H  H94  1  0.88630000  0.55040000  0.85500000  1.0 0.0954278906
H  H95  1  0.84590000  0.66330000  0.77330000  1.0 0.124036643
H  H96  1  0.74520000  0.68690000  0.84460000  1.0 0.1313816476
H  H97  1  0.89140000  0.62890000  0.77060000  1.0 0.1083033301
H  H98  1  0.85500000  0.55040000  0.88630000  1.0 0.0954278906
H  H99  1  0.77330000  0.66330000  0.84590000  1.0 0.124036643
H  H100  1  0.84460000  0.68690000  0.74520000  1.0 0.1313816476
H  H101  1  0.10860000  0.37110000  0.77060000  1.0 0.1083033301
H  H102  1  0.14500000  0.44960000  0.88630000  1.0 0.0954278906
H  H103  1  0.22670000  0.33670000  0.84590000  1.0 0.124036643
H  H104  1  0.15540000  0.31310000  0.74520000  1.0 0.1313816476
H  H105  1  0.10860000  0.62890000  0.22940000  1.0 0.1083033301
H  H106  1  0.14500000  0.55040000  0.11370000  1.0 0.0954278906
H  H107  1  0.22670000  0.66330000  0.15410000  1.0 0.124036643
H  H108  1  0.15540000  0.68690000  0.25480000  1.0 0.1313816476
H  H109  1  0.89140000  0.37110000  0.22940000  1.0 0.1083033301
H  H110  1  0.85500000  0.44960000  0.11370000  1.0 0.0954278906
H  H111  1  0.77330000  0.33670000  0.15410000  1.0 0.124036643
H  H112  1  0.84460000  0.31310000  0.25480000  1.0 0.1313816476
H  H113  1  0.77060000  0.89140000  0.62890000  1.0 0.1083033301
H  H114  1  0.88630000  0.85500000  0.55040000  1.0 0.0954278906
H  H115  1  0.84590000  0.77330000  0.66330000  1.0 0.124036643
H  H116  1  0.74520000  0.84460000  0.68690000  1.0 0.1313816476
H  H117  1  0.77060000  0.10860000  0.37110000  1.0 0.1083033301
H  H118  1  0.88630000  0.14500000  0.44960000  1.0 0.0954278906
H  H119  1  0.84590000  0.22670000  0.33670000  1.0 0.124036643
H  H120  1  0.74520000  0.15540000  0.31310000  1.0 0.1313816476
H  H121  1  0.22940000  0.10860000  0.62890000  1.0 0.1083033301
H  H122  1  0.11370000  0.14500000  0.55040000  1.0 0.0954278906
H  H123  1  0.15410000  0.22670000  0.66330000  1.0 0.124036643
H  H124  1  0.25480000  0.15540000  0.68690000  1.0 0.1313816476
H  H125  1  0.22940000  0.89140000  0.37110000  1.0 0.1083033301
H  H126  1  0.11370000  0.85500000  0.44960000  1.0 0.0954278906
H  H127  1  0.15410000  0.77330000  0.33670000  1.0 0.124036643
H  H128  1  0.25480000  0.84460000  0.31310000  1.0 0.1313816476
H  H129  1  0.62890000  0.77060000  0.89140000  1.0 0.1083033301
H  H130  1  0.55040000  0.88630000  0.85500000  1.0 0.0954278906
H  H131  1  0.66330000  0.84590000  0.77330000  1.0 0.124036643
H  H132  1  0.68690000  0.74520000  0.84460000  1.0 0.1313816476
H  H133  1  0.37110000  0.77060000  0.10860000  1.0 0.1083033301
H  H134  1  0.44960000  0.88630000  0.14500000  1.0 0.0954278906
H  H135  1  0.33670000  0.84590000  0.22670000  1.0 0.124036643
H  H136  1  0.31310000  0.74520000  0.15540000  1.0 0.1313816476
H  H137  1  0.62890000  0.22940000  0.10860000  1.0 0.1083033301
H  H138  1  0.55040000  0.11370000  0.14500000  1.0 0.0954278906
H  H139  1  0.66330000  0.15410000  0.22670000  1.0 0.124036643
H  H140  1  0.68690000  0.25480000  0.15540000  1.0 0.1313816476
H  H141  1  0.37110000  0.22940000  0.89140000  1.0 0.1083033301
H  H142  1  0.44960000  0.11370000  0.85500000  1.0 0.0954278906
H  H143  1  0.33670000  0.15410000  0.77330000  1.0 0.124036643
H  H144  1  0.31310000  0.25480000  0.84460000  1.0 0.1313816476
H  H145  1  0.62890000  0.89140000  0.22940000  1.0 0.1083033301
H  H146  1  0.55040000  0.85500000  0.11370000  1.0 0.0954278906
H  H147  1  0.66330000  0.77330000  0.15410000  1.0 0.124036643
H  H148  1  0.68690000  0.84460000  0.25480000  1.0 0.1313816476
H  H149  1  0.37110000  0.10860000  0.22940000  1.0 0.1083033301
H  H150  1  0.44960000  0.14500000  0.11370000  1.0 0.0954278906
H  H151  1  0.33670000  0.22670000  0.15410000  1.0 0.124036643
H  H152  1  0.31310000  0.15540000  0.25480000  1.0 0.1313816476
H  H153  1  0.62890000  0.10860000  0.77060000  1.0 0.1083033301
H  H154  1  0.55040000  0.14500000  0.88630000  1.0 0.0954278906
H  H155  1  0.66330000  0.22670000  0.84590000  1.0 0.124036643
H  H156  1  0.68690000  0.15540000  0.74520000  1.0 0.1313816476
H  H157  1  0.37110000  0.89140000  0.77060000  1.0 0.1083033301
H  H158  1  0.44960000  0.85500000  0.88630000  1.0 0.0954278906
H  H159  1  0.33670000  0.77330000  0.84590000  1.0 0.124036643
H  H160  1  0.31310000  0.84460000  0.74520000  1.0 0.1313816476
H  H161  1  0.89140000  0.77060000  0.37110000  1.0 0.1083033301
H  H162  1  0.85500000  0.88630000  0.44960000  1.0 0.0954278906
H  H163  1  0.77330000  0.84590000  0.33670000  1.0 0.124036643
H  H164  1  0.84460000  0.74520000  0.31310000  1.0 0.1313816476
H  H165  1  0.10860000  0.77060000  0.62890000  1.0 0.1083033301
H  H166  1  0.14500000  0.88630000  0.55040000  1.0 0.0954278906
H  H167  1  0.22670000  0.84590000  0.66330000  1.0 0.124036643
H  H168  1  0.15540000  0.74520000  0.68690000  1.0 0.1313816476
H  H169  1  0.10860000  0.22940000  0.37110000  1.0 0.1083033301
H  H170  1  0.14500000  0.11370000  0.44960000  1.0 0.0954278906
H  H171  1  0.22670000  0.15410000  0.33670000  1.0 0.124036643
H  H172  1  0.15540000  0.25480000  0.31310000  1.0 0.1313816476
H  H173  1  0.89140000  0.22940000  0.62890000  1.0 0.1083033301
H  H174  1  0.85500000  0.11370000  0.55040000  1.0 0.0954278906
H  H175  1  0.77330000  0.15410000  0.66330000  1.0 0.124036643
H  H176  1  0.84460000  0.25480000  0.68690000  1.0 0.1313816476
H  H177  1  0.77060000  0.62890000  0.10860000  1.0 0.1083033301
H  H178  1  0.88630000  0.55040000  0.14500000  1.0 0.0954278906
H  H179  1  0.84590000  0.66330000  0.22670000  1.0 0.124036643
H  H180  1  0.74520000  0.68690000  0.15540000  1.0 0.1313816476
H  H181  1  0.77060000  0.37110000  0.89140000  1.0 0.1083033301
H  H182  1  0.88630000  0.44960000  0.85500000  1.0 0.0954278906
H  H183  1  0.84590000  0.33670000  0.77330000  1.0 0.124036643
H  H184  1  0.74520000  0.31310000  0.84460000  1.0 0.1313816476
H  H185  1  0.22940000  0.62890000  0.89140000  1.0 0.1083033301
H  H186  1  0.11370000  0.55040000  0.85500000  1.0 0.0954278906
H  H187  1  0.15410000  0.66330000  0.77330000  1.0 0.124036643
H  H188  1  0.25480000  0.68690000  0.84460000  1.0 0.1313816476
H  H189  1  0.22940000  0.37110000  0.10860000  1.0 0.1083033301
H  H190  1  0.11370000  0.44960000  0.14500000  1.0 0.0954278906
H  H191  1  0.15410000  0.33670000  0.22670000  1.0 0.124036643
H  H192  1  0.25480000  0.31310000  0.15540000  1.0 0.1313816476
C  C1  1  0.20640000  0.27600000  0.23460000  1.0 0.1083033301
C  C2  1  0.16990000  0.34640000  0.19870000  1.0 -0.0121741212
C  C3  1  0.12960000  0.37670000  0.20380000  1.0 0.0060054227
C  C4  1  0.11950000  0.41420000  0.17280000  1.0 -0.0165956632
C  C5  1  0.15070000  0.42390000  0.13450000  1.0 -0.0582258068
C  C6  1  0.19060000  0.39420000  0.12830000  1.0 0.0270961621
C  C7  1  0.19990000  0.35610000  0.15950000  1.0 0.016407908
C  C8  1  0.07290000  0.44450000  0.18070000  1.0 0.3558219662
C  C9  1  0.22420000  0.40390000  0.08470000  1.0 0.3447902795
C  C10  1  0.79360000  0.72400000  0.23460000  1.0 0.1083033301
C  C11  1  0.83010000  0.65360000  0.19870000  1.0 -0.0121741212
C  C12  1  0.87040000  0.62330000  0.20380000  1.0 0.0060054227
C  C13  1  0.88050000  0.58580000  0.17280000  1.0 -0.0165956632
C  C14  1  0.84930000  0.57610000  0.13450000  1.0 -0.0582258068
C  C15  1  0.80940000  0.60580000  0.12830000  1.0 0.0270961621
C  C16  1  0.80010000  0.64390000  0.15950000  1.0 0.016407908
C  C17  1  0.92710000  0.55550000  0.18070000  1.0 0.3538938851
C  C18  1  0.77580000  0.59610000  0.08470000  1.0 0.3447902795
C  C19  1  0.79360000  0.27600000  0.76540000  1.0 0.1083033301
C  C20  1  0.83010000  0.34640000  0.80130000  1.0 -0.0121741212
C  C21  1  0.87040000  0.37670000  0.79620000  1.0 0.0060054227
C  C22  1  0.88050000  0.41420000  0.82720000  1.0 -0.0165956632
C  C23  1  0.84930000  0.42390000  0.86550000  1.0 -0.0582258068
C  C24  1  0.80940000  0.39420000  0.87170000  1.0 0.0270961621
C  C25  1  0.80010000  0.35610000  0.84050000  1.0 0.016407908
C  C26  1  0.92710000  0.44450000  0.81930000  1.0 0.3538938851
C  C27  1  0.77580000  0.40390000  0.91530000  1.0 0.3447902795
C  C28  1  0.20640000  0.72400000  0.76540000  1.0 0.1083033301
C  C29  1  0.16990000  0.65360000  0.80130000  1.0 -0.0121741212
C  C30  1  0.12960000  0.62330000  0.79620000  1.0 0.0060054227
C  C31  1  0.11950000  0.58580000  0.82720000  1.0 -0.0165956632
C  C32  1  0.15070000  0.57610000  0.86550000  1.0 -0.0582258068
C  C33  1  0.19060000  0.60580000  0.87170000  1.0 0.0270961621
C  C34  1  0.19990000  0.64390000  0.84050000  1.0 0.016407908
C  C35  1  0.07290000  0.55550000  0.81930000  1.0 0.3538938851
C  C36  1  0.22420000  0.59610000  0.91530000  1.0 0.3447902795
C  C37  1  0.23460000  0.20640000  0.27600000  1.0 0.1083033301
C  C38  1  0.19870000  0.16990000  0.34640000  1.0 -0.0121741212
C  C39  1  0.20380000  0.12960000  0.37670000  1.0 0.0060054227
C  C40  1  0.17280000  0.11950000  0.41420000  1.0 -0.0165956632
C  C41  1  0.13450000  0.15070000  0.42390000  1.0 -0.0582258068
C  C42  1  0.12830000  0.19060000  0.39420000  1.0 0.0270961621
C  C43  1  0.15950000  0.19990000  0.35610000  1.0 0.016407908
C  C44  1  0.18070000  0.07290000  0.44450000  1.0 0.3558219662
C  C45  1  0.08470000  0.22420000  0.40390000  1.0 0.3447902795
C  C46  1  0.23460000  0.79360000  0.72400000  1.0 0.1083033301
C  C47  1  0.19870000  0.83010000  0.65360000  1.0 -0.0121741212
C  C48  1  0.20380000  0.87040000  0.62330000  1.0 0.0060054227
C  C49  1  0.17280000  0.88050000  0.58580000  1.0 -0.0165956632
C  C50  1  0.13450000  0.84930000  0.57610000  1.0 -0.0582258068
C  C51  1  0.12830000  0.80940000  0.60580000  1.0 0.0270961621
C  C52  1  0.15950000  0.80010000  0.64390000  1.0 0.0060054227
C  C53  1  0.18070000  0.92710000  0.55550000  1.0 0.3538938851
C  C54  1  0.08470000  0.77580000  0.59610000  1.0 0.3447902795
C  C55  1  0.76540000  0.79360000  0.27600000  1.0 0.1083033301
C  C56  1  0.80130000  0.83010000  0.34640000  1.0 -0.0121741212
C  C57  1  0.79620000  0.87040000  0.37670000  1.0 0.0060054227
C  C58  1  0.82720000  0.88050000  0.41420000  1.0 -0.0165956632
C  C59  1  0.86550000  0.84930000  0.42390000  1.0 -0.0582258068
C  C60  1  0.87170000  0.80940000  0.39420000  1.0 0.0270961621
C  C61  1  0.84050000  0.80010000  0.35610000  1.0 0.016407908
C  C62  1  0.81930000  0.92710000  0.44450000  1.0 0.3538938851
C  C63  1  0.91530000  0.77580000  0.40390000  1.0 0.3447902795
C  C64  1  0.76540000  0.20640000  0.72400000  1.0 0.1083033301
C  C65  1  0.80130000  0.16990000  0.65360000  1.0 -0.0121741212
C  C66  1  0.79620000  0.12960000  0.62330000  1.0 0.0060054227
C  C67  1  0.82720000  0.11950000  0.58580000  1.0 -0.0165956632
C  C68  1  0.86550000  0.15070000  0.57610000  1.0 -0.0582258068
C  C69  1  0.87170000  0.19060000  0.60580000  1.0 0.0270961621
C  C70  1  0.84050000  0.19990000  0.64390000  1.0 0.016407908
C  C71  1  0.81930000  0.07290000  0.55550000  1.0 0.3538938851
C  C72  1  0.91530000  0.22420000  0.59610000  1.0 0.3447902795
C  C73  1  0.27600000  0.23460000  0.20640000  1.0 0.1083033301
C  C74  1  0.34640000  0.19870000  0.16990000  1.0 -0.0121741212
C  C75  1  0.37670000  0.20380000  0.12960000  1.0 0.0060054227
C  C76  1  0.41420000  0.17280000  0.11950000  1.0 -0.0165956632
C  C77  1  0.42390000  0.13450000  0.15070000  1.0 -0.0582258068
C  C78  1  0.39420000  0.12830000  0.19060000  1.0 0.0270961621
C  C79  1  0.35610000  0.15950000  0.19990000  1.0 0.016407908
C  C80  1  0.44450000  0.18070000  0.07290000  1.0 0.3558219662
C  C81  1  0.40390000  0.08470000  0.22420000  1.0 0.3447902795
C  C82  1  0.72400000  0.23460000  0.79360000  1.0 0.1083033301
C  C83  1  0.65360000  0.19870000  0.83010000  1.0 -0.0121741212
C  C84  1  0.62330000  0.20380000  0.87040000  1.0 0.0060054227
C  C85  1  0.58580000  0.17280000  0.88050000  1.0 -0.0165956632
C  C86  1  0.57610000  0.13450000  0.84930000  1.0 -0.0582258068
C  C87  1  0.60580000  0.12830000  0.80940000  1.0 0.0270961621
C  C88  1  0.64390000  0.15950000  0.80010000  1.0 0.016407908
C  C89  1  0.55550000  0.18070000  0.92710000  1.0 0.3538938851
C  C90  1  0.59610000  0.08470000  0.77580000  1.0 0.3447902795
C  C91  1  0.27600000  0.76540000  0.79360000  1.0 0.1083033301
C  C92  1  0.34640000  0.80130000  0.83010000  1.0 -0.0121741212
C  C93  1  0.37670000  0.79620000  0.87040000  1.0 0.0060054227
C  C94  1  0.41420000  0.82720000  0.88050000  1.0 -0.0165956632
C  C95  1  0.42390000  0.86550000  0.84930000  1.0 -0.0582258068
C  C96  1  0.39420000  0.87170000  0.80940000  1.0 0.0270961621
C  C97  1  0.35610000  0.84050000  0.80010000  1.0 0.016407908
C  C98  1  0.44450000  0.81930000  0.92710000  1.0 0.3538938851
C  C99  1  0.40390000  0.91530000  0.77580000  1.0 0.3447902795
C  C100  1  0.72400000  0.76540000  0.20640000  1.0 0.1083033301
C  C101  1  0.65360000  0.80130000  0.16990000  1.0 -0.0121741212
C  C102  1  0.62330000  0.79620000  0.12960000  1.0 0.0060054227
C  C103  1  0.58580000  0.82720000  0.11950000  1.0 -0.0165956632
C  C104  1  0.57610000  0.86550000  0.15070000  1.0 -0.0582258068
C  C105  1  0.60580000  0.87170000  0.19060000  1.0 0.0270961621
C  C106  1  0.64390000  0.84050000  0.19990000  1.0 0.016407908
C  C107  1  0.55550000  0.81930000  0.07290000  1.0 0.3538938851
C  C108  1  0.59610000  0.91530000  0.22420000  1.0 0.3447902795
C  C109  1  0.27600000  0.20640000  0.76540000  1.0 0.1083033301
C  C110  1  0.34640000  0.16990000  0.80130000  1.0 -0.0121741212
C  C111  1  0.37670000  0.12960000  0.79620000  1.0 0.0060054227
C  C112  1  0.41420000  0.11950000  0.82720000  1.0 -0.0165956632
C  C113  1  0.42390000  0.15070000  0.86550000  1.0 -0.0582258068
C  C114  1  0.39420000  0.19060000  0.87170000  1.0 0.0270961621
C  C115  1  0.35610000  0.19990000  0.84050000  1.0 0.016407908
C  C116  1  0.44450000  0.07290000  0.81930000  1.0 0.3538938851
C  C117  1  0.40390000  0.22420000  0.91530000  1.0 0.3447902795
C  C118  1  0.72400000  0.79360000  0.76540000  1.0 0.1083033301
C  C119  1  0.65360000  0.83010000  0.80130000  1.0 -0.0121741212
C  C120  1  0.62330000  0.87040000  0.79620000  1.0 0.0060054227
C  C121  1  0.58580000  0.88050000  0.82720000  1.0 -0.0165956632
C  C122  1  0.57610000  0.84930000  0.86550000  1.0 -0.0582258068
C  C123  1  0.60580000  0.80940000  0.87170000  1.0 0.0270961621
C  C124  1  0.64390000  0.80010000  0.84050000  1.0 0.016407908
C  C125  1  0.55550000  0.92710000  0.81930000  1.0 0.3538938851
C  C126  1  0.59610000  0.77580000  0.91530000  1.0 0.3447902795
C  C127  1  0.27600000  0.79360000  0.23460000  1.0 0.1083033301
C  C128  1  0.34640000  0.83010000  0.19870000  1.0 -0.0121741212
C  C129  1  0.37670000  0.87040000  0.20380000  1.0 0.0060054227
C  C130  1  0.41420000  0.88050000  0.17280000  1.0 -0.0165956632
C  C131  1  0.42390000  0.84930000  0.13450000  1.0 -0.0582258068
C  C132  1  0.39420000  0.80940000  0.12830000  1.0 0.0270961621
C  C133  1  0.35610000  0.80010000  0.15950000  1.0 0.016407908
C  C134  1  0.44450000  0.92710000  0.18070000  1.0 0.3538938851
C  C135  1  0.40390000  0.77580000  0.08470000  1.0 0.3447902795
C  C136  1  0.72400000  0.20640000  0.23460000  1.0 0.1083033301
C  C137  1  0.65360000  0.16990000  0.19870000  1.0 -0.0121741212
C  C138  1  0.62330000  0.12960000  0.20380000  1.0 0.0060054227
C  C139  1  0.58580000  0.11950000  0.17280000  1.0 -0.0165956632
C  C140  1  0.57610000  0.15070000  0.13450000  1.0 -0.0582258068
C  C141  1  0.60580000  0.19060000  0.12830000  1.0 0.0270961621
C  C142  1  0.64390000  0.19990000  0.15950000  1.0 0.016407908
C  C143  1  0.55550000  0.07290000  0.18070000  1.0 0.3558219662
C  C144  1  0.59610000  0.22420000  0.08470000  1.0 0.3447902795
C  C145  1  0.20640000  0.23460000  0.72400000  1.0 0.1083033301
C  C146  1  0.16990000  0.19870000  0.65360000  1.0 -0.0121741212
C  C147  1  0.12960000  0.20380000  0.62330000  1.0 0.0060054227
C  C148  1  0.11950000  0.17280000  0.58580000  1.0 -0.0165956632
C  C149  1  0.15070000  0.13450000  0.57610000  1.0 -0.0582258068
C  C150  1  0.19060000  0.12830000  0.60580000  1.0 0.0270961621
C  C151  1  0.19990000  0.15950000  0.64390000  1.0 0.016407908
C  C152  1  0.07290000  0.18070000  0.55550000  1.0 0.3558219662
C  C153  1  0.22420000  0.08470000  0.59610000  1.0 0.3447902795
C  C154  1  0.79360000  0.23460000  0.27600000  1.0 0.1083033301
C  C155  1  0.83010000  0.19870000  0.34640000  1.0 -0.0121741212
C  C156  1  0.87040000  0.20380000  0.37670000  1.0 0.0060054227
C  C157  1  0.88050000  0.17280000  0.41420000  1.0 -0.0165956632
C  C158  1  0.84930000  0.13450000  0.42390000  1.0 -0.0582258068
C  C159  1  0.80940000  0.12830000  0.39420000  1.0 0.0270961621
C  C160  1  0.80010000  0.15950000  0.35610000  1.0 0.016407908
C  C161  1  0.92710000  0.18070000  0.44450000  1.0 0.3538938851
C  C162  1  0.77580000  0.08470000  0.40390000  1.0 0.3447902795
C  C163  1  0.79360000  0.76540000  0.72400000  1.0 0.1083033301
C  C164  1  0.83010000  0.80130000  0.65360000  1.0 -0.0121741212
C  C165  1  0.87040000  0.79620000  0.62330000  1.0 0.0060054227
C  C166  1  0.88050000  0.82720000  0.58580000  1.0 -0.0165956632
C  C167  1  0.84930000  0.86550000  0.57610000  1.0 -0.0582258068
C  C168  1  0.80940000  0.87170000  0.60580000  1.0 0.0270961621
C  C169  1  0.80010000  0.84050000  0.64390000  1.0 0.016407908
C  C170  1  0.92710000  0.81930000  0.55550000  1.0 0.3538938851
C  C171  1  0.77580000  0.91530000  0.59610000  1.0 0.3447902795
C  C172  1  0.20640000  0.76540000  0.27600000  1.0 0.1083033301
C  C173  1  0.16990000  0.80130000  0.34640000  1.0 -0.0121741212
C  C174  1  0.12960000  0.79620000  0.37670000  1.0 0.0060054227
C  C175  1  0.11950000  0.82720000  0.41420000  1.0 -0.0165956632
C  C176  1  0.15070000  0.86550000  0.42390000  1.0 -0.0582258068
C  C177  1  0.19060000  0.87170000  0.39420000  1.0 0.0270961621
C  C178  1  0.19990000  0.84050000  0.35610000  1.0 0.016407908
C  C179  1  0.07290000  0.81930000  0.44450000  1.0 0.3538938851
C  C180  1  0.22420000  0.91530000  0.40390000  1.0 0.3447902795
C  C181  1  0.23460000  0.27600000  0.79360000  1.0 0.1083033301
C  C182  1  0.19870000  0.34640000  0.83010000  1.0 -0.0121741212
C  C183  1  0.20380000  0.37670000  0.87040000  1.0 0.0060054227
C  C184  1  0.17280000  0.41420000  0.88050000  1.0 -0.0165956632
C  C185  1  0.13450000  0.42390000  0.84930000  1.0 -0.0582258068
C  C186  1  0.12830000  0.39420000  0.80940000  1.0 0.0270961621
C  C187  1  0.15950000  0.35610000  0.80010000  1.0 0.016407908
C  C188  1  0.18070000  0.44450000  0.92710000  1.0 0.3538938851
C  C189  1  0.08470000  0.40390000  0.77580000  1.0 0.3447902795
C  C190  1  0.23460000  0.72400000  0.20640000  1.0 0.1083033301
C  C191  1  0.19870000  0.65360000  0.16990000  1.0 -0.0121741212
C  C192  1  0.20380000  0.62330000  0.12960000  1.0 0.0060054227
C  C193  1  0.17280000  0.58580000  0.11950000  1.0 -0.0165956632
C  C194  1  0.13450000  0.57610000  0.15070000  1.0 -0.0582258068
C  C195  1  0.12830000  0.60580000  0.19060000  1.0 0.0270961621
C  C196  1  0.15950000  0.64390000  0.19990000  1.0 0.016407908
C  C197  1  0.18070000  0.55550000  0.07290000  1.0 0.3558219662
C  C198  1  0.08470000  0.59610000  0.22420000  1.0 0.3447902795
C  C199  1  0.76540000  0.27600000  0.20640000  1.0 0.1083033301
C  C200  1  0.80130000  0.34640000  0.16990000  1.0 -0.0121741212
C  C201  1  0.79620000  0.37670000  0.12960000  1.0 0.0060054227
C  C202  1  0.82720000  0.41420000  0.11950000  1.0 -0.0165956632
C  C203  1  0.86550000  0.42390000  0.15070000  1.0 -0.0582258068
C  C204  1  0.87170000  0.39420000  0.19060000  1.0 0.0270961621
C  C205  1  0.84050000  0.35610000  0.19990000  1.0 0.016407908
C  C206  1  0.81930000  0.44450000  0.07290000  1.0 0.3538938851
C  C207  1  0.91530000  0.40390000  0.22420000  1.0 0.3447902795
C  C208  1  0.76540000  0.72400000  0.79360000  1.0 0.1083033301
C  C209  1  0.80130000  0.65360000  0.83010000  1.0 -0.0121741212
C  C210  1  0.79620000  0.62330000  0.87040000  1.0 0.0060054227
C  C211  1  0.82720000  0.58580000  0.88050000  1.0 -0.0165956632
C  C212  1  0.86550000  0.57610000  0.84930000  1.0 -0.0582258068
C  C213  1  0.87170000  0.60580000  0.80940000  1.0 0.0270961621
C  C214  1  0.84050000  0.64390000  0.80010000  1.0 0.016407908
C  C215  1  0.81930000  0.55550000  0.92710000  1.0 0.3538938851
C  C216  1  0.91530000  0.59610000  0.77580000  1.0 0.3447902795
C  C217  1  0.79360000  0.72400000  0.76540000  1.0 0.1083033301
C  C218  1  0.83010000  0.65360000  0.80130000  1.0 -0.0121741212
C  C219  1  0.87040000  0.62330000  0.79620000  1.0 0.0060054227
C  C220  1  0.88050000  0.58580000  0.82720000  1.0 -0.0165956632
C  C221  1  0.84930000  0.57610000  0.86550000  1.0 -0.0582258068
C  C222  1  0.80940000  0.60580000  0.87170000  1.0 0.0270961621
C  C223  1  0.80010000  0.64390000  0.84050000  1.0 0.016407908
C  C224  1  0.92710000  0.55550000  0.81930000  1.0 0.3538938851
C  C225  1  0.77580000  0.59610000  0.91530000  1.0 0.3447902795
C  C226  1  0.20640000  0.27600000  0.76540000  1.0 0.1083033301
C  C227  1  0.16990000  0.34640000  0.80130000  1.0 -0.0121741212
C  C228  1  0.12960000  0.37670000  0.79620000  1.0 0.0060054227
C  C229  1  0.11950000  0.41420000  0.82720000  1.0 -0.0165956632
C  C230  1  0.15070000  0.42390000  0.86550000  1.0 -0.0582258068
C  C231  1  0.19060000  0.39420000  0.87170000  1.0 0.0270961621
C  C232  1  0.19990000  0.35610000  0.84050000  1.0 0.016407908
C  C233  1  0.07290000  0.44450000  0.81930000  1.0 0.3538938851
C  C234  1  0.22420000  0.40390000  0.91530000  1.0 0.3447902795
C  C235  1  0.20640000  0.72400000  0.23460000  1.0 0.1083033301
C  C236  1  0.16990000  0.65360000  0.19870000  1.0 -0.0121741212
C  C237  1  0.12960000  0.62330000  0.20380000  1.0 0.0060054227
C  C238  1  0.11950000  0.58580000  0.17280000  1.0 -0.0165956632
C  C239  1  0.15070000  0.57610000  0.13450000  1.0 -0.0582258068
C  C240  1  0.19060000  0.60580000  0.12830000  1.0 0.0270961621
C  C241  1  0.19990000  0.64390000  0.15950000  1.0 0.016407908
C  C242  1  0.07290000  0.55550000  0.18070000  1.0 0.3558219662
C  C243  1  0.22420000  0.59610000  0.08470000  1.0 0.3447902795
C  C244  1  0.79360000  0.27600000  0.23460000  1.0 0.1083033301
C  C245  1  0.83010000  0.34640000  0.19870000  1.0 -0.0121741212
C  C246  1  0.87040000  0.37670000  0.20380000  1.0 0.0060054227
C  C247  1  0.88050000  0.41420000  0.17280000  1.0 -0.0165956632
C  C248  1  0.84930000  0.42390000  0.13450000  1.0 -0.0582258068
C  C249  1  0.80940000  0.39420000  0.12830000  1.0 0.0270961621
C  C250  1  0.80010000  0.35610000  0.15950000  1.0 0.016407908
C  C251  1  0.92710000  0.44450000  0.18070000  1.0 0.3538938851
C  C252  1  0.77580000  0.40390000  0.08470000  1.0 0.3447902795
C  C253  1  0.76540000  0.79360000  0.72400000  1.0 0.1083033301
C  C254  1  0.80130000  0.83010000  0.65360000  1.0 -0.0121741212
C  C255  1  0.79620000  0.87040000  0.62330000  1.0 0.0060054227
C  C256  1  0.82720000  0.88050000  0.58580000  1.0 -0.0165956632
C  C257  1  0.86550000  0.84930000  0.57610000  1.0 -0.0582258068
C  C258  1  0.87170000  0.80940000  0.60580000  1.0 0.0270961621
C  C259  1  0.84050000  0.80010000  0.64390000  1.0 0.016407908
C  C260  1  0.81930000  0.92710000  0.55550000  1.0 0.3538938851
C  C261  1  0.91530000  0.77580000  0.59610000  1.0 0.3447902795
C  C262  1  0.76540000  0.20640000  0.27600000  1.0 0.1083033301
C  C263  1  0.80130000  0.16990000  0.34640000  1.0 -0.0121741212
C  C264  1  0.79620000  0.12960000  0.37670000  1.0 0.0060054227
C  C265  1  0.82720000  0.11950000  0.41420000  1.0 -0.0165956632
C  C266  1  0.86550000  0.15070000  0.42390000  1.0 -0.0582258068
C  C267  1  0.87170000  0.19060000  0.39420000  1.0 0.0270961621
C  C268  1  0.84050000  0.19990000  0.35610000  1.0 0.016407908
C  C269  1  0.81930000  0.07290000  0.44450000  1.0 0.3538938851
C  C270  1  0.91530000  0.22420000  0.40390000  1.0 0.3447902795
C  C271  1  0.23460000  0.20640000  0.72400000  1.0 0.1083033301
C  C272  1  0.19870000  0.16990000  0.65360000  1.0 -0.0121741212
C  C273  1  0.20380000  0.12960000  0.62330000  1.0 0.0060054227
C  C274  1  0.17280000  0.11950000  0.58580000  1.0 -0.0165956632
C  C275  1  0.13450000  0.15070000  0.57610000  1.0 -0.0582258068
C  C276  1  0.12830000  0.19060000  0.60580000  1.0 0.0270961621
C  C277  1  0.15950000  0.19990000  0.64390000  1.0 0.016407908
C  C278  1  0.18070000  0.07290000  0.55550000  1.0 0.3558219662
C  C279  1  0.08470000  0.22420000  0.59610000  1.0 0.3447902795
C  C280  1  0.23460000  0.79360000  0.27600000  1.0 0.1083033301
C  C281  1  0.19870000  0.83010000  0.34640000  1.0 -0.0121741212
C  C282  1  0.20380000  0.87040000  0.37670000  1.0 0.0060054227
C  C283  1  0.17280000  0.88050000  0.41420000  1.0 -0.0165956632
C  C284  1  0.13450000  0.84930000  0.42390000  1.0 -0.0582258068
C  C285  1  0.12830000  0.80940000  0.39420000  1.0 0.0270961621
C  C286  1  0.15950000  0.80010000  0.35610000  1.0 0.016407908
C  C287  1  0.18070000  0.92710000  0.44450000  1.0 0.3538938851
C  C288  1  0.08470000  0.77580000  0.40390000  1.0 0.3447902795
C  C289  1  0.72400000  0.76540000  0.79360000  1.0 0.1083033301
C  C290  1  0.65360000  0.80130000  0.83010000  1.0 -0.0121741212
C  C291  1  0.62330000  0.79620000  0.87040000  1.0 0.0060054227
C  C292  1  0.58580000  0.82720000  0.88050000  1.0 -0.0165956632
C  C293  1  0.57610000  0.86550000  0.84930000  1.0 -0.0582258068
C  C294  1  0.60580000  0.87170000  0.80940000  1.0 0.0270961621
C  C295  1  0.64390000  0.84050000  0.80010000  1.0 0.016407908
C  C296  1  0.55550000  0.81930000  0.92710000  1.0 0.3538938851
C  C297  1  0.59610000  0.91530000  0.77580000  1.0 0.3447902795
C  C298  1  0.27600000  0.76540000  0.20640000  1.0 0.1083033301
C  C299  1  0.34640000  0.80130000  0.16990000  1.0 -0.0121741212
C  C300  1  0.37670000  0.79620000  0.12960000  1.0 0.0060054227
C  C301  1  0.41420000  0.82720000  0.11950000  1.0 -0.0165956632
C  C302  1  0.42390000  0.86550000  0.15070000  1.0 -0.0582258068
C  C303  1  0.39420000  0.87170000  0.19060000  1.0 0.0270961621
C  C304  1  0.35610000  0.84050000  0.19990000  1.0 0.016407908
C  C305  1  0.44450000  0.81930000  0.07290000  1.0 0.3538938851
C  C306  1  0.40390000  0.91530000  0.22420000  1.0 0.3447902795
C  C307  1  0.72400000  0.23460000  0.20640000  1.0 0.1083033301
C  C308  1  0.65360000  0.19870000  0.16990000  1.0 -0.0121741212
C  C309  1  0.62330000  0.20380000  0.12960000  1.0 0.0060054227
C  C310  1  0.58580000  0.17280000  0.11950000  1.0 -0.0165956632
C  C311  1  0.57610000  0.13450000  0.15070000  1.0 -0.0582258068
C  C312  1  0.60580000  0.12830000  0.19060000  1.0 0.0270961621
C  C313  1  0.64390000  0.15950000  0.19990000  1.0 0.016407908
C  C314  1  0.55550000  0.18070000  0.07290000  1.0 0.3558219662
C  C315  1  0.59610000  0.08470000  0.22420000  1.0 0.3447902795
C  C316  1  0.27600000  0.23460000  0.79360000  1.0 0.1083033301
C  C317  1  0.34640000  0.19870000  0.83010000  1.0 -0.0121741212
C  C318  1  0.37670000  0.20380000  0.87040000  1.0 0.0060054227
C  C319  1  0.41420000  0.17280000  0.88050000  1.0 -0.0165956632
C  C320  1  0.42390000  0.13450000  0.84930000  1.0 -0.0582258068
C  C321  1  0.39420000  0.12830000  0.80940000  1.0 0.0270961621
C  C322  1  0.35610000  0.15950000  0.80010000  1.0 0.016407908
C  C323  1  0.44450000  0.18070000  0.92710000  1.0 0.3538938851
C  C324  1  0.40390000  0.08470000  0.77580000  1.0 0.3447902795
C  C325  1  0.72400000  0.79360000  0.23460000  1.0 0.1083033301
C  C326  1  0.65360000  0.83010000  0.19870000  1.0 -0.0121741212
C  C327  1  0.62330000  0.87040000  0.20380000  1.0 0.0060054227
C  C328  1  0.58580000  0.88050000  0.17280000  1.0 -0.0165956632
C  C329  1  0.57610000  0.84930000  0.13450000  1.0 -0.0582258068
C  C330  1  0.60580000  0.80940000  0.12830000  1.0 0.0270961621
C  C331  1  0.64390000  0.80010000  0.15950000  1.0 0.016407908
C  C332  1  0.55550000  0.92710000  0.18070000  1.0 0.3538938851
C  C333  1  0.59610000  0.77580000  0.08470000  1.0 0.3447902795
C  C334  1  0.27600000  0.20640000  0.23460000  1.0 0.1083033301
C  C335  1  0.34640000  0.16990000  0.19870000  1.0 -0.0121741212
C  C336  1  0.37670000  0.12960000  0.20380000  1.0 0.0060054227
C  C337  1  0.41420000  0.11950000  0.17280000  1.0 -0.0165956632
C  C338  1  0.42390000  0.15070000  0.13450000  1.0 -0.0582258068
C  C339  1  0.39420000  0.19060000  0.12830000  1.0 0.0270961621
C  C340  1  0.35610000  0.19990000  0.15950000  1.0 0.016407908
C  C341  1  0.44450000  0.07290000  0.18070000  1.0 0.3558219662
C  C342  1  0.40390000  0.22420000  0.08470000  1.0 0.3447902795
C  C343  1  0.72400000  0.20640000  0.76540000  1.0 0.1083033301
C  C344  1  0.65360000  0.16990000  0.80130000  1.0 -0.0121741212
C  C345  1  0.62330000  0.12960000  0.79620000  1.0 0.0060054227
C  C346  1  0.58580000  0.11950000  0.82720000  1.0 -0.0165956632
C  C347  1  0.57610000  0.15070000  0.86550000  1.0 -0.0582258068
C  C348  1  0.60580000  0.19060000  0.87170000  1.0 0.0270961621
C  C349  1  0.64390000  0.19990000  0.84050000  1.0 0.016407908
C  C350  1  0.55550000  0.07290000  0.81930000  1.0 0.3538938851
C  C351  1  0.59610000  0.22420000  0.91530000  1.0 0.3447902795
C  C352  1  0.27600000  0.79360000  0.76540000  1.0 0.1083033301
C  C353  1  0.34640000  0.83010000  0.80130000  1.0 -0.0121741212
C  C354  1  0.37670000  0.87040000  0.79620000  1.0 0.0060054227
C  C355  1  0.41420000  0.88050000  0.82720000  1.0 -0.0165956632
C  C356  1  0.42390000  0.84930000  0.86550000  1.0 -0.0582258068
C  C357  1  0.39420000  0.80940000  0.87170000  1.0 0.0270961621
C  C358  1  0.35610000  0.80010000  0.84050000  1.0 0.016407908
C  C359  1  0.44450000  0.92710000  0.81930000  1.0 0.3538938851
C  C360  1  0.40390000  0.77580000  0.91530000  1.0 0.3447902795
C  C361  1  0.79360000  0.76540000  0.27600000  1.0 0.1083033301
C  C362  1  0.83010000  0.80130000  0.34640000  1.0 -0.0121741212
C  C363  1  0.87040000  0.79620000  0.37670000  1.0 0.0060054227
C  C364  1  0.88050000  0.82720000  0.41420000  1.0 -0.0165956632
C  C365  1  0.84930000  0.86550000  0.42390000  1.0 -0.0582258068
C  C366  1  0.80940000  0.87170000  0.39420000  1.0 0.0270961621
C  C367  1  0.80010000  0.84050000  0.35610000  1.0 0.016407908
C  C368  1  0.92710000  0.81930000  0.44450000  1.0 0.3538938851
C  C369  1  0.77580000  0.91530000  0.40390000  1.0 0.3447902795
C  C370  1  0.20640000  0.76540000  0.72400000  1.0 0.1083033301
C  C371  1  0.16990000  0.80130000  0.65360000  1.0 -0.0121741212
C  C372  1  0.12960000  0.79620000  0.62330000  1.0 0.0060054227
C  C373  1  0.11950000  0.82720000  0.58580000  1.0 -0.0165956632
C  C374  1  0.15070000  0.86550000  0.57610000  1.0 -0.0582258068
C  C375  1  0.19060000  0.87170000  0.60580000  1.0 0.0270961621
C  C376  1  0.19990000  0.84050000  0.64390000  1.0 0.016407908
C  C377  1  0.07290000  0.81930000  0.55550000  1.0 0.3538938851
C  C378  1  0.22420000  0.91530000  0.59610000  1.0 0.3447902795
C  C379  1  0.20640000  0.23460000  0.27600000  1.0 0.1083033301
C  C380  1  0.16990000  0.19870000  0.34640000  1.0 -0.0121741212
C  C381  1  0.12960000  0.20380000  0.37670000  1.0 0.0060054227
C  C382  1  0.11950000  0.17280000  0.41420000  1.0 -0.0165956632
C  C383  1  0.15070000  0.13450000  0.42390000  1.0 -0.0582258068
C  C384  1  0.19060000  0.12830000  0.39420000  1.0 0.0270961621
C  C385  1  0.19990000  0.15950000  0.35610000  1.0 0.016407908
C  C386  1  0.07290000  0.18070000  0.44450000  1.0 0.3558219662
C  C387  1  0.22420000  0.08470000  0.40390000  1.0 0.3447902795
C  C388  1  0.79360000  0.23460000  0.72400000  1.0 0.1083033301
C  C389  1  0.83010000  0.19870000  0.65360000  1.0 -0.0121741212
C  C390  1  0.87040000  0.20380000  0.62330000  1.0 0.0060054227
C  C391  1  0.88050000  0.17280000  0.58580000  1.0 -0.0165956632
C  C392  1  0.84930000  0.13450000  0.57610000  1.0 -0.0582258068
C  C393  1  0.80940000  0.12830000  0.60580000  1.0 0.0270961621
C  C394  1  0.80010000  0.15950000  0.64390000  1.0 0.016407908
C  C395  1  0.92710000  0.18070000  0.55550000  1.0 0.3538938851
C  C396  1  0.77580000  0.08470000  0.59610000  1.0 0.3447902795
C  C397  1  0.76540000  0.72400000  0.20640000  1.0 0.1083033301
C  C398  1  0.80130000  0.65360000  0.16990000  1.0 -0.0121741212
C  C399  1  0.79620000  0.62330000  0.12960000  1.0 0.0060054227
C  C400  1  0.82720000  0.58580000  0.11950000  1.0 -0.0165956632
C  C401  1  0.86550000  0.57610000  0.15070000  1.0 -0.0582258068
C  C402  1  0.87170000  0.60580000  0.19060000  1.0 0.0270961621
C  C403  1  0.84050000  0.64390000  0.19990000  1.0 0.016407908
C  C404  1  0.81930000  0.55550000  0.07290000  1.0 0.3538938851
C  C405  1  0.91530000  0.59610000  0.22420000  1.0 0.3447902795
C  C406  1  0.76540000  0.27600000  0.79360000  1.0 0.1083033301
C  C407  1  0.80130000  0.34640000  0.83010000  1.0 -0.0121741212
C  C408  1  0.79620000  0.37670000  0.87040000  1.0 0.0060054227
C  C409  1  0.82720000  0.41420000  0.88050000  1.0 -0.0165956632
C  C410  1  0.86550000  0.42390000  0.84930000  1.0 -0.0582258068
C  C411  1  0.87170000  0.39420000  0.80940000  1.0 0.0270961621
C  C412  1  0.84050000  0.35610000  0.80010000  1.0 0.016407908
C  C413  1  0.81930000  0.44450000  0.92710000  1.0 0.3538938851
C  C414  1  0.91530000  0.40390000  0.77580000  1.0 0.3447902795
C  C415  1  0.23460000  0.72400000  0.79360000  1.0 0.1083033301
C  C416  1  0.19870000  0.65360000  0.83010000  1.0 -0.0121741212
C  C417  1  0.20380000  0.62330000  0.87040000  1.0 0.0060054227
C  C418  1  0.17280000  0.58580000  0.88050000  1.0 -0.0165956632
C  C419  1  0.13450000  0.57610000  0.84930000  1.0 -0.0582258068
C  C420  1  0.12830000  0.60580000  0.80940000  1.0 0.0270961621
C  C421  1  0.15950000  0.64390000  0.80010000  1.0 0.016407908
C  C422  1  0.18070000  0.55550000  0.92710000  1.0 0.3538938851
C  C423  1  0.08470000  0.59610000  0.77580000  1.0 0.3447902795
C  C424  1  0.23460000  0.27600000  0.20640000  1.0 0.1083033301
C  C425  1  0.19870000  0.34640000  0.16990000  1.0 -0.0121741212
C  C426  1  0.20380000  0.37670000  0.12960000  1.0 0.0060054227
C  C427  1  0.17280000  0.41420000  0.11950000  1.0 -0.0165956632
C  C428  1  0.13450000  0.42390000  0.15070000  1.0 -0.0582258068
C  C429  1  0.12830000  0.39420000  0.19060000  1.0 0.0270961621
C  C430  1  0.15950000  0.35610000  0.19990000  1.0 0.016407908
C  C431  1  0.18070000  0.44450000  0.07290000  1.0 0.3558219662
C  C432  1  0.08470000  0.40390000  0.22420000  1.0 0.3447902795
N  N1  1  0.24310000  0.27090000  0.20310000  1.0 -0.0511030619
N  N2  1  0.17570000  0.31170000  0.23140000  1.0 -0.1674973196
N  N3  1  0.75690000  0.72910000  0.20310000  1.0 -0.0511030619
N  N4  1  0.82430000  0.68830000  0.23140000  1.0 -0.1674973196
N  N5  1  0.75690000  0.27090000  0.79690000  1.0 -0.0511030619
N  N6  1  0.82430000  0.31170000  0.76860000  1.0 -0.1646290878
N  N7  1  0.24310000  0.72910000  0.79690000  1.0 -0.0511030619
N  N8  1  0.17570000  0.68830000  0.76860000  1.0 -0.1674973196
N  N9  1  0.20310000  0.24310000  0.27090000  1.0 -0.0511030619
N  N10  1  0.23140000  0.17570000  0.31170000  1.0 -0.1674973196
N  N11  1  0.20310000  0.75690000  0.72910000  1.0 -0.0511030619
N  N12  1  0.23140000  0.82430000  0.68830000  1.0 -0.1674973196
N  N13  1  0.79690000  0.75690000  0.27090000  1.0 -0.0511030619
N  N14  1  0.76860000  0.82430000  0.31170000  1.0 -0.1646290878
N  N15  1  0.79690000  0.24310000  0.72910000  1.0 -0.0511030619
N  N16  1  0.76860000  0.17570000  0.68830000  1.0 -0.1674973196
N  N17  1  0.27090000  0.20310000  0.24310000  1.0 -0.0511030619
N  N18  1  0.31170000  0.23140000  0.17570000  1.0 -0.1674973196
N  N19  1  0.72910000  0.20310000  0.75690000  1.0 -0.0511030619
N  N20  1  0.68830000  0.23140000  0.82430000  1.0 -0.1674973196
N  N21  1  0.27090000  0.79690000  0.75690000  1.0 -0.0511030619
N  N22  1  0.31170000  0.76860000  0.82430000  1.0 -0.1646290878
N  N23  1  0.72910000  0.79690000  0.24310000  1.0 -0.0511030619
N  N24  1  0.68830000  0.76860000  0.17570000  1.0 -0.1674973196
N  N25  1  0.27090000  0.24310000  0.79690000  1.0 -0.0511030619
N  N26  1  0.31170000  0.17570000  0.76860000  1.0 -0.1674973196
N  N27  1  0.72910000  0.75690000  0.79690000  1.0 -0.0511030619
N  N28  1  0.68830000  0.82430000  0.76860000  1.0 -0.1646290878
N  N29  1  0.27090000  0.75690000  0.20310000  1.0 -0.0511030619
N  N30  1  0.31170000  0.82430000  0.23140000  1.0 -0.1674973196
N  N31  1  0.72910000  0.24310000  0.20310000  1.0 -0.0511030619
N  N32  1  0.68830000  0.17570000  0.23140000  1.0 -0.1674973196
N  N33  1  0.24310000  0.20310000  0.72910000  1.0 -0.0511030619
N  N34  1  0.17570000  0.23140000  0.68830000  1.0 -0.1674973196
N  N35  1  0.75690000  0.20310000  0.27090000  1.0 -0.0511030619
N  N36  1  0.82430000  0.23140000  0.31170000  1.0 -0.1674973196
N  N37  1  0.75690000  0.79690000  0.72910000  1.0 -0.0511030619
N  N38  1  0.82430000  0.76860000  0.68830000  1.0 -0.1646290878
N  N39  1  0.24310000  0.79690000  0.27090000  1.0 -0.0511030619
N  N40  1  0.17570000  0.76860000  0.31170000  1.0 -0.1674973196
N  N41  1  0.20310000  0.27090000  0.75690000  1.0 -0.0511030619
N  N42  1  0.23140000  0.31170000  0.82430000  1.0 -0.1674973196
N  N43  1  0.20310000  0.72910000  0.24310000  1.0 -0.0511030619
N  N44  1  0.23140000  0.68830000  0.17570000  1.0 -0.1674973196
N  N45  1  0.79690000  0.27090000  0.24310000  1.0 -0.0511030619
N  N46  1  0.76860000  0.31170000  0.17570000  1.0 -0.1674973196
N  N47  1  0.79690000  0.72910000  0.75690000  1.0 -0.0511030619
N  N48  1  0.76860000  0.68830000  0.82430000  1.0 -0.1646290878
N  N49  1  0.75690000  0.72910000  0.79690000  1.0 -0.0511030619
N  N50  1  0.82430000  0.68830000  0.76860000  1.0 -0.1646290878
N  N51  1  0.24310000  0.27090000  0.79690000  1.0 -0.0511030619
N  N52  1  0.17570000  0.31170000  0.76860000  1.0 -0.1674973196
N  N53  1  0.24310000  0.72910000  0.20310000  1.0 -0.0511030619
N  N54  1  0.17570000  0.68830000  0.23140000  1.0 -0.1674973196
N  N55  1  0.75690000  0.27090000  0.20310000  1.0 -0.0511030619
N  N56  1  0.82430000  0.31170000  0.23140000  1.0 -0.1674973196
N  N57  1  0.79690000  0.75690000  0.72910000  1.0 -0.0511030619
N  N58  1  0.76860000  0.82430000  0.68830000  1.0 -0.1646290878
N  N59  1  0.79690000  0.24310000  0.27090000  1.0 -0.0511030619
N  N60  1  0.76860000  0.17570000  0.31170000  1.0 -0.1674973196
N  N61  1  0.20310000  0.24310000  0.72910000  1.0 -0.0511030619
N  N62  1  0.23140000  0.17570000  0.68830000  1.0 -0.1674973196
N  N63  1  0.20310000  0.75690000  0.27090000  1.0 -0.0511030619
N  N64  1  0.23140000  0.82430000  0.31170000  1.0 -0.1674973196
N  N65  1  0.72910000  0.79690000  0.75690000  1.0 -0.0511030619
N  N66  1  0.68830000  0.76860000  0.82430000  1.0 -0.1646290878
N  N67  1  0.27090000  0.79690000  0.24310000  1.0 -0.0511030619
N  N68  1  0.31170000  0.76860000  0.17570000  1.0 -0.1674973196
N  N69  1  0.72910000  0.20310000  0.24310000  1.0 -0.0511030619
N  N70  1  0.68830000  0.23140000  0.17570000  1.0 -0.1674973196
N  N71  1  0.27090000  0.20310000  0.75690000  1.0 -0.0511030619
N  N72  1  0.31170000  0.23140000  0.82430000  1.0 -0.1674973196
N  N73  1  0.72910000  0.75690000  0.20310000  1.0 -0.0511030619
N  N74  1  0.68830000  0.82430000  0.23140000  1.0 -0.1674973196
N  N75  1  0.27090000  0.24310000  0.20310000  1.0 -0.0511030619
N  N76  1  0.31170000  0.17570000  0.23140000  1.0 -0.1674973196
N  N77  1  0.72910000  0.24310000  0.79690000  1.0 -0.0511030619
N  N78  1  0.68830000  0.17570000  0.76860000  1.0 -0.1674973196
N  N79  1  0.27090000  0.75690000  0.79690000  1.0 -0.0511030619
N  N80  1  0.31170000  0.82430000  0.76860000  1.0 -0.1646290878
N  N81  1  0.75690000  0.79690000  0.27090000  1.0 -0.0511030619
N  N82  1  0.82430000  0.76860000  0.31170000  1.0 -0.1646290878
N  N83  1  0.24310000  0.79690000  0.72910000  1.0 -0.0511030619
N  N84  1  0.17570000  0.76860000  0.68830000  1.0 -0.1674973196
N  N85  1  0.24310000  0.20310000  0.27090000  1.0 -0.0511030619
N  N86  1  0.17570000  0.23140000  0.31170000  1.0 -0.1674973196
N  N87  1  0.75690000  0.20310000  0.72910000  1.0 -0.0511030619
N  N88  1  0.82430000  0.23140000  0.68830000  1.0 -0.1674973196
N  N89  1  0.79690000  0.72910000  0.24310000  1.0 -0.0511030619
N  N90  1  0.76860000  0.68830000  0.17570000  1.0 -0.1674973196
N  N91  1  0.79690000  0.27090000  0.75690000  1.0 -0.0511030619
N  N92  1  0.76860000  0.31170000  0.82430000  1.0 -0.1646290878
N  N93  1  0.20310000  0.72910000  0.75690000  1.0 -0.0511030619
N  N94  1  0.23140000  0.68830000  0.82430000  1.0 -0.1674973196
N  N95  1  0.20310000  0.27090000  0.24310000  1.0 -0.0511030619
N  N96  1  0.23140000  0.31170000  0.17570000  1.0 -0.1674973196
O  O1  1  0.05170000  0.43980000  0.21950000  1.0 -0.3895649826
O  O2  1  0.06030000  0.47140000  0.14740000  1.0 -0.326551624
O  O3  1  0.21840000  0.44290000  0.06370000  1.0 -0.3165923665
O  O4  1  0.26070000  0.37760000  0.08040000  1.0 -0.3400184646
O  O5  1  0.94830000  0.56020000  0.21950000  1.0 -0.3895649826
O  O6  1  0.93970000  0.52860000  0.14740000  1.0 -0.326551624
O  O7  1  0.78160000  0.55710000  0.06370000  1.0 -0.3165923665
O  O8  1  0.73930000  0.62240000  0.08040000  1.0 -0.3400184646
O  O9  1  0.94830000  0.43980000  0.78050000  1.0 -0.3895649826
O  O10  1  0.93970000  0.47140000  0.85260000  1.0 -0.326551624
O  O11  1  0.78160000  0.44290000  0.93630000  1.0 -0.3165923665
O  O12  1  0.73930000  0.37760000  0.91960000  1.0 -0.3400184646
O  O13  1  0.05170000  0.56020000  0.78050000  1.0 -0.3895649826
O  O14  1  0.06030000  0.52860000  0.85260000  1.0 -0.326551624
O  O15  1  0.21840000  0.55710000  0.93630000  1.0 -0.3165923665
O  O16  1  0.26070000  0.62240000  0.91960000  1.0 -0.3400184646
O  O17  1  0.21950000  0.05170000  0.43980000  1.0 -0.3895649826
O  O18  1  0.14740000  0.06030000  0.47140000  1.0 -0.326551624
O  O19  1  0.06370000  0.21840000  0.44290000  1.0 -0.3165923665
O  O20  1  0.08040000  0.26070000  0.37760000  1.0 -0.3400184646
O  O21  1  0.21950000  0.94830000  0.56020000  1.0 -0.3895649826
O  O22  1  0.14740000  0.93970000  0.52860000  1.0 -0.326551624
O  O23  1  0.06370000  0.78160000  0.55710000  1.0 -0.3165923665
O  O24  1  0.08040000  0.73930000  0.62240000  1.0 -0.3400184646
O  O25  1  0.78050000  0.94830000  0.43980000  1.0 -0.3895649826
O  O26  1  0.85260000  0.93970000  0.47140000  1.0 -0.326551624
O  O27  1  0.93630000  0.78160000  0.44290000  1.0 -0.3165923665
O  O28  1  0.91960000  0.73930000  0.37760000  1.0 -0.3400184646
O  O29  1  0.78050000  0.05170000  0.56020000  1.0 -0.3895649826
O  O30  1  0.85260000  0.06030000  0.52860000  1.0 -0.326551624
O  O31  1  0.93630000  0.21840000  0.55710000  1.0 -0.3165923665
O  O32  1  0.91960000  0.26070000  0.62240000  1.0 -0.3400184646
O  O33  1  0.43980000  0.21950000  0.05170000  1.0 -0.3895649826
O  O34  1  0.47140000  0.14740000  0.06030000  1.0 -0.326551624
O  O35  1  0.44290000  0.06370000  0.21840000  1.0 -0.3165923665
O  O36  1  0.37760000  0.08040000  0.26070000  1.0 -0.3400184646
O  O37  1  0.56020000  0.21950000  0.94830000  1.0 -0.3895649826
O  O38  1  0.52860000  0.14740000  0.93970000  1.0 -0.326551624
O  O39  1  0.55710000  0.06370000  0.78160000  1.0 -0.3165923665
O  O40  1  0.62240000  0.08040000  0.73930000  1.0 -0.3400184646
O  O41  1  0.43980000  0.78050000  0.94830000  1.0 -0.3895649826
O  O42  1  0.47140000  0.85260000  0.93970000  1.0 -0.326551624
O  O43  1  0.44290000  0.93630000  0.78160000  1.0 -0.3165923665
O  O44  1  0.37760000  0.91960000  0.73930000  1.0 -0.3400184646
O  O45  1  0.56020000  0.78050000  0.05170000  1.0 -0.3895649826
O  O46  1  0.52860000  0.85260000  0.06030000  1.0 -0.326551624
O  O47  1  0.55710000  0.93630000  0.21840000  1.0 -0.3165923665
O  O48  1  0.62240000  0.91960000  0.26070000  1.0 -0.3400184646
O  O49  1  0.43980000  0.05170000  0.78050000  1.0 -0.3895649826
O  O50  1  0.47140000  0.06030000  0.85260000  1.0 -0.326551624
O  O51  1  0.44290000  0.21840000  0.93630000  1.0 -0.3165923665
O  O52  1  0.37760000  0.26070000  0.91960000  1.0 -0.3400184646
O  O53  1  0.56020000  0.94830000  0.78050000  1.0 -0.3895649826
O  O54  1  0.52860000  0.93970000  0.85260000  1.0 -0.326551624
O  O55  1  0.55710000  0.78160000  0.93630000  1.0 -0.3165923665
O  O56  1  0.62240000  0.73930000  0.91960000  1.0 -0.3400184646
O  O57  1  0.43980000  0.94830000  0.21950000  1.0 -0.3895649826
O  O58  1  0.47140000  0.93970000  0.14740000  1.0 -0.326551624
O  O59  1  0.44290000  0.78160000  0.06370000  1.0 -0.3165923665
O  O60  1  0.37760000  0.73930000  0.08040000  1.0 -0.3400184646
O  O61  1  0.56020000  0.05170000  0.21950000  1.0 -0.3895649826
O  O62  1  0.52860000  0.06030000  0.14740000  1.0 -0.326551624
O  O63  1  0.55710000  0.21840000  0.06370000  1.0 -0.3165923665
O  O64  1  0.62240000  0.26070000  0.08040000  1.0 -0.3400184646
O  O65  1  0.05170000  0.21950000  0.56020000  1.0 -0.3895649826
O  O66  1  0.06030000  0.14740000  0.52860000  1.0 -0.326551624
O  O67  1  0.21840000  0.06370000  0.55710000  1.0 -0.3165923665
O  O68  1  0.26070000  0.08040000  0.62240000  1.0 -0.3400184646
O  O69  1  0.94830000  0.21950000  0.43980000  1.0 -0.3895649826
O  O70  1  0.93970000  0.14740000  0.47140000  1.0 -0.326551624
O  O71  1  0.78160000  0.06370000  0.44290000  1.0 -0.3165923665
O  O72  1  0.73930000  0.08040000  0.37760000  1.0 -0.3400184646
O  O73  1  0.94830000  0.78050000  0.56020000  1.0 -0.3895649826
O  O74  1  0.93970000  0.85260000  0.52860000  1.0 -0.326551624
O  O75  1  0.78160000  0.93630000  0.55710000  1.0 -0.3165923665
O  O76  1  0.73930000  0.91960000  0.62240000  1.0 -0.3400184646
O  O77  1  0.05170000  0.78050000  0.43980000  1.0 -0.3895649826
O  O78  1  0.06030000  0.85260000  0.47140000  1.0 -0.326551624
O  O79  1  0.21840000  0.93630000  0.44290000  1.0 -0.3165923665
O  O80  1  0.26070000  0.91960000  0.37760000  1.0 -0.3400184646
O  O81  1  0.21950000  0.43980000  0.94830000  1.0 -0.3895649826
O  O82  1  0.14740000  0.47140000  0.93970000  1.0 -0.326551624
O  O83  1  0.06370000  0.44290000  0.78160000  1.0 -0.3165923665
O  O84  1  0.08040000  0.37760000  0.73930000  1.0 -0.3400184646
O  O85  1  0.21950000  0.56020000  0.05170000  1.0 -0.3895649826
O  O86  1  0.14740000  0.52860000  0.06030000  1.0 -0.326551624
O  O87  1  0.06370000  0.55710000  0.21840000  1.0 -0.3165923665
O  O88  1  0.08040000  0.62240000  0.26070000  1.0 -0.3400184646
O  O89  1  0.78050000  0.43980000  0.05170000  1.0 -0.3895649826
O  O90  1  0.85260000  0.47140000  0.06030000  1.0 -0.326551624
O  O91  1  0.93630000  0.44290000  0.21840000  1.0 -0.3165923665
O  O92  1  0.91960000  0.37760000  0.26070000  1.0 -0.3400184646
O  O93  1  0.78050000  0.56020000  0.94830000  1.0 -0.3895649826
O  O94  1  0.85260000  0.52860000  0.93970000  1.0 -0.326551624
O  O95  1  0.93630000  0.55710000  0.78160000  1.0 -0.3165923665
O  O96  1  0.91960000  0.62240000  0.73930000  1.0 -0.3400184646
O  O97  1  0.94830000  0.56020000  0.78050000  1.0 -0.3895649826
O  O98  1  0.93970000  0.52860000  0.85260000  1.0 -0.326551624
O  O99  1  0.78160000  0.55710000  0.93630000  1.0 -0.3165923665
O  O100  1  0.73930000  0.62240000  0.91960000  1.0 -0.3400184646
O  O101  1  0.05170000  0.43980000  0.78050000  1.0 -0.3895649826
O  O102  1  0.06030000  0.47140000  0.85260000  1.0 -0.326551624
O  O103  1  0.21840000  0.44290000  0.93630000  1.0 -0.3165923665
O  O104  1  0.26070000  0.37760000  0.91960000  1.0 -0.3400184646
O  O105  1  0.05170000  0.56020000  0.21950000  1.0 -0.3895649826
O  O106  1  0.06030000  0.52860000  0.14740000  1.0 -0.326551624
O  O107  1  0.21840000  0.55710000  0.06370000  1.0 -0.3165923665
O  O108  1  0.26070000  0.62240000  0.08040000  1.0 -0.3400184646
O  O109  1  0.94830000  0.43980000  0.21950000  1.0 -0.3895649826
O  O110  1  0.93970000  0.47140000  0.14740000  1.0 -0.326551624
O  O111  1  0.78160000  0.44290000  0.06370000  1.0 -0.3165923665
O  O112  1  0.73930000  0.37760000  0.08040000  1.0 -0.3400184646
O  O113  1  0.78050000  0.94830000  0.56020000  1.0 -0.3895649826
O  O114  1  0.85260000  0.93970000  0.52860000  1.0 -0.326551624
O  O115  1  0.93630000  0.78160000  0.55710000  1.0 -0.3165923665
O  O116  1  0.91960000  0.73930000  0.62240000  1.0 -0.3400184646
O  O117  1  0.78050000  0.05170000  0.43980000  1.0 -0.3895649826
O  O118  1  0.85260000  0.06030000  0.47140000  1.0 -0.326551624
O  O119  1  0.93630000  0.21840000  0.44290000  1.0 -0.3165923665
O  O120  1  0.91960000  0.26070000  0.37760000  1.0 -0.3400184646
O  O121  1  0.21950000  0.05170000  0.56020000  1.0 -0.3895649826
O  O122  1  0.14740000  0.06030000  0.52860000  1.0 -0.326551624
O  O123  1  0.06370000  0.21840000  0.55710000  1.0 -0.3165923665
O  O124  1  0.08040000  0.26070000  0.62240000  1.0 -0.3400184646
O  O125  1  0.21950000  0.94830000  0.43980000  1.0 -0.3895649826
O  O126  1  0.14740000  0.93970000  0.47140000  1.0 -0.326551624
O  O127  1  0.06370000  0.78160000  0.44290000  1.0 -0.3165923665
O  O128  1  0.08040000  0.73930000  0.37760000  1.0 -0.3400184646
O  O129  1  0.56020000  0.78050000  0.94830000  1.0 -0.3895649826
O  O130  1  0.52860000  0.85260000  0.93970000  1.0 -0.326551624
O  O131  1  0.55710000  0.93630000  0.78160000  1.0 -0.3165923665
O  O132  1  0.62240000  0.91960000  0.73930000  1.0 -0.3400184646
O  O133  1  0.43980000  0.78050000  0.05170000  1.0 -0.3895649826
O  O134  1  0.47140000  0.85260000  0.06030000  1.0 -0.326551624
O  O135  1  0.44290000  0.93630000  0.21840000  1.0 -0.3165923665
O  O136  1  0.37760000  0.91960000  0.26070000  1.0 -0.3400184646
O  O137  1  0.56020000  0.21950000  0.05170000  1.0 -0.3895649826
O  O138  1  0.52860000  0.14740000  0.06030000  1.0 -0.326551624
O  O139  1  0.55710000  0.06370000  0.21840000  1.0 -0.3165923665
O  O140  1  0.62240000  0.08040000  0.26070000  1.0 -0.3400184646
O  O141  1  0.43980000  0.21950000  0.94830000  1.0 -0.3895649826
O  O142  1  0.47140000  0.14740000  0.93970000  1.0 -0.326551624
O  O143  1  0.44290000  0.06370000  0.78160000  1.0 -0.3165923665
O  O144  1  0.37760000  0.08040000  0.73930000  1.0 -0.3400184646
O  O145  1  0.56020000  0.94830000  0.21950000  1.0 -0.3895649826
O  O146  1  0.52860000  0.93970000  0.14740000  1.0 -0.326551624
O  O147  1  0.55710000  0.78160000  0.06370000  1.0 -0.3165923665
O  O148  1  0.62240000  0.73930000  0.08040000  1.0 -0.3400184646
O  O149  1  0.43980000  0.05170000  0.21950000  1.0 -0.3895649826
O  O150  1  0.47140000  0.06030000  0.14740000  1.0 -0.326551624
O  O151  1  0.44290000  0.21840000  0.06370000  1.0 -0.3165923665
O  O152  1  0.37760000  0.26070000  0.08040000  1.0 -0.3400184646
O  O153  1  0.56020000  0.05170000  0.78050000  1.0 -0.3895649826
O  O154  1  0.52860000  0.06030000  0.85260000  1.0 -0.326551624
O  O155  1  0.55710000  0.21840000  0.93630000  1.0 -0.3165923665
O  O156  1  0.62240000  0.26070000  0.91960000  1.0 -0.3400184646
O  O157  1  0.43980000  0.94830000  0.78050000  1.0 -0.3895649826
O  O158  1  0.47140000  0.93970000  0.85260000  1.0 -0.326551624
O  O159  1  0.44290000  0.78160000  0.93630000  1.0 -0.3165923665
O  O160  1  0.37760000  0.73930000  0.91960000  1.0 -0.3400184646
O  O161  1  0.94830000  0.78050000  0.43980000  1.0 -0.3895649826
O  O162  1  0.93970000  0.85260000  0.47140000  1.0 -0.326551624
O  O163  1  0.78160000  0.93630000  0.44290000  1.0 -0.3165923665
O  O164  1  0.73930000  0.91960000  0.37760000  1.0 -0.3400184646
O  O165  1  0.05170000  0.78050000  0.56020000  1.0 -0.3895649826
O  O166  1  0.06030000  0.85260000  0.52860000  1.0 -0.326551624
O  O167  1  0.21840000  0.93630000  0.55710000  1.0 -0.3165923665
O  O168  1  0.26070000  0.91960000  0.62240000  1.0 -0.3400184646
O  O169  1  0.05170000  0.21950000  0.43980000  1.0 -0.3895649826
O  O170  1  0.06030000  0.14740000  0.47140000  1.0 -0.326551624
O  O171  1  0.21840000  0.06370000  0.44290000  1.0 -0.3165923665
O  O172  1  0.26070000  0.08040000  0.37760000  1.0 -0.3400184646
O  O173  1  0.94830000  0.21950000  0.56020000  1.0 -0.3895649826
O  O174  1  0.93970000  0.14740000  0.52860000  1.0 -0.326551624
O  O175  1  0.78160000  0.06370000  0.55710000  1.0 -0.3165923665
O  O176  1  0.73930000  0.08040000  0.62240000  1.0 -0.3400184646
O  O177  1  0.78050000  0.56020000  0.05170000  1.0 -0.3895649826
O  O178  1  0.85260000  0.52860000  0.06030000  1.0 -0.326551624
O  O179  1  0.93630000  0.55710000  0.21840000  1.0 -0.3165923665
O  O180  1  0.91960000  0.62240000  0.26070000  1.0 -0.3400184646
O  O181  1  0.78050000  0.43980000  0.94830000  1.0 -0.3895649826
O  O182  1  0.85260000  0.47140000  0.93970000  1.0 -0.326551624
O  O183  1  0.93630000  0.44290000  0.78160000  1.0 -0.3165923665
O  O184  1  0.91960000  0.37760000  0.73930000  1.0 -0.3400184646
O  O185  1  0.21950000  0.56020000  0.94830000  1.0 -0.3895649826
O  O186  1  0.14740000  0.52860000  0.93970000  1.0 -0.326551624
O  O187  1  0.06370000  0.55710000  0.78160000  1.0 -0.3165923665
O  O188  1  0.08040000  0.62240000  0.73930000  1.0 -0.3400184646
O  O189  1  0.21950000  0.43980000  0.05170000  1.0 -0.3895649826
O  O190  1  0.14740000  0.47140000  0.06030000  1.0 -0.326551624
O  O191  1  0.06370000  0.44290000  0.21840000  1.0 -0.3165923665
O  O192  1  0.08040000  0.37760000  0.26070000  1.0 -0.3400184646
