# DDEC6 charges by PACMAN v1.1 (https://github.com/mtap-research/PACMAN-charge/)
data_OGAYON_ASR_pacman
_symmetry_space_group_name_H-M   'P 1'
_cell_length_a   27.62800000
_cell_length_b   27.62800000
_cell_length_c   27.62800000
_cell_angle_alpha   90.00000000
_cell_angle_beta   90.00000000
_cell_angle_gamma   90.00000000
_symmetry_Int_Tables_number   1
_chemical_formula_structural   DyH16C36(NO2)8
_chemical_formula_sum   'Dy12 H192 C432 N96 O192'
_cell_volume   21088.62877715
_cell_formula_units_Z   12
loop_
 _symmetry_equiv_pos_site_id
 _symmetry_equiv_pos_as_xyz
  1  'x, y, z'
loop_
 _atom_site_type_symbol
 _atom_site_label
 _atom_site_symmetry_multiplicity
 _atom_site_fract_x
 _atom_site_fract_y
 _atom_site_fract_z
 _atom_site_occupancy
 _atom_site_charge
Dy  Dy1  1  0.00000000  0.50000000  0.20053000  1.0 1.464210957
Dy  Dy2  1  0.00000000  0.50000000  0.79947000  1.0 1.464210957
Dy  Dy3  1  0.20053000  0.00000000  0.50000000  1.0 1.464210957
Dy  Dy4  1  0.79947000  0.00000000  0.50000000  1.0 1.464210957
Dy  Dy5  1  0.50000000  0.20053000  0.00000000  1.0 1.464210957
Dy  Dy6  1  0.50000000  0.79947000  0.00000000  1.0 1.4654266652
Dy  Dy7  1  0.50000000  0.00000000  0.79947000  1.0 1.464210957
Dy  Dy8  1  0.50000000  0.00000000  0.20053000  1.0 1.464210957
Dy  Dy9  1  0.00000000  0.20053000  0.50000000  1.0 1.464210957
Dy  Dy10  1  0.00000000  0.79947000  0.50000000  1.0 1.464210957
Dy  Dy11  1  0.20053000  0.50000000  0.00000000  1.0 1.464210957
Dy  Dy12  1  0.79947000  0.50000000  0.00000000  1.0 1.4654266652
H  H1  1  0.10940000  0.37160000  0.23120000  1.0 0.1091032898
H  H2  1  0.14510000  0.44980000  0.11440000  1.0 0.096091805
H  H3  1  0.22540000  0.33500000  0.15300000  1.0 0.1231534135
H  H4  1  0.15320000  0.30960000  0.25270000  1.0 0.1231534135
H  H5  1  0.89060000  0.62840000  0.23120000  1.0 0.1091032898
H  H6  1  0.85490000  0.55020000  0.11440000  1.0 0.096091805
H  H7  1  0.77460000  0.66500000  0.15300000  1.0 0.1231534135
H  H8  1  0.84680000  0.69040000  0.25270000  1.0 0.1231534135
H  H9  1  0.89060000  0.37160000  0.76880000  1.0 0.1091032898
H  H10  1  0.85490000  0.44980000  0.88560000  1.0 0.096091805
H  H11  1  0.77460000  0.33500000  0.84700000  1.0 0.1231534135
H  H12  1  0.84680000  0.30960000  0.74730000  1.0 0.1231534135
H  H13  1  0.10940000  0.62840000  0.76880000  1.0 0.1091032898
H  H14  1  0.14510000  0.55020000  0.88560000  1.0 0.096091805
H  H15  1  0.22540000  0.66500000  0.84700000  1.0 0.1231534135
H  H16  1  0.15320000  0.69040000  0.74730000  1.0 0.1231534135
H  H17  1  0.23120000  0.10940000  0.37160000  1.0 0.1091032898
H  H18  1  0.11440000  0.14510000  0.44980000  1.0 0.096091805
H  H19  1  0.15300000  0.22540000  0.33500000  1.0 0.1231534135
H  H20  1  0.25270000  0.15320000  0.30960000  1.0 0.1231534135
H  H21  1  0.23120000  0.89060000  0.62840000  1.0 0.1091032898
H  H22  1  0.11440000  0.85490000  0.55020000  1.0 0.096091805
H  H23  1  0.15300000  0.77460000  0.66500000  1.0 0.1231534135
H  H24  1  0.25270000  0.84680000  0.69040000  1.0 0.1231534135
H  H25  1  0.76880000  0.89060000  0.37160000  1.0 0.1091032898
H  H26  1  0.88560000  0.85490000  0.44980000  1.0 0.096091805
H  H27  1  0.84700000  0.77460000  0.33500000  1.0 0.1231534135
H  H28  1  0.74730000  0.84680000  0.30960000  1.0 0.1231534135
H  H29  1  0.76880000  0.10940000  0.62840000  1.0 0.1091032898
H  H30  1  0.88560000  0.14510000  0.55020000  1.0 0.096091805
H  H31  1  0.84700000  0.22540000  0.66500000  1.0 0.1231534135
H  H32  1  0.74730000  0.15320000  0.69040000  1.0 0.1231534135
H  H33  1  0.37160000  0.23120000  0.10940000  1.0 0.1091032898
H  H34  1  0.44980000  0.11440000  0.14510000  1.0 0.096091805
H  H35  1  0.33500000  0.15300000  0.22540000  1.0 0.1231534135
H  H36  1  0.30960000  0.25270000  0.15320000  1.0 0.1231534135
H  H37  1  0.62840000  0.23120000  0.89060000  1.0 0.1091032898
H  H38  1  0.55020000  0.11440000  0.85490000  1.0 0.096091805
H  H39  1  0.66500000  0.15300000  0.77460000  1.0 0.1231534135
H  H40  1  0.69040000  0.25270000  0.84680000  1.0 0.1231534135
H  H41  1  0.37160000  0.76880000  0.89060000  1.0 0.1091032898
H  H42  1  0.44980000  0.88560000  0.85490000  1.0 0.096091805
H  H43  1  0.33500000  0.84700000  0.77460000  1.0 0.1231534135
H  H44  1  0.30960000  0.74730000  0.84680000  1.0 0.1231534135
H  H45  1  0.62840000  0.76880000  0.10940000  1.0 0.1091032898
H  H46  1  0.55020000  0.88560000  0.14510000  1.0 0.096091805
H  H47  1  0.66500000  0.84700000  0.22540000  1.0 0.1231534135
H  H48  1  0.69040000  0.74730000  0.15320000  1.0 0.1231534135
H  H49  1  0.37160000  0.10940000  0.76880000  1.0 0.1091032898
H  H50  1  0.44980000  0.14510000  0.88560000  1.0 0.096091805
H  H51  1  0.33500000  0.22540000  0.84700000  1.0 0.1231534135
H  H52  1  0.30960000  0.15320000  0.74730000  1.0 0.1231534135
H  H53  1  0.62840000  0.89060000  0.76880000  1.0 0.1091032898
H  H54  1  0.55020000  0.85490000  0.88560000  1.0 0.096091805
H  H55  1  0.66500000  0.77460000  0.84700000  1.0 0.1231534135
H  H56  1  0.69040000  0.84680000  0.74730000  1.0 0.1231534135
H  H57  1  0.37160000  0.89060000  0.23120000  1.0 0.1091032898
H  H58  1  0.44980000  0.85490000  0.11440000  1.0 0.096091805
H  H59  1  0.33500000  0.77460000  0.15300000  1.0 0.1231534135
H  H60  1  0.30960000  0.84680000  0.25270000  1.0 0.1231534135
H  H61  1  0.62840000  0.10940000  0.23120000  1.0 0.1091032898
H  H62  1  0.55020000  0.14510000  0.11440000  1.0 0.096091805
H  H63  1  0.66500000  0.22540000  0.15300000  1.0 0.1231534135
H  H64  1  0.69040000  0.15320000  0.25270000  1.0 0.1231534135
H  H65  1  0.10940000  0.23120000  0.62840000  1.0 0.1091032898
H  H66  1  0.14510000  0.11440000  0.55020000  1.0 0.096091805
H  H67  1  0.22540000  0.15300000  0.66500000  1.0 0.1231534135
H  H68  1  0.15320000  0.25270000  0.69040000  1.0 0.1231534135
H  H69  1  0.89060000  0.23120000  0.37160000  1.0 0.1091032898
H  H70  1  0.85490000  0.11440000  0.44980000  1.0 0.096091805
H  H71  1  0.77460000  0.15300000  0.33500000  1.0 0.1231534135
H  H72  1  0.84680000  0.25270000  0.30960000  1.0 0.1231534135
H  H73  1  0.89060000  0.76880000  0.62840000  1.0 0.1091032898
H  H74  1  0.85490000  0.88560000  0.55020000  1.0 0.096091805
H  H75  1  0.77460000  0.84700000  0.66500000  1.0 0.1231534135
H  H76  1  0.84680000  0.74730000  0.69040000  1.0 0.1231534135
H  H77  1  0.10940000  0.76880000  0.37160000  1.0 0.1091032898
H  H78  1  0.14510000  0.88560000  0.44980000  1.0 0.096091805
H  H79  1  0.22540000  0.84700000  0.33500000  1.0 0.1231534135
H  H80  1  0.15320000  0.74730000  0.30960000  1.0 0.1231534135
H  H81  1  0.23120000  0.37160000  0.89060000  1.0 0.1091032898
H  H82  1  0.11440000  0.44980000  0.85490000  1.0 0.096091805
H  H83  1  0.15300000  0.33500000  0.77460000  1.0 0.1231534135
H  H84  1  0.25270000  0.30960000  0.84680000  1.0 0.1231534135
H  H85  1  0.23120000  0.62840000  0.10940000  1.0 0.1091032898
H  H86  1  0.11440000  0.55020000  0.14510000  1.0 0.096091805
H  H87  1  0.15300000  0.66500000  0.22540000  1.0 0.1231534135
H  H88  1  0.25270000  0.69040000  0.15320000  1.0 0.1231534135
H  H89  1  0.76880000  0.37160000  0.10940000  1.0 0.1091032898
H  H90  1  0.88560000  0.44980000  0.14510000  1.0 0.096091805
H  H91  1  0.84700000  0.33500000  0.22540000  1.0 0.1231534135
H  H92  1  0.74730000  0.30960000  0.15320000  1.0 0.1231534135
H  H93  1  0.76880000  0.62840000  0.89060000  1.0 0.1091032898
H  H94  1  0.88560000  0.55020000  0.85490000  1.0 0.096091805
H  H95  1  0.84700000  0.66500000  0.77460000  1.0 0.1231534135
H  H96  1  0.74730000  0.69040000  0.84680000  1.0 0.1231534135
H  H97  1  0.89060000  0.62840000  0.76880000  1.0 0.1091032898
H  H98  1  0.85490000  0.55020000  0.88560000  1.0 0.096091805
H  H99  1  0.77460000  0.66500000  0.84700000  1.0 0.1231534135
H  H100  1  0.84680000  0.69040000  0.74730000  1.0 0.1231534135
H  H101  1  0.10940000  0.37160000  0.76880000  1.0 0.1091032898
H  H102  1  0.14510000  0.44980000  0.88560000  1.0 0.096091805
H  H103  1  0.22540000  0.33500000  0.84700000  1.0 0.1231534135
H  H104  1  0.15320000  0.30960000  0.74730000  1.0 0.1231534135
H  H105  1  0.10940000  0.62840000  0.23120000  1.0 0.1091032898
H  H106  1  0.14510000  0.55020000  0.11440000  1.0 0.096091805
H  H107  1  0.22540000  0.66500000  0.15300000  1.0 0.1231534135
H  H108  1  0.15320000  0.69040000  0.25270000  1.0 0.1231534135
H  H109  1  0.89060000  0.37160000  0.23120000  1.0 0.1091032898
H  H110  1  0.85490000  0.44980000  0.11440000  1.0 0.096091805
H  H111  1  0.77460000  0.33500000  0.15300000  1.0 0.1231534135
H  H112  1  0.84680000  0.30960000  0.25270000  1.0 0.1231534135
H  H113  1  0.76880000  0.89060000  0.62840000  1.0 0.1091032898
H  H114  1  0.88560000  0.85490000  0.55020000  1.0 0.096091805
H  H115  1  0.84700000  0.77460000  0.66500000  1.0 0.1231534135
H  H116  1  0.74730000  0.84680000  0.69040000  1.0 0.1231534135
H  H117  1  0.76880000  0.10940000  0.37160000  1.0 0.1091032898
H  H118  1  0.88560000  0.14510000  0.44980000  1.0 0.096091805
H  H119  1  0.84700000  0.22540000  0.33500000  1.0 0.1231534135
H  H120  1  0.74730000  0.15320000  0.30960000  1.0 0.1231534135
H  H121  1  0.23120000  0.10940000  0.62840000  1.0 0.1091032898
H  H122  1  0.11440000  0.14510000  0.55020000  1.0 0.096091805
H  H123  1  0.15300000  0.22540000  0.66500000  1.0 0.1231534135
H  H124  1  0.25270000  0.15320000  0.69040000  1.0 0.1231534135
H  H125  1  0.23120000  0.89060000  0.37160000  1.0 0.1091032898
H  H126  1  0.11440000  0.85490000  0.44980000  1.0 0.096091805
H  H127  1  0.15300000  0.77460000  0.33500000  1.0 0.1231534135
H  H128  1  0.25270000  0.84680000  0.30960000  1.0 0.1231534135
H  H129  1  0.62840000  0.76880000  0.89060000  1.0 0.1091032898
H  H130  1  0.55020000  0.88560000  0.85490000  1.0 0.096091805
H  H131  1  0.66500000  0.84700000  0.77460000  1.0 0.1231534135
H  H132  1  0.69040000  0.74730000  0.84680000  1.0 0.1231534135
H  H133  1  0.37160000  0.76880000  0.10940000  1.0 0.1091032898
H  H134  1  0.44980000  0.88560000  0.14510000  1.0 0.096091805
H  H135  1  0.33500000  0.84700000  0.22540000  1.0 0.1231534135
H  H136  1  0.30960000  0.74730000  0.15320000  1.0 0.1231534135
H  H137  1  0.62840000  0.23120000  0.10940000  1.0 0.1091032898
H  H138  1  0.55020000  0.11440000  0.14510000  1.0 0.096091805
H  H139  1  0.66500000  0.15300000  0.22540000  1.0 0.1231534135
H  H140  1  0.69040000  0.25270000  0.15320000  1.0 0.1231534135
H  H141  1  0.37160000  0.23120000  0.89060000  1.0 0.1091032898
H  H142  1  0.44980000  0.11440000  0.85490000  1.0 0.096091805
H  H143  1  0.33500000  0.15300000  0.77460000  1.0 0.1231534135
H  H144  1  0.30960000  0.25270000  0.84680000  1.0 0.1231534135
H  H145  1  0.62840000  0.89060000  0.23120000  1.0 0.1091032898
H  H146  1  0.55020000  0.85490000  0.11440000  1.0 0.096091805
H  H147  1  0.66500000  0.77460000  0.15300000  1.0 0.1231534135
H  H148  1  0.69040000  0.84680000  0.25270000  1.0 0.1231534135
H  H149  1  0.37160000  0.10940000  0.23120000  1.0 0.1091032898
H  H150  1  0.44980000  0.14510000  0.11440000  1.0 0.096091805
H  H151  1  0.33500000  0.22540000  0.15300000  1.0 0.1231534135
H  H152  1  0.30960000  0.15320000  0.25270000  1.0 0.1231534135
H  H153  1  0.62840000  0.10940000  0.76880000  1.0 0.1091032898
H  H154  1  0.55020000  0.14510000  0.88560000  1.0 0.096091805
H  H155  1  0.66500000  0.22540000  0.84700000  1.0 0.1231534135
H  H156  1  0.69040000  0.15320000  0.74730000  1.0 0.1231534135
H  H157  1  0.37160000  0.89060000  0.76880000  1.0 0.1091032898
H  H158  1  0.44980000  0.85490000  0.88560000  1.0 0.096091805
H  H159  1  0.33500000  0.77460000  0.84700000  1.0 0.1231534135
H  H160  1  0.30960000  0.84680000  0.74730000  1.0 0.1231534135
H  H161  1  0.89060000  0.76880000  0.37160000  1.0 0.1091032898
H  H162  1  0.85490000  0.88560000  0.44980000  1.0 0.096091805
H  H163  1  0.77460000  0.84700000  0.33500000  1.0 0.1231534135
H  H164  1  0.84680000  0.74730000  0.30960000  1.0 0.1231534135
H  H165  1  0.10940000  0.76880000  0.62840000  1.0 0.1091032898
H  H166  1  0.14510000  0.88560000  0.55020000  1.0 0.096091805
H  H167  1  0.22540000  0.84700000  0.66500000  1.0 0.1231534135
H  H168  1  0.15320000  0.74730000  0.69040000  1.0 0.1231534135
H  H169  1  0.10940000  0.23120000  0.37160000  1.0 0.1091032898
H  H170  1  0.14510000  0.11440000  0.44980000  1.0 0.096091805
H  H171  1  0.22540000  0.15300000  0.33500000  1.0 0.1231534135
H  H172  1  0.15320000  0.25270000  0.30960000  1.0 0.1231534135
H  H173  1  0.89060000  0.23120000  0.62840000  1.0 0.1091032898
H  H174  1  0.85490000  0.11440000  0.55020000  1.0 0.096091805
H  H175  1  0.77460000  0.15300000  0.66500000  1.0 0.1231534135
H  H176  1  0.84680000  0.25270000  0.69040000  1.0 0.1231534135
H  H177  1  0.76880000  0.62840000  0.10940000  1.0 0.1091032898
H  H178  1  0.88560000  0.55020000  0.14510000  1.0 0.096091805
H  H179  1  0.84700000  0.66500000  0.22540000  1.0 0.1231534135
H  H180  1  0.74730000  0.69040000  0.15320000  1.0 0.1231534135
H  H181  1  0.76880000  0.37160000  0.89060000  1.0 0.1091032898
H  H182  1  0.88560000  0.44980000  0.85490000  1.0 0.096091805
H  H183  1  0.84700000  0.33500000  0.77460000  1.0 0.1231534135
H  H184  1  0.74730000  0.30960000  0.84680000  1.0 0.1231534135
H  H185  1  0.23120000  0.62840000  0.89060000  1.0 0.1091032898
H  H186  1  0.11440000  0.55020000  0.85490000  1.0 0.096091805
H  H187  1  0.15300000  0.66500000  0.77460000  1.0 0.1231534135
H  H188  1  0.25270000  0.69040000  0.84680000  1.0 0.1231534135
H  H189  1  0.23120000  0.37160000  0.10940000  1.0 0.1091032898
H  H190  1  0.11440000  0.44980000  0.14510000  1.0 0.096091805
H  H191  1  0.15300000  0.33500000  0.22540000  1.0 0.1231534135
H  H192  1  0.25270000  0.30960000  0.15320000  1.0 0.1231534135
C  C1  1  0.20700000  0.27460000  0.23450000  1.0 0.0894018326
C  C2  1  0.17090000  0.34740000  0.19950000  1.0 -0.0168329525
C  C3  1  0.13010000  0.37700000  0.20520000  1.0 0.0124192738
C  C4  1  0.11980000  0.41400000  0.17320000  1.0 -0.0101421803
C  C5  1  0.15090000  0.42380000  0.13500000  1.0 -0.0552796903
C  C6  1  0.19080000  0.39400000  0.12830000  1.0 0.0311304326
C  C7  1  0.19960000  0.35570000  0.15930000  1.0 0.0214290209
C  C8  1  0.07410000  0.44510000  0.18140000  1.0 0.3537419555
C  C9  1  0.22430000  0.40380000  0.08520000  1.0 0.3414549745
C  C10  1  0.79300000  0.72540000  0.23450000  1.0 0.0894018326
C  C11  1  0.82910000  0.65260000  0.19950000  1.0 -0.0168329525
C  C12  1  0.86990000  0.62300000  0.20520000  1.0 0.0124192738
C  C13  1  0.88020000  0.58600000  0.17320000  1.0 -0.0101421803
C  C14  1  0.84910000  0.57620000  0.13500000  1.0 -0.0545434053
C  C15  1  0.80920000  0.60600000  0.12830000  1.0 0.0311304326
C  C16  1  0.80040000  0.64430000  0.15930000  1.0 0.0214290209
C  C17  1  0.92590000  0.55490000  0.18140000  1.0 0.3537419555
C  C18  1  0.77570000  0.59620000  0.08520000  1.0 0.3414549745
C  C19  1  0.79300000  0.27460000  0.76550000  1.0 0.0894018326
C  C20  1  0.82910000  0.34740000  0.80050000  1.0 -0.0168329525
C  C21  1  0.86990000  0.37700000  0.79480000  1.0 0.0124192738
C  C22  1  0.88020000  0.41400000  0.82680000  1.0 -0.0101421803
C  C23  1  0.84910000  0.42380000  0.86500000  1.0 -0.0545434053
C  C24  1  0.80920000  0.39400000  0.87170000  1.0 0.0311304326
C  C25  1  0.80040000  0.35570000  0.84070000  1.0 0.0214290209
C  C26  1  0.92590000  0.44510000  0.81860000  1.0 0.3537419555
C  C27  1  0.77570000  0.40380000  0.91480000  1.0 0.3414549745
C  C28  1  0.20700000  0.72540000  0.76550000  1.0 0.0894018326
C  C29  1  0.17090000  0.65260000  0.80050000  1.0 -0.0168329525
C  C30  1  0.13010000  0.62300000  0.79480000  1.0 0.0124192738
C  C31  1  0.11980000  0.58600000  0.82680000  1.0 -0.0101421803
C  C32  1  0.15090000  0.57620000  0.86500000  1.0 -0.0552796903
C  C33  1  0.19080000  0.60600000  0.87170000  1.0 0.0311304326
C  C34  1  0.19960000  0.64430000  0.84070000  1.0 0.0214290209
C  C35  1  0.07410000  0.55490000  0.81860000  1.0 0.3537419555
C  C36  1  0.22430000  0.59620000  0.91480000  1.0 0.3414549745
C  C37  1  0.23450000  0.20700000  0.27460000  1.0 0.0894018326
C  C38  1  0.19950000  0.17090000  0.34740000  1.0 -0.0168329525
C  C39  1  0.20520000  0.13010000  0.37700000  1.0 0.0124192738
C  C40  1  0.17320000  0.11980000  0.41400000  1.0 -0.0101421803
C  C41  1  0.13500000  0.15090000  0.42380000  1.0 -0.0552796903
C  C42  1  0.12830000  0.19080000  0.39400000  1.0 0.0311304326
C  C43  1  0.15930000  0.19960000  0.35570000  1.0 0.0214290209
C  C44  1  0.18140000  0.07410000  0.44510000  1.0 0.3537419555
C  C45  1  0.08520000  0.22430000  0.40380000  1.0 0.3414549745
C  C46  1  0.23450000  0.79300000  0.72540000  1.0 0.0894018326
C  C47  1  0.19950000  0.82910000  0.65260000  1.0 -0.0168329525
C  C48  1  0.20520000  0.86990000  0.62300000  1.0 0.0124192738
C  C49  1  0.17320000  0.88020000  0.58600000  1.0 -0.0101421803
C  C50  1  0.13500000  0.84910000  0.57620000  1.0 -0.0552796903
C  C51  1  0.12830000  0.80920000  0.60600000  1.0 0.0311304326
C  C52  1  0.15930000  0.80040000  0.64430000  1.0 0.0214290209
C  C53  1  0.18140000  0.92590000  0.55490000  1.0 0.3537419555
C  C54  1  0.08520000  0.77570000  0.59620000  1.0 0.3414549745
C  C55  1  0.76550000  0.79300000  0.27460000  1.0 0.0894018326
C  C56  1  0.80050000  0.82910000  0.34740000  1.0 -0.0168329525
C  C57  1  0.79480000  0.86990000  0.37700000  1.0 0.0124192738
C  C58  1  0.82680000  0.88020000  0.41400000  1.0 -0.0101421803
C  C59  1  0.86500000  0.84910000  0.42380000  1.0 -0.0545434053
C  C60  1  0.87170000  0.80920000  0.39400000  1.0 0.0311304326
C  C61  1  0.84070000  0.80040000  0.35570000  1.0 0.0214290209
C  C62  1  0.81860000  0.92590000  0.44510000  1.0 0.3537419555
C  C63  1  0.91480000  0.77570000  0.40380000  1.0 0.3414549745
C  C64  1  0.76550000  0.20700000  0.72540000  1.0 0.0894018326
C  C65  1  0.80050000  0.17090000  0.65260000  1.0 -0.0168329525
C  C66  1  0.79480000  0.13010000  0.62300000  1.0 0.0124192738
C  C67  1  0.82680000  0.11980000  0.58600000  1.0 -0.0101421803
C  C68  1  0.86500000  0.15090000  0.57620000  1.0 -0.0545434053
C  C69  1  0.87170000  0.19080000  0.60600000  1.0 0.0311304326
C  C70  1  0.84070000  0.19960000  0.64430000  1.0 0.0214290209
C  C71  1  0.81860000  0.07410000  0.55490000  1.0 0.3537419555
C  C72  1  0.91480000  0.22430000  0.59620000  1.0 0.3414549745
C  C73  1  0.27460000  0.23450000  0.20700000  1.0 0.0894018326
C  C74  1  0.34740000  0.19950000  0.17090000  1.0 -0.0168329525
C  C75  1  0.37700000  0.20520000  0.13010000  1.0 0.0124192738
C  C76  1  0.41400000  0.17320000  0.11980000  1.0 -0.0101421803
C  C77  1  0.42380000  0.13500000  0.15090000  1.0 -0.0552796903
C  C78  1  0.39400000  0.12830000  0.19080000  1.0 0.0311304326
C  C79  1  0.35570000  0.15930000  0.19960000  1.0 0.0214290209
C  C80  1  0.44510000  0.18140000  0.07410000  1.0 0.3537419555
C  C81  1  0.40380000  0.08520000  0.22430000  1.0 0.3414549745
C  C82  1  0.72540000  0.23450000  0.79300000  1.0 0.0894018326
C  C83  1  0.65260000  0.19950000  0.82910000  1.0 -0.0168329525
C  C84  1  0.62300000  0.20520000  0.86990000  1.0 0.0124192738
C  C85  1  0.58600000  0.17320000  0.88020000  1.0 -0.0101421803
C  C86  1  0.57620000  0.13500000  0.84910000  1.0 -0.0552796903
C  C87  1  0.60600000  0.12830000  0.80920000  1.0 0.0311304326
C  C88  1  0.64430000  0.15930000  0.80040000  1.0 0.0214290209
C  C89  1  0.55490000  0.18140000  0.92590000  1.0 0.3537419555
C  C90  1  0.59620000  0.08520000  0.77570000  1.0 0.3414549745
C  C91  1  0.27460000  0.76550000  0.79300000  1.0 0.0894018326
C  C92  1  0.34740000  0.80050000  0.82910000  1.0 -0.0168329525
C  C93  1  0.37700000  0.79480000  0.86990000  1.0 0.0124192738
C  C94  1  0.41400000  0.82680000  0.88020000  1.0 -0.0101421803
C  C95  1  0.42380000  0.86500000  0.84910000  1.0 -0.0552796903
C  C96  1  0.39400000  0.87170000  0.80920000  1.0 0.0311304326
C  C97  1  0.35570000  0.84070000  0.80040000  1.0 0.0214290209
C  C98  1  0.44510000  0.81860000  0.92590000  1.0 0.3537419555
C  C99  1  0.40380000  0.91480000  0.77570000  1.0 0.3414549745
C  C100  1  0.72540000  0.76550000  0.20700000  1.0 0.0894018326
C  C101  1  0.65260000  0.80050000  0.17090000  1.0 -0.0168329525
C  C102  1  0.62300000  0.79480000  0.13010000  1.0 0.0124192738
C  C103  1  0.58600000  0.82680000  0.11980000  1.0 -0.0101421803
C  C104  1  0.57620000  0.86500000  0.15090000  1.0 -0.0552796903
C  C105  1  0.60600000  0.87170000  0.19080000  1.0 0.0311304326
C  C106  1  0.64430000  0.84070000  0.19960000  1.0 0.0214290209
C  C107  1  0.55490000  0.81860000  0.07410000  1.0 0.3537419555
C  C108  1  0.59620000  0.91480000  0.22430000  1.0 0.3414549745
C  C109  1  0.27460000  0.20700000  0.76550000  1.0 0.0894018326
C  C110  1  0.34740000  0.17090000  0.80050000  1.0 -0.0168329525
C  C111  1  0.37700000  0.13010000  0.79480000  1.0 0.0124192738
C  C112  1  0.41400000  0.11980000  0.82680000  1.0 -0.0101421803
C  C113  1  0.42380000  0.15090000  0.86500000  1.0 -0.0552796903
C  C114  1  0.39400000  0.19080000  0.87170000  1.0 0.0311304326
C  C115  1  0.35570000  0.19960000  0.84070000  1.0 0.0214290209
C  C116  1  0.44510000  0.07410000  0.81860000  1.0 0.3537419555
C  C117  1  0.40380000  0.22430000  0.91480000  1.0 0.3414549745
C  C118  1  0.72540000  0.79300000  0.76550000  1.0 0.0894018326
C  C119  1  0.65260000  0.82910000  0.80050000  1.0 -0.0168329525
C  C120  1  0.62300000  0.86990000  0.79480000  1.0 0.0124192738
C  C121  1  0.58600000  0.88020000  0.82680000  1.0 -0.0101421803
C  C122  1  0.57620000  0.84910000  0.86500000  1.0 -0.0545434053
C  C123  1  0.60600000  0.80920000  0.87170000  1.0 0.0311304326
C  C124  1  0.64430000  0.80040000  0.84070000  1.0 0.0214290209
C  C125  1  0.55490000  0.92590000  0.81860000  1.0 0.3537419555
C  C126  1  0.59620000  0.77570000  0.91480000  1.0 0.3414549745
C  C127  1  0.27460000  0.79300000  0.23450000  1.0 0.0894018326
C  C128  1  0.34740000  0.82910000  0.19950000  1.0 -0.0168329525
C  C129  1  0.37700000  0.86990000  0.20520000  1.0 0.0124192738
C  C130  1  0.41400000  0.88020000  0.17320000  1.0 -0.0101421803
C  C131  1  0.42380000  0.84910000  0.13500000  1.0 -0.0552796903
C  C132  1  0.39400000  0.80920000  0.12830000  1.0 0.0311304326
C  C133  1  0.35570000  0.80040000  0.15930000  1.0 0.0214290209
C  C134  1  0.44510000  0.92590000  0.18140000  1.0 0.3537419555
C  C135  1  0.40380000  0.77570000  0.08520000  1.0 0.3414549745
C  C136  1  0.72540000  0.20700000  0.23450000  1.0 0.0894018326
C  C137  1  0.65260000  0.17090000  0.19950000  1.0 -0.0168329525
C  C138  1  0.62300000  0.13010000  0.20520000  1.0 0.0124192738
C  C139  1  0.58600000  0.11980000  0.17320000  1.0 -0.0101421803
C  C140  1  0.57620000  0.15090000  0.13500000  1.0 -0.0552796903
C  C141  1  0.60600000  0.19080000  0.12830000  1.0 0.0311304326
C  C142  1  0.64430000  0.19960000  0.15930000  1.0 0.0214290209
C  C143  1  0.55490000  0.07410000  0.18140000  1.0 0.3537419555
C  C144  1  0.59620000  0.22430000  0.08520000  1.0 0.3414549745
C  C145  1  0.20700000  0.23450000  0.72540000  1.0 0.0894018326
C  C146  1  0.17090000  0.19950000  0.65260000  1.0 -0.0168329525
C  C147  1  0.13010000  0.20520000  0.62300000  1.0 0.0124192738
C  C148  1  0.11980000  0.17320000  0.58600000  1.0 -0.0101421803
C  C149  1  0.15090000  0.13500000  0.57620000  1.0 -0.0552796903
C  C150  1  0.19080000  0.12830000  0.60600000  1.0 0.0311304326
C  C151  1  0.19960000  0.15930000  0.64430000  1.0 0.0214290209
C  C152  1  0.07410000  0.18140000  0.55490000  1.0 0.3537419555
C  C153  1  0.22430000  0.08520000  0.59620000  1.0 0.3414549745
C  C154  1  0.79300000  0.23450000  0.27460000  1.0 0.0894018326
C  C155  1  0.82910000  0.19950000  0.34740000  1.0 -0.0168329525
C  C156  1  0.86990000  0.20520000  0.37700000  1.0 0.0124192738
C  C157  1  0.88020000  0.17320000  0.41400000  1.0 -0.0101421803
C  C158  1  0.84910000  0.13500000  0.42380000  1.0 -0.0545434053
C  C159  1  0.80920000  0.12830000  0.39400000  1.0 0.0311304326
C  C160  1  0.80040000  0.15930000  0.35570000  1.0 0.0214290209
C  C161  1  0.92590000  0.18140000  0.44510000  1.0 0.3537419555
C  C162  1  0.77570000  0.08520000  0.40380000  1.0 0.3414549745
C  C163  1  0.79300000  0.76550000  0.72540000  1.0 0.0894018326
C  C164  1  0.82910000  0.80050000  0.65260000  1.0 -0.0168329525
C  C165  1  0.86990000  0.79480000  0.62300000  1.0 0.0124192738
C  C166  1  0.88020000  0.82680000  0.58600000  1.0 -0.0101421803
C  C167  1  0.84910000  0.86500000  0.57620000  1.0 -0.0545434053
C  C168  1  0.80920000  0.87170000  0.60600000  1.0 0.0311304326
C  C169  1  0.80040000  0.84070000  0.64430000  1.0 0.0214290209
C  C170  1  0.92590000  0.81860000  0.55490000  1.0 0.3537419555
C  C171  1  0.77570000  0.91480000  0.59620000  1.0 0.3414549745
C  C172  1  0.20700000  0.76550000  0.27460000  1.0 0.0894018326
C  C173  1  0.17090000  0.80050000  0.34740000  1.0 -0.0168329525
C  C174  1  0.13010000  0.79480000  0.37700000  1.0 0.0124192738
C  C175  1  0.11980000  0.82680000  0.41400000  1.0 -0.0101421803
C  C176  1  0.15090000  0.86500000  0.42380000  1.0 -0.0552796903
C  C177  1  0.19080000  0.87170000  0.39400000  1.0 0.0311304326
C  C178  1  0.19960000  0.84070000  0.35570000  1.0 0.0214290209
C  C179  1  0.07410000  0.81860000  0.44510000  1.0 0.3537419555
C  C180  1  0.22430000  0.91480000  0.40380000  1.0 0.3414549745
C  C181  1  0.23450000  0.27460000  0.79300000  1.0 0.0894018326
C  C182  1  0.19950000  0.34740000  0.82910000  1.0 -0.0168329525
C  C183  1  0.20520000  0.37700000  0.86990000  1.0 0.0124192738
C  C184  1  0.17320000  0.41400000  0.88020000  1.0 -0.0101421803
C  C185  1  0.13500000  0.42380000  0.84910000  1.0 -0.0552796903
C  C186  1  0.12830000  0.39400000  0.80920000  1.0 0.0311304326
C  C187  1  0.15930000  0.35570000  0.80040000  1.0 0.0214290209
C  C188  1  0.18140000  0.44510000  0.92590000  1.0 0.3537419555
C  C189  1  0.08520000  0.40380000  0.77570000  1.0 0.3414549745
C  C190  1  0.23450000  0.72540000  0.20700000  1.0 0.0894018326
C  C191  1  0.19950000  0.65260000  0.17090000  1.0 -0.0168329525
C  C192  1  0.20520000  0.62300000  0.13010000  1.0 0.0124192738
C  C193  1  0.17320000  0.58600000  0.11980000  1.0 -0.0101421803
C  C194  1  0.13500000  0.57620000  0.15090000  1.0 -0.0552796903
C  C195  1  0.12830000  0.60600000  0.19080000  1.0 0.0311304326
C  C196  1  0.15930000  0.64430000  0.19960000  1.0 0.0214290209
C  C197  1  0.18140000  0.55490000  0.07410000  1.0 0.3537419555
C  C198  1  0.08520000  0.59620000  0.22430000  1.0 0.3414549745
C  C199  1  0.76550000  0.27460000  0.20700000  1.0 0.0894018326
C  C200  1  0.80050000  0.34740000  0.17090000  1.0 -0.0168329525
C  C201  1  0.79480000  0.37700000  0.13010000  1.0 0.0124192738
C  C202  1  0.82680000  0.41400000  0.11980000  1.0 -0.0101421803
C  C203  1  0.86500000  0.42380000  0.15090000  1.0 -0.0545434053
C  C204  1  0.87170000  0.39400000  0.19080000  1.0 0.0311304326
C  C205  1  0.84070000  0.35570000  0.19960000  1.0 0.0214290209
C  C206  1  0.81860000  0.44510000  0.07410000  1.0 0.3537419555
C  C207  1  0.91480000  0.40380000  0.22430000  1.0 0.3414549745
C  C208  1  0.76550000  0.72540000  0.79300000  1.0 0.0894018326
C  C209  1  0.80050000  0.65260000  0.82910000  1.0 -0.0168329525
C  C210  1  0.79480000  0.62300000  0.86990000  1.0 0.0124192738
C  C211  1  0.82680000  0.58600000  0.88020000  1.0 -0.0101421803
C  C212  1  0.86500000  0.57620000  0.84910000  1.0 -0.0545434053
C  C213  1  0.87170000  0.60600000  0.80920000  1.0 0.0311304326
C  C214  1  0.84070000  0.64430000  0.80040000  1.0 0.0214290209
C  C215  1  0.81860000  0.55490000  0.92590000  1.0 0.3537419555
C  C216  1  0.91480000  0.59620000  0.77570000  1.0 0.3414549745
C  C217  1  0.79300000  0.72540000  0.76550000  1.0 0.0894018326
C  C218  1  0.82910000  0.65260000  0.80050000  1.0 -0.0168329525
C  C219  1  0.86990000  0.62300000  0.79480000  1.0 0.0124192738
C  C220  1  0.88020000  0.58600000  0.82680000  1.0 -0.0101421803
C  C221  1  0.84910000  0.57620000  0.86500000  1.0 -0.0545434053
C  C222  1  0.80920000  0.60600000  0.87170000  1.0 0.0311304326
C  C223  1  0.80040000  0.64430000  0.84070000  1.0 0.0214290209
C  C224  1  0.92590000  0.55490000  0.81860000  1.0 0.3537419555
C  C225  1  0.77570000  0.59620000  0.91480000  1.0 0.3414549745
C  C226  1  0.20700000  0.27460000  0.76550000  1.0 0.0894018326
C  C227  1  0.17090000  0.34740000  0.80050000  1.0 -0.0168329525
C  C228  1  0.13010000  0.37700000  0.79480000  1.0 0.0124192738
C  C229  1  0.11980000  0.41400000  0.82680000  1.0 -0.0101421803
C  C230  1  0.15090000  0.42380000  0.86500000  1.0 -0.0552796903
C  C231  1  0.19080000  0.39400000  0.87170000  1.0 0.0311304326
C  C232  1  0.19960000  0.35570000  0.84070000  1.0 0.0214290209
C  C233  1  0.07410000  0.44510000  0.81860000  1.0 0.3537419555
C  C234  1  0.22430000  0.40380000  0.91480000  1.0 0.3414549745
C  C235  1  0.20700000  0.72540000  0.23450000  1.0 0.0894018326
C  C236  1  0.17090000  0.65260000  0.19950000  1.0 -0.0168329525
C  C237  1  0.13010000  0.62300000  0.20520000  1.0 0.0124192738
C  C238  1  0.11980000  0.58600000  0.17320000  1.0 -0.0101421803
C  C239  1  0.15090000  0.57620000  0.13500000  1.0 -0.0552796903
C  C240  1  0.19080000  0.60600000  0.12830000  1.0 0.0311304326
C  C241  1  0.19960000  0.64430000  0.15930000  1.0 0.0214290209
C  C242  1  0.07410000  0.55490000  0.18140000  1.0 0.3537419555
C  C243  1  0.22430000  0.59620000  0.08520000  1.0 0.3414549745
C  C244  1  0.79300000  0.27460000  0.23450000  1.0 0.0894018326
C  C245  1  0.82910000  0.34740000  0.19950000  1.0 -0.0168329525
C  C246  1  0.86990000  0.37700000  0.20520000  1.0 0.0124192738
C  C247  1  0.88020000  0.41400000  0.17320000  1.0 -0.0101421803
C  C248  1  0.84910000  0.42380000  0.13500000  1.0 -0.0545434053
C  C249  1  0.80920000  0.39400000  0.12830000  1.0 0.0311304326
C  C250  1  0.80040000  0.35570000  0.15930000  1.0 0.0214290209
C  C251  1  0.92590000  0.44510000  0.18140000  1.0 0.3537419555
C  C252  1  0.77570000  0.40380000  0.08520000  1.0 0.3414549745
C  C253  1  0.76550000  0.79300000  0.72540000  1.0 0.0894018326
C  C254  1  0.80050000  0.82910000  0.65260000  1.0 -0.0168329525
C  C255  1  0.79480000  0.86990000  0.62300000  1.0 0.0124192738
C  C256  1  0.82680000  0.88020000  0.58600000  1.0 -0.0101421803
C  C257  1  0.86500000  0.84910000  0.57620000  1.0 -0.0545434053
C  C258  1  0.87170000  0.80920000  0.60600000  1.0 0.0311304326
C  C259  1  0.84070000  0.80040000  0.64430000  1.0 0.0214290209
C  C260  1  0.81860000  0.92590000  0.55490000  1.0 0.3537419555
C  C261  1  0.91480000  0.77570000  0.59620000  1.0 0.3414549745
C  C262  1  0.76550000  0.20700000  0.27460000  1.0 0.0894018326
C  C263  1  0.80050000  0.17090000  0.34740000  1.0 -0.0168329525
C  C264  1  0.79480000  0.13010000  0.37700000  1.0 0.0124192738
C  C265  1  0.82680000  0.11980000  0.41400000  1.0 -0.0101421803
C  C266  1  0.86500000  0.15090000  0.42380000  1.0 -0.0545434053
C  C267  1  0.87170000  0.19080000  0.39400000  1.0 0.0311304326
C  C268  1  0.84070000  0.19960000  0.35570000  1.0 0.0214290209
C  C269  1  0.81860000  0.07410000  0.44510000  1.0 0.3537419555
C  C270  1  0.91480000  0.22430000  0.40380000  1.0 0.3414549745
C  C271  1  0.23450000  0.20700000  0.72540000  1.0 0.0894018326
C  C272  1  0.19950000  0.17090000  0.65260000  1.0 -0.0168329525
C  C273  1  0.20520000  0.13010000  0.62300000  1.0 0.0124192738
C  C274  1  0.17320000  0.11980000  0.58600000  1.0 -0.0101421803
C  C275  1  0.13500000  0.15090000  0.57620000  1.0 -0.0552796903
C  C276  1  0.12830000  0.19080000  0.60600000  1.0 0.0311304326
C  C277  1  0.15930000  0.19960000  0.64430000  1.0 0.0214290209
C  C278  1  0.18140000  0.07410000  0.55490000  1.0 0.3537419555
C  C279  1  0.08520000  0.22430000  0.59620000  1.0 0.3414549745
C  C280  1  0.23450000  0.79300000  0.27460000  1.0 0.0894018326
C  C281  1  0.19950000  0.82910000  0.34740000  1.0 -0.0168329525
C  C282  1  0.20520000  0.86990000  0.37700000  1.0 0.0124192738
C  C283  1  0.17320000  0.88020000  0.41400000  1.0 -0.0101421803
C  C284  1  0.13500000  0.84910000  0.42380000  1.0 -0.0552796903
C  C285  1  0.12830000  0.80920000  0.39400000  1.0 0.0311304326
C  C286  1  0.15930000  0.80040000  0.35570000  1.0 0.0214290209
C  C287  1  0.18140000  0.92590000  0.44510000  1.0 0.3537419555
C  C288  1  0.08520000  0.77570000  0.40380000  1.0 0.3414549745
C  C289  1  0.72540000  0.76550000  0.79300000  1.0 0.0894018326
C  C290  1  0.65260000  0.80050000  0.82910000  1.0 -0.0168329525
C  C291  1  0.62300000  0.79480000  0.86990000  1.0 0.0124192738
C  C292  1  0.58600000  0.82680000  0.88020000  1.0 -0.0101421803
C  C293  1  0.57620000  0.86500000  0.84910000  1.0 -0.0545434053
C  C294  1  0.60600000  0.87170000  0.80920000  1.0 0.0311304326
C  C295  1  0.64430000  0.84070000  0.80040000  1.0 0.0214290209
C  C296  1  0.55490000  0.81860000  0.92590000  1.0 0.3537419555
C  C297  1  0.59620000  0.91480000  0.77570000  1.0 0.3414549745
C  C298  1  0.27460000  0.76550000  0.20700000  1.0 0.0894018326
C  C299  1  0.34740000  0.80050000  0.17090000  1.0 -0.0168329525
C  C300  1  0.37700000  0.79480000  0.13010000  1.0 0.0124192738
C  C301  1  0.41400000  0.82680000  0.11980000  1.0 -0.0101421803
C  C302  1  0.42380000  0.86500000  0.15090000  1.0 -0.0552796903
C  C303  1  0.39400000  0.87170000  0.19080000  1.0 0.0311304326
C  C304  1  0.35570000  0.84070000  0.19960000  1.0 0.0214290209
C  C305  1  0.44510000  0.81860000  0.07410000  1.0 0.3537419555
C  C306  1  0.40380000  0.91480000  0.22430000  1.0 0.3414549745
C  C307  1  0.72540000  0.23450000  0.20700000  1.0 0.0894018326
C  C308  1  0.65260000  0.19950000  0.17090000  1.0 -0.0168329525
C  C309  1  0.62300000  0.20520000  0.13010000  1.0 0.0124192738
C  C310  1  0.58600000  0.17320000  0.11980000  1.0 -0.0101421803
C  C311  1  0.57620000  0.13500000  0.15090000  1.0 -0.0552796903
C  C312  1  0.60600000  0.12830000  0.19080000  1.0 0.0311304326
C  C313  1  0.64430000  0.15930000  0.19960000  1.0 0.0214290209
C  C314  1  0.55490000  0.18140000  0.07410000  1.0 0.3537419555
C  C315  1  0.59620000  0.08520000  0.22430000  1.0 0.3414549745
C  C316  1  0.27460000  0.23450000  0.79300000  1.0 0.0894018326
C  C317  1  0.34740000  0.19950000  0.82910000  1.0 -0.0168329525
C  C318  1  0.37700000  0.20520000  0.86990000  1.0 0.0124192738
C  C319  1  0.41400000  0.17320000  0.88020000  1.0 -0.0101421803
C  C320  1  0.42380000  0.13500000  0.84910000  1.0 -0.0552796903
C  C321  1  0.39400000  0.12830000  0.80920000  1.0 0.0311304326
C  C322  1  0.35570000  0.15930000  0.80040000  1.0 0.0214290209
C  C323  1  0.44510000  0.18140000  0.92590000  1.0 0.3537419555
C  C324  1  0.40380000  0.08520000  0.77570000  1.0 0.3414549745
C  C325  1  0.72540000  0.79300000  0.23450000  1.0 0.0894018326
C  C326  1  0.65260000  0.82910000  0.19950000  1.0 -0.0168329525
C  C327  1  0.62300000  0.86990000  0.20520000  1.0 0.0124192738
C  C328  1  0.58600000  0.88020000  0.17320000  1.0 -0.0101421803
C  C329  1  0.57620000  0.84910000  0.13500000  1.0 -0.0552796903
C  C330  1  0.60600000  0.80920000  0.12830000  1.0 0.0311304326
C  C331  1  0.64430000  0.80040000  0.15930000  1.0 0.0214290209
C  C332  1  0.55490000  0.92590000  0.18140000  1.0 0.3537419555
C  C333  1  0.59620000  0.77570000  0.08520000  1.0 0.3414549745
C  C334  1  0.27460000  0.20700000  0.23450000  1.0 0.0894018326
C  C335  1  0.34740000  0.17090000  0.19950000  1.0 -0.0168329525
C  C336  1  0.37700000  0.13010000  0.20520000  1.0 0.0124192738
C  C337  1  0.41400000  0.11980000  0.17320000  1.0 -0.0101421803
C  C338  1  0.42380000  0.15090000  0.13500000  1.0 -0.0552796903
C  C339  1  0.39400000  0.19080000  0.12830000  1.0 0.0311304326
C  C340  1  0.35570000  0.19960000  0.15930000  1.0 0.0214290209
C  C341  1  0.44510000  0.07410000  0.18140000  1.0 0.3537419555
C  C342  1  0.40380000  0.22430000  0.08520000  1.0 0.3414549745
C  C343  1  0.72540000  0.20700000  0.76550000  1.0 0.0894018326
C  C344  1  0.65260000  0.17090000  0.80050000  1.0 -0.0168329525
C  C345  1  0.62300000  0.13010000  0.79480000  1.0 0.0124192738
C  C346  1  0.58600000  0.11980000  0.82680000  1.0 -0.0101421803
C  C347  1  0.57620000  0.15090000  0.86500000  1.0 -0.0552796903
C  C348  1  0.60600000  0.19080000  0.87170000  1.0 0.0311304326
C  C349  1  0.64430000  0.19960000  0.84070000  1.0 0.0214290209
C  C350  1  0.55490000  0.07410000  0.81860000  1.0 0.3537419555
C  C351  1  0.59620000  0.22430000  0.91480000  1.0 0.3414549745
C  C352  1  0.27460000  0.79300000  0.76550000  1.0 0.0894018326
C  C353  1  0.34740000  0.82910000  0.80050000  1.0 -0.0168329525
C  C354  1  0.37700000  0.86990000  0.79480000  1.0 0.0124192738
C  C355  1  0.41400000  0.88020000  0.82680000  1.0 -0.0101421803
C  C356  1  0.42380000  0.84910000  0.86500000  1.0 -0.0552796903
C  C357  1  0.39400000  0.80920000  0.87170000  1.0 0.0311304326
C  C358  1  0.35570000  0.80040000  0.84070000  1.0 0.0214290209
C  C359  1  0.44510000  0.92590000  0.81860000  1.0 0.3537419555
C  C360  1  0.40380000  0.77570000  0.91480000  1.0 0.3414549745
C  C361  1  0.79300000  0.76550000  0.27460000  1.0 0.0894018326
C  C362  1  0.82910000  0.80050000  0.34740000  1.0 -0.0168329525
C  C363  1  0.86990000  0.79480000  0.37700000  1.0 0.0124192738
C  C364  1  0.88020000  0.82680000  0.41400000  1.0 -0.0101421803
C  C365  1  0.84910000  0.86500000  0.42380000  1.0 -0.0545434053
C  C366  1  0.80920000  0.87170000  0.39400000  1.0 0.0311304326
C  C367  1  0.80040000  0.84070000  0.35570000  1.0 0.0214290209
C  C368  1  0.92590000  0.81860000  0.44510000  1.0 0.3537419555
C  C369  1  0.77570000  0.91480000  0.40380000  1.0 0.3414549745
C  C370  1  0.20700000  0.76550000  0.72540000  1.0 0.0894018326
C  C371  1  0.17090000  0.80050000  0.65260000  1.0 -0.0168329525
C  C372  1  0.13010000  0.79480000  0.62300000  1.0 0.0124192738
C  C373  1  0.11980000  0.82680000  0.58600000  1.0 -0.0101421803
C  C374  1  0.15090000  0.86500000  0.57620000  1.0 -0.0552796903
C  C375  1  0.19080000  0.87170000  0.60600000  1.0 0.0311304326
C  C376  1  0.19960000  0.84070000  0.64430000  1.0 0.0214290209
C  C377  1  0.07410000  0.81860000  0.55490000  1.0 0.3537419555
C  C378  1  0.22430000  0.91480000  0.59620000  1.0 0.3414549745
C  C379  1  0.20700000  0.23450000  0.27460000  1.0 0.0894018326
C  C380  1  0.17090000  0.19950000  0.34740000  1.0 -0.0168329525
C  C381  1  0.13010000  0.20520000  0.37700000  1.0 0.0124192738
C  C382  1  0.11980000  0.17320000  0.41400000  1.0 -0.0101421803
C  C383  1  0.15090000  0.13500000  0.42380000  1.0 -0.0552796903
C  C384  1  0.19080000  0.12830000  0.39400000  1.0 0.0311304326
C  C385  1  0.19960000  0.15930000  0.35570000  1.0 0.0214290209
C  C386  1  0.07410000  0.18140000  0.44510000  1.0 0.3537419555
C  C387  1  0.22430000  0.08520000  0.40380000  1.0 0.3414549745
C  C388  1  0.79300000  0.23450000  0.72540000  1.0 0.0894018326
C  C389  1  0.82910000  0.19950000  0.65260000  1.0 -0.0168329525
C  C390  1  0.86990000  0.20520000  0.62300000  1.0 0.0124192738
C  C391  1  0.88020000  0.17320000  0.58600000  1.0 -0.0101421803
C  C392  1  0.84910000  0.13500000  0.57620000  1.0 -0.0545434053
C  C393  1  0.80920000  0.12830000  0.60600000  1.0 0.0311304326
C  C394  1  0.80040000  0.15930000  0.64430000  1.0 0.0214290209
C  C395  1  0.92590000  0.18140000  0.55490000  1.0 0.3537419555
C  C396  1  0.77570000  0.08520000  0.59620000  1.0 0.3414549745
C  C397  1  0.76550000  0.72540000  0.20700000  1.0 0.0894018326
C  C398  1  0.80050000  0.65260000  0.17090000  1.0 -0.0168329525
C  C399  1  0.79480000  0.62300000  0.13010000  1.0 0.0124192738
C  C400  1  0.82680000  0.58600000  0.11980000  1.0 -0.0101421803
C  C401  1  0.86500000  0.57620000  0.15090000  1.0 -0.0545434053
C  C402  1  0.87170000  0.60600000  0.19080000  1.0 0.0311304326
C  C403  1  0.84070000  0.64430000  0.19960000  1.0 0.0214290209
C  C404  1  0.81860000  0.55490000  0.07410000  1.0 0.3537419555
C  C405  1  0.91480000  0.59620000  0.22430000  1.0 0.3414549745
C  C406  1  0.76550000  0.27460000  0.79300000  1.0 0.0894018326
C  C407  1  0.80050000  0.34740000  0.82910000  1.0 -0.0168329525
C  C408  1  0.79480000  0.37700000  0.86990000  1.0 0.0124192738
C  C409  1  0.82680000  0.41400000  0.88020000  1.0 -0.0101421803
C  C410  1  0.86500000  0.42380000  0.84910000  1.0 -0.0545434053
C  C411  1  0.87170000  0.39400000  0.80920000  1.0 0.0311304326
C  C412  1  0.84070000  0.35570000  0.80040000  1.0 0.0214290209
C  C413  1  0.81860000  0.44510000  0.92590000  1.0 0.3537419555
C  C414  1  0.91480000  0.40380000  0.77570000  1.0 0.3414549745
C  C415  1  0.23450000  0.72540000  0.79300000  1.0 0.0894018326
C  C416  1  0.19950000  0.65260000  0.82910000  1.0 -0.0168329525
C  C417  1  0.20520000  0.62300000  0.86990000  1.0 0.0124192738
C  C418  1  0.17320000  0.58600000  0.88020000  1.0 -0.0101421803
C  C419  1  0.13500000  0.57620000  0.84910000  1.0 -0.0552796903
C  C420  1  0.12830000  0.60600000  0.80920000  1.0 0.0311304326
C  C421  1  0.15930000  0.64430000  0.80040000  1.0 0.0214290209
C  C422  1  0.18140000  0.55490000  0.92590000  1.0 0.3537419555
C  C423  1  0.08520000  0.59620000  0.77570000  1.0 0.3414549745
C  C424  1  0.23450000  0.27460000  0.20700000  1.0 0.0894018326
C  C425  1  0.19950000  0.34740000  0.17090000  1.0 -0.0168329525
C  C426  1  0.20520000  0.37700000  0.13010000  1.0 0.0124192738
C  C427  1  0.17320000  0.41400000  0.11980000  1.0 -0.0101421803
C  C428  1  0.13500000  0.42380000  0.15090000  1.0 -0.0552796903
C  C429  1  0.12830000  0.39400000  0.19080000  1.0 0.0311304326
C  C430  1  0.15930000  0.35570000  0.19960000  1.0 0.0214290209
C  C431  1  0.18140000  0.44510000  0.07410000  1.0 0.3537419555
C  C432  1  0.08520000  0.40380000  0.22430000  1.0 0.3414549745
N  N1  1  0.24310000  0.27170000  0.20160000  1.0 -0.0439989463
N  N2  1  0.17530000  0.31020000  0.23080000  1.0 -0.1569717941
N  N3  1  0.75690000  0.72830000  0.20160000  1.0 -0.0439989463
N  N4  1  0.82470000  0.68980000  0.23080000  1.0 -0.1569717941
N  N5  1  0.75690000  0.27170000  0.79840000  1.0 -0.0439989463
N  N6  1  0.82470000  0.31020000  0.76920000  1.0 -0.1569717941
N  N7  1  0.24310000  0.72830000  0.79840000  1.0 -0.0439989463
N  N8  1  0.17530000  0.68980000  0.76920000  1.0 -0.1569717941
N  N9  1  0.20160000  0.24310000  0.27170000  1.0 -0.0439989463
N  N10  1  0.23080000  0.17530000  0.31020000  1.0 -0.1569717941
N  N11  1  0.20160000  0.75690000  0.72830000  1.0 -0.0439989463
N  N12  1  0.23080000  0.82470000  0.68980000  1.0 -0.1569717941
N  N13  1  0.79840000  0.75690000  0.27170000  1.0 -0.0439989463
N  N14  1  0.76920000  0.82470000  0.31020000  1.0 -0.1569717941
N  N15  1  0.79840000  0.24310000  0.72830000  1.0 -0.0439989463
N  N16  1  0.76920000  0.17530000  0.68980000  1.0 -0.1569717941
N  N17  1  0.27170000  0.20160000  0.24310000  1.0 -0.0439989463
N  N18  1  0.31020000  0.23080000  0.17530000  1.0 -0.1569717941
N  N19  1  0.72830000  0.20160000  0.75690000  1.0 -0.0439989463
N  N20  1  0.68980000  0.23080000  0.82470000  1.0 -0.1569717941
N  N21  1  0.27170000  0.79840000  0.75690000  1.0 -0.0439989463
N  N22  1  0.31020000  0.76920000  0.82470000  1.0 -0.1569717941
N  N23  1  0.72830000  0.79840000  0.24310000  1.0 -0.0439989463
N  N24  1  0.68980000  0.76920000  0.17530000  1.0 -0.1569717941
N  N25  1  0.27170000  0.24310000  0.79840000  1.0 -0.0439989463
N  N26  1  0.31020000  0.17530000  0.76920000  1.0 -0.1569717941
N  N27  1  0.72830000  0.75690000  0.79840000  1.0 -0.0439989463
N  N28  1  0.68980000  0.82470000  0.76920000  1.0 -0.1569717941
N  N29  1  0.27170000  0.75690000  0.20160000  1.0 -0.0439989463
N  N30  1  0.31020000  0.82470000  0.23080000  1.0 -0.1569717941
N  N31  1  0.72830000  0.24310000  0.20160000  1.0 -0.0439989463
N  N32  1  0.68980000  0.17530000  0.23080000  1.0 -0.1569717941
N  N33  1  0.24310000  0.20160000  0.72830000  1.0 -0.0439989463
N  N34  1  0.17530000  0.23080000  0.68980000  1.0 -0.1569717941
N  N35  1  0.75690000  0.20160000  0.27170000  1.0 -0.0439989463
N  N36  1  0.82470000  0.23080000  0.31020000  1.0 -0.1569717941
N  N37  1  0.75690000  0.79840000  0.72830000  1.0 -0.0439989463
N  N38  1  0.82470000  0.76920000  0.68980000  1.0 -0.1569717941
N  N39  1  0.24310000  0.79840000  0.27170000  1.0 -0.0439989463
N  N40  1  0.17530000  0.76920000  0.31020000  1.0 -0.1569717941
N  N41  1  0.20160000  0.27170000  0.75690000  1.0 -0.0439989463
N  N42  1  0.23080000  0.31020000  0.82470000  1.0 -0.1569717941
N  N43  1  0.20160000  0.72830000  0.24310000  1.0 -0.0439989463
N  N44  1  0.23080000  0.68980000  0.17530000  1.0 -0.1569717941
N  N45  1  0.79840000  0.27170000  0.24310000  1.0 -0.0439989463
N  N46  1  0.76920000  0.31020000  0.17530000  1.0 -0.1569717941
N  N47  1  0.79840000  0.72830000  0.75690000  1.0 -0.0439989463
N  N48  1  0.76920000  0.68980000  0.82470000  1.0 -0.1569717941
N  N49  1  0.75690000  0.72830000  0.79840000  1.0 -0.0439989463
N  N50  1  0.82470000  0.68980000  0.76920000  1.0 -0.1569717941
N  N51  1  0.24310000  0.27170000  0.79840000  1.0 -0.0439989463
N  N52  1  0.17530000  0.31020000  0.76920000  1.0 -0.1569717941
N  N53  1  0.24310000  0.72830000  0.20160000  1.0 -0.0439989463
N  N54  1  0.17530000  0.68980000  0.23080000  1.0 -0.1569717941
N  N55  1  0.75690000  0.27170000  0.20160000  1.0 -0.0439989463
N  N56  1  0.82470000  0.31020000  0.23080000  1.0 -0.1569717941
N  N57  1  0.79840000  0.75690000  0.72830000  1.0 -0.0439989463
N  N58  1  0.76920000  0.82470000  0.68980000  1.0 -0.1569717941
N  N59  1  0.79840000  0.24310000  0.27170000  1.0 -0.0439989463
N  N60  1  0.76920000  0.17530000  0.31020000  1.0 -0.1569717941
N  N61  1  0.20160000  0.24310000  0.72830000  1.0 -0.0439989463
N  N62  1  0.23080000  0.17530000  0.68980000  1.0 -0.1569717941
N  N63  1  0.20160000  0.75690000  0.27170000  1.0 -0.0439989463
N  N64  1  0.23080000  0.82470000  0.31020000  1.0 -0.1569717941
N  N65  1  0.72830000  0.79840000  0.75690000  1.0 -0.0439989463
N  N66  1  0.68980000  0.76920000  0.82470000  1.0 -0.1569717941
N  N67  1  0.27170000  0.79840000  0.24310000  1.0 -0.0439989463
N  N68  1  0.31020000  0.76920000  0.17530000  1.0 -0.1569717941
N  N69  1  0.72830000  0.20160000  0.24310000  1.0 -0.0439989463
N  N70  1  0.68980000  0.23080000  0.17530000  1.0 -0.1569717941
N  N71  1  0.27170000  0.20160000  0.75690000  1.0 -0.0439989463
N  N72  1  0.31020000  0.23080000  0.82470000  1.0 -0.1569717941
N  N73  1  0.72830000  0.75690000  0.20160000  1.0 -0.0439989463
N  N74  1  0.68980000  0.82470000  0.23080000  1.0 -0.1569717941
N  N75  1  0.27170000  0.24310000  0.20160000  1.0 -0.0439989463
N  N76  1  0.31020000  0.17530000  0.23080000  1.0 -0.1569717941
N  N77  1  0.72830000  0.24310000  0.79840000  1.0 -0.0439989463
N  N78  1  0.68980000  0.17530000  0.76920000  1.0 -0.1569717941
N  N79  1  0.27170000  0.75690000  0.79840000  1.0 -0.0439989463
N  N80  1  0.31020000  0.82470000  0.76920000  1.0 -0.1569717941
N  N81  1  0.75690000  0.79840000  0.27170000  1.0 -0.0439989463
N  N82  1  0.82470000  0.76920000  0.31020000  1.0 -0.1569717941
N  N83  1  0.24310000  0.79840000  0.72830000  1.0 -0.0439989463
N  N84  1  0.17530000  0.76920000  0.68980000  1.0 -0.1569717941
N  N85  1  0.24310000  0.20160000  0.27170000  1.0 -0.0439989463
N  N86  1  0.17530000  0.23080000  0.31020000  1.0 -0.1569717941
N  N87  1  0.75690000  0.20160000  0.72830000  1.0 -0.0439989463
N  N88  1  0.82470000  0.23080000  0.68980000  1.0 -0.1569717941
N  N89  1  0.79840000  0.72830000  0.24310000  1.0 -0.0439989463
N  N90  1  0.76920000  0.68980000  0.17530000  1.0 -0.1569717941
N  N91  1  0.79840000  0.27170000  0.75690000  1.0 -0.0439989463
N  N92  1  0.76920000  0.31020000  0.82470000  1.0 -0.1569717941
N  N93  1  0.20160000  0.72830000  0.75690000  1.0 -0.0439989463
N  N94  1  0.23080000  0.68980000  0.82470000  1.0 -0.1569717941
N  N95  1  0.20160000  0.27170000  0.24310000  1.0 -0.0439989463
N  N96  1  0.23080000  0.31020000  0.17530000  1.0 -0.1569717941
O  O1  1  0.05810000  0.44500000  0.22420000  1.0 -0.4082562783
O  O2  1  0.05950000  0.47180000  0.14760000  1.0 -0.3255615821
O  O3  1  0.21400000  0.43820000  0.05760000  1.0 -0.3110481906
O  O4  1  0.26120000  0.37740000  0.08080000  1.0 -0.3403068963
O  O5  1  0.94190000  0.55500000  0.22420000  1.0 -0.4082562783
O  O6  1  0.94050000  0.52820000  0.14760000  1.0 -0.3242350902
O  O7  1  0.78600000  0.56180000  0.05760000  1.0 -0.3110481906
O  O8  1  0.73880000  0.62260000  0.08080000  1.0 -0.3403068963
O  O9  1  0.94190000  0.44500000  0.77580000  1.0 -0.4082562783
O  O10  1  0.94050000  0.47180000  0.85240000  1.0 -0.3242350902
O  O11  1  0.78600000  0.43820000  0.94240000  1.0 -0.3110481906
O  O12  1  0.73880000  0.37740000  0.91920000  1.0 -0.3403068963
O  O13  1  0.05810000  0.55500000  0.77580000  1.0 -0.4082562783
O  O14  1  0.05950000  0.52820000  0.85240000  1.0 -0.3242350902
O  O15  1  0.21400000  0.56180000  0.94240000  1.0 -0.3110481906
O  O16  1  0.26120000  0.62260000  0.91920000  1.0 -0.3403068963
O  O17  1  0.22420000  0.05810000  0.44500000  1.0 -0.4082562783
O  O18  1  0.14760000  0.05950000  0.47180000  1.0 -0.3242350902
O  O19  1  0.05760000  0.21400000  0.43820000  1.0 -0.3110481906
O  O20  1  0.08080000  0.26120000  0.37740000  1.0 -0.3403068963
O  O21  1  0.22420000  0.94190000  0.55500000  1.0 -0.4082562783
O  O22  1  0.14760000  0.94050000  0.52820000  1.0 -0.3255615821
O  O23  1  0.05760000  0.78600000  0.56180000  1.0 -0.3110481906
O  O24  1  0.08080000  0.73880000  0.62260000  1.0 -0.3403068963
O  O25  1  0.77580000  0.94190000  0.44500000  1.0 -0.4082562783
O  O26  1  0.85240000  0.94050000  0.47180000  1.0 -0.3242350902
O  O27  1  0.94240000  0.78600000  0.43820000  1.0 -0.3110481906
O  O28  1  0.91920000  0.73880000  0.37740000  1.0 -0.3403068963
O  O29  1  0.77580000  0.05810000  0.55500000  1.0 -0.4082562783
O  O30  1  0.85240000  0.05950000  0.52820000  1.0 -0.3242350902
O  O31  1  0.94240000  0.21400000  0.56180000  1.0 -0.3110481906
O  O32  1  0.91920000  0.26120000  0.62260000  1.0 -0.3403068963
O  O33  1  0.44500000  0.22420000  0.05810000  1.0 -0.4082562783
O  O34  1  0.47180000  0.14760000  0.05950000  1.0 -0.3242350902
O  O35  1  0.43820000  0.05760000  0.21400000  1.0 -0.3110481906
O  O36  1  0.37740000  0.08080000  0.26120000  1.0 -0.3403068963
O  O37  1  0.55500000  0.22420000  0.94190000  1.0 -0.4082562783
O  O38  1  0.52820000  0.14760000  0.94050000  1.0 -0.3242350902
O  O39  1  0.56180000  0.05760000  0.78600000  1.0 -0.3110481906
O  O40  1  0.62260000  0.08080000  0.73880000  1.0 -0.3403068963
O  O41  1  0.44500000  0.77580000  0.94190000  1.0 -0.4082562783
O  O42  1  0.47180000  0.85240000  0.94050000  1.0 -0.3255615821
O  O43  1  0.43820000  0.94240000  0.78600000  1.0 -0.3110481906
O  O44  1  0.37740000  0.91920000  0.73880000  1.0 -0.3403068963
O  O45  1  0.55500000  0.77580000  0.05810000  1.0 -0.4082562783
O  O46  1  0.52820000  0.85240000  0.05950000  1.0 -0.3255615821
O  O47  1  0.56180000  0.94240000  0.21400000  1.0 -0.3110481906
O  O48  1  0.62260000  0.91920000  0.26120000  1.0 -0.3403068963
O  O49  1  0.44500000  0.05810000  0.77580000  1.0 -0.4082562783
O  O50  1  0.47180000  0.05950000  0.85240000  1.0 -0.3242350902
O  O51  1  0.43820000  0.21400000  0.94240000  1.0 -0.3110481906
O  O52  1  0.37740000  0.26120000  0.91920000  1.0 -0.3403068963
O  O53  1  0.55500000  0.94190000  0.77580000  1.0 -0.4082562783
O  O54  1  0.52820000  0.94050000  0.85240000  1.0 -0.3242350902
O  O55  1  0.56180000  0.78600000  0.94240000  1.0 -0.3110481906
O  O56  1  0.62260000  0.73880000  0.91920000  1.0 -0.3403068963
O  O57  1  0.44500000  0.94190000  0.22420000  1.0 -0.4082562783
O  O58  1  0.47180000  0.94050000  0.14760000  1.0 -0.3255615821
O  O59  1  0.43820000  0.78600000  0.05760000  1.0 -0.3110481906
O  O60  1  0.37740000  0.73880000  0.08080000  1.0 -0.3403068963
O  O61  1  0.55500000  0.05810000  0.22420000  1.0 -0.4082562783
O  O62  1  0.52820000  0.05950000  0.14760000  1.0 -0.3242350902
O  O63  1  0.56180000  0.21400000  0.05760000  1.0 -0.3110481906
O  O64  1  0.62260000  0.26120000  0.08080000  1.0 -0.3403068963
O  O65  1  0.05810000  0.22420000  0.55500000  1.0 -0.4082562783
O  O66  1  0.05950000  0.14760000  0.52820000  1.0 -0.3242350902
O  O67  1  0.21400000  0.05760000  0.56180000  1.0 -0.3110481906
O  O68  1  0.26120000  0.08080000  0.62260000  1.0 -0.3403068963
O  O69  1  0.94190000  0.22420000  0.44500000  1.0 -0.4082562783
O  O70  1  0.94050000  0.14760000  0.47180000  1.0 -0.3242350902
O  O71  1  0.78600000  0.05760000  0.43820000  1.0 -0.3110481906
O  O72  1  0.73880000  0.08080000  0.37740000  1.0 -0.3403068963
O  O73  1  0.94190000  0.77580000  0.55500000  1.0 -0.4082562783
O  O74  1  0.94050000  0.85240000  0.52820000  1.0 -0.3242350902
O  O75  1  0.78600000  0.94240000  0.56180000  1.0 -0.3110481906
O  O76  1  0.73880000  0.91920000  0.62260000  1.0 -0.3403068963
O  O77  1  0.05810000  0.77580000  0.44500000  1.0 -0.4082562783
O  O78  1  0.05950000  0.85240000  0.47180000  1.0 -0.3255615821
O  O79  1  0.21400000  0.94240000  0.43820000  1.0 -0.3110481906
O  O80  1  0.26120000  0.91920000  0.37740000  1.0 -0.3403068963
O  O81  1  0.22420000  0.44500000  0.94190000  1.0 -0.4082562783
O  O82  1  0.14760000  0.47180000  0.94050000  1.0 -0.3242350902
O  O83  1  0.05760000  0.43820000  0.78600000  1.0 -0.3110481906
O  O84  1  0.08080000  0.37740000  0.73880000  1.0 -0.3403068963
O  O85  1  0.22420000  0.55500000  0.05810000  1.0 -0.4082562783
O  O86  1  0.14760000  0.52820000  0.05950000  1.0 -0.3255615821
O  O87  1  0.05760000  0.56180000  0.21400000  1.0 -0.3110481906
O  O88  1  0.08080000  0.62260000  0.26120000  1.0 -0.3403068963
O  O89  1  0.77580000  0.44500000  0.05810000  1.0 -0.4082562783
O  O90  1  0.85240000  0.47180000  0.05950000  1.0 -0.3242350902
O  O91  1  0.94240000  0.43820000  0.21400000  1.0 -0.3110481906
O  O92  1  0.91920000  0.37740000  0.26120000  1.0 -0.3403068963
O  O93  1  0.77580000  0.55500000  0.94190000  1.0 -0.4082562783
O  O94  1  0.85240000  0.52820000  0.94050000  1.0 -0.3242350902
O  O95  1  0.94240000  0.56180000  0.78600000  1.0 -0.3110481906
O  O96  1  0.91920000  0.62260000  0.73880000  1.0 -0.3403068963
O  O97  1  0.94190000  0.55500000  0.77580000  1.0 -0.4082562783
O  O98  1  0.94050000  0.52820000  0.85240000  1.0 -0.3242350902
O  O99  1  0.78600000  0.56180000  0.94240000  1.0 -0.3110481906
O  O100  1  0.73880000  0.62260000  0.91920000  1.0 -0.3403068963
O  O101  1  0.05810000  0.44500000  0.77580000  1.0 -0.4082562783
O  O102  1  0.05950000  0.47180000  0.85240000  1.0 -0.3242350902
O  O103  1  0.21400000  0.43820000  0.94240000  1.0 -0.3110481906
O  O104  1  0.26120000  0.37740000  0.91920000  1.0 -0.3403068963
O  O105  1  0.05810000  0.55500000  0.22420000  1.0 -0.4082562783
O  O106  1  0.05950000  0.52820000  0.14760000  1.0 -0.3255615821
O  O107  1  0.21400000  0.56180000  0.05760000  1.0 -0.3110481906
O  O108  1  0.26120000  0.62260000  0.08080000  1.0 -0.3403068963
O  O109  1  0.94190000  0.44500000  0.22420000  1.0 -0.4082562783
O  O110  1  0.94050000  0.47180000  0.14760000  1.0 -0.3242350902
O  O111  1  0.78600000  0.43820000  0.05760000  1.0 -0.3110481906
O  O112  1  0.73880000  0.37740000  0.08080000  1.0 -0.3403068963
O  O113  1  0.77580000  0.94190000  0.55500000  1.0 -0.4082562783
O  O114  1  0.85240000  0.94050000  0.52820000  1.0 -0.3242350902
O  O115  1  0.94240000  0.78600000  0.56180000  1.0 -0.3110481906
O  O116  1  0.91920000  0.73880000  0.62260000  1.0 -0.3403068963
O  O117  1  0.77580000  0.05810000  0.44500000  1.0 -0.4082562783
O  O118  1  0.85240000  0.05950000  0.47180000  1.0 -0.3242350902
O  O119  1  0.94240000  0.21400000  0.43820000  1.0 -0.3110481906
O  O120  1  0.91920000  0.26120000  0.37740000  1.0 -0.3403068963
O  O121  1  0.22420000  0.05810000  0.55500000  1.0 -0.4082562783
O  O122  1  0.14760000  0.05950000  0.52820000  1.0 -0.3242350902
O  O123  1  0.05760000  0.21400000  0.56180000  1.0 -0.3110481906
O  O124  1  0.08080000  0.26120000  0.62260000  1.0 -0.3403068963
O  O125  1  0.22420000  0.94190000  0.44500000  1.0 -0.4082562783
O  O126  1  0.14760000  0.94050000  0.47180000  1.0 -0.3255615821
O  O127  1  0.05760000  0.78600000  0.43820000  1.0 -0.3110481906
O  O128  1  0.08080000  0.73880000  0.37740000  1.0 -0.3403068963
O  O129  1  0.55500000  0.77580000  0.94190000  1.0 -0.4082562783
O  O130  1  0.52820000  0.85240000  0.94050000  1.0 -0.3242350902
O  O131  1  0.56180000  0.94240000  0.78600000  1.0 -0.3110481906
O  O132  1  0.62260000  0.91920000  0.73880000  1.0 -0.3403068963
O  O133  1  0.44500000  0.77580000  0.05810000  1.0 -0.4082562783
O  O134  1  0.47180000  0.85240000  0.05950000  1.0 -0.3255615821
O  O135  1  0.43820000  0.94240000  0.21400000  1.0 -0.3110481906
O  O136  1  0.37740000  0.91920000  0.26120000  1.0 -0.3403068963
O  O137  1  0.55500000  0.22420000  0.05810000  1.0 -0.4082562783
O  O138  1  0.52820000  0.14760000  0.05950000  1.0 -0.3242350902
O  O139  1  0.56180000  0.05760000  0.21400000  1.0 -0.3110481906
O  O140  1  0.62260000  0.08080000  0.26120000  1.0 -0.3403068963
O  O141  1  0.44500000  0.22420000  0.94190000  1.0 -0.4082562783
O  O142  1  0.47180000  0.14760000  0.94050000  1.0 -0.3242350902
O  O143  1  0.43820000  0.05760000  0.78600000  1.0 -0.3110481906
O  O144  1  0.37740000  0.08080000  0.73880000  1.0 -0.3403068963
O  O145  1  0.55500000  0.94190000  0.22420000  1.0 -0.4082562783
O  O146  1  0.52820000  0.94050000  0.14760000  1.0 -0.3255615821
O  O147  1  0.56180000  0.78600000  0.05760000  1.0 -0.3110481906
O  O148  1  0.62260000  0.73880000  0.08080000  1.0 -0.3403068963
O  O149  1  0.44500000  0.05810000  0.22420000  1.0 -0.4082562783
O  O150  1  0.47180000  0.05950000  0.14760000  1.0 -0.3242350902
O  O151  1  0.43820000  0.21400000  0.05760000  1.0 -0.3110481906
O  O152  1  0.37740000  0.26120000  0.08080000  1.0 -0.3403068963
O  O153  1  0.55500000  0.05810000  0.77580000  1.0 -0.4082562783
O  O154  1  0.52820000  0.05950000  0.85240000  1.0 -0.3242350902
O  O155  1  0.56180000  0.21400000  0.94240000  1.0 -0.3110481906
O  O156  1  0.62260000  0.26120000  0.91920000  1.0 -0.3403068963
O  O157  1  0.44500000  0.94190000  0.77580000  1.0 -0.4082562783
O  O158  1  0.47180000  0.94050000  0.85240000  1.0 -0.3255615821
O  O159  1  0.43820000  0.78600000  0.94240000  1.0 -0.3110481906
O  O160  1  0.37740000  0.73880000  0.91920000  1.0 -0.3403068963
O  O161  1  0.94190000  0.77580000  0.44500000  1.0 -0.4082562783
O  O162  1  0.94050000  0.85240000  0.47180000  1.0 -0.3242350902
O  O163  1  0.78600000  0.94240000  0.43820000  1.0 -0.3110481906
O  O164  1  0.73880000  0.91920000  0.37740000  1.0 -0.3403068963
O  O165  1  0.05810000  0.77580000  0.55500000  1.0 -0.4082562783
O  O166  1  0.05950000  0.85240000  0.52820000  1.0 -0.3255615821
O  O167  1  0.21400000  0.94240000  0.56180000  1.0 -0.3110481906
O  O168  1  0.26120000  0.91920000  0.62260000  1.0 -0.3403068963
O  O169  1  0.05810000  0.22420000  0.44500000  1.0 -0.4082562783
O  O170  1  0.05950000  0.14760000  0.47180000  1.0 -0.3242350902
O  O171  1  0.21400000  0.05760000  0.43820000  1.0 -0.3110481906
O  O172  1  0.26120000  0.08080000  0.37740000  1.0 -0.3403068963
O  O173  1  0.94190000  0.22420000  0.55500000  1.0 -0.4082562783
O  O174  1  0.94050000  0.14760000  0.52820000  1.0 -0.3242350902
O  O175  1  0.78600000  0.05760000  0.56180000  1.0 -0.3110481906
O  O176  1  0.73880000  0.08080000  0.62260000  1.0 -0.3403068963
O  O177  1  0.77580000  0.55500000  0.05810000  1.0 -0.4082562783
O  O178  1  0.85240000  0.52820000  0.05950000  1.0 -0.3242350902
O  O179  1  0.94240000  0.56180000  0.21400000  1.0 -0.3110481906
O  O180  1  0.91920000  0.62260000  0.26120000  1.0 -0.3403068963
O  O181  1  0.77580000  0.44500000  0.94190000  1.0 -0.4082562783
O  O182  1  0.85240000  0.47180000  0.94050000  1.0 -0.3242350902
O  O183  1  0.94240000  0.43820000  0.78600000  1.0 -0.3110481906
O  O184  1  0.91920000  0.37740000  0.73880000  1.0 -0.3403068963
O  O185  1  0.22420000  0.55500000  0.94190000  1.0 -0.4082562783
O  O186  1  0.14760000  0.52820000  0.94050000  1.0 -0.3242350902
O  O187  1  0.05760000  0.56180000  0.78600000  1.0 -0.3110481906
O  O188  1  0.08080000  0.62260000  0.73880000  1.0 -0.3403068963
O  O189  1  0.22420000  0.44500000  0.05810000  1.0 -0.4082562783
O  O190  1  0.14760000  0.47180000  0.05950000  1.0 -0.3255615821
O  O191  1  0.05760000  0.43820000  0.21400000  1.0 -0.3110481906
O  O192  1  0.08080000  0.37740000  0.26120000  1.0 -0.3403068963
