# DDEC6 charges by PACMAN v1.1 (https://github.com/mtap-research/PACMAN-charge/)
data_OGIBOV_FSR_pacman
_symmetry_space_group_name_H-M   'P 1'
_cell_length_a   12.23200000
_cell_length_b   12.26800000
_cell_length_c   16.39200000
_cell_angle_alpha   90.00000000
_cell_angle_beta   90.00000000
_cell_angle_gamma   90.00000000
_symmetry_Int_Tables_number   1
_chemical_formula_structural   Ga5P5(O5F)4
_chemical_formula_sum   'Ga20 P20 O80 F16'
_cell_volume   2459.81918899
_cell_formula_units_Z   4
loop_
 _symmetry_equiv_pos_site_id
 _symmetry_equiv_pos_as_xyz
  1  'x, y, z'
loop_
 _atom_site_type_symbol
 _atom_site_label
 _atom_site_symmetry_multiplicity
 _atom_site_fract_x
 _atom_site_fract_y
 _atom_site_fract_z
 _atom_site_occupancy
 _atom_site_charge
Ga  Ga1  1  0.25000000  0.75000000  0.18389000  1.0 1.4702308516
Ga  Ga2  1  0.75000000  0.25000000  0.31611000  1.0 1.4702308516
Ga  Ga3  1  0.75000000  0.25000000  0.81611000  1.0 1.4702308516
Ga  Ga4  1  0.25000000  0.75000000  0.68389000  1.0 1.4702308516
Ga  Ga5  1  0.17248000  0.47635000  0.25406000  1.0 1.4381322155
Ga  Ga6  1  0.32752000  0.02365000  0.25406000  1.0 1.4381322155
Ga  Ga7  1  0.67248000  0.52365000  0.24594000  1.0 1.4381322155
Ga  Ga8  1  0.82752000  0.97635000  0.24594000  1.0 1.4381322155
Ga  Ga9  1  0.82752000  0.52365000  0.74594000  1.0 1.4381322155
Ga  Ga10  1  0.67248000  0.97635000  0.74594000  1.0 1.4381322155
Ga  Ga11  1  0.32752000  0.47635000  0.75406000  1.0 1.4381322155
Ga  Ga12  1  0.17248000  0.02365000  0.75406000  1.0 1.4381322155
Ga  Ga13  1  0.13311000  0.45979000  0.90095000  1.0 1.4812563399
Ga  Ga14  1  0.36689000  0.04021000  0.90095000  1.0 1.4812563399
Ga  Ga15  1  0.63311000  0.54021000  0.59905000  1.0 1.4812563399
Ga  Ga16  1  0.86689000  0.95979000  0.59905000  1.0 1.4812563399
Ga  Ga17  1  0.86689000  0.54021000  0.09905000  1.0 1.4812563399
Ga  Ga18  1  0.63311000  0.95979000  0.09905000  1.0 1.4812563399
Ga  Ga19  1  0.36689000  0.45979000  0.40095000  1.0 1.4812563399
Ga  Ga20  1  0.13311000  0.04021000  0.40095000  1.0 1.4812563399
P  P1  1  0.25000000  0.25000000  0.32105000  1.0 1.5220040718
P  P2  1  0.75000000  0.75000000  0.17895000  1.0 1.5220040718
P  P3  1  0.75000000  0.75000000  0.67895000  1.0 1.5220040718
P  P4  1  0.25000000  0.25000000  0.82105000  1.0 1.5220040718
P  P5  1  0.12554000  0.56249000  0.07852000  1.0 1.5368733446
P  P6  1  0.37446000  0.93751000  0.07852000  1.0 1.5368733446
P  P7  1  0.62554000  0.43751000  0.42148000  1.0 1.5368733446
P  P8  1  0.87446000  0.06249000  0.42148000  1.0 1.5368733446
P  P9  1  0.87446000  0.43751000  0.92148000  1.0 1.5289669474
P  P10  1  0.62554000  0.06249000  0.92148000  1.0 1.5368733446
P  P11  1  0.37446000  0.56249000  0.57852000  1.0 1.5368733446
P  P12  1  0.12554000  0.93751000  0.57852000  1.0 1.5368733446
P  P13  1  0.41065000  0.55761000  0.23754000  1.0 1.5220040718
P  P14  1  0.08935000  0.94239000  0.23754000  1.0 1.5289669474
P  P15  1  0.91065000  0.44239000  0.26246000  1.0 1.5220040718
P  P16  1  0.58935000  0.05761000  0.26246000  1.0 1.5220040718
P  P17  1  0.58935000  0.44239000  0.76246000  1.0 1.5220040718
P  P18  1  0.91065000  0.05761000  0.76246000  1.0 1.5220040718
P  P19  1  0.08935000  0.55761000  0.73754000  1.0 1.5289669474
P  P20  1  0.41065000  0.94239000  0.73754000  1.0 1.5220040718
O  O1  1  0.38720000  0.66910000  0.19940000  1.0 -0.6467537518
O  O2  1  0.11280000  0.83090000  0.19940000  1.0 -0.6467537518
O  O3  1  0.88720000  0.33090000  0.30060000  1.0 -0.6467537518
O  O4  1  0.61280000  0.16910000  0.30060000  1.0 -0.6467537518
O  O5  1  0.61280000  0.33090000  0.80060000  1.0 -0.6467537518
O  O6  1  0.88720000  0.16910000  0.80060000  1.0 -0.6467537518
O  O7  1  0.11280000  0.66910000  0.69940000  1.0 -0.6467537518
O  O8  1  0.38720000  0.83090000  0.69940000  1.0 -0.6467537518
O  O9  1  0.19180000  0.66360000  0.09720000  1.0 -0.6644446725
O  O10  1  0.30820000  0.83640000  0.09720000  1.0 -0.6699880554
O  O11  1  0.69180000  0.33640000  0.40280000  1.0 -0.6644446725
O  O12  1  0.80820000  0.16360000  0.40280000  1.0 -0.6644446725
O  O13  1  0.80820000  0.33640000  0.90280000  1.0 -0.6644446725
O  O14  1  0.69180000  0.16360000  0.90280000  1.0 -0.6644446725
O  O15  1  0.30820000  0.66360000  0.59720000  1.0 -0.6644446725
O  O16  1  0.19180000  0.83640000  0.59720000  1.0 -0.6699880554
O  O17  1  0.17450000  0.51380000  0.00000000  1.0 -0.6467537518
O  O18  1  0.32550000  0.98620000  0.00000000  1.0 -0.6467537518
O  O19  1  0.67450000  0.48620000  0.50000000  1.0 -0.6467537518
O  O20  1  0.82550000  0.01380000  0.50000000  1.0 -0.6467537518
O  O21  1  0.82550000  0.48620000  0.00000000  1.0 -0.6467537518
O  O22  1  0.67450000  0.01380000  0.00000000  1.0 -0.6467537518
O  O23  1  0.32550000  0.51380000  0.50000000  1.0 -0.6467537518
O  O24  1  0.17450000  0.98620000  0.50000000  1.0 -0.6467537518
O  O25  1  0.52080000  0.51520000  0.20390000  1.0 -0.6137521898
O  O26  1  0.97920000  0.98480000  0.20390000  1.0 -0.6137521898
O  O27  1  0.02080000  0.48480000  0.29610000  1.0 -0.6137521898
O  O28  1  0.47920000  0.01520000  0.29610000  1.0 -0.6137521898
O  O29  1  0.47920000  0.48480000  0.79610000  1.0 -0.6137521898
O  O30  1  0.02080000  0.01520000  0.79610000  1.0 -0.6137521898
O  O31  1  0.97920000  0.51520000  0.70390000  1.0 -0.6137521898
O  O32  1  0.52080000  0.98480000  0.70390000  1.0 -0.6137521898
O  O33  1  0.32490000  0.31710000  0.37800000  1.0 -0.6644446725
O  O34  1  0.17510000  0.18290000  0.37800000  1.0 -0.6644446725
O  O35  1  0.82490000  0.68290000  0.12200000  1.0 -0.6644446725
O  O36  1  0.67510000  0.81710000  0.12200000  1.0 -0.6644446725
O  O37  1  0.67510000  0.68290000  0.62200000  1.0 -0.6644446725
O  O38  1  0.82490000  0.81710000  0.62200000  1.0 -0.6644446725
O  O39  1  0.17510000  0.31710000  0.87800000  1.0 -0.6644446725
O  O40  1  0.32490000  0.18290000  0.87800000  1.0 -0.6644446725
O  O41  1  0.41510000  0.57020000  0.33130000  1.0 -0.6922859808
O  O42  1  0.08490000  0.92980000  0.33130000  1.0 -0.6922859808
O  O43  1  0.91510000  0.42980000  0.16870000  1.0 -0.6922859808
O  O44  1  0.58490000  0.07020000  0.16870000  1.0 -0.6922859808
O  O45  1  0.58490000  0.42980000  0.66870000  1.0 -0.6922859808
O  O46  1  0.91510000  0.07020000  0.66870000  1.0 -0.6922859808
O  O47  1  0.08490000  0.57020000  0.83130000  1.0 -0.6922859808
O  O48  1  0.41510000  0.92980000  0.83130000  1.0 -0.6922859808
O  O49  1  0.13060000  0.47580000  0.14430000  1.0 -0.6699880554
O  O50  1  0.36940000  0.02420000  0.14430000  1.0 -0.6699880554
O  O51  1  0.63060000  0.52420000  0.35570000  1.0 -0.6699880554
O  O52  1  0.86940000  0.97580000  0.35570000  1.0 -0.6699880554
O  O53  1  0.86940000  0.52420000  0.85570000  1.0 -0.6699880554
O  O54  1  0.63060000  0.97580000  0.85570000  1.0 -0.6699880554
O  O55  1  0.36940000  0.47580000  0.64430000  1.0 -0.6699880554
O  O56  1  0.13060000  0.02420000  0.64430000  1.0 -0.6699880554
O  O57  1  0.32490000  0.47220000  0.21790000  1.0 -0.7259988149
O  O58  1  0.17510000  0.02780000  0.21790000  1.0 -0.7259988149
O  O59  1  0.82490000  0.52780000  0.28210000  1.0 -0.7259988149
O  O60  1  0.67510000  0.97220000  0.28210000  1.0 -0.7259988149
O  O61  1  0.67510000  0.52780000  0.78210000  1.0 -0.7259988149
O  O62  1  0.82490000  0.97220000  0.78210000  1.0 -0.7259988149
O  O63  1  0.17510000  0.47220000  0.71790000  1.0 -0.7259988149
O  O64  1  0.32490000  0.02780000  0.71790000  1.0 -0.7259988149
O  O65  1  0.17650000  0.32120000  0.26840000  1.0 -0.6467537518
O  O66  1  0.32350000  0.17880000  0.26840000  1.0 -0.6467537518
O  O67  1  0.67650000  0.67880000  0.23160000  1.0 -0.6467537518
O  O68  1  0.82350000  0.82120000  0.23160000  1.0 -0.6467537518
O  O69  1  0.82350000  0.67880000  0.73160000  1.0 -0.6467537518
O  O70  1  0.67650000  0.82120000  0.73160000  1.0 -0.6467537518
O  O71  1  0.32350000  0.32120000  0.76840000  1.0 -0.6467537518
O  O72  1  0.17650000  0.17880000  0.76840000  1.0 -0.6467537518
O  O73  1  0.00560000  0.59700000  0.06330000  1.0 -0.6699880554
O  O74  1  0.49440000  0.90300000  0.06330000  1.0 -0.6699880554
O  O75  1  0.50560000  0.40300000  0.43670000  1.0 -0.6699880554
O  O76  1  0.99440000  0.09700000  0.43670000  1.0 -0.6699880554
O  O77  1  0.99440000  0.40300000  0.93670000  1.0 -0.6699880554
O  O78  1  0.50560000  0.09700000  0.93670000  1.0 -0.6699880554
O  O79  1  0.49440000  0.59700000  0.56330000  1.0 -0.6699880554
O  O80  1  0.00560000  0.90300000  0.56330000  1.0 -0.6699880554
F  F1  1  0.21270000  0.49490000  0.36710000  1.0 -0.416771557
F  F2  1  0.28730000  0.00510000  0.36710000  1.0 -0.416771557
F  F3  1  0.71270000  0.50510000  0.13290000  1.0 -0.416771557
F  F4  1  0.78730000  0.99490000  0.13290000  1.0 -0.416771557
F  F5  1  0.78730000  0.50510000  0.63290000  1.0 -0.416771557
F  F6  1  0.71270000  0.99490000  0.63290000  1.0 -0.416771557
F  F7  1  0.28730000  0.49490000  0.86710000  1.0 -0.416771557
F  F8  1  0.21270000  0.00510000  0.86710000  1.0 -0.416771557
F  F9  1  0.18280000  0.64150000  0.25850000  1.0 -0.4148579498
F  F10  1  0.31720000  0.85850000  0.25850000  1.0 -0.4148579498
F  F11  1  0.68280000  0.35850000  0.24150000  1.0 -0.4148579498
F  F12  1  0.81720000  0.14150000  0.24150000  1.0 -0.416771557
F  F13  1  0.81720000  0.35850000  0.74150000  1.0 -0.416771557
F  F14  1  0.68280000  0.14150000  0.74150000  1.0 -0.416771557
F  F15  1  0.31720000  0.64150000  0.75850000  1.0 -0.416771557
F  F16  1  0.18280000  0.85850000  0.75850000  1.0 -0.4148579498
