# DDEC6 charges by PACMAN v1.1 (https://github.com/mtap-research/PACMAN-charge/)
data_OGIYOT_FSR_pacman
_symmetry_space_group_name_H-M   'P 1'
_cell_length_a   18.93070000
_cell_length_b   18.93070000
_cell_length_c   20.98900000
_cell_angle_alpha   90.00000000
_cell_angle_beta   90.00000000
_cell_angle_gamma   90.00000000
_symmetry_Int_Tables_number   1
_chemical_formula_structural   Nd3H32C52S4(NO4)4
_chemical_formula_sum   'Nd12 H128 C208 S16 N16 O64'
_cell_volume   7521.85736686
_cell_formula_units_Z   4
loop_
 _symmetry_equiv_pos_site_id
 _symmetry_equiv_pos_as_xyz
  1  'x, y, z'
loop_
 _atom_site_type_symbol
 _atom_site_label
 _atom_site_symmetry_multiplicity
 _atom_site_fract_x
 _atom_site_fract_y
 _atom_site_fract_z
 _atom_site_occupancy
 _atom_site_charge
Nd  Nd1  1  0.50000000  0.00000000  0.25000000  1.0 0.4579254958
Nd  Nd2  1  0.00000000  0.50000000  0.75000000  1.0 0.4579254958
Nd  Nd3  1  0.50000000  0.00000000  0.75000000  1.0 0.4579254958
Nd  Nd4  1  0.00000000  0.50000000  0.25000000  1.0 0.4579254958
Nd  Nd5  1  0.00000000  0.50000000  0.22000000  1.0 0.4579254958
Nd  Nd6  1  0.50000000  0.00000000  0.72000000  1.0 0.4579254958
Nd  Nd7  1  0.00000000  0.50000000  0.28000000  1.0 0.4579254958
Nd  Nd8  1  0.50000000  0.00000000  0.78000000  1.0 0.4579254958
Nd  Nd9  1  0.00000000  0.50000000  0.78000000  1.0 0.4579254958
Nd  Nd10  1  0.50000000  0.00000000  0.28000000  1.0 0.4579254958
Nd  Nd11  1  0.00000000  0.50000000  0.72000000  1.0 0.4579254958
Nd  Nd12  1  0.50000000  0.00000000  0.22000000  1.0 0.4579254958
H  H1  1  0.65900000  0.65900000  0.21610000  1.0 0.1200740574
H  H2  1  0.34100000  0.34100000  0.21610000  1.0 0.1200740574
H  H3  1  0.34100000  0.65900000  0.71610000  1.0 0.1200740574
H  H4  1  0.65900000  0.34100000  0.71610000  1.0 0.1200740574
H  H5  1  0.34100000  0.65900000  0.28390000  1.0 0.1200740574
H  H6  1  0.65900000  0.34100000  0.28390000  1.0 0.1200740574
H  H7  1  0.65900000  0.65900000  0.78390000  1.0 0.1200740574
H  H8  1  0.34100000  0.34100000  0.78390000  1.0 0.1200740574
H  H9  1  0.61450000  0.61450000  0.16520000  1.0 0.1421219957
H  H10  1  0.38550000  0.38550000  0.16520000  1.0 0.1421219957
H  H11  1  0.38550000  0.61450000  0.66520000  1.0 0.1421219957
H  H12  1  0.61450000  0.38550000  0.66520000  1.0 0.1421219957
H  H13  1  0.38550000  0.61450000  0.33480000  1.0 0.1421219957
H  H14  1  0.61450000  0.38550000  0.33480000  1.0 0.1421219957
H  H15  1  0.61450000  0.61450000  0.83480000  1.0 0.1421219957
H  H16  1  0.38550000  0.38550000  0.83480000  1.0 0.1421219957
H  H17  1  0.67760000  0.78590000  0.20020000  1.0 0.1421219957
H  H18  1  0.32240000  0.21410000  0.20020000  1.0 0.1421219957
H  H19  1  0.21410000  0.67760000  0.70020000  1.0 0.1421219957
H  H20  1  0.78590000  0.32240000  0.70020000  1.0 0.1421219957
H  H21  1  0.32240000  0.78590000  0.29980000  1.0 0.1421219957
H  H22  1  0.67760000  0.21410000  0.29980000  1.0 0.1421219957
H  H23  1  0.78590000  0.67760000  0.79980000  1.0 0.1421219957
H  H24  1  0.21410000  0.32240000  0.79980000  1.0 0.1421219957
H  H25  1  0.32240000  0.21410000  0.79980000  1.0 0.1421219957
H  H26  1  0.67760000  0.78590000  0.79980000  1.0 0.1421219957
H  H27  1  0.78590000  0.32240000  0.29980000  1.0 0.1421219957
H  H28  1  0.21410000  0.67760000  0.29980000  1.0 0.1421219957
H  H29  1  0.67760000  0.21410000  0.70020000  1.0 0.1421219957
H  H30  1  0.32240000  0.78590000  0.70020000  1.0 0.1421219957
H  H31  1  0.21410000  0.32240000  0.20020000  1.0 0.1421219957
H  H32  1  0.78590000  0.67760000  0.20020000  1.0 0.1421219957
H  H33  1  0.56560000  0.88830000  0.06510000  1.0 0.1421219957
H  H34  1  0.43440000  0.11170000  0.06510000  1.0 0.1421219957
H  H35  1  0.11170000  0.56560000  0.56510000  1.0 0.1421219957
H  H36  1  0.88830000  0.43440000  0.56510000  1.0 0.1421219957
H  H37  1  0.43440000  0.88830000  0.43490000  1.0 0.1421219957
H  H38  1  0.56560000  0.11170000  0.43490000  1.0 0.1421219957
H  H39  1  0.88830000  0.56560000  0.93490000  1.0 0.1421219957
H  H40  1  0.11170000  0.43440000  0.93490000  1.0 0.1421219957
H  H41  1  0.43440000  0.11170000  0.93490000  1.0 0.1421219957
H  H42  1  0.56560000  0.88830000  0.93490000  1.0 0.1421219957
H  H43  1  0.88830000  0.43440000  0.43490000  1.0 0.1421219957
H  H44  1  0.11170000  0.56560000  0.43490000  1.0 0.1421219957
H  H45  1  0.56560000  0.11170000  0.56510000  1.0 0.1421219957
H  H46  1  0.43440000  0.88830000  0.56510000  1.0 0.1421219957
H  H47  1  0.11170000  0.43440000  0.06510000  1.0 0.1421219957
H  H48  1  0.88830000  0.56560000  0.06510000  1.0 0.1421219957
H  H49  1  0.48270000  0.82630000  0.00000000  1.0 0.1200740574
H  H50  1  0.51730000  0.17370000  0.00000000  1.0 0.1200740574
H  H51  1  0.17370000  0.48270000  0.50000000  1.0 0.1200740574
H  H52  1  0.82630000  0.51730000  0.50000000  1.0 0.1200740574
H  H53  1  0.51730000  0.82630000  0.50000000  1.0 0.1200740574
H  H54  1  0.48270000  0.17370000  0.50000000  1.0 0.1200740574
H  H55  1  0.82630000  0.48270000  0.00000000  1.0 0.1200740574
H  H56  1  0.17370000  0.51730000  0.00000000  1.0 0.1200740574
H  H57  1  0.48050000  0.74160000  0.00000000  1.0 0.1280468952
H  H58  1  0.51950000  0.25840000  0.00000000  1.0 0.1280468952
H  H59  1  0.25840000  0.48050000  0.50000000  1.0 0.1280468952
H  H60  1  0.74160000  0.51950000  0.50000000  1.0 0.1280468952
H  H61  1  0.51950000  0.74160000  0.50000000  1.0 0.1280468952
H  H62  1  0.48050000  0.25840000  0.50000000  1.0 0.1280468952
H  H63  1  0.74160000  0.48050000  0.00000000  1.0 0.1280468952
H  H64  1  0.25840000  0.51950000  0.00000000  1.0 0.1280468952
H  H65  1  0.39370000  0.07880000  0.36530000  1.0 0.1200740574
H  H66  1  0.60630000  0.92120000  0.36530000  1.0 0.1200740574
H  H67  1  0.92120000  0.39370000  0.86530000  1.0 0.1200740574
H  H68  1  0.07880000  0.60630000  0.86530000  1.0 0.1200740574
H  H69  1  0.60630000  0.07880000  0.13470000  1.0 0.1200740574
H  H70  1  0.39370000  0.92120000  0.13470000  1.0 0.1200740574
H  H71  1  0.07880000  0.39370000  0.63470000  1.0 0.1200740574
H  H72  1  0.92120000  0.60630000  0.63470000  1.0 0.1200740574
H  H73  1  0.60630000  0.92120000  0.63470000  1.0 0.1200740574
H  H74  1  0.39370000  0.07880000  0.63470000  1.0 0.1200740574
H  H75  1  0.07880000  0.60630000  0.13470000  1.0 0.1200740574
H  H76  1  0.92120000  0.39370000  0.13470000  1.0 0.1200740574
H  H77  1  0.39370000  0.92120000  0.86530000  1.0 0.1200740574
H  H78  1  0.60630000  0.07880000  0.86530000  1.0 0.1200740574
H  H79  1  0.92120000  0.60630000  0.36530000  1.0 0.1200740574
H  H80  1  0.07880000  0.39370000  0.36530000  1.0 0.1200740574
H  H81  1  0.35170000  0.18050000  0.41240000  1.0 0.1421219957
H  H82  1  0.64830000  0.81950000  0.41240000  1.0 0.1421219957
H  H83  1  0.81950000  0.35170000  0.91240000  1.0 0.1421219957
H  H84  1  0.18050000  0.64830000  0.91240000  1.0 0.1421219957
H  H85  1  0.64830000  0.18050000  0.08760000  1.0 0.1421219957
H  H86  1  0.35170000  0.81950000  0.08760000  1.0 0.1421219957
H  H87  1  0.18050000  0.35170000  0.58760000  1.0 0.1421219957
H  H88  1  0.81950000  0.64830000  0.58760000  1.0 0.1421219957
H  H89  1  0.64830000  0.81950000  0.58760000  1.0 0.1421219957
H  H90  1  0.35170000  0.18050000  0.58760000  1.0 0.1421219957
H  H91  1  0.18050000  0.64830000  0.08760000  1.0 0.1421219957
H  H92  1  0.81950000  0.35170000  0.08760000  1.0 0.1421219957
H  H93  1  0.35170000  0.81950000  0.91240000  1.0 0.1421219957
H  H94  1  0.64830000  0.18050000  0.91240000  1.0 0.1421219957
H  H95  1  0.81950000  0.64830000  0.41240000  1.0 0.1421219957
H  H96  1  0.18050000  0.35170000  0.41240000  1.0 0.1421219957
H  H97  1  0.38890000  0.28920000  0.37230000  1.0 0.1280468952
H  H98  1  0.61110000  0.71080000  0.37230000  1.0 0.1280468952
H  H99  1  0.71080000  0.38890000  0.87230000  1.0 0.1280468952
H  H100  1  0.28920000  0.61110000  0.87230000  1.0 0.1280468952
H  H101  1  0.61110000  0.28920000  0.12770000  1.0 0.1280468952
H  H102  1  0.38890000  0.71080000  0.12770000  1.0 0.1280468952
H  H103  1  0.28920000  0.38890000  0.62770000  1.0 0.1280468952
H  H104  1  0.71080000  0.61110000  0.62770000  1.0 0.1280468952
H  H105  1  0.61110000  0.71080000  0.62770000  1.0 0.1280468952
H  H106  1  0.38890000  0.28920000  0.62770000  1.0 0.1280468952
H  H107  1  0.28920000  0.61110000  0.12770000  1.0 0.1280468952
H  H108  1  0.71080000  0.38890000  0.12770000  1.0 0.1280468952
H  H109  1  0.38890000  0.71080000  0.87230000  1.0 0.1280468952
H  H110  1  0.61110000  0.28920000  0.87230000  1.0 0.1280468952
H  H111  1  0.71080000  0.61110000  0.37230000  1.0 0.1280468952
H  H112  1  0.28920000  0.38890000  0.37230000  1.0 0.1280468952
H  H113  1  0.46450000  0.35710000  0.29140000  1.0 0.1421219957
H  H114  1  0.53550000  0.64290000  0.29140000  1.0 0.1421219957
H  H115  1  0.64290000  0.46450000  0.79140000  1.0 0.1421219957
H  H116  1  0.35710000  0.53550000  0.79140000  1.0 0.1421219957
H  H117  1  0.53550000  0.35710000  0.20860000  1.0 0.1421219957
H  H118  1  0.46450000  0.64290000  0.20860000  1.0 0.1421219957
H  H119  1  0.35710000  0.46450000  0.70860000  1.0 0.1421219957
H  H120  1  0.64290000  0.53550000  0.70860000  1.0 0.1421219957
H  H121  1  0.53550000  0.64290000  0.70860000  1.0 0.1421219957
H  H122  1  0.46450000  0.35710000  0.70860000  1.0 0.1421219957
H  H123  1  0.35710000  0.53550000  0.20860000  1.0 0.1421219957
H  H124  1  0.64290000  0.46450000  0.20860000  1.0 0.1421219957
H  H125  1  0.46450000  0.64290000  0.79140000  1.0 0.1421219957
H  H126  1  0.53550000  0.35710000  0.79140000  1.0 0.1421219957
H  H127  1  0.64290000  0.53550000  0.29140000  1.0 0.1421219957
H  H128  1  0.35710000  0.46450000  0.29140000  1.0 0.1421219957
C  C1  1  0.65130000  0.65130000  0.17000000  1.0 -0.2740638059
C  C2  1  0.34870000  0.34870000  0.17000000  1.0 -0.2740638059
C  C3  1  0.34870000  0.65130000  0.67000000  1.0 -0.2740638059
C  C4  1  0.65130000  0.34870000  0.67000000  1.0 -0.2740638059
C  C5  1  0.34870000  0.65130000  0.33000000  1.0 -0.2740638059
C  C6  1  0.65130000  0.34870000  0.33000000  1.0 -0.2740638059
C  C7  1  0.65130000  0.65130000  0.83000000  1.0 -0.2740638059
C  C8  1  0.34870000  0.34870000  0.83000000  1.0 -0.2740638059
C  C9  1  0.62530000  0.71880000  0.14050000  1.0 0.0737126741
C  C10  1  0.37470000  0.28120000  0.14050000  1.0 0.0737126741
C  C11  1  0.28120000  0.62530000  0.64050000  1.0 0.0737126741
C  C12  1  0.71880000  0.37470000  0.64050000  1.0 0.0737126741
C  C13  1  0.37470000  0.71880000  0.35950000  1.0 0.0737126741
C  C14  1  0.62530000  0.28120000  0.35950000  1.0 0.0737126741
C  C15  1  0.71880000  0.62530000  0.85950000  1.0 0.0737126741
C  C16  1  0.28120000  0.37470000  0.85950000  1.0 0.0737126741
C  C17  1  0.37470000  0.28120000  0.85950000  1.0 0.0737126741
C  C18  1  0.62530000  0.71880000  0.85950000  1.0 0.0737126741
C  C19  1  0.71880000  0.37470000  0.35950000  1.0 0.0737126741
C  C20  1  0.28120000  0.62530000  0.35950000  1.0 0.0737126741
C  C21  1  0.62530000  0.28120000  0.64050000  1.0 0.0737126741
C  C22  1  0.37470000  0.71880000  0.64050000  1.0 0.0737126741
C  C23  1  0.28120000  0.37470000  0.14050000  1.0 0.0737126741
C  C24  1  0.71880000  0.62530000  0.14050000  1.0 0.0737126741
C  C25  1  0.64770000  0.78430000  0.16390000  1.0 -0.1538864764
C  C26  1  0.35230000  0.21570000  0.16390000  1.0 -0.1538864764
C  C27  1  0.21570000  0.64770000  0.66390000  1.0 -0.1538864764
C  C28  1  0.78430000  0.35230000  0.66390000  1.0 -0.1538864764
C  C29  1  0.35230000  0.78430000  0.33610000  1.0 -0.1538864764
C  C30  1  0.64770000  0.21570000  0.33610000  1.0 -0.1538864764
C  C31  1  0.78430000  0.64770000  0.83610000  1.0 -0.1538864764
C  C32  1  0.21570000  0.35230000  0.83610000  1.0 -0.1538864764
C  C33  1  0.35230000  0.21570000  0.83610000  1.0 -0.1538864764
C  C34  1  0.64770000  0.78430000  0.83610000  1.0 -0.1538864764
C  C35  1  0.78430000  0.35230000  0.33610000  1.0 -0.1538864764
C  C36  1  0.21570000  0.64770000  0.33610000  1.0 -0.1538864764
C  C37  1  0.64770000  0.21570000  0.66390000  1.0 -0.1538864764
C  C38  1  0.35230000  0.78430000  0.66390000  1.0 -0.1538864764
C  C39  1  0.21570000  0.35230000  0.16390000  1.0 -0.1538864764
C  C40  1  0.78430000  0.64770000  0.16390000  1.0 -0.1538864764
C  C41  1  0.62730000  0.84660000  0.13530000  1.0 -0.0684733176
C  C42  1  0.37270000  0.15340000  0.13530000  1.0 -0.0684733176
C  C43  1  0.15340000  0.62730000  0.63530000  1.0 -0.0684733176
C  C44  1  0.84660000  0.37270000  0.63530000  1.0 -0.0684733176
C  C45  1  0.37270000  0.84660000  0.36470000  1.0 -0.0684733176
C  C46  1  0.62730000  0.15340000  0.36470000  1.0 -0.0684733176
C  C47  1  0.84660000  0.62730000  0.86470000  1.0 -0.0684733176
C  C48  1  0.15340000  0.37270000  0.86470000  1.0 -0.0684733176
C  C49  1  0.37270000  0.15340000  0.86470000  1.0 -0.0684733176
C  C50  1  0.62730000  0.84660000  0.86470000  1.0 -0.0684733176
C  C51  1  0.84660000  0.37270000  0.36470000  1.0 -0.0684733176
C  C52  1  0.15340000  0.62730000  0.36470000  1.0 -0.0684733176
C  C53  1  0.62730000  0.15340000  0.63530000  1.0 -0.0684733176
C  C54  1  0.37270000  0.84660000  0.63530000  1.0 -0.0684733176
C  C55  1  0.15340000  0.37270000  0.13530000  1.0 -0.0684733176
C  C56  1  0.84660000  0.62730000  0.13530000  1.0 -0.0684733176
C  C57  1  0.58120000  0.84530000  0.08370000  1.0 -0.158720415
C  C58  1  0.41880000  0.15470000  0.08370000  1.0 -0.158720415
C  C59  1  0.15470000  0.58120000  0.58370000  1.0 -0.158720415
C  C60  1  0.84530000  0.41880000  0.58370000  1.0 -0.158720415
C  C61  1  0.41880000  0.84530000  0.41630000  1.0 -0.158720415
C  C62  1  0.58120000  0.15470000  0.41630000  1.0 -0.158720415
C  C63  1  0.84530000  0.58120000  0.91630000  1.0 -0.158720415
C  C64  1  0.15470000  0.41880000  0.91630000  1.0 -0.158720415
C  C65  1  0.41880000  0.15470000  0.91630000  1.0 -0.158720415
C  C66  1  0.58120000  0.84530000  0.91630000  1.0 -0.158720415
C  C67  1  0.84530000  0.41880000  0.41630000  1.0 -0.158720415
C  C68  1  0.15470000  0.58120000  0.41630000  1.0 -0.158720415
C  C69  1  0.58120000  0.15470000  0.58370000  1.0 -0.158720415
C  C70  1  0.41880000  0.84530000  0.58370000  1.0 -0.158720415
C  C71  1  0.15470000  0.41880000  0.08370000  1.0 -0.158720415
C  C72  1  0.84530000  0.58120000  0.08370000  1.0 -0.158720415
C  C73  1  0.55830000  0.78190000  0.05960000  1.0 0.0623643856
C  C74  1  0.44170000  0.21810000  0.05960000  1.0 0.0623643856
C  C75  1  0.21810000  0.55830000  0.55960000  1.0 0.0623643856
C  C76  1  0.78190000  0.44170000  0.55960000  1.0 0.0623643856
C  C77  1  0.44170000  0.78190000  0.44040000  1.0 0.0623643856
C  C78  1  0.55830000  0.21810000  0.44040000  1.0 0.0623643856
C  C79  1  0.78190000  0.55830000  0.94040000  1.0 0.0623643856
C  C80  1  0.21810000  0.44170000  0.94040000  1.0 0.0623643856
C  C81  1  0.44170000  0.21810000  0.94040000  1.0 0.0623643856
C  C82  1  0.55830000  0.78190000  0.94040000  1.0 0.0623643856
C  C83  1  0.78190000  0.44170000  0.44040000  1.0 0.0623643856
C  C84  1  0.21810000  0.55830000  0.44040000  1.0 0.0623643856
C  C85  1  0.55830000  0.21810000  0.55960000  1.0 0.0623643856
C  C86  1  0.44170000  0.78190000  0.55960000  1.0 0.0623643856
C  C87  1  0.21810000  0.44170000  0.05960000  1.0 0.0623643856
C  C88  1  0.78190000  0.55830000  0.05960000  1.0 0.0623643856
C  C89  1  0.58000000  0.71830000  0.08690000  1.0 0.1863053051
C  C90  1  0.42000000  0.28170000  0.08690000  1.0 0.1863053051
C  C91  1  0.28170000  0.58000000  0.58690000  1.0 0.1863053051
C  C92  1  0.71830000  0.42000000  0.58690000  1.0 0.1863053051
C  C93  1  0.42000000  0.71830000  0.41310000  1.0 0.1863053051
C  C94  1  0.58000000  0.28170000  0.41310000  1.0 0.1863053051
C  C95  1  0.71830000  0.58000000  0.91310000  1.0 0.1863053051
C  C96  1  0.28170000  0.42000000  0.91310000  1.0 0.1863053051
C  C97  1  0.42000000  0.28170000  0.91310000  1.0 0.1863053051
C  C98  1  0.58000000  0.71830000  0.91310000  1.0 0.1863053051
C  C99  1  0.71830000  0.42000000  0.41310000  1.0 0.1863053051
C  C100  1  0.28170000  0.58000000  0.41310000  1.0 0.1863053051
C  C101  1  0.58000000  0.28170000  0.58690000  1.0 0.1863053051
C  C102  1  0.42000000  0.71830000  0.58690000  1.0 0.1863053051
C  C103  1  0.28170000  0.42000000  0.08690000  1.0 0.1863053051
C  C104  1  0.71830000  0.58000000  0.08690000  1.0 0.1863053051
C  C105  1  0.51230000  0.78310000  0.00000000  1.0 -0.24590155
C  C106  1  0.48770000  0.21690000  0.00000000  1.0 -0.24590155
C  C107  1  0.21690000  0.51230000  0.50000000  1.0 -0.24590155
C  C108  1  0.78310000  0.48770000  0.50000000  1.0 -0.24590155
C  C109  1  0.48770000  0.78310000  0.50000000  1.0 -0.24590155
C  C110  1  0.51230000  0.21690000  0.50000000  1.0 -0.24590155
C  C111  1  0.78310000  0.51230000  0.00000000  1.0 -0.24590155
C  C112  1  0.21690000  0.48770000  0.00000000  1.0 -0.24590155
C  C113  1  0.40950000  0.12270000  0.34860000  1.0 0.1421219957
C  C114  1  0.59050000  0.87730000  0.34860000  1.0 0.1421219957
C  C115  1  0.87730000  0.40950000  0.84860000  1.0 0.1421219957
C  C116  1  0.12270000  0.59050000  0.84860000  1.0 0.1421219957
C  C117  1  0.59050000  0.12270000  0.15140000  1.0 0.1421219957
C  C118  1  0.40950000  0.87730000  0.15140000  1.0 0.1421219957
C  C119  1  0.12270000  0.40950000  0.65140000  1.0 0.1421219957
C  C120  1  0.87730000  0.59050000  0.65140000  1.0 0.1421219957
C  C121  1  0.59050000  0.87730000  0.65140000  1.0 0.1421219957
C  C122  1  0.40950000  0.12270000  0.65140000  1.0 0.1421219957
C  C123  1  0.12270000  0.59050000  0.15140000  1.0 0.1421219957
C  C124  1  0.87730000  0.40950000  0.15140000  1.0 0.1421219957
C  C125  1  0.40950000  0.87730000  0.84860000  1.0 0.1421219957
C  C126  1  0.59050000  0.12270000  0.84860000  1.0 0.1421219957
C  C127  1  0.87730000  0.59050000  0.34860000  1.0 0.1421219957
C  C128  1  0.12270000  0.40950000  0.34860000  1.0 0.1421219957
C  C129  1  0.38360000  0.18320000  0.37750000  1.0 -0.1391093534
C  C130  1  0.61640000  0.81680000  0.37750000  1.0 -0.1391093534
C  C131  1  0.81680000  0.38360000  0.87750000  1.0 -0.1391093534
C  C132  1  0.18320000  0.61640000  0.87750000  1.0 -0.1391093534
C  C133  1  0.61640000  0.18320000  0.12250000  1.0 -0.1391093534
C  C134  1  0.38360000  0.81680000  0.12250000  1.0 -0.1391093534
C  C135  1  0.18320000  0.38360000  0.62250000  1.0 -0.1391093534
C  C136  1  0.81680000  0.61640000  0.62250000  1.0 -0.1391093534
C  C137  1  0.61640000  0.81680000  0.62250000  1.0 -0.1391093534
C  C138  1  0.38360000  0.18320000  0.62250000  1.0 -0.1391093534
C  C139  1  0.18320000  0.61640000  0.12250000  1.0 -0.1391093534
C  C140  1  0.81680000  0.38360000  0.12250000  1.0 -0.1391093534
C  C141  1  0.38360000  0.81680000  0.87750000  1.0 -0.1391093534
C  C142  1  0.61640000  0.18320000  0.87750000  1.0 -0.1391093534
C  C143  1  0.81680000  0.61640000  0.37750000  1.0 -0.1391093534
C  C144  1  0.18320000  0.38360000  0.37750000  1.0 -0.1391093534
C  C145  1  0.40540000  0.24640000  0.35400000  1.0 -0.1111945313
C  C146  1  0.59460000  0.75360000  0.35400000  1.0 -0.1111945313
C  C147  1  0.75360000  0.40540000  0.85400000  1.0 -0.1111945313
C  C148  1  0.24640000  0.59460000  0.85400000  1.0 -0.1111945313
C  C149  1  0.59460000  0.24640000  0.14600000  1.0 -0.1111945313
C  C150  1  0.40540000  0.75360000  0.14600000  1.0 -0.1111945313
C  C151  1  0.24640000  0.40540000  0.64600000  1.0 -0.1111945313
C  C152  1  0.75360000  0.59460000  0.64600000  1.0 -0.1111945313
C  C153  1  0.59460000  0.75360000  0.64600000  1.0 -0.1111945313
C  C154  1  0.40540000  0.24640000  0.64600000  1.0 -0.1111945313
C  C155  1  0.24640000  0.59460000  0.14600000  1.0 -0.1111945313
C  C156  1  0.75360000  0.40540000  0.14600000  1.0 -0.1111945313
C  C157  1  0.40540000  0.75360000  0.85400000  1.0 -0.1111945313
C  C158  1  0.59460000  0.24640000  0.85400000  1.0 -0.1111945313
C  C159  1  0.75360000  0.59460000  0.35400000  1.0 -0.1111945313
C  C160  1  0.24640000  0.40540000  0.35400000  1.0 -0.1111945313
C  C161  1  0.45270000  0.24770000  0.30250000  1.0 0.0454520183
C  C162  1  0.54730000  0.75230000  0.30250000  1.0 0.0454520183
C  C163  1  0.75230000  0.45270000  0.80250000  1.0 0.0454520183
C  C164  1  0.24770000  0.54730000  0.80250000  1.0 0.0454520183
C  C165  1  0.54730000  0.24770000  0.19750000  1.0 0.0454520183
C  C166  1  0.45270000  0.75230000  0.19750000  1.0 0.0454520183
C  C167  1  0.24770000  0.45270000  0.69750000  1.0 0.0454520183
C  C168  1  0.75230000  0.54730000  0.69750000  1.0 0.0454520183
C  C169  1  0.54730000  0.75230000  0.69750000  1.0 0.0454520183
C  C170  1  0.45270000  0.24770000  0.69750000  1.0 0.0454520183
C  C171  1  0.24770000  0.54730000  0.19750000  1.0 0.0454520183
C  C172  1  0.75230000  0.45270000  0.19750000  1.0 0.0454520183
C  C173  1  0.45270000  0.75230000  0.80250000  1.0 0.0454520183
C  C174  1  0.54730000  0.24770000  0.80250000  1.0 0.0454520183
C  C175  1  0.75230000  0.54730000  0.30250000  1.0 0.0454520183
C  C176  1  0.24770000  0.45270000  0.30250000  1.0 0.0454520183
C  C177  1  0.47900000  0.31310000  0.27390000  1.0 -0.1340685439
C  C178  1  0.52100000  0.68690000  0.27390000  1.0 -0.1340685439
C  C179  1  0.68690000  0.47900000  0.77390000  1.0 -0.1340685439
C  C180  1  0.31310000  0.52100000  0.77390000  1.0 -0.1340685439
C  C181  1  0.52100000  0.31310000  0.22610000  1.0 -0.1340685439
C  C182  1  0.47900000  0.68690000  0.22610000  1.0 -0.1340685439
C  C183  1  0.31310000  0.47900000  0.72610000  1.0 -0.1340685439
C  C184  1  0.68690000  0.52100000  0.72610000  1.0 -0.1340685439
C  C185  1  0.52100000  0.68690000  0.72610000  1.0 -0.1340685439
C  C186  1  0.47900000  0.31310000  0.72610000  1.0 -0.1340685439
C  C187  1  0.31310000  0.52100000  0.22610000  1.0 -0.1340685439
C  C188  1  0.68690000  0.47900000  0.22610000  1.0 -0.1340685439
C  C189  1  0.47900000  0.68690000  0.77390000  1.0 -0.1340685439
C  C190  1  0.52100000  0.31310000  0.77390000  1.0 -0.1340685439
C  C191  1  0.68690000  0.52100000  0.27390000  1.0 -0.1340685439
C  C192  1  0.31310000  0.47900000  0.27390000  1.0 -0.1340685439
C  C193  1  0.47590000  0.18230000  0.27710000  1.0 0.1486976045
C  C194  1  0.52410000  0.81770000  0.27710000  1.0 0.1486976045
C  C195  1  0.81770000  0.47590000  0.77710000  1.0 0.1486976045
C  C196  1  0.18230000  0.52410000  0.77710000  1.0 0.1486976045
C  C197  1  0.52410000  0.18230000  0.22290000  1.0 0.1486976045
C  C198  1  0.47590000  0.81770000  0.22290000  1.0 0.1486976045
C  C199  1  0.18230000  0.47590000  0.72290000  1.0 0.1486976045
C  C200  1  0.81770000  0.52410000  0.72290000  1.0 0.1486976045
C  C201  1  0.52410000  0.81770000  0.72290000  1.0 0.1486976045
C  C202  1  0.47590000  0.18230000  0.72290000  1.0 0.1486976045
C  C203  1  0.18230000  0.52410000  0.22290000  1.0 0.1486976045
C  C204  1  0.81770000  0.47590000  0.22290000  1.0 0.1486976045
C  C205  1  0.47590000  0.81770000  0.77710000  1.0 0.1486976045
C  C206  1  0.52410000  0.18230000  0.77710000  1.0 0.1486976045
C  C207  1  0.81770000  0.52410000  0.27710000  1.0 0.1486976045
C  C208  1  0.18230000  0.47590000  0.27710000  1.0 0.1486976045
S  S1  1  0.65665000  0.92743000  0.16461000  1.0 1.1802351373
S  S2  1  0.34335000  0.07257000  0.16461000  1.0 1.1802351373
S  S3  1  0.07257000  0.65665000  0.66461000  1.0 1.1802351373
S  S4  1  0.92743000  0.34335000  0.66461000  1.0 1.1802351373
S  S5  1  0.34335000  0.92743000  0.33539000  1.0 1.1802351373
S  S6  1  0.65665000  0.07257000  0.33539000  1.0 1.1802351373
S  S7  1  0.92743000  0.65665000  0.83539000  1.0 1.1802351373
S  S8  1  0.07257000  0.34335000  0.83539000  1.0 1.1802351373
S  S9  1  0.34335000  0.07257000  0.83539000  1.0 1.1802351373
S  S10  1  0.65665000  0.92743000  0.83539000  1.0 1.1802351373
S  S11  1  0.92743000  0.34335000  0.33539000  1.0 1.1802351373
S  S12  1  0.07257000  0.65665000  0.33539000  1.0 1.1802351373
S  S13  1  0.65665000  0.07257000  0.66461000  1.0 1.1802351373
S  S14  1  0.34335000  0.92743000  0.66461000  1.0 1.1802351373
S  S15  1  0.07257000  0.34335000  0.16461000  1.0 1.1802351373
S  S16  1  0.92743000  0.65665000  0.16461000  1.0 1.1802351373
N  N1  1  0.45390000  0.11980000  0.30020000  1.0 -0.3386416239
N  N2  1  0.54610000  0.88020000  0.30020000  1.0 -0.3386416239
N  N3  1  0.88020000  0.45390000  0.80020000  1.0 -0.3386416239
N  N4  1  0.11980000  0.54610000  0.80020000  1.0 -0.3386416239
N  N5  1  0.54610000  0.11980000  0.19980000  1.0 -0.3386416239
N  N6  1  0.45390000  0.88020000  0.19980000  1.0 -0.3386416239
N  N7  1  0.11980000  0.45390000  0.69980000  1.0 -0.3386416239
N  N8  1  0.88020000  0.54610000  0.69980000  1.0 -0.3386416239
N  N9  1  0.54610000  0.88020000  0.69980000  1.0 -0.3386416239
N  N10  1  0.45390000  0.11980000  0.69980000  1.0 -0.3386416239
N  N11  1  0.11980000  0.54610000  0.19980000  1.0 -0.3386416239
N  N12  1  0.88020000  0.45390000  0.19980000  1.0 -0.3386416239
N  N13  1  0.45390000  0.88020000  0.80020000  1.0 -0.3386416239
N  N14  1  0.54610000  0.11980000  0.80020000  1.0 -0.3386416239
N  N15  1  0.88020000  0.54610000  0.30020000  1.0 -0.3386416239
N  N16  1  0.11980000  0.45390000  0.30020000  1.0 -0.3386416239
O  O1  1  0.55640000  0.65550000  0.06330000  1.0 -0.3242061947
O  O2  1  0.44360000  0.34450000  0.06330000  1.0 -0.3242061947
O  O3  1  0.34450000  0.55640000  0.56330000  1.0 -0.3242061947
O  O4  1  0.65550000  0.44360000  0.56330000  1.0 -0.3242061947
O  O5  1  0.44360000  0.65550000  0.43670000  1.0 -0.3242061947
O  O6  1  0.55640000  0.34450000  0.43670000  1.0 -0.3242061947
O  O7  1  0.65550000  0.55640000  0.93670000  1.0 -0.3242061947
O  O8  1  0.34450000  0.44360000  0.93670000  1.0 -0.3242061947
O  O9  1  0.44360000  0.34450000  0.93670000  1.0 -0.3242061947
O  O10  1  0.55640000  0.65550000  0.93670000  1.0 -0.3242061947
O  O11  1  0.65550000  0.44360000  0.43670000  1.0 -0.3242061947
O  O12  1  0.34450000  0.55640000  0.43670000  1.0 -0.3242061947
O  O13  1  0.55640000  0.34450000  0.56330000  1.0 -0.3242061947
O  O14  1  0.44360000  0.65550000  0.56330000  1.0 -0.3242061947
O  O15  1  0.34450000  0.44360000  0.06330000  1.0 -0.3242061947
O  O16  1  0.65550000  0.55640000  0.06330000  1.0 -0.3242061947
O  O17  1  0.69290000  0.96200000  0.11290000  1.0 -0.440393959
O  O18  1  0.30710000  0.03800000  0.11290000  1.0 -0.440393959
O  O19  1  0.03800000  0.69290000  0.61290000  1.0 -0.440393959
O  O20  1  0.96200000  0.30710000  0.61290000  1.0 -0.440393959
O  O21  1  0.30710000  0.96200000  0.38710000  1.0 -0.440393959
O  O22  1  0.69290000  0.03800000  0.38710000  1.0 -0.440393959
O  O23  1  0.96200000  0.69290000  0.88710000  1.0 -0.440393959
O  O24  1  0.03800000  0.30710000  0.88710000  1.0 -0.440393959
O  O25  1  0.30710000  0.03800000  0.88710000  1.0 -0.440393959
O  O26  1  0.69290000  0.96200000  0.88710000  1.0 -0.440393959
O  O27  1  0.96200000  0.30710000  0.38710000  1.0 -0.440393959
O  O28  1  0.03800000  0.69290000  0.38710000  1.0 -0.440393959
O  O29  1  0.69290000  0.03800000  0.61290000  1.0 -0.440393959
O  O30  1  0.30710000  0.96200000  0.61290000  1.0 -0.440393959
O  O31  1  0.03800000  0.30710000  0.11290000  1.0 -0.440393959
O  O32  1  0.96200000  0.69290000  0.11290000  1.0 -0.440393959
O  O33  1  0.59150000  0.96560000  0.18107000  1.0 -0.6573820215
O  O34  1  0.40850000  0.03440000  0.18107000  1.0 -0.6573820215
O  O35  1  0.03440000  0.59150000  0.68107000  1.0 -0.6573820215
O  O36  1  0.96560000  0.40850000  0.68107000  1.0 -0.6573820215
O  O37  1  0.40850000  0.96560000  0.31893000  1.0 -0.6573820215
O  O38  1  0.59150000  0.03440000  0.31893000  1.0 -0.6573820215
O  O39  1  0.96560000  0.59150000  0.81893000  1.0 -0.6573820215
O  O40  1  0.03440000  0.40850000  0.81893000  1.0 -0.6573820215
O  O41  1  0.40850000  0.03440000  0.81893000  1.0 -0.6573820215
O  O42  1  0.59150000  0.96560000  0.81893000  1.0 -0.6573820215
O  O43  1  0.96560000  0.40850000  0.31893000  1.0 -0.6573820215
O  O44  1  0.03440000  0.59150000  0.31893000  1.0 -0.6573820215
O  O45  1  0.59150000  0.03440000  0.68107000  1.0 -0.6573820215
O  O46  1  0.40850000  0.96560000  0.68107000  1.0 -0.6573820215
O  O47  1  0.03440000  0.40850000  0.18107000  1.0 -0.6573820215
O  O48  1  0.96560000  0.59150000  0.18107000  1.0 -0.6573820215
O  O49  1  0.69930000  0.91310000  0.21970000  1.0 -0.4680415661
O  O50  1  0.30070000  0.08690000  0.21970000  1.0 -0.4680415661
O  O51  1  0.08690000  0.69930000  0.71970000  1.0 -0.4680415661
O  O52  1  0.91310000  0.30070000  0.71970000  1.0 -0.4680415661
O  O53  1  0.30070000  0.91310000  0.28030000  1.0 -0.4680415661
O  O54  1  0.69930000  0.08690000  0.28030000  1.0 -0.4680415661
O  O55  1  0.91310000  0.69930000  0.78030000  1.0 -0.4680415661
O  O56  1  0.08690000  0.30070000  0.78030000  1.0 -0.4680415661
O  O57  1  0.30070000  0.08690000  0.78030000  1.0 -0.4680415661
O  O58  1  0.69930000  0.91310000  0.78030000  1.0 -0.4680415661
O  O59  1  0.91310000  0.30070000  0.28030000  1.0 -0.4680415661
O  O60  1  0.08690000  0.69930000  0.28030000  1.0 -0.4680415661
O  O61  1  0.69930000  0.08690000  0.71970000  1.0 -0.4680415661
O  O62  1  0.30070000  0.91310000  0.71970000  1.0 -0.4680415661
O  O63  1  0.08690000  0.30070000  0.21970000  1.0 -0.4680415661
O  O64  1  0.91310000  0.69930000  0.21970000  1.0 -0.4680415661
