# DDEC6 charges by PACMAN v1.1 (https://github.com/mtap-research/PACMAN-charge/)
data_OGOJOJ_FSR_pacman
_symmetry_space_group_name_H-M   'P 1'
_cell_length_a   15.06990000
_cell_length_b   15.70020000
_cell_length_c   27.24800000
_cell_angle_alpha   90.00000000
_cell_angle_beta   101.91000000
_cell_angle_gamma   90.00000000
_symmetry_Int_Tables_number   1
_chemical_formula_structural   GdCu6H56C33N17O8
_chemical_formula_sum   'Gd4 Cu24 H224 C132 N68 O32'
_cell_volume   6308.10659635
_cell_formula_units_Z   4
loop_
 _symmetry_equiv_pos_site_id
 _symmetry_equiv_pos_as_xyz
  1  'x, y, z'
loop_
 _atom_site_type_symbol
 _atom_site_label
 _atom_site_symmetry_multiplicity
 _atom_site_fract_x
 _atom_site_fract_y
 _atom_site_fract_z
 _atom_site_occupancy
 _atom_site_charge
Gd  Gd1  1  0.28157000  0.11694000  0.87268000  1.0 1.9787080335
Gd  Gd2  1  0.28157000  0.38306000  0.37268000  1.0 1.9787080335
Gd  Gd3  1  0.71843000  0.88306000  0.12732000  1.0 1.9787080335
Gd  Gd4  1  0.71843000  0.61694000  0.62732000  1.0 1.9787080335
Cu  Cu1  1  0.42466000  0.19224000  0.66592000  1.0 0.2531643557
Cu  Cu2  1  0.42466000  0.30776000  0.16592000  1.0 0.2531643557
Cu  Cu3  1  0.57534000  0.80776000  0.33408000  1.0 0.2531643557
Cu  Cu4  1  0.57534000  0.69224000  0.83408000  1.0 0.2531643557
Cu  Cu5  1  0.23151000  0.93466000  0.65330000  1.0 0.3695655959
Cu  Cu6  1  0.23151000  0.56534000  0.15330000  1.0 0.3695655959
Cu  Cu7  1  0.76849000  0.06534000  0.34670000  1.0 0.3695655959
Cu  Cu8  1  0.76849000  0.43466000  0.84670000  1.0 0.3695655959
Cu  Cu9  1  0.97136000  0.02464000  0.72615000  1.0 0.35472997
Cu  Cu10  1  0.97136000  0.47536000  0.22615000  1.0 0.35472997
Cu  Cu11  1  0.02864000  0.97536000  0.27385000  1.0 0.35472997
Cu  Cu12  1  0.02864000  0.52464000  0.77385000  1.0 0.35472997
Cu  Cu13  1  0.73100000  0.19959000  0.62284000  1.0 0.3608027147
Cu  Cu14  1  0.73100000  0.30041000  0.12284000  1.0 0.3608027147
Cu  Cu15  1  0.26900000  0.80041000  0.37716000  1.0 0.3608027147
Cu  Cu16  1  0.26900000  0.69959000  0.87716000  1.0 0.3608027147
Cu  Cu17  1  0.22450000  0.44454000  0.65613000  1.0 0.2395478608
Cu  Cu18  1  0.22450000  0.05546000  0.15613000  1.0 0.2395478608
Cu  Cu19  1  0.77550000  0.55546000  0.34387000  1.0 0.2395478608
Cu  Cu20  1  0.77550000  0.94454000  0.84387000  1.0 0.2395478608
Cu  Cu21  1  0.24566000  0.68270000  0.54186000  1.0 0.2395478608
Cu  Cu22  1  0.24566000  0.81730000  0.04186000  1.0 0.2395478608
Cu  Cu23  1  0.75434000  0.31730000  0.45814000  1.0 0.2395478608
Cu  Cu24  1  0.75434000  0.18270000  0.95814000  1.0 0.2395478608
H  H1  1  0.04780000  0.13330000  0.82290000  1.0 0.1011422487
H  H2  1  0.93600000  0.26730000  0.91640000  1.0 0.1300640352
H  H3  1  0.00980000  0.19850000  0.94160000  1.0 0.1300640352
H  H4  1  0.04150000  0.28430000  0.91850000  1.0 0.1381457761
H  H5  1  0.85710000  0.23560000  0.84850000  1.0 0.1300640352
H  H6  1  0.90590000  0.23180000  0.80170000  1.0 0.1381457761
H  H7  1  0.87580000  0.14560000  0.82500000  1.0 0.1381457761
H  H8  1  0.31090000  0.27490000  0.96520000  1.0 0.1011422487
H  H9  1  0.17060000  0.19410000  0.06380000  1.0 0.1232541347
H  H10  1  0.14670000  0.15160000  0.00930000  1.0 0.1300640352
H  H11  1  0.23830000  0.12610000  0.04760000  1.0 0.1300640352
H  H12  1  0.21300000  0.32060000  0.06800000  1.0 0.1381457761
H  H13  1  0.31000000  0.33900000  0.05490000  1.0 0.1381457761
H  H14  1  0.21940000  0.36700000  0.01660000  1.0 0.1381457761
H  H15  1  0.17500000  0.01040000  0.95710000  1.0 0.1071633582
H  H16  1  0.01960000  0.83760000  0.87670000  1.0 0.1300640352
H  H17  1  0.05730000  0.91100000  0.84570000  1.0 0.1381457761
H  H18  1  0.12410000  0.83820000  0.87280000  1.0 0.1300640352
H  H19  1  0.99260000  0.87020000  0.94600000  1.0 0.1381457761
H  H20  1  0.07830000  0.89370000  0.98920000  1.0 0.1232541347
H  H21  1  0.01020000  0.96700000  0.96380000  1.0 0.1300640352
H  H22  1  0.36700000  0.93240000  0.92920000  1.0 0.1011422487
H  H23  1  0.63390000  0.93620000  0.95350000  1.0 0.1300640352
H  H24  1  0.58270000  0.99750000  0.90980000  1.0 0.1300640352
H  H25  1  0.58780000  0.02230000  0.96730000  1.0 0.1300640352
H  H26  1  0.57100000  0.82340000  0.96310000  1.0 0.1300640352
H  H27  1  0.48110000  0.82960000  0.98550000  1.0 0.1381457761
H  H28  1  0.47410000  0.80560000  0.92770000  1.0 0.1300640352
H  H29  1  0.21030000  0.92840000  0.80170000  1.0 0.1071633582
H  H30  1  0.42680000  0.83280000  0.76300000  1.0 0.1300640352
H  H31  1  0.41710000  0.93430000  0.76150000  1.0 0.1300640352
H  H32  1  0.44450000  0.88620000  0.81420000  1.0 0.1381457761
H  H33  1  0.30460000  0.76290000  0.74570000  1.0 0.1381457761
H  H34  1  0.23520000  0.77120000  0.78260000  1.0 0.1300640352
H  H35  1  0.21560000  0.82040000  0.73010000  1.0 0.1232541347
H  H36  1  0.41810000  0.07890000  0.78620000  1.0 0.1011422487
H  H37  1  0.64300000  0.10400000  0.77710000  1.0 0.1300640352
H  H38  1  0.58160000  0.02360000  0.78420000  1.0 0.1300640352
H  H39  1  0.54820000  0.08880000  0.73900000  1.0 0.1232541347
H  H40  1  0.64870000  0.19430000  0.83110000  1.0 0.1300640352
H  H41  1  0.56020000  0.24900000  0.83380000  1.0 0.1381457761
H  H42  1  0.59210000  0.17410000  0.87330000  1.0 0.1381457761
H  H43  1  0.22600000  0.11090000  0.73320000  1.0 0.1011422487
H  H44  1  0.04300000  0.29420000  0.70580000  1.0 0.1300640352
H  H45  1  0.04110000  0.23720000  0.75430000  1.0 0.1300640352
H  H46  1  0.12000000  0.30590000  0.75540000  1.0 0.1381457761
H  H47  1  0.08030000  0.23510000  0.64550000  1.0 0.1300640352
H  H48  1  0.18250000  0.20170000  0.65220000  1.0 0.1300640352
H  H49  1  0.10160000  0.13530000  0.65140000  1.0 0.1381457761
H  H50  1  0.36860000  0.30770000  0.83340000  1.0 0.1071633582
H  H51  1  0.28320000  0.51160000  0.80640000  1.0 0.1381457761
H  H52  1  0.38240000  0.47160000  0.82430000  1.0 0.1381457761
H  H53  1  0.31600000  0.43590000  0.77500000  1.0 0.1300640352
H  H54  1  0.18660000  0.47880000  0.84950000  1.0 0.1232541347
H  H55  1  0.15590000  0.38110000  0.84890000  1.0 0.1300640352
H  H56  1  0.22340000  0.41930000  0.89710000  1.0 0.1300640352
H  H57  1  0.04780000  0.36670000  0.32290000  1.0 0.1011422487
H  H58  1  0.93600000  0.23270000  0.41640000  1.0 0.1300640352
H  H59  1  0.00980000  0.30150000  0.44160000  1.0 0.1300640352
H  H60  1  0.04150000  0.21570000  0.41850000  1.0 0.1381457761
H  H61  1  0.85710000  0.26440000  0.34850000  1.0 0.1300640352
H  H62  1  0.90590000  0.26820000  0.30170000  1.0 0.1381457761
H  H63  1  0.87580000  0.35440000  0.32500000  1.0 0.1381457761
H  H64  1  0.31090000  0.22510000  0.46520000  1.0 0.1011422487
H  H65  1  0.17060000  0.30590000  0.56380000  1.0 0.1232541347
H  H66  1  0.14670000  0.34840000  0.50930000  1.0 0.1300640352
H  H67  1  0.23830000  0.37390000  0.54760000  1.0 0.1300640352
H  H68  1  0.21300000  0.17940000  0.56800000  1.0 0.1381457761
H  H69  1  0.31000000  0.16100000  0.55490000  1.0 0.1381457761
H  H70  1  0.21940000  0.13300000  0.51660000  1.0 0.1381457761
H  H71  1  0.17500000  0.48960000  0.45710000  1.0 0.1071633582
H  H72  1  0.01960000  0.66240000  0.37670000  1.0 0.1300640352
H  H73  1  0.05730000  0.58900000  0.34570000  1.0 0.1381457761
H  H74  1  0.12410000  0.66180000  0.37280000  1.0 0.1300640352
H  H75  1  0.99260000  0.62980000  0.44600000  1.0 0.1381457761
H  H76  1  0.07830000  0.60630000  0.48920000  1.0 0.1232541347
H  H77  1  0.01020000  0.53300000  0.46380000  1.0 0.1300640352
H  H78  1  0.36700000  0.56760000  0.42920000  1.0 0.1011422487
H  H79  1  0.63390000  0.56380000  0.45350000  1.0 0.1300640352
H  H80  1  0.58270000  0.50250000  0.40980000  1.0 0.1300640352
H  H81  1  0.58780000  0.47770000  0.46730000  1.0 0.1300640352
H  H82  1  0.57100000  0.67660000  0.46310000  1.0 0.1300640352
H  H83  1  0.48110000  0.67040000  0.48550000  1.0 0.1381457761
H  H84  1  0.47410000  0.69440000  0.42770000  1.0 0.1300640352
H  H85  1  0.21030000  0.57160000  0.30170000  1.0 0.1071633582
H  H86  1  0.42680000  0.66720000  0.26300000  1.0 0.1300640352
H  H87  1  0.41710000  0.56570000  0.26150000  1.0 0.1300640352
H  H88  1  0.44450000  0.61380000  0.31420000  1.0 0.1381457761
H  H89  1  0.30460000  0.73710000  0.24570000  1.0 0.1381457761
H  H90  1  0.23520000  0.72880000  0.28260000  1.0 0.1300640352
H  H91  1  0.21560000  0.67960000  0.23010000  1.0 0.1232541347
H  H92  1  0.41810000  0.42110000  0.28620000  1.0 0.1011422487
H  H93  1  0.64300000  0.39600000  0.27710000  1.0 0.1300640352
H  H94  1  0.58160000  0.47640000  0.28420000  1.0 0.1300640352
H  H95  1  0.54820000  0.41120000  0.23900000  1.0 0.1232541347
H  H96  1  0.64870000  0.30570000  0.33110000  1.0 0.1300640352
H  H97  1  0.56020000  0.25100000  0.33380000  1.0 0.1381457761
H  H98  1  0.59210000  0.32590000  0.37330000  1.0 0.1381457761
H  H99  1  0.22600000  0.38910000  0.23320000  1.0 0.1011422487
H  H100  1  0.04300000  0.20580000  0.20580000  1.0 0.1300640352
H  H101  1  0.04110000  0.26280000  0.25430000  1.0 0.1300640352
H  H102  1  0.12000000  0.19410000  0.25540000  1.0 0.1381457761
H  H103  1  0.08030000  0.26490000  0.14550000  1.0 0.1300640352
H  H104  1  0.18250000  0.29830000  0.15220000  1.0 0.1300640352
H  H105  1  0.10160000  0.36470000  0.15140000  1.0 0.1381457761
H  H106  1  0.36860000  0.19230000  0.33340000  1.0 0.1071633582
H  H107  1  0.28320000  0.98840000  0.30640000  1.0 0.1381457761
H  H108  1  0.38240000  0.02840000  0.32430000  1.0 0.1381457761
H  H109  1  0.31600000  0.06410000  0.27500000  1.0 0.1300640352
H  H110  1  0.18660000  0.02120000  0.34950000  1.0 0.1232541347
H  H111  1  0.15590000  0.11890000  0.34890000  1.0 0.1300640352
H  H112  1  0.22340000  0.08070000  0.39710000  1.0 0.1300640352
H  H113  1  0.95220000  0.86670000  0.17710000  1.0 0.1011422487
H  H114  1  0.06400000  0.73270000  0.08360000  1.0 0.1300640352
H  H115  1  0.99020000  0.80150000  0.05840000  1.0 0.1300640352
H  H116  1  0.95850000  0.71570000  0.08150000  1.0 0.1381457761
H  H117  1  0.14290000  0.76440000  0.15150000  1.0 0.1300640352
H  H118  1  0.09410000  0.76820000  0.19830000  1.0 0.1300640352
H  H119  1  0.12420000  0.85440000  0.17500000  1.0 0.1381457761
H  H120  1  0.68910000  0.72510000  0.03480000  1.0 0.1011422487
H  H121  1  0.82940000  0.80590000  0.93620000  1.0 0.1232541347
H  H122  1  0.85330000  0.84840000  0.99070000  1.0 0.1300640352
H  H123  1  0.76170000  0.87390000  0.95240000  1.0 0.1300640352
H  H124  1  0.78700000  0.67940000  0.93200000  1.0 0.1381457761
H  H125  1  0.69000000  0.66100000  0.94510000  1.0 0.1381457761
H  H126  1  0.78060000  0.63300000  0.98340000  1.0 0.1381457761
H  H127  1  0.82500000  0.98960000  0.04290000  1.0 0.1071633582
H  H128  1  0.98040000  0.16240000  0.12330000  1.0 0.1300640352
H  H129  1  0.94270000  0.08900000  0.15430000  1.0 0.1300640352
H  H130  1  0.87590000  0.16180000  0.12720000  1.0 0.1300640352
H  H131  1  0.00740000  0.12980000  0.05400000  1.0 0.1381457761
H  H132  1  0.92170000  0.10630000  0.01080000  1.0 0.1232541347
H  H133  1  0.98980000  0.03300000  0.03620000  1.0 0.1300640352
H  H134  1  0.63300000  0.06760000  0.07080000  1.0 0.1011422487
H  H135  1  0.36610000  0.06380000  0.04650000  1.0 0.1300640352
H  H136  1  0.41730000  0.00250000  0.09020000  1.0 0.1300640352
H  H137  1  0.41220000  0.97770000  0.03270000  1.0 0.1300640352
H  H138  1  0.42900000  0.17660000  0.03690000  1.0 0.1300640352
H  H139  1  0.51890000  0.17040000  0.01450000  1.0 0.1381457761
H  H140  1  0.52590000  0.19440000  0.07230000  1.0 0.1300640352
H  H141  1  0.78970000  0.07160000  0.19830000  1.0 0.1071633582
H  H142  1  0.57320000  0.16720000  0.23700000  1.0 0.1300640352
H  H143  1  0.58290000  0.06570000  0.23850000  1.0 0.1300640352
H  H144  1  0.55550000  0.11380000  0.18580000  1.0 0.1381457761
H  H145  1  0.69540000  0.23710000  0.25430000  1.0 0.1381457761
H  H146  1  0.76480000  0.22880000  0.21740000  1.0 0.1300640352
H  H147  1  0.78440000  0.17960000  0.26990000  1.0 0.1232541347
H  H148  1  0.58190000  0.92110000  0.21380000  1.0 0.1011422487
H  H149  1  0.35700000  0.89600000  0.22290000  1.0 0.1300640352
H  H150  1  0.41840000  0.97640000  0.21580000  1.0 0.1300640352
H  H151  1  0.45180000  0.91120000  0.26100000  1.0 0.1232541347
H  H152  1  0.35130000  0.80570000  0.16890000  1.0 0.1300640352
H  H153  1  0.43980000  0.75100000  0.16620000  1.0 0.1381457761
H  H154  1  0.40790000  0.82590000  0.12670000  1.0 0.1381457761
H  H155  1  0.77400000  0.88910000  0.26680000  1.0 0.1011422487
H  H156  1  0.95700000  0.70580000  0.29420000  1.0 0.1300640352
H  H157  1  0.95890000  0.76280000  0.24570000  1.0 0.1300640352
H  H158  1  0.88000000  0.69410000  0.24460000  1.0 0.1381457761
H  H159  1  0.91970000  0.76490000  0.35450000  1.0 0.1300640352
H  H160  1  0.81750000  0.79830000  0.34780000  1.0 0.1300640352
H  H161  1  0.89840000  0.86470000  0.34860000  1.0 0.1381457761
H  H162  1  0.63140000  0.69230000  0.16660000  1.0 0.1071633582
H  H163  1  0.71680000  0.48840000  0.19360000  1.0 0.1381457761
H  H164  1  0.61760000  0.52840000  0.17570000  1.0 0.1381457761
H  H165  1  0.68400000  0.56410000  0.22500000  1.0 0.1300640352
H  H166  1  0.81340000  0.52120000  0.15050000  1.0 0.1232541347
H  H167  1  0.84410000  0.61890000  0.15110000  1.0 0.1300640352
H  H168  1  0.77660000  0.58070000  0.10290000  1.0 0.1300640352
H  H169  1  0.95220000  0.63330000  0.67710000  1.0 0.1011422487
H  H170  1  0.06400000  0.76730000  0.58360000  1.0 0.1300640352
H  H171  1  0.99020000  0.69850000  0.55840000  1.0 0.1300640352
H  H172  1  0.95850000  0.78430000  0.58150000  1.0 0.1381457761
H  H173  1  0.14290000  0.73560000  0.65150000  1.0 0.1300640352
H  H174  1  0.09410000  0.73180000  0.69830000  1.0 0.1300640352
H  H175  1  0.12420000  0.64560000  0.67500000  1.0 0.1381457761
H  H176  1  0.68910000  0.77490000  0.53480000  1.0 0.1011422487
H  H177  1  0.82940000  0.69410000  0.43620000  1.0 0.1232541347
H  H178  1  0.85330000  0.65160000  0.49070000  1.0 0.1300640352
H  H179  1  0.76170000  0.62610000  0.45240000  1.0 0.1300640352
H  H180  1  0.78700000  0.82060000  0.43200000  1.0 0.1381457761
H  H181  1  0.69000000  0.83900000  0.44510000  1.0 0.1381457761
H  H182  1  0.78060000  0.86700000  0.48340000  1.0 0.1381457761
H  H183  1  0.82500000  0.51040000  0.54290000  1.0 0.1071633582
H  H184  1  0.98040000  0.33760000  0.62330000  1.0 0.1300640352
H  H185  1  0.94270000  0.41100000  0.65430000  1.0 0.1381457761
H  H186  1  0.87590000  0.33820000  0.62720000  1.0 0.1300640352
H  H187  1  0.00740000  0.37020000  0.55400000  1.0 0.1381457761
H  H188  1  0.92170000  0.39370000  0.51080000  1.0 0.1232541347
H  H189  1  0.98980000  0.46700000  0.53620000  1.0 0.1300640352
H  H190  1  0.63300000  0.43240000  0.57080000  1.0 0.1011422487
H  H191  1  0.36610000  0.43620000  0.54650000  1.0 0.1300640352
H  H192  1  0.41730000  0.49750000  0.59020000  1.0 0.1300640352
H  H193  1  0.41220000  0.52230000  0.53270000  1.0 0.1300640352
H  H194  1  0.42900000  0.32340000  0.53690000  1.0 0.1300640352
H  H195  1  0.51890000  0.32960000  0.51450000  1.0 0.1381457761
H  H196  1  0.52590000  0.30560000  0.57230000  1.0 0.1300640352
H  H197  1  0.78970000  0.42840000  0.69830000  1.0 0.1071633582
H  H198  1  0.57320000  0.33280000  0.73700000  1.0 0.1300640352
H  H199  1  0.58290000  0.43430000  0.73850000  1.0 0.1300640352
H  H200  1  0.55550000  0.38620000  0.68580000  1.0 0.1381457761
H  H201  1  0.69540000  0.26290000  0.75430000  1.0 0.1381457761
H  H202  1  0.76480000  0.27120000  0.71740000  1.0 0.1300640352
H  H203  1  0.78440000  0.32040000  0.76990000  1.0 0.1232541347
H  H204  1  0.58190000  0.57890000  0.71380000  1.0 0.1011422487
H  H205  1  0.35700000  0.60400000  0.72290000  1.0 0.1300640352
H  H206  1  0.41840000  0.52360000  0.71580000  1.0 0.1300640352
H  H207  1  0.45180000  0.58880000  0.76100000  1.0 0.1232541347
H  H208  1  0.35130000  0.69430000  0.66890000  1.0 0.1300640352
H  H209  1  0.43980000  0.74900000  0.66620000  1.0 0.1381457761
H  H210  1  0.40790000  0.67410000  0.62670000  1.0 0.1381457761
H  H211  1  0.77400000  0.61090000  0.76680000  1.0 0.1011422487
H  H212  1  0.95700000  0.79420000  0.79420000  1.0 0.1300640352
H  H213  1  0.95890000  0.73720000  0.74570000  1.0 0.1300640352
H  H214  1  0.88000000  0.80590000  0.74460000  1.0 0.1381457761
H  H215  1  0.91970000  0.73510000  0.85450000  1.0 0.1300640352
H  H216  1  0.81750000  0.70170000  0.84780000  1.0 0.1300640352
H  H217  1  0.89840000  0.63530000  0.84860000  1.0 0.1381457761
H  H218  1  0.63140000  0.80770000  0.66666667  1.0 0.1071633582
H  H219  1  0.71680000  0.01160000  0.69360000  1.0 0.1381457761
H  H220  1  0.61760000  0.97160000  0.67570000  1.0 0.1381457761
H  H221  1  0.68400000  0.93590000  0.72500000  1.0 0.1300640352
H  H222  1  0.81340000  0.97880000  0.65050000  1.0 0.1232541347
H  H223  1  0.84410000  0.88110000  0.65110000  1.0 0.1300640352
H  H224  1  0.77660000  0.91930000  0.60290000  1.0 0.1300640352
C  C1  1  0.05610000  0.15990000  0.85485000  1.0 0.3088567423
C  C2  1  0.99410000  0.24060000  0.91470000  1.0 -0.320168717
C  C3  1  0.89930000  0.20330000  0.83270000  1.0 -0.3299919107
C  C4  1  0.28340000  0.22750000  0.97790000  1.0 0.299621441
C  C5  1  0.19590000  0.17260000  0.03580000  1.0 -0.3423222912
C  C6  1  0.24680000  0.32370000  0.04095000  1.0 -0.3423222912
C  C7  1  0.16180000  0.97900000  0.92660000  1.0 0.299621441
C  C8  1  0.07180000  0.87390000  0.87520000  1.0 -0.3299919107
C  C9  1  0.03930000  0.91320000  0.95790000  1.0 -0.3491028948
C  C10  1  0.41940000  0.96650000  0.93038000  1.0 0.3088567423
C  C11  1  0.58260000  0.97500000  0.94340000  1.0 -0.320168717
C  C12  1  0.50690000  0.83970000  0.95580000  1.0 -0.3423222912
C  C13  1  0.27290000  0.93540000  0.80157000  1.0 0.299621441
C  C14  1  0.40810000  0.88270000  0.78000000  1.0 -0.3299919107
C  C15  1  0.26300000  0.80130000  0.75810000  1.0 -0.3578109396
C  C16  1  0.45010000  0.12080000  0.80800000  1.0 0.2925013947
C  C17  1  0.58060000  0.08350000  0.77400000  1.0 -0.3491028948
C  C18  1  0.58780000  0.19230000  0.83850000  1.0 -0.2936035944
C  C19  1  0.19070000  0.15100000  0.74690000  1.0 0.3088567423
C  C20  1  0.08040000  0.26470000  0.73440000  1.0 -0.3299919107
C  C21  1  0.12400000  0.19240000  0.66190000  1.0 -0.3423222912
C  C22  1  0.31860000  0.32170000  0.84810000  1.0 0.299621441
C  C23  1  0.31910000  0.45910000  0.80870000  1.0 -0.3299919107
C  C24  1  0.20600000  0.42100000  0.86040000  1.0 -0.320168717
C  C25  1  0.05610000  0.34010000  0.35485000  1.0 0.3088567423
C  C26  1  0.99410000  0.25940000  0.41470000  1.0 -0.320168717
C  C27  1  0.89930000  0.29670000  0.33270000  1.0 -0.3299919107
C  C28  1  0.28340000  0.27250000  0.47790000  1.0 0.299621441
C  C29  1  0.19590000  0.32740000  0.53580000  1.0 -0.3423222912
C  C30  1  0.24680000  0.17630000  0.54095000  1.0 -0.3423222912
C  C31  1  0.16180000  0.52100000  0.42660000  1.0 0.299621441
C  C32  1  0.07180000  0.62610000  0.37520000  1.0 -0.3299919107
C  C33  1  0.03930000  0.58680000  0.45790000  1.0 -0.3491028948
C  C34  1  0.41940000  0.53350000  0.43038000  1.0 0.3088567423
C  C35  1  0.58260000  0.52500000  0.44340000  1.0 -0.320168717
C  C36  1  0.50690000  0.66030000  0.45580000  1.0 -0.3423222912
C  C37  1  0.27290000  0.56460000  0.30157000  1.0 0.299621441
C  C38  1  0.40810000  0.61730000  0.28000000  1.0 -0.3299919107
C  C39  1  0.26300000  0.69870000  0.25810000  1.0 -0.3578109396
C  C40  1  0.45010000  0.37920000  0.30800000  1.0 0.2925013947
C  C41  1  0.58060000  0.41650000  0.27400000  1.0 -0.3491028948
C  C42  1  0.58780000  0.30770000  0.33850000  1.0 -0.2936035944
C  C43  1  0.19070000  0.34900000  0.24690000  1.0 0.3088567423
C  C44  1  0.08040000  0.23530000  0.23440000  1.0 -0.3299919107
C  C45  1  0.12400000  0.30760000  0.16190000  1.0 -0.3423222912
C  C46  1  0.31860000  0.17830000  0.34810000  1.0 0.299621441
C  C47  1  0.31910000  0.04090000  0.30870000  1.0 -0.3299919107
C  C48  1  0.20600000  0.07900000  0.36040000  1.0 -0.320168717
C  C49  1  0.94390000  0.84010000  0.14515000  1.0 0.299621441
C  C50  1  0.00590000  0.75940000  0.08530000  1.0 -0.320168717
C  C51  1  0.10070000  0.79670000  0.16730000  1.0 -0.3299919107
C  C52  1  0.71660000  0.77250000  0.02210000  1.0 0.299621441
C  C53  1  0.80410000  0.82740000  0.96420000  1.0 -0.3423222912
C  C54  1  0.75320000  0.67630000  0.95905000  1.0 -0.3423222912
C  C55  1  0.83820000  0.02100000  0.07340000  1.0 0.299621441
C  C56  1  0.92820000  0.12610000  0.12480000  1.0 -0.3299919107
C  C57  1  0.96070000  0.08680000  0.04210000  1.0 -0.3491028948
C  C58  1  0.58060000  0.03350000  0.06962000  1.0 0.3088567423
C  C59  1  0.41740000  0.02500000  0.05660000  1.0 -0.320168717
C  C60  1  0.49310000  0.16030000  0.04420000  1.0 -0.3423222912
C  C61  1  0.72710000  0.06460000  0.19843000  1.0 0.299621441
C  C62  1  0.59190000  0.11730000  0.22000000  1.0 -0.3299919107
C  C63  1  0.73700000  0.19870000  0.24190000  1.0 -0.3578109396
C  C64  1  0.54990000  0.87920000  0.19200000  1.0 0.2925013947
C  C65  1  0.41940000  0.91650000  0.22600000  1.0 -0.3491028948
C  C66  1  0.41220000  0.80770000  0.16150000  1.0 -0.2936035944
C  C67  1  0.80930000  0.84900000  0.25310000  1.0 0.3088567423
C  C68  1  0.91960000  0.73530000  0.26560000  1.0 -0.3299919107
C  C69  1  0.87600000  0.80760000  0.33810000  1.0 -0.3423222912
C  C70  1  0.68140000  0.67830000  0.15190000  1.0 0.299621441
C  C71  1  0.68090000  0.54090000  0.19130000  1.0 -0.3299919107
C  C72  1  0.79400000  0.57900000  0.13960000  1.0 -0.320168717
C  C73  1  0.94390000  0.65990000  0.64515000  1.0 0.299621441
C  C74  1  0.00590000  0.74060000  0.58530000  1.0 -0.320168717
C  C75  1  0.10070000  0.70330000  0.66730000  1.0 -0.3299919107
C  C76  1  0.71660000  0.72750000  0.52210000  1.0 0.299621441
C  C77  1  0.80410000  0.67260000  0.46420000  1.0 -0.3423222912
C  C78  1  0.75320000  0.82370000  0.45905000  1.0 -0.3423222912
C  C79  1  0.83820000  0.47900000  0.57340000  1.0 0.299621441
C  C80  1  0.92820000  0.37390000  0.62480000  1.0 -0.3299919107
C  C81  1  0.96070000  0.41320000  0.54210000  1.0 -0.3491028948
C  C82  1  0.58060000  0.46650000  0.56962000  1.0 0.3088567423
C  C83  1  0.41740000  0.47500000  0.55660000  1.0 -0.320168717
C  C84  1  0.49310000  0.33970000  0.54420000  1.0 -0.3423222912
C  C85  1  0.72710000  0.43540000  0.69843000  1.0 0.299621441
C  C86  1  0.59190000  0.38270000  0.72000000  1.0 -0.3299919107
C  C87  1  0.73700000  0.30130000  0.74190000  1.0 -0.3578109396
C  C88  1  0.54990000  0.62080000  0.69200000  1.0 0.2925013947
C  C89  1  0.41940000  0.58350000  0.72600000  1.0 -0.3491028948
C  C90  1  0.41220000  0.69230000  0.66150000  1.0 -0.2936035944
C  C91  1  0.80930000  0.65100000  0.75310000  1.0 0.3088567423
C  C92  1  0.91960000  0.76470000  0.76560000  1.0 -0.3299919107
C  C93  1  0.87600000  0.69240000  0.83810000  1.0 -0.3423222912
C  C94  1  0.68140000  0.82170000  0.65190000  1.0 0.299621441
C  C95  1  0.68090000  0.95910000  0.69130000  1.0 -0.3299919107
C  C96  1  0.79400000  0.92100000  0.63960000  1.0 -0.320168717
C  C97  1  0.83690000  0.15200000  0.66370000  1.0 -0.1401554225
C  C98  1  0.83690000  0.34800000  0.16370000  1.0 -0.1401554225
C  C99  1  0.16310000  0.84800000  0.33630000  1.0 -0.1401554225
C  C100  1  0.16310000  0.65200000  0.83630000  1.0 -0.1401554225
C  C101  1  0.13730000  0.47340000  0.69420000  1.0 -0.0890180832
C  C102  1  0.13730000  0.02660000  0.19420000  1.0 -0.0890180832
C  C103  1  0.86270000  0.52660000  0.30580000  1.0 -0.0890180832
C  C104  1  0.86270000  0.97340000  0.80580000  1.0 -0.0890180832
C  C105  1  0.06840000  0.97750000  0.70190000  1.0 -0.1401554225
C  C106  1  0.06840000  0.52250000  0.20190000  1.0 -0.1401554225
C  C107  1  0.93160000  0.02250000  0.29810000  1.0 -0.1401554225
C  C108  1  0.93160000  0.47750000  0.79810000  1.0 -0.1401554225
C  C109  1  0.36250000  0.08960000  0.67290000  1.0 -0.1023375153
C  C110  1  0.36250000  0.41040000  0.17290000  1.0 -0.1023375153
C  C111  1  0.63750000  0.91040000  0.32710000  1.0 -0.1023375153
C  C112  1  0.63750000  0.58960000  0.82710000  1.0 -0.1023375153
C  C113  1  0.24110000  0.84170000  0.61090000  1.0 -0.1253325222
C  C114  1  0.24110000  0.65830000  0.11090000  1.0 -0.1253325222
C  C115  1  0.75890000  0.15830000  0.38910000  1.0 -0.1253325222
C  C116  1  0.75890000  0.34170000  0.88910000  1.0 -0.1253325222
C  C117  1  0.31140000  0.35690000  0.66830000  1.0 -0.109834337
C  C118  1  0.31140000  0.14310000  0.16830000  1.0 -0.109834337
C  C119  1  0.68860000  0.64310000  0.33170000  1.0 -0.109834337
C  C120  1  0.68860000  0.85690000  0.83170000  1.0 -0.109834337
C  C121  1  0.54030000  0.18860000  0.64900000  1.0 -0.0890180832
C  C122  1  0.54030000  0.31140000  0.14900000  1.0 -0.0890180832
C  C123  1  0.45970000  0.81140000  0.35100000  1.0 -0.0890180832
C  C124  1  0.45970000  0.68860000  0.85100000  1.0 -0.0890180832
C  C125  1  0.22610000  0.57980000  0.57400000  1.0 -0.109834337
C  C126  1  0.22610000  0.92020000  0.07400000  1.0 -0.1023375153
C  C127  1  0.77390000  0.42020000  0.42600000  1.0 -0.1023375153
C  C128  1  0.77390000  0.07980000  0.92600000  1.0 -0.1023375153
C  C129  1  0.73850000  0.28910000  0.52210000  1.0 -0.0820099292
C  C130  1  0.73850000  0.21090000  0.02210000  1.0 -0.0820099292
C  C131  1  0.26150000  0.71090000  0.47790000  1.0 -0.0820099292
C  C132  1  0.26150000  0.78910000  0.97790000  1.0 -0.0820099292
N  N1  1  0.98650000  0.19880000  0.86655000  1.0 0.0417681215
N  N2  1  0.24370000  0.24130000  0.01613000  1.0 0.0322188596
N  N3  1  0.09350000  0.92600000  0.92049000  1.0 0.0480511183
N  N4  1  0.49870000  0.92960000  0.94260000  1.0 0.0417681215
N  N5  1  0.31300000  0.87490000  0.78198000  1.0 0.0480511183
N  N6  1  0.53450000  0.13460000  0.80630000  1.0 0.0480511183
N  N7  1  0.13560000  0.20030000  0.71632000  1.0 0.0480511183
N  N8  1  0.28290000  0.39690000  0.83909000  1.0 0.0480511183
N  N9  1  0.98650000  0.30120000  0.36655000  1.0 0.0417681215
N  N10  1  0.24370000  0.25870000  0.51613000  1.0 0.0322188596
N  N11  1  0.09350000  0.57400000  0.42049000  1.0 0.0480511183
N  N12  1  0.49870000  0.57040000  0.44260000  1.0 0.0417681215
N  N13  1  0.31300000  0.62510000  0.28198000  1.0 0.0480511183
N  N14  1  0.53450000  0.36540000  0.30630000  1.0 0.0480511183
N  N15  1  0.13560000  0.29970000  0.21632000  1.0 0.0480511183
N  N16  1  0.28290000  0.10310000  0.33909000  1.0 0.0480511183
N  N17  1  0.01350000  0.80120000  0.13345000  1.0 0.0417681215
N  N18  1  0.75630000  0.75870000  0.98387000  1.0 0.0322188596
N  N19  1  0.90650000  0.07400000  0.07951000  1.0 0.0480511183
N  N20  1  0.50130000  0.07040000  0.05740000  1.0 0.0417681215
N  N21  1  0.68700000  0.12510000  0.21802000  1.0 0.0480511183
N  N22  1  0.46550000  0.86540000  0.19370000  1.0 0.0480511183
N  N23  1  0.86440000  0.79970000  0.28368000  1.0 0.0480511183
N  N24  1  0.71710000  0.60310000  0.16091000  1.0 0.0480511183
N  N25  1  0.01350000  0.69880000  0.63345000  1.0 0.0417681215
N  N26  1  0.75630000  0.74130000  0.48387000  1.0 0.0322188596
N  N27  1  0.90650000  0.42600000  0.57951000  1.0 0.0480511183
N  N28  1  0.50130000  0.42960000  0.55740000  1.0 0.0417681215
N  N29  1  0.68700000  0.37490000  0.71802000  1.0 0.0480511183
N  N30  1  0.46550000  0.63460000  0.69370000  1.0 0.0480511183
N  N31  1  0.86440000  0.70030000  0.78368000  1.0 0.0480511183
N  N32  1  0.71710000  0.89690000  0.66091000  1.0 0.0480511183
N  N33  1  0.89750000  0.11760000  0.68825000  1.0 -0.3103804094
N  N34  1  0.89750000  0.38240000  0.18825000  1.0 -0.3103804094
N  N35  1  0.10250000  0.88240000  0.31175000  1.0 -0.3103804094
N  N36  1  0.10250000  0.61760000  0.81175000  1.0 -0.3103804094
N  N37  1  0.08840000  0.49520000  0.71997000  1.0 -0.3423222912
N  N38  1  0.08840000  0.00480000  0.21997000  1.0 -0.3423222912
N  N39  1  0.91160000  0.50480000  0.28003000  1.0 -0.3423222912
N  N40  1  0.91160000  0.99520000  0.78003000  1.0 -0.3423222912
N  N41  1  0.12830000  0.95340000  0.68509000  1.0 -0.3299919107
N  N42  1  0.12830000  0.54660000  0.18509000  1.0 -0.3299919107
N  N43  1  0.87170000  0.04660000  0.31491000  1.0 -0.3299919107
N  N44  1  0.87170000  0.45340000  0.81491000  1.0 -0.3299919107
N  N45  1  0.31840000  0.02850000  0.66938000  1.0 -0.3299919107
N  N46  1  0.31840000  0.47150000  0.16938000  1.0 -0.3299919107
N  N47  1  0.68160000  0.97150000  0.33062000  1.0 -0.3299919107
N  N48  1  0.68160000  0.52850000  0.83062000  1.0 -0.3299919107
N  N49  1  0.24580000  0.78410000  0.58527000  1.0 -0.2768013654
N  N50  1  0.24580000  0.71590000  0.08527000  1.0 -0.2768013654
N  N51  1  0.75420000  0.21590000  0.41473000  1.0 -0.2768013654
N  N52  1  0.75420000  0.28410000  0.91473000  1.0 -0.2768013654
N  N53  1  0.35930000  0.29790000  0.67150000  1.0 -0.3103804094
N  N54  1  0.35930000  0.20210000  0.17150000  1.0 -0.3103804094
N  N55  1  0.64070000  0.70210000  0.32850000  1.0 -0.3103804094
N  N56  1  0.64070000  0.79790000  0.82850000  1.0 -0.3103804094
N  N57  1  0.61030000  0.18750000  0.63815000  1.0 -0.320168717
N  N58  1  0.61030000  0.31250000  0.13815000  1.0 -0.320168717
N  N59  1  0.38970000  0.81250000  0.36185000  1.0 -0.320168717
N  N60  1  0.38970000  0.68750000  0.86185000  1.0 -0.320168717
N  N61  1  0.22060000  0.52120000  0.59906000  1.0 -0.3031629575
N  N62  1  0.22060000  0.97880000  0.09906000  1.0 -0.3031629575
N  N63  1  0.77940000  0.47880000  0.40094000  1.0 -0.3031629575
N  N64  1  0.77940000  0.02120000  0.90094000  1.0 -0.3031629575
N  N65  1  0.73360000  0.26210000  0.56170000  1.0 -0.320168717
N  N66  1  0.73360000  0.23790000  0.06170000  1.0 -0.320168717
N  N67  1  0.26640000  0.73790000  0.43830000  1.0 -0.320168717
N  N68  1  0.26640000  0.76210000  0.93830000  1.0 -0.320168717
O  O1  1  0.13200000  0.15560000  0.88256000  1.0 -0.543663199
O  O2  1  0.28760000  0.15710000  0.95720000  1.0 -0.5637444509
O  O3  1  0.21060000  0.99170000  0.89595000  1.0 -0.5699236346
O  O4  1  0.40840000  0.04410000  0.92006000  1.0 -0.5637444509
O  O5  1  0.31040000  0.00210000  0.82021000  1.0 -0.5780766609
O  O6  1  0.40770000  0.15930000  0.83678000  1.0 -0.5780766609
O  O7  1  0.19920000  0.15400000  0.79345000  1.0 -0.6024479819
O  O8  1  0.29190000  0.26680000  0.87466000  1.0 -0.5780766609
O  O9  1  0.13200000  0.34440000  0.38256000  1.0 -0.543663199
O  O10  1  0.28760000  0.34290000  0.45720000  1.0 -0.5637444509
O  O11  1  0.21060000  0.50830000  0.39595000  1.0 -0.5699236346
O  O12  1  0.40840000  0.45590000  0.42006000  1.0 -0.5637444509
O  O13  1  0.31040000  0.49790000  0.32021000  1.0 -0.5780766609
O  O14  1  0.40770000  0.34070000  0.33678000  1.0 -0.5780766609
O  O15  1  0.19920000  0.34600000  0.29345000  1.0 -0.6024479819
O  O16  1  0.29190000  0.23320000  0.37466000  1.0 -0.5780766609
O  O17  1  0.86800000  0.84440000  0.11744000  1.0 -0.543663199
O  O18  1  0.71240000  0.84290000  0.04280000  1.0 -0.5637444509
O  O19  1  0.78940000  0.00830000  0.10405000  1.0 -0.5699236346
O  O20  1  0.59160000  0.95590000  0.07994000  1.0 -0.5637444509
O  O21  1  0.68960000  0.99790000  0.17979000  1.0 -0.5780766609
O  O22  1  0.59230000  0.84070000  0.16322000  1.0 -0.5780766609
O  O23  1  0.80080000  0.84600000  0.20655000  1.0 -0.6024479819
O  O24  1  0.70810000  0.73320000  0.12534000  1.0 -0.5780766609
O  O25  1  0.86800000  0.65560000  0.61744000  1.0 -0.543663199
O  O26  1  0.71240000  0.65710000  0.54280000  1.0 -0.5637444509
O  O27  1  0.78940000  0.49170000  0.60405000  1.0 -0.5699236346
O  O28  1  0.59160000  0.54410000  0.57994000  1.0 -0.5637444509
O  O29  1  0.68960000  0.50210000  0.67979000  1.0 -0.5780766609
O  O30  1  0.59230000  0.65930000  0.66322000  1.0 -0.5780766609
O  O31  1  0.80080000  0.65400000  0.70655000  1.0 -0.6024479819
O  O32  1  0.70810000  0.76680000  0.62534000  1.0 -0.5780766609
