# DDEC6 charges by PACMAN v1.1 (https://github.com/mtap-research/PACMAN-charge/)
data_OGURAK_ASR_pacman
_symmetry_space_group_name_H-M   'P 1'
_cell_length_a   13.87790000
_cell_length_b   13.87790000
_cell_length_c   13.87790000
_cell_angle_alpha   123.31000000
_cell_angle_beta   123.30500000
_cell_angle_gamma   84.36110000
_symmetry_Int_Tables_number   1
_chemical_formula_structural   Cu4H16C32N16ClO8
_chemical_formula_sum   'Cu4 H16 C32 N16 Cl1 O8'
_cell_volume   1786.02592756
_cell_formula_units_Z   1
loop_
 _symmetry_equiv_pos_site_id
 _symmetry_equiv_pos_as_xyz
  1  'x, y, z'
loop_
 _atom_site_type_symbol
 _atom_site_label
 _atom_site_symmetry_multiplicity
 _atom_site_fract_x
 _atom_site_fract_y
 _atom_site_fract_z
 _atom_site_occupancy
 _atom_site_charge
Cu  Cu1  1  0.10576000  0.91059000  0.19517000  1.0 0.701975029
Cu  Cu2  1  0.71542000  0.91059000  0.80483000  1.0 0.701975029
Cu  Cu3  1  0.91055000  0.71539000  0.80484000  1.0 0.7054338071
Cu  Cu4  1  0.91055000  0.10571000  0.19516000  1.0 0.701975029
H  H1  1  0.97470000  0.50290000  0.21040000  1.0 0.1296935964
H  H2  1  0.29250000  0.76430000  0.78960000  1.0 0.1296935964
H  H3  1  0.97470000  0.76430000  0.47180000  1.0 0.1296935964
H  H4  1  0.29250000  0.50290000  0.52820000  1.0 0.1296935964
H  H5  1  0.76580000  0.29210000  0.78970000  1.0 0.1296935964
H  H6  1  0.50240000  0.97610000  0.21030000  1.0 0.1296935964
H  H7  1  0.76580000  0.97610000  0.47370000  1.0 0.1296935964
H  H8  1  0.50240000  0.29210000  0.52630000  1.0 0.1296935964
H  H9  1  0.04810000  0.64100000  0.21270000  1.0 0.1296935964
H  H10  1  0.42830000  0.83540000  0.78730000  1.0 0.1296935964
H  H11  1  0.04810000  0.83540000  0.40710000  1.0 0.1296935964
H  H12  1  0.42830000  0.64100000  0.59290000  1.0 0.1296935964
H  H13  1  0.83790000  0.42490000  0.78460000  1.0 0.1296935964
H  H14  1  0.64030000  0.05330000  0.21540000  1.0 0.1296935964
H  H15  1  0.83790000  0.05330000  0.41300000  1.0 0.1296935964
H  H16  1  0.64030000  0.42490000  0.58700000  1.0 0.1296935964
C  C1  1  0.87090000  0.26680000  0.00050000  1.0 0.1655030612
C  C2  1  0.26630000  0.87040000  0.99950000  1.0 0.1655030612
C  C3  1  0.87090000  0.87040000  0.60410000  1.0 0.1655030612
C  C4  1  0.26630000  0.26680000  0.39590000  1.0 0.1655030612
C  C5  1  0.98790000  0.64510000  0.99960000  1.0 0.5496449086
C  C6  1  0.64550000  0.98830000  0.00040000  1.0 0.5496449086
C  C7  1  0.98790000  0.98830000  0.34280000  1.0 0.5496449086
C  C8  1  0.64550000  0.64510000  0.65720000  1.0 0.5496449086
C  C9  1  0.89020000  0.36180000  0.00080000  1.0 0.0612748105
C  C10  1  0.36100000  0.88940000  0.99920000  1.0 0.0612748105
C  C11  1  0.89020000  0.88940000  0.52840000  1.0 0.0612748105
C  C12  1  0.36100000  0.36180000  0.47160000  1.0 0.0612748105
C  C13  1  0.95610000  0.48100000  0.12270000  1.0 -0.1399471427
C  C14  1  0.35830000  0.83340000  0.87730000  1.0 -0.1399471427
C  C15  1  0.95610000  0.83340000  0.47510000  1.0 -0.1399471427
C  C16  1  0.35830000  0.48100000  0.52490000  1.0 -0.1399471427
C  C17  1  0.83450000  0.35810000  0.87700000  1.0 -0.1399471427
C  C18  1  0.48110000  0.95750000  0.12300000  1.0 -0.1399471427
C  C19  1  0.83450000  0.95750000  0.47640000  1.0 -0.1399471427
C  C20  1  0.48110000  0.35810000  0.52360000  1.0 -0.1399471427
C  C21  1  0.99420000  0.56600000  0.12260000  1.0 -0.077445999
C  C22  1  0.44340000  0.87160000  0.87740000  1.0 -0.077445999
C  C23  1  0.99420000  0.87160000  0.42820000  1.0 -0.077445999
C  C24  1  0.44340000  0.56600000  0.57180000  1.0 -0.077445999
C  C25  1  0.87230000  0.44130000  0.87500000  1.0 -0.077445999
C  C26  1  0.56630000  0.99730000  0.12500000  1.0 -0.077445999
C  C27  1  0.87230000  0.99730000  0.43100000  1.0 -0.077445999
C  C28  1  0.56630000  0.44130000  0.56900000  1.0 -0.077445999
C  C29  1  0.96060000  0.55240000  0.00000000  1.0 -0.1178369739
C  C30  1  0.55240000  0.96060000  0.00000000  1.0 -0.1178369739
C  C31  1  0.96060000  0.96060000  0.40820000  1.0 -0.1178369739
C  C32  1  0.55240000  0.55240000  0.59180000  1.0 -0.1178369739
N  N1  1  0.86770000  0.16750000  0.07480000  1.0 -0.0468289249
N  N2  1  0.09270000  0.79290000  0.92520000  1.0 -0.0468289249
N  N3  1  0.86770000  0.79290000  0.70020000  1.0 -0.0468289249
N  N4  1  0.09270000  0.16750000  0.29980000  1.0 -0.0468289249
N  N5  1  0.79450000  0.09180000  0.92650000  1.0 -0.0555324715
N  N6  1  0.16530000  0.86800000  0.07350000  1.0 -0.0555324715
N  N7  1  0.79450000  0.86800000  0.70270000  1.0 -0.0555324715
N  N8  1  0.16530000  0.09180000  0.29730000  1.0 -0.0555324715
N  N9  1  0.90843000  0.27083000  0.11820000  1.0 -0.1399471427
N  N10  1  0.15263000  0.79023000  0.88180000  1.0 -0.1399471427
N  N11  1  0.90843000  0.79023000  0.63760000  1.0 -0.1399471427
N  N12  1  0.15263000  0.27083000  0.36240000  1.0 -0.1399471427
N  N13  1  0.79111000  0.15161000  0.88170000  1.0 -0.1399471427
N  N14  1  0.26991000  0.90941000  0.11830000  1.0 -0.1399471427
N  N15  1  0.79111000  0.90941000  0.63950000  1.0 -0.1399471427
N  N16  1  0.26991000  0.15161000  0.36050000  1.0 -0.1399471427
Cl  Cl1  1  0.90222000  0.90222000  0.00000000  1.0 -0.6139887359
O  O1  1  0.05300000  0.74450000  0.11430000  1.0 -0.4535440591
O  O2  1  0.63020000  0.93870000  0.88570000  1.0 -0.4535440591
O  O3  1  0.05300000  0.93870000  0.30850000  1.0 -0.4535440591
O  O4  1  0.63020000  0.74450000  0.69150000  1.0 -0.4535440591
O  O5  1  0.93840000  0.63150000  0.88570000  1.0 -0.4561167073
O  O6  1  0.74580000  0.05270000  0.11430000  1.0 -0.4561167073
O  O7  1  0.93840000  0.05270000  0.30690000  1.0 -0.4561167073
O  O8  1  0.74580000  0.63150000  0.69310000  1.0 -0.4561167073
