# DDEC6 charges by PACMAN v1.1 (https://github.com/mtap-research/PACMAN-charge/)
data_OGUZIA_ion_pacman
_symmetry_space_group_name_H-M   'P 1'
_cell_length_a   10.18000000
_cell_length_b   11.06000000
_cell_length_c   14.01370000
_cell_angle_alpha   68.29700000
_cell_angle_beta   78.85900000
_cell_angle_gamma   72.30000000
_symmetry_Int_Tables_number   1
_chemical_formula_structural   Zn6P4H21C11NO26
_chemical_formula_sum   'Zn12 P8 H42 C22 N2 O52'
_cell_volume   1390.74059230
_cell_formula_units_Z   2
loop_
 _symmetry_equiv_pos_site_id
 _symmetry_equiv_pos_as_xyz
  1  'x, y, z'
loop_
 _atom_site_type_symbol
 _atom_site_label
 _atom_site_symmetry_multiplicity
 _atom_site_fract_x
 _atom_site_fract_y
 _atom_site_fract_z
 _atom_site_occupancy
 _atom_site_charge
Zn  Zn1  1  0.92247000  0.14624000  0.08602000  1.0 1.0199147208
Zn  Zn2  1  0.07753000  0.85376000  0.91398000  1.0 1.0199147208
Zn  Zn3  1  0.92154000  0.64801000  0.08304000  1.0 1.0199147208
Zn  Zn4  1  0.07846000  0.35199000  0.91696000  1.0 1.0199147208
Zn  Zn5  1  0.37564000  0.01330000  0.17730000  1.0 0.9979749663
Zn  Zn6  1  0.62436000  0.98670000  0.82270000  1.0 0.9979749663
Zn  Zn7  1  0.02476000  0.22077000  0.48851000  1.0 1.0875308259
Zn  Zn8  1  0.97524000  0.77923000  0.51149000  1.0 1.0875308259
Zn  Zn9  1  0.61851000  0.49055000  0.82359000  1.0 0.9852045519
Zn  Zn10  1  0.38149000  0.50945000  0.17641000  1.0 0.9852045519
Zn  Zn11  1  0.00560000  0.24250000  0.49610000  1.0 1.0969735725
Zn  Zn12  1  0.99440000  0.75750000  0.50390000  1.0 1.0969735725
P  P1  1  0.77494000  0.46867000  0.01775000  1.0 1.284588073
P  P2  1  0.22506000  0.53133000  0.98225000  1.0 1.284588073
P  P3  1  0.22200000  0.03026000  0.98437000  1.0 1.2906782372
P  P4  1  0.77800000  0.96974000  0.01563000  1.0 1.2906782372
P  P5  1  0.15964000  0.98644000  0.38524000  1.0 1.2386234743
P  P6  1  0.84036000  0.01356000  0.61476000  1.0 1.2386234743
P  P7  1  0.15665000  0.47441000  0.37991000  1.0 1.2250851137
P  P8  1  0.84335000  0.52559000  0.62009000  1.0 1.2250851137
H  H1  1  0.36500000  0.23800000  0.16000000  1.0 0.2938030554
H  H2  1  0.63500000  0.76200000  0.84000000  1.0 0.2938030554
H  H3  1  0.25700000  0.26900000  0.11400000  1.0 0.3313512845
H  H4  1  0.74300000  0.73100000  0.88600000  1.0 0.3313512845
H  H5  1  0.62100000  0.26200000  0.83700000  1.0 0.3040852291
H  H6  1  0.37900000  0.73800000  0.16300000  1.0 0.3040852291
H  H7  1  0.73100000  0.25000000  0.87400000  1.0 0.3094221396
H  H8  1  0.26900000  0.75000000  0.12600000  1.0 0.3094221396
H  H9  1  0.61100000  0.58400000  0.16200000  1.0 0.3352245135
H  H10  1  0.38900000  0.41600000  0.83800000  1.0 0.3352245135
H  H11  1  0.38300000  0.91800000  0.84500000  1.0 0.3194104973
H  H12  1  0.61700000  0.08200000  0.15500000  1.0 0.3194104973
H  H13  1  0.00700000  0.21800000  0.22900000  1.0 0.3194104973
H  H14  1  0.99300000  0.78200000  0.77100000  1.0 0.3194104973
H  H15  1  0.25900000  0.59800000  0.39400000  1.0 0.3889580114
H  H16  1  0.74100000  0.40200000  0.60600000  1.0 0.3889580114
H  H17  1  0.00400000  0.71300000  0.24100000  1.0 0.3194104973
H  H18  1  0.99600000  0.28700000  0.75900000  1.0 0.3194104973
H  H19  1  0.76500000  0.38700000  0.19700000  1.0 0.151193471
H  H20  1  0.23500000  0.61300000  0.80300000  1.0 0.1553337468
H  H21  1  0.24100000  0.10500000  0.80300000  1.0 0.151193471
H  H22  1  0.75900000  0.89500000  0.19700000  1.0 0.151193471
H  H23  1  0.93100000  0.08800000  0.35600000  1.0 0.1391447304
H  H24  1  0.06900000  0.91200000  0.64400000  1.0 0.1391447304
H  H25  1  0.92200000  0.57800000  0.35800000  1.0 0.151193471
H  H26  1  0.07800000  0.42200000  0.64200000  1.0 0.151193471
H  H27  1  0.56900000  0.78400000  0.60900000  1.0 0.2695124192
H  H28  1  0.43100000  0.21600000  0.39100000  1.0 0.2695124192
H  H29  1  0.65230000  0.88170000  0.57020000  1.0 0.2755390746
H  H30  1  0.34770000  0.11830000  0.42980000  1.0 0.2755390746
H  H31  1  0.60210000  0.83020000  0.35020000  1.0 0.1246323926
H  H32  1  0.39790000  0.16980000  0.64980000  1.0 0.1246323926
H  H33  1  0.61210000  0.71840000  0.45910000  1.0 0.1391447304
H  H34  1  0.38790000  0.28160000  0.54090000  1.0 0.1391447304
H  H35  1  0.72000000  0.80550000  0.41770000  1.0 0.1336659236
H  H36  1  0.28000000  0.19450000  0.58230000  1.0 0.1336659236
H  H37  1  0.45690000  0.87800000  0.46210000  1.0 0.1075497238
H  H38  1  0.54310000  0.12200000  0.53790000  1.0 0.1075497238
H  H39  1  0.47210000  0.95150000  0.67720000  1.0 0.1031734633
H  H40  1  0.52790000  0.04850000  0.32280000  1.0 0.1031734633
H  H41  1  0.37010000  0.94610000  0.60900000  1.0 0.1075497238
H  H42  1  0.62990000  0.05390000  0.39100000  1.0 0.1075497238
C  C1  1  0.69500000  0.41710000  0.15080000  1.0 -0.2905186819
C  C2  1  0.30500000  0.58290000  0.84920000  1.0 -0.2905186819
C  C3  1  0.63820000  0.29650000  0.17680000  1.0 0.6105261488
C  C4  1  0.36180000  0.70350000  0.82320000  1.0 0.6105261488
C  C5  1  0.30660000  0.07980000  0.85250000  1.0 -0.2963880854
C  C6  1  0.69340000  0.92020000  0.14750000  1.0 -0.2963880854
C  C7  1  0.36450000  0.20000000  0.82610000  1.0 0.6105261488
C  C8  1  0.63550000  0.80000000  0.17390000  1.0 0.6105261488
C  C9  1  0.00580000  0.05650000  0.31030000  1.0 -0.3058345573
C  C10  1  0.99420000  0.94350000  0.68970000  1.0 -0.3058345573
C  C11  1  0.96920000  0.94750000  0.28630000  1.0 0.62329552
C  C12  1  0.03080000  0.05250000  0.71370000  1.0 0.62329552
C  C13  1  0.99950000  0.55190000  0.31060000  1.0 -0.2905186819
C  C14  1  0.00050000  0.44810000  0.68940000  1.0 -0.2905186819
C  C15  1  0.96390000  0.44560000  0.28230000  1.0 0.6306636078
C  C16  1  0.03610000  0.55440000  0.71770000  1.0 0.6306636078
C  C17  1  0.62510000  0.80620000  0.41930000  1.0 -0.390437867
C  C18  1  0.37490000  0.19380000  0.58070000  1.0 -0.390437867
C  C19  1  0.55040000  0.88810000  0.45830000  1.0 0.1031734633
C  C20  1  0.44960000  0.11190000  0.54170000  1.0 0.1031734633
C  C21  1  0.45780000  0.96490000  0.60710000  1.0 -0.1713932263
C  C22  1  0.54220000  0.03510000  0.39290000  1.0 -0.1713932263
N  N1  1  0.56980000  0.86870000  0.56830000  1.0 -0.2548347073
N  N2  1  0.43020000  0.13130000  0.43170000  1.0 -0.2548347073
O  O1  1  0.31440000  0.21110000  0.15810000  1.0 -0.5683132963
O  O2  1  0.68560000  0.78890000  0.84190000  1.0 -0.5683132963
O  O3  1  0.66580000  0.49420000  0.94898000  1.0 -0.771185523
O  O4  1  0.33420000  0.50580000  0.05102000  1.0 -0.771185523
O  O5  1  0.81870000  0.59497000  0.00086000  1.0 -0.7591319488
O  O6  1  0.18130000  0.40503000  0.99914000  1.0 -0.7591319488
O  O7  1  0.68540000  0.29310000  0.84020000  1.0 -0.5683132963
O  O8  1  0.31460000  0.70690000  0.15980000  1.0 -0.5683132963
O  O9  1  0.89850000  0.34952000  0.01357000  1.0 -0.771185523
O  O10  1  0.10150000  0.65048000  0.98643000  1.0 -0.771185523
O  O11  1  0.58420000  0.52320000  0.16972000  1.0 -0.4328808444
O  O12  1  0.41580000  0.47680000  0.83028000  1.0 -0.4328808444
O  O13  1  0.51110000  0.30865000  0.20216000  1.0 -0.5197027134
O  O14  1  0.48890000  0.69135000  0.79784000  1.0 -0.5197027134
O  O15  1  0.72200000  0.18695000  0.17230000  1.0 -0.5683132963
O  O16  1  0.27800000  0.81305000  0.82770000  1.0 -0.5683132963
O  O17  1  0.09960000  0.15040000  0.98740000  1.0 -0.7775983321
O  O18  1  0.90040000  0.84960000  0.01260000  1.0 -0.7775983321
O  O19  1  0.17760000  0.90503000  0.99925000  1.0 -0.7480626063
O  O20  1  0.82240000  0.09497000  0.00075000  1.0 -0.7480626063
O  O21  1  0.32850000  0.00270000  0.05536000  1.0 -0.7775983321
O  O22  1  0.67150000  0.99730000  0.94464000  1.0 -0.7775983321
O  O23  1  0.41920000  0.97000000  0.84040000  1.0 -0.4445059555
O  O24  1  0.58080000  0.03000000  0.15960000  1.0 -0.4445059555
O  O25  1  0.49120000  0.18660000  0.80011000  1.0 -0.5197027134
O  O26  1  0.50880000  0.81340000  0.19989000  1.0 -0.5197027134
O  O27  1  0.28050000  0.30980000  0.82946000  1.0 -0.5683132963
O  O28  1  0.71950000  0.69020000  0.17054000  1.0 -0.5683132963
O  O29  1  0.28680000  0.94570000  0.31540000  1.0 -0.7591319488
O  O30  1  0.71320000  0.05430000  0.68460000  1.0 -0.7591319488
O  O31  1  0.17250000  0.09740000  0.42081000  1.0 -0.8312300699
O  O32  1  0.82750000  0.90260000  0.57919000  1.0 -0.8312300699
O  O33  1  0.13200000  0.86540000  0.47591000  1.0 -0.8534506815
O  O34  1  0.86800000  0.13460000  0.52409000  1.0 -0.8534506815
O  O35  1  0.02380000  0.15960000  0.21489000  1.0 -0.3803360718
O  O36  1  0.97620000  0.84040000  0.78511000  1.0 -0.3803360718
O  O37  1  0.97110000  0.95960000  0.19302000  1.0 -0.502510141
O  O38  1  0.02890000  0.04040000  0.80698000  1.0 -0.502510141
O  O39  1  0.93870000  0.84980000  0.35864000  1.0 -0.6433601783
O  O40  1  0.06130000  0.15020000  0.64136000  1.0 -0.6433601783
O  O41  1  0.12700000  0.35860000  0.47185000  1.0 -0.8359880106
O  O42  1  0.87300000  0.64140000  0.52815000  1.0 -0.8359880106
O  O43  1  0.17220000  0.58740000  0.41544000  1.0 -0.6794621008
O  O44  1  0.82780000  0.41260000  0.58456000  1.0 -0.6794621008
O  O45  1  0.28010000  0.43460000  0.30876000  1.0 -0.771185523
O  O46  1  0.71990000  0.56540000  0.69124000  1.0 -0.771185523
O  O47  1  0.01610000  0.65980000  0.21726000  1.0 -0.4040530728
O  O48  1  0.98390000  0.34020000  0.78274000  1.0 -0.4040530728
O  O49  1  0.93320000  0.34540000  0.35286000  1.0 -0.6433601783
O  O50  1  0.06680000  0.65460000  0.64714000  1.0 -0.6433601783
O  O51  1  0.96680000  0.46130000  0.18916000  1.0 -0.502510141
O  O52  1  0.03320000  0.53870000  0.81084000  1.0 -0.502510141
