# DDEC6 charges by PACMAN v1.1 (https://github.com/mtap-research/PACMAN-charge/)
data_OHAQAR_ASR_pacman
_symmetry_space_group_name_H-M   'P 1'
_cell_length_a   28.46860000
_cell_length_b   28.46860000
_cell_length_c   28.46860000
_cell_angle_alpha   60.68760000
_cell_angle_beta   60.68760000
_cell_angle_gamma   60.68760000
_symmetry_Int_Tables_number   1
_chemical_formula_structural   Zn10H144C192N72Cl7O3
_chemical_formula_sum   'Zn20 H288 C384 N144 Cl14 O6'
_cell_volume   16568.07453100
_cell_formula_units_Z   2
loop_
 _symmetry_equiv_pos_site_id
 _symmetry_equiv_pos_as_xyz
  1  'x, y, z'
loop_
 _atom_site_type_symbol
 _atom_site_label
 _atom_site_symmetry_multiplicity
 _atom_site_fract_x
 _atom_site_fract_y
 _atom_site_fract_z
 _atom_site_occupancy
 _atom_site_charge
Zn  Zn1  1  0.08646000  0.08646000  0.08646000  1.0 0.4824694213
Zn  Zn2  1  0.24197000  0.03570000  0.03570000  1.0 0.5980283735
Zn  Zn3  1  0.03570000  0.24197000  0.03570000  1.0 0.5980283735
Zn  Zn4  1  0.03570000  0.03570000  0.24197000  1.0 0.5980283735
Zn  Zn5  1  0.63999000  0.63999000  0.43626000  1.0 0.5808293836
Zn  Zn6  1  0.43626000  0.63999000  0.63999000  1.0 0.5808293836
Zn  Zn7  1  0.63999000  0.43626000  0.63999000  1.0 0.5808293836
Zn  Zn8  1  0.58946000  0.58946000  0.58946000  1.0 0.4391842899
Zn  Zn9  1  0.64330000  0.64330000  0.64330000  1.0 0.697377902
Zn  Zn10  1  0.03248000  0.03248000  0.03248000  1.0 0.3628934589
Zn  Zn11  1  0.91354000  0.91354000  0.91354000  1.0 0.4851081785
Zn  Zn12  1  0.75803000  0.96430000  0.96430000  1.0 0.5980283735
Zn  Zn13  1  0.96430000  0.96430000  0.75803000  1.0 0.5980283735
Zn  Zn14  1  0.96430000  0.75803000  0.96430000  1.0 0.5980283735
Zn  Zn15  1  0.36001000  0.56374000  0.36001000  1.0 0.5808293836
Zn  Zn16  1  0.56374000  0.36001000  0.36001000  1.0 0.5808293836
Zn  Zn17  1  0.36001000  0.36001000  0.56374000  1.0 0.5808293836
Zn  Zn18  1  0.41054000  0.41054000  0.41054000  1.0 0.4391842899
Zn  Zn19  1  0.35670000  0.35670000  0.35670000  1.0 0.697377902
Zn  Zn20  1  0.96752000  0.96752000  0.96752000  1.0 0.3628934589
H  H1  1  0.30370000  0.95000000  0.13590000  1.0 0.1581610124
H  H2  1  0.13590000  0.30370000  0.95000000  1.0 0.1581610124
H  H3  1  0.95000000  0.13590000  0.30370000  1.0 0.1581610124
H  H4  1  0.30370000  0.13590000  0.95000000  1.0 0.1581610124
H  H5  1  0.13590000  0.95000000  0.30370000  1.0 0.1581610124
H  H6  1  0.95000000  0.30370000  0.13590000  1.0 0.1581610124
H  H7  1  0.40930000  0.77790000  0.22640000  1.0 0.1400875277
H  H8  1  0.22640000  0.40930000  0.77790000  1.0 0.1400875277
H  H9  1  0.77790000  0.22640000  0.40930000  1.0 0.1400875277
H  H10  1  0.40930000  0.22640000  0.77790000  1.0 0.1400875277
H  H11  1  0.22640000  0.77790000  0.40930000  1.0 0.1400875277
H  H12  1  0.77790000  0.40930000  0.22640000  1.0 0.1400875277
H  H13  1  0.44980000  0.73960000  0.26500000  1.0 0.1400875277
H  H14  1  0.26500000  0.44980000  0.73960000  1.0 0.1400875277
H  H15  1  0.73960000  0.26500000  0.44980000  1.0 0.1400875277
H  H16  1  0.44980000  0.26500000  0.73960000  1.0 0.1400875277
H  H17  1  0.26500000  0.73960000  0.44980000  1.0 0.1400875277
H  H18  1  0.73960000  0.44980000  0.26500000  1.0 0.1400875277
H  H19  1  0.38490000  0.74180000  0.29170000  1.0 0.1400875277
H  H20  1  0.29170000  0.38490000  0.74180000  1.0 0.1400875277
H  H21  1  0.74180000  0.29170000  0.38490000  1.0 0.1400875277
H  H22  1  0.38490000  0.29170000  0.74180000  1.0 0.1400875277
H  H23  1  0.29170000  0.74180000  0.38490000  1.0 0.1400875277
H  H24  1  0.74180000  0.38490000  0.29170000  1.0 0.1400875277
H  H25  1  0.43090000  0.86770000  0.20530000  1.0 0.1317312157
H  H26  1  0.20530000  0.43090000  0.86770000  1.0 0.1317312157
H  H27  1  0.86770000  0.20530000  0.43090000  1.0 0.1317312157
H  H28  1  0.43090000  0.20530000  0.86770000  1.0 0.1317312157
H  H29  1  0.20530000  0.86770000  0.43090000  1.0 0.1317312157
H  H30  1  0.86770000  0.43090000  0.20530000  1.0 0.1317312157
H  H31  1  0.42060000  0.88190000  0.25810000  1.0 0.1317312157
H  H32  1  0.25810000  0.42060000  0.88190000  1.0 0.1317312157
H  H33  1  0.88190000  0.25810000  0.42060000  1.0 0.1317312157
H  H34  1  0.42060000  0.25810000  0.88190000  1.0 0.1317312157
H  H35  1  0.25810000  0.88190000  0.42060000  1.0 0.1317312157
H  H36  1  0.88190000  0.42060000  0.25810000  1.0 0.1317312157
H  H37  1  0.47150000  0.82670000  0.24350000  1.0 0.1317312157
H  H38  1  0.24350000  0.47150000  0.82670000  1.0 0.1317312157
H  H39  1  0.82670000  0.24350000  0.47150000  1.0 0.1317312157
H  H40  1  0.47150000  0.24350000  0.82670000  1.0 0.1317312157
H  H41  1  0.24350000  0.82670000  0.47150000  1.0 0.1317312157
H  H42  1  0.82670000  0.47150000  0.24350000  1.0 0.1317312157
H  H43  1  0.53880000  0.71510000  0.37300000  1.0 0.1581610124
H  H44  1  0.37300000  0.53880000  0.71510000  1.0 0.1581610124
H  H45  1  0.71510000  0.37300000  0.53880000  1.0 0.1494486053
H  H46  1  0.53880000  0.37300000  0.71510000  1.0 0.1581610124
H  H47  1  0.37300000  0.71510000  0.53880000  1.0 0.1581610124
H  H48  1  0.71510000  0.53880000  0.37300000  1.0 0.1581610124
H  H49  1  0.70430000  0.73820000  0.37370000  1.0 0.1317312157
H  H50  1  0.37370000  0.70430000  0.73820000  1.0 0.1317312157
H  H51  1  0.73820000  0.37370000  0.70430000  1.0 0.1317312157
H  H52  1  0.70430000  0.37370000  0.73820000  1.0 0.1317312157
H  H53  1  0.37370000  0.73820000  0.70430000  1.0 0.1317312157
H  H54  1  0.73820000  0.70430000  0.37370000  1.0 0.1317312157
H  H55  1  0.69690000  0.74910000  0.54030000  1.0 0.1400875277
H  H56  1  0.54030000  0.69690000  0.74910000  1.0 0.1400875277
H  H57  1  0.74910000  0.54030000  0.69690000  1.0 0.1494486053
H  H58  1  0.69690000  0.54030000  0.74910000  1.0 0.1400875277
H  H59  1  0.54030000  0.74910000  0.69690000  1.0 0.1400875277
H  H60  1  0.74910000  0.69690000  0.54030000  1.0 0.1400875277
H  H61  1  0.74520000  0.95790000  0.22920000  1.0 0.1494486053
H  H62  1  0.22920000  0.74520000  0.95790000  1.0 0.1494486053
H  H63  1  0.95790000  0.22920000  0.74520000  1.0 0.1494486053
H  H64  1  0.74520000  0.22920000  0.95790000  1.0 0.1494486053
H  H65  1  0.22920000  0.95790000  0.74520000  1.0 0.1494486053
H  H66  1  0.95790000  0.74520000  0.22920000  1.0 0.1494486053
H  H67  1  0.71060000  0.91400000  0.27140000  1.0 0.1400875277
H  H68  1  0.27140000  0.71060000  0.91400000  1.0 0.1400875277
H  H69  1  0.91400000  0.27140000  0.71060000  1.0 0.1400875277
H  H70  1  0.71060000  0.27140000  0.91400000  1.0 0.1400875277
H  H71  1  0.27140000  0.91400000  0.71060000  1.0 0.1400875277
H  H72  1  0.91400000  0.71060000  0.27140000  1.0 0.1400875277
H  H73  1  0.71400000  0.95240000  0.29530000  1.0 0.1317312157
H  H74  1  0.29530000  0.71400000  0.95240000  1.0 0.1317312157
H  H75  1  0.95240000  0.29530000  0.71400000  1.0 0.1317312157
H  H76  1  0.71400000  0.29530000  0.95240000  1.0 0.1317312157
H  H77  1  0.29530000  0.95240000  0.71400000  1.0 0.1317312157
H  H78  1  0.95240000  0.71400000  0.29530000  1.0 0.1317312157
H  H79  1  0.84310000  0.87100000  0.20410000  1.0 0.1009024606
H  H80  1  0.20410000  0.84310000  0.87100000  1.0 0.1009024606
H  H81  1  0.87100000  0.20410000  0.84310000  1.0 0.1009024606
H  H82  1  0.84310000  0.20410000  0.87100000  1.0 0.1009024606
H  H83  1  0.20410000  0.87100000  0.84310000  1.0 0.1009024606
H  H84  1  0.87100000  0.84310000  0.20410000  1.0 0.1009024606
H  H85  1  0.85430000  0.81470000  0.25730000  1.0 0.0371943608
H  H86  1  0.25730000  0.85430000  0.81470000  1.0 0.0371943608
H  H87  1  0.81470000  0.25730000  0.85430000  1.0 0.0371943608
H  H88  1  0.85430000  0.25730000  0.81470000  1.0 0.0371943608
H  H89  1  0.25730000  0.81470000  0.85430000  1.0 0.0371943608
H  H90  1  0.81470000  0.85430000  0.25730000  1.0 0.0371943608
H  H91  1  0.79970000  0.83560000  0.24000000  1.0 0.0698969631
H  H92  1  0.24000000  0.79970000  0.83560000  1.0 0.0698969631
H  H93  1  0.83560000  0.24000000  0.79970000  1.0 0.0698969631
H  H94  1  0.79970000  0.24000000  0.83560000  1.0 0.0698969631
H  H95  1  0.24000000  0.83560000  0.79970000  1.0 0.0698969631
H  H96  1  0.83560000  0.79970000  0.24000000  1.0 0.0698969631
H  H97  1  0.84900000  0.83150000  0.42730000  1.0 0.0168066736
H  H98  1  0.42730000  0.84900000  0.83150000  1.0 0.0168066736
H  H99  1  0.83150000  0.42730000  0.84900000  1.0 0.0096553209
H  H100  1  0.84900000  0.42730000  0.83150000  1.0 0.0168066736
H  H101  1  0.42730000  0.83150000  0.84900000  1.0 0.0168066736
H  H102  1  0.83150000  0.84900000  0.42730000  1.0 0.0168066736
H  H103  1  0.82850000  0.89390000  0.42950000  1.0 0.1009024606
H  H104  1  0.42950000  0.82850000  0.89390000  1.0 0.1009024606
H  H105  1  0.89390000  0.42950000  0.82850000  1.0 0.1009024606
H  H106  1  0.82850000  0.42950000  0.89390000  1.0 0.1009024606
H  H107  1  0.42950000  0.89390000  0.82850000  1.0 0.1009024606
H  H108  1  0.89390000  0.82850000  0.42950000  1.0 0.1009024606
H  H109  1  0.78880000  0.85460000  0.47160000  1.0 0.1009024606
H  H110  1  0.47160000  0.78880000  0.85460000  1.0 0.1009024606
H  H111  1  0.85460000  0.47160000  0.78880000  1.0 0.1009024606
H  H112  1  0.78880000  0.47160000  0.85460000  1.0 0.1009024606
H  H113  1  0.47160000  0.85460000  0.78880000  1.0 0.1009024606
H  H114  1  0.85460000  0.78880000  0.47160000  1.0 0.1009024606
H  H115  1  0.92000000  0.98900000  0.13730000  1.0 0.1400875277
H  H116  1  0.13730000  0.92000000  0.98900000  1.0 0.1400875277
H  H117  1  0.98900000  0.13730000  0.92000000  1.0 0.1400875277
H  H118  1  0.92000000  0.13730000  0.98900000  1.0 0.1400875277
H  H119  1  0.13730000  0.98900000  0.92000000  1.0 0.1400875277
H  H120  1  0.98900000  0.92000000  0.13730000  1.0 0.1400875277
H  H121  1  0.93610000  0.97730000  0.30150000  1.0 0.1317312157
H  H122  1  0.30150000  0.93610000  0.97730000  1.0 0.1317312157
H  H123  1  0.97730000  0.30150000  0.93610000  1.0 0.1317312157
H  H124  1  0.93610000  0.30150000  0.97730000  1.0 0.1317312157
H  H125  1  0.30150000  0.97730000  0.93610000  1.0 0.1317312157
H  H126  1  0.97730000  0.93610000  0.30150000  1.0 0.1317312157
H  H127  1  0.72400000  0.96710000  0.37200000  1.0 0.1494486053
H  H128  1  0.37200000  0.72400000  0.96710000  1.0 0.1494486053
H  H129  1  0.96710000  0.37200000  0.72400000  1.0 0.1494486053
H  H130  1  0.72400000  0.37200000  0.96710000  1.0 0.1494486053
H  H131  1  0.37200000  0.96710000  0.72400000  1.0 0.1494486053
H  H132  1  0.96710000  0.72400000  0.37200000  1.0 0.1494486053
H  H133  1  0.70580000  0.92910000  0.43780000  1.0 0.1494486053
H  H134  1  0.43780000  0.70580000  0.92910000  1.0 0.1494486053
H  H135  1  0.92910000  0.43780000  0.70580000  1.0 0.1494486053
H  H136  1  0.70580000  0.43780000  0.92910000  1.0 0.1494486053
H  H137  1  0.43780000  0.92910000  0.70580000  1.0 0.1494486053
H  H138  1  0.92910000  0.70580000  0.43780000  1.0 0.1494486053
H  H139  1  0.74870000  0.96250000  0.41460000  1.0 0.1494486053
H  H140  1  0.41460000  0.74870000  0.96250000  1.0 0.1494486053
H  H141  1  0.96250000  0.41460000  0.74870000  1.0 0.1494486053
H  H142  1  0.74870000  0.41460000  0.96250000  1.0 0.1494486053
H  H143  1  0.41460000  0.96250000  0.74870000  1.0 0.1400875277
H  H144  1  0.96250000  0.74870000  0.41460000  1.0 0.1494486053
H  H145  1  0.69630000  0.86410000  0.05000000  1.0 0.1581610124
H  H146  1  0.86410000  0.05000000  0.69630000  1.0 0.1581610124
H  H147  1  0.05000000  0.69630000  0.86410000  1.0 0.1581610124
H  H148  1  0.69630000  0.05000000  0.86410000  1.0 0.1581610124
H  H149  1  0.86410000  0.69630000  0.05000000  1.0 0.1581610124
H  H150  1  0.05000000  0.86410000  0.69630000  1.0 0.1581610124
H  H151  1  0.59070000  0.77360000  0.22210000  1.0 0.1400875277
H  H152  1  0.77360000  0.22210000  0.59070000  1.0 0.1400875277
H  H153  1  0.22210000  0.59070000  0.77360000  1.0 0.1400875277
H  H154  1  0.59070000  0.22210000  0.77360000  1.0 0.1400875277
H  H155  1  0.77360000  0.59070000  0.22210000  1.0 0.1400875277
H  H156  1  0.22210000  0.77360000  0.59070000  1.0 0.1400875277
H  H157  1  0.55020000  0.73500000  0.26040000  1.0 0.1400875277
H  H158  1  0.73500000  0.26040000  0.55020000  1.0 0.1400875277
H  H159  1  0.26040000  0.55020000  0.73500000  1.0 0.1400875277
H  H160  1  0.55020000  0.26040000  0.73500000  1.0 0.1400875277
H  H161  1  0.73500000  0.55020000  0.26040000  1.0 0.1400875277
H  H162  1  0.26040000  0.73500000  0.55020000  1.0 0.1400875277
H  H163  1  0.61510000  0.70830000  0.25820000  1.0 0.1400875277
H  H164  1  0.70830000  0.25820000  0.61510000  1.0 0.1400875277
H  H165  1  0.25820000  0.61510000  0.70830000  1.0 0.1400875277
H  H166  1  0.61510000  0.25820000  0.70830000  1.0 0.1400875277
H  H167  1  0.70830000  0.61510000  0.25820000  1.0 0.1400875277
H  H168  1  0.25820000  0.70830000  0.61510000  1.0 0.1400875277
H  H169  1  0.56910000  0.79470000  0.13230000  1.0 0.1317312157
H  H170  1  0.79470000  0.13230000  0.56910000  1.0 0.1317312157
H  H171  1  0.13230000  0.56910000  0.79470000  1.0 0.1317312157
H  H172  1  0.56910000  0.13230000  0.79470000  1.0 0.1317312157
H  H173  1  0.79470000  0.56910000  0.13230000  1.0 0.1317312157
H  H174  1  0.13230000  0.79470000  0.56910000  1.0 0.1317312157
H  H175  1  0.57940000  0.74190000  0.11810000  1.0 0.1317312157
H  H176  1  0.74190000  0.11810000  0.57940000  1.0 0.1317312157
H  H177  1  0.11810000  0.57940000  0.74190000  1.0 0.1317312157
H  H178  1  0.57940000  0.11810000  0.74190000  1.0 0.1317312157
H  H179  1  0.74190000  0.57940000  0.11810000  1.0 0.1317312157
H  H180  1  0.11810000  0.74190000  0.57940000  1.0 0.1317312157
H  H181  1  0.52850000  0.75650000  0.17330000  1.0 0.1317312157
H  H182  1  0.75650000  0.17330000  0.52850000  1.0 0.1317312157
H  H183  1  0.17330000  0.52850000  0.75650000  1.0 0.1317312157
H  H184  1  0.52850000  0.17330000  0.75650000  1.0 0.1317312157
H  H185  1  0.75650000  0.52850000  0.17330000  1.0 0.1317312157
H  H186  1  0.17330000  0.75650000  0.52850000  1.0 0.1317312157
H  H187  1  0.46120000  0.62700000  0.28490000  1.0 0.1581610124
H  H188  1  0.62700000  0.28490000  0.46120000  1.0 0.1581610124
H  H189  1  0.28490000  0.46120000  0.62700000  1.0 0.1494486053
H  H190  1  0.46120000  0.28490000  0.62700000  1.0 0.1581610124
H  H191  1  0.62700000  0.46120000  0.28490000  1.0 0.1581610124
H  H192  1  0.28490000  0.62700000  0.46120000  1.0 0.1581610124
H  H193  1  0.29570000  0.62630000  0.26180000  1.0 0.1317312157
H  H194  1  0.62630000  0.26180000  0.29570000  1.0 0.1317312157
H  H195  1  0.26180000  0.29570000  0.62630000  1.0 0.1317312157
H  H196  1  0.29570000  0.26180000  0.62630000  1.0 0.1317312157
H  H197  1  0.62630000  0.29570000  0.26180000  1.0 0.1317312157
H  H198  1  0.26180000  0.62630000  0.29570000  1.0 0.1317312157
H  H199  1  0.30310000  0.45970000  0.25090000  1.0 0.1494486053
H  H200  1  0.45970000  0.25090000  0.30310000  1.0 0.1400875277
H  H201  1  0.25090000  0.30310000  0.45970000  1.0 0.1400875277
H  H202  1  0.30310000  0.25090000  0.45970000  1.0 0.1494486053
H  H203  1  0.45970000  0.30310000  0.25090000  1.0 0.1400875277
H  H204  1  0.25090000  0.45970000  0.30310000  1.0 0.1400875277
H  H205  1  0.25480000  0.77080000  0.04210000  1.0 0.1494486053
H  H206  1  0.77080000  0.04210000  0.25480000  1.0 0.1494486053
H  H207  1  0.04210000  0.25480000  0.77080000  1.0 0.1494486053
H  H208  1  0.25480000  0.04210000  0.77080000  1.0 0.1494486053
H  H209  1  0.77080000  0.25480000  0.04210000  1.0 0.1494486053
H  H210  1  0.04210000  0.77080000  0.25480000  1.0 0.1494486053
H  H211  1  0.28940000  0.72860000  0.08600000  1.0 0.1400875277
H  H212  1  0.72860000  0.08600000  0.28940000  1.0 0.1400875277
H  H213  1  0.08600000  0.28940000  0.72860000  1.0 0.1400875277
H  H214  1  0.28940000  0.08600000  0.72860000  1.0 0.1400875277
H  H215  1  0.72860000  0.28940000  0.08600000  1.0 0.1400875277
H  H216  1  0.08600000  0.72860000  0.28940000  1.0 0.1400875277
H  H217  1  0.28600000  0.70470000  0.04760000  1.0 0.1317312157
H  H218  1  0.70470000  0.04760000  0.28600000  1.0 0.1317312157
H  H219  1  0.04760000  0.28600000  0.70470000  1.0 0.1317312157
H  H220  1  0.28600000  0.04760000  0.70470000  1.0 0.1317312157
H  H221  1  0.70470000  0.28600000  0.04760000  1.0 0.1317312157
H  H222  1  0.04760000  0.70470000  0.28600000  1.0 0.1317312157
H  H223  1  0.15690000  0.79590000  0.12900000  1.0 0.1009024606
H  H224  1  0.79590000  0.12900000  0.15690000  1.0 0.1009024606
H  H225  1  0.12900000  0.15690000  0.79590000  1.0 0.1009024606
H  H226  1  0.15690000  0.12900000  0.79590000  1.0 0.1009024606
H  H227  1  0.79590000  0.15690000  0.12900000  1.0 0.1009024606
H  H228  1  0.12900000  0.79590000  0.15690000  1.0 0.1009024606
H  H229  1  0.14570000  0.74270000  0.18530000  1.0 0.0371943608
H  H230  1  0.74270000  0.18530000  0.14570000  1.0 0.0371943608
H  H231  1  0.18530000  0.14570000  0.74270000  1.0 0.0371943608
H  H232  1  0.14570000  0.18530000  0.74270000  1.0 0.0371943608
H  H233  1  0.74270000  0.14570000  0.18530000  1.0 0.0371943608
H  H234  1  0.18530000  0.74270000  0.14570000  1.0 0.0371943608
H  H235  1  0.20030000  0.76000000  0.16440000  1.0 0.0698969631
H  H236  1  0.76000000  0.16440000  0.20030000  1.0 0.0698969631
H  H237  1  0.16440000  0.20030000  0.76000000  1.0 0.0698969631
H  H238  1  0.20030000  0.16440000  0.76000000  1.0 0.0698969631
H  H239  1  0.76000000  0.20030000  0.16440000  1.0 0.0698969631
H  H240  1  0.16440000  0.76000000  0.20030000  1.0 0.0698969631
H  H241  1  0.15100000  0.57270000  0.16850000  1.0 0.0168066736
H  H242  1  0.57270000  0.16850000  0.15100000  1.0 0.0168066736
H  H243  1  0.16850000  0.15100000  0.57270000  1.0 0.0168066736
H  H244  1  0.15100000  0.16850000  0.57270000  1.0 0.0168066736
H  H245  1  0.57270000  0.15100000  0.16850000  1.0 0.0168066736
H  H246  1  0.16850000  0.57270000  0.15100000  1.0 0.0168066736
H  H247  1  0.17150000  0.57050000  0.10610000  1.0 0.1009024606
H  H248  1  0.57050000  0.10610000  0.17150000  1.0 0.1009024606
H  H249  1  0.10610000  0.17150000  0.57050000  1.0 0.1009024606
H  H250  1  0.17150000  0.10610000  0.57050000  1.0 0.1009024606
H  H251  1  0.57050000  0.17150000  0.10610000  1.0 0.1009024606
H  H252  1  0.10610000  0.57050000  0.17150000  1.0 0.1009024606
H  H253  1  0.21120000  0.52840000  0.14540000  1.0 0.1009024606
H  H254  1  0.52840000  0.14540000  0.21120000  1.0 0.1009024606
H  H255  1  0.14540000  0.21120000  0.52840000  1.0 0.1009024606
H  H256  1  0.21120000  0.14540000  0.52840000  1.0 0.1009024606
H  H257  1  0.52840000  0.21120000  0.14540000  1.0 0.1009024606
H  H258  1  0.14540000  0.52840000  0.21120000  1.0 0.1009024606
H  H259  1  0.08000000  0.86270000  0.01100000  1.0 0.1400875277
H  H260  1  0.86270000  0.01100000  0.08000000  1.0 0.1400875277
H  H261  1  0.01100000  0.08000000  0.86270000  1.0 0.1400875277
H  H262  1  0.08000000  0.01100000  0.86270000  1.0 0.1400875277
H  H263  1  0.86270000  0.08000000  0.01100000  1.0 0.1400875277
H  H264  1  0.01100000  0.86270000  0.08000000  1.0 0.1400875277
H  H265  1  0.06390000  0.69850000  0.02270000  1.0 0.1317312157
H  H266  1  0.69850000  0.02270000  0.06390000  1.0 0.1317312157
H  H267  1  0.02270000  0.06390000  0.69850000  1.0 0.1317312157
H  H268  1  0.06390000  0.02270000  0.69850000  1.0 0.1317312157
H  H269  1  0.69850000  0.06390000  0.02270000  1.0 0.1317312157
H  H270  1  0.02270000  0.69850000  0.06390000  1.0 0.1317312157
H  H271  1  0.27600000  0.62800000  0.03290000  1.0 0.1494486053
H  H272  1  0.62800000  0.03290000  0.27600000  1.0 0.1494486053
H  H273  1  0.03290000  0.27600000  0.62800000  1.0 0.1494486053
H  H274  1  0.27600000  0.03290000  0.62800000  1.0 0.1494486053
H  H275  1  0.62800000  0.27600000  0.03290000  1.0 0.1494486053
H  H276  1  0.03290000  0.62800000  0.27600000  1.0 0.1494486053
H  H277  1  0.29420000  0.56220000  0.07090000  1.0 0.1494486053
H  H278  1  0.56220000  0.07090000  0.29420000  1.0 0.1494486053
H  H279  1  0.07090000  0.29420000  0.56220000  1.0 0.1494486053
H  H280  1  0.29420000  0.07090000  0.56220000  1.0 0.1494486053
H  H281  1  0.56220000  0.29420000  0.07090000  1.0 0.1494486053
H  H282  1  0.07090000  0.56220000  0.29420000  1.0 0.1494486053
H  H283  1  0.25130000  0.58540000  0.03750000  1.0 0.1494486053
H  H284  1  0.58540000  0.03750000  0.25130000  1.0 0.1494486053
H  H285  1  0.03750000  0.25130000  0.58540000  1.0 0.1494486053
H  H286  1  0.25130000  0.03750000  0.58540000  1.0 0.1494486053
H  H287  1  0.58540000  0.25130000  0.03750000  1.0 0.1494486053
H  H288  1  0.03750000  0.58540000  0.25130000  1.0 0.1400875277
C  C1  1  0.21579000  0.98139000  0.16689000  1.0 0.1400875277
C  C2  1  0.16689000  0.21579000  0.98139000  1.0 0.1400875277
C  C3  1  0.98139000  0.16689000  0.21579000  1.0 0.1400875277
C  C4  1  0.21579000  0.16689000  0.98139000  1.0 0.1400875277
C  C5  1  0.16689000  0.98139000  0.21579000  1.0 0.1400875277
C  C6  1  0.98139000  0.21579000  0.16689000  1.0 0.1400875277
C  C7  1  0.27103000  0.94993000  0.16933000  1.0 -0.2275828585
C  C8  1  0.16933000  0.27103000  0.94993000  1.0 -0.2275828585
C  C9  1  0.94993000  0.16933000  0.27103000  1.0 -0.2275828585
C  C10  1  0.27103000  0.16933000  0.94993000  1.0 -0.2275828585
C  C11  1  0.16933000  0.94993000  0.27103000  1.0 -0.2275828585
C  C12  1  0.94993000  0.27103000  0.16933000  1.0 -0.2275828585
C  C13  1  0.27538000  0.91758000  0.22508000  1.0 0.1494486053
C  C14  1  0.22508000  0.27538000  0.91758000  1.0 0.1494486053
C  C15  1  0.91758000  0.22508000  0.27538000  1.0 0.1494486053
C  C16  1  0.27538000  0.22508000  0.91758000  1.0 0.1494486053
C  C17  1  0.22508000  0.91758000  0.27538000  1.0 0.1494486053
C  C18  1  0.91758000  0.27538000  0.22508000  1.0 0.1494486053
C  C19  1  0.33085000  0.85295000  0.28185000  1.0 0.1009024606
C  C20  1  0.28185000  0.33085000  0.85295000  1.0 0.1009024606
C  C21  1  0.85295000  0.28185000  0.33085000  1.0 0.1009024606
C  C22  1  0.33085000  0.28185000  0.85295000  1.0 0.1009024606
C  C23  1  0.28185000  0.85295000  0.33085000  1.0 0.1009024606
C  C24  1  0.85295000  0.33085000  0.28185000  1.0 0.1009024606
C  C25  1  0.39267000  0.81587000  0.28297000  1.0 0.1400875277
C  C26  1  0.28297000  0.39267000  0.81587000  1.0 0.1400875277
C  C27  1  0.81587000  0.28297000  0.39267000  1.0 0.1400875277
C  C28  1  0.39267000  0.28297000  0.81587000  1.0 0.1400875277
C  C29  1  0.28297000  0.81587000  0.39267000  1.0 0.1400875277
C  C30  1  0.81587000  0.39267000  0.28297000  1.0 0.1400875277
C  C31  1  0.41091000  0.76391000  0.26491000  1.0 -0.45577214
C  C32  1  0.26491000  0.41091000  0.76391000  1.0 -0.45577214
C  C33  1  0.76391000  0.26491000  0.41091000  1.0 -0.45577214
C  C34  1  0.41091000  0.26491000  0.76391000  1.0 -0.45577214
C  C35  1  0.26491000  0.76391000  0.41091000  1.0 -0.45577214
C  C36  1  0.76391000  0.41091000  0.26491000  1.0 -0.45577214
C  C37  1  0.43241000  0.85121000  0.24401000  1.0 -0.4454481784
C  C38  1  0.24401000  0.43241000  0.85121000  1.0 -0.4416707638
C  C39  1  0.85121000  0.24401000  0.43241000  1.0 -0.4416707638
C  C40  1  0.43241000  0.24401000  0.85121000  1.0 -0.4454481784
C  C41  1  0.24401000  0.85121000  0.43241000  1.0 -0.4454481784
C  C42  1  0.85121000  0.43241000  0.24401000  1.0 -0.4454481784
C  C43  1  0.39469000  0.79099000  0.34279000  1.0 0.1226585713
C  C44  1  0.34279000  0.39469000  0.79099000  1.0 0.1226585713
C  C45  1  0.79099000  0.34279000  0.39469000  1.0 0.1226585713
C  C46  1  0.39469000  0.34279000  0.79099000  1.0 0.1226585713
C  C47  1  0.34279000  0.79099000  0.39469000  1.0 0.1226585713
C  C48  1  0.79099000  0.39469000  0.34279000  1.0 0.1226585713
C  C49  1  0.45163000  0.74353000  0.39943000  1.0 0.1581610124
C  C50  1  0.39943000  0.45163000  0.74353000  1.0 0.1581610124
C  C51  1  0.74353000  0.39943000  0.45163000  1.0 0.1581610124
C  C52  1  0.45163000  0.39943000  0.74353000  1.0 0.1581610124
C  C53  1  0.39943000  0.74353000  0.45163000  1.0 0.1581610124
C  C54  1  0.74353000  0.45163000  0.39943000  1.0 0.1581610124
C  C55  1  0.50514000  0.71584000  0.40544000  1.0 -0.2275828585
C  C56  1  0.40544000  0.50514000  0.71584000  1.0 -0.2275828585
C  C57  1  0.71584000  0.40544000  0.50514000  1.0 -0.2275828585
C  C58  1  0.50514000  0.40544000  0.71584000  1.0 -0.2275828585
C  C59  1  0.40544000  0.71584000  0.50514000  1.0 -0.2275828585
C  C60  1  0.71584000  0.50514000  0.40544000  1.0 -0.2275828585
C  C61  1  0.50835000  0.68965000  0.45935000  1.0 0.1400875277
C  C62  1  0.45935000  0.50835000  0.68965000  1.0 0.1400875277
C  C63  1  0.68965000  0.45935000  0.50835000  1.0 0.1400875277
C  C64  1  0.50835000  0.45935000  0.68965000  1.0 0.1400875277
C  C65  1  0.45935000  0.68965000  0.50835000  1.0 0.1400875277
C  C66  1  0.68965000  0.50835000  0.45935000  1.0 0.1400875277
C  C67  1  0.69330000  0.69330000  0.51030000  1.0 0.0893367071
C  C68  1  0.51030000  0.69330000  0.69330000  1.0 0.0893367071
C  C69  1  0.69330000  0.51030000  0.69330000  1.0 0.0893367071
C  C70  1  0.69325000  0.69325000  0.46030000  1.0 0.0698969631
C  C71  1  0.46030000  0.69325000  0.69325000  1.0 0.0698969631
C  C72  1  0.69325000  0.46030000  0.69325000  1.0 0.0698969631
C  C73  1  0.70730000  0.73650000  0.40630000  1.0 -0.0658239573
C  C74  1  0.40630000  0.70730000  0.73650000  1.0 -0.0658239573
C  C75  1  0.73650000  0.40630000  0.70730000  1.0 -0.0658239573
C  C76  1  0.70730000  0.40630000  0.73650000  1.0 -0.0658239573
C  C77  1  0.40630000  0.73650000  0.70730000  1.0 -0.0658239573
C  C78  1  0.73650000  0.70730000  0.40630000  1.0 -0.0658239573
C  C79  1  0.72480000  0.77460000  0.40320000  1.0 0.0698969631
C  C80  1  0.40320000  0.72480000  0.77460000  1.0 0.0698969631
C  C81  1  0.77460000  0.40320000  0.72480000  1.0 0.0698969631
C  C82  1  0.72480000  0.40320000  0.77460000  1.0 0.0698969631
C  C83  1  0.40320000  0.77460000  0.72480000  1.0 0.0698969631
C  C84  1  0.77460000  0.72480000  0.40320000  1.0 0.0698969631
C  C85  1  0.72470000  0.77710000  0.45390000  1.0 0.0698969631
C  C86  1  0.45390000  0.72470000  0.77710000  1.0 0.0698969631
C  C87  1  0.77710000  0.45390000  0.72470000  1.0 0.0698969631
C  C88  1  0.72470000  0.45390000  0.77710000  1.0 0.0698969631
C  C89  1  0.45390000  0.77710000  0.72470000  1.0 0.0698969631
C  C90  1  0.77710000  0.72470000  0.45390000  1.0 0.0698969631
C  C91  1  0.70410000  0.74300000  0.50710000  1.0 -0.0785958949
C  C92  1  0.50710000  0.70410000  0.74300000  1.0 -0.0785958949
C  C93  1  0.74300000  0.50710000  0.70410000  1.0 -0.0785958949
C  C94  1  0.70410000  0.50710000  0.74300000  1.0 -0.0785958949
C  C95  1  0.50710000  0.74300000  0.70410000  1.0 -0.0785958949
C  C96  1  0.74300000  0.70410000  0.50710000  1.0 -0.0785958949
C  C97  1  0.79030000  0.88370000  0.28140000  1.0 0.0893367071
C  C98  1  0.28140000  0.79030000  0.88370000  1.0 0.081111545
C  C99  1  0.88370000  0.28140000  0.79030000  1.0 0.0893367071
C  C100  1  0.79030000  0.28140000  0.88370000  1.0 0.0893367071
C  C101  1  0.28140000  0.88370000  0.79030000  1.0 0.081111545
C  C102  1  0.88370000  0.79030000  0.28140000  1.0 0.0893367071
C  C103  1  0.73470000  0.93160000  0.26810000  1.0 -0.4295213255
C  C104  1  0.26810000  0.73470000  0.93160000  1.0 -0.4295213255
C  C105  1  0.93160000  0.26810000  0.73470000  1.0 -0.4295213255
C  C106  1  0.73470000  0.26810000  0.93160000  1.0 -0.4295213255
C  C107  1  0.26810000  0.93160000  0.73470000  1.0 -0.4295213255
C  C108  1  0.93160000  0.73470000  0.26810000  1.0 -0.4295213255
C  C109  1  0.82490000  0.84810000  0.24220000  1.0 -0.1510667443
C  C110  1  0.24220000  0.82490000  0.84810000  1.0 -0.1510667443
C  C111  1  0.84810000  0.24220000  0.82490000  1.0 -0.1510667443
C  C112  1  0.82490000  0.24220000  0.84810000  1.0 -0.1510667443
C  C113  1  0.24220000  0.84810000  0.82490000  1.0 -0.1510667443
C  C114  1  0.84810000  0.82490000  0.24220000  1.0 -0.1510667443
C  C115  1  0.76320000  0.85360000  0.38900000  1.0 0.0021702127
C  C116  1  0.38900000  0.76320000  0.85360000  1.0 0.0021702127
C  C117  1  0.85360000  0.38900000  0.76320000  1.0 0.0021702127
C  C118  1  0.76320000  0.38900000  0.85360000  1.0 0.0021702127
C  C119  1  0.38900000  0.85360000  0.76320000  1.0 0.0021702127
C  C120  1  0.85360000  0.76320000  0.38900000  1.0 0.0096553209
C  C121  1  0.81600000  0.86530000  0.43340000  1.0 -0.1590846636
C  C122  1  0.43340000  0.81600000  0.86530000  1.0 -0.1590846636
C  C123  1  0.86530000  0.43340000  0.81600000  1.0 -0.1590846636
C  C124  1  0.81600000  0.43340000  0.86530000  1.0 -0.1590846636
C  C125  1  0.43340000  0.86530000  0.81600000  1.0 -0.1590846636
C  C126  1  0.86530000  0.81600000  0.43340000  1.0 -0.1590846636
C  C127  1  0.78870000  0.88890000  0.39120000  1.0 0.1226585713
C  C128  1  0.39120000  0.78870000  0.88890000  1.0 0.1226585713
C  C129  1  0.88890000  0.39120000  0.78870000  1.0 0.1226585713
C  C130  1  0.78870000  0.39120000  0.88890000  1.0 0.1226585713
C  C131  1  0.39120000  0.88890000  0.78870000  1.0 0.1226585713
C  C132  1  0.88890000  0.78870000  0.39120000  1.0 0.1226585713
C  C133  1  0.96530000  0.00190000  0.21440000  1.0 0.063891795
C  C134  1  0.21440000  0.96530000  0.00190000  1.0 0.063891795
C  C135  1  0.00190000  0.21440000  0.96530000  1.0 0.063891795
C  C136  1  0.96530000  0.21440000  0.00190000  1.0 0.063891795
C  C137  1  0.21440000  0.00190000  0.96530000  1.0 0.063891795
C  C138  1  0.00190000  0.96530000  0.21440000  1.0 0.063891795
C  C139  1  0.96060000  0.00670000  0.16600000  1.0 0.0096553209
C  C140  1  0.16600000  0.96060000  0.00670000  1.0 0.0096553209
C  C141  1  0.00670000  0.16600000  0.96060000  1.0 0.0096553209
C  C142  1  0.96060000  0.16600000  0.00670000  1.0 0.0096553209
C  C143  1  0.16600000  0.00670000  0.96060000  1.0 0.0096553209
C  C144  1  0.00670000  0.96060000  0.16600000  1.0 0.0096553209
C  C145  1  0.92320000  0.98600000  0.17040000  1.0 -0.1357375218
C  C146  1  0.17040000  0.92320000  0.98600000  1.0 -0.1357375218
C  C147  1  0.98600000  0.17040000  0.92320000  1.0 -0.1357375218
C  C148  1  0.92320000  0.17040000  0.98600000  1.0 -0.1357375218
C  C149  1  0.17040000  0.98600000  0.92320000  1.0 -0.1357375218
C  C150  1  0.98600000  0.92320000  0.17040000  1.0 -0.1357375218
C  C151  1  0.89120000  0.96170000  0.22280000  1.0 0.0893367071
C  C152  1  0.22280000  0.89120000  0.96170000  1.0 0.0893367071
C  C153  1  0.96170000  0.22280000  0.89120000  1.0 0.0893367071
C  C154  1  0.89120000  0.22280000  0.96170000  1.0 0.0893367071
C  C155  1  0.22280000  0.96170000  0.89120000  1.0 0.0893367071
C  C156  1  0.96170000  0.89120000  0.22280000  1.0 0.0893367071
C  C157  1  0.89500000  0.95770000  0.27490000  1.0 0.1009024606
C  C158  1  0.27490000  0.89500000  0.95770000  1.0 0.1009024606
C  C159  1  0.95770000  0.27490000  0.89500000  1.0 0.1009024606
C  C160  1  0.89500000  0.27490000  0.95770000  1.0 0.1009024606
C  C161  1  0.27490000  0.95770000  0.89500000  1.0 0.1009024606
C  C162  1  0.95770000  0.89500000  0.27490000  1.0 0.1009024606
C  C163  1  0.82150000  0.91750000  0.32650000  1.0 0.0096553209
C  C164  1  0.32650000  0.82150000  0.91750000  1.0 0.0096553209
C  C165  1  0.91750000  0.32650000  0.82150000  1.0 0.0096553209
C  C166  1  0.82150000  0.32650000  0.91750000  1.0 0.0096553209
C  C167  1  0.32650000  0.91750000  0.82150000  1.0 0.0096553209
C  C168  1  0.91750000  0.82150000  0.32650000  1.0 0.0096553209
C  C169  1  0.82670000  0.91240000  0.28050000  1.0 0.081111545
C  C170  1  0.28050000  0.82670000  0.91240000  1.0 0.081111545
C  C171  1  0.91240000  0.28050000  0.82670000  1.0 0.081111545
C  C172  1  0.82670000  0.28050000  0.91240000  1.0 0.081111545
C  C173  1  0.28050000  0.91240000  0.82670000  1.0 0.081111545
C  C174  1  0.91240000  0.82670000  0.28050000  1.0 0.081111545
C  C175  1  0.93280000  0.97870000  0.26920000  1.0 -0.1100271551
C  C176  1  0.26920000  0.93280000  0.97870000  1.0 -0.1100271551
C  C177  1  0.97870000  0.26920000  0.93280000  1.0 -0.1100271551
C  C178  1  0.93280000  0.26920000  0.97870000  1.0 -0.1100271551
C  C179  1  0.26920000  0.97870000  0.93280000  1.0 -0.1100271551
C  C180  1  0.97870000  0.93280000  0.26920000  1.0 -0.1100271551
C  C181  1  0.76580000  0.84520000  0.34260000  1.0 0.0371943608
C  C182  1  0.34260000  0.76580000  0.84520000  1.0 0.0371943608
C  C183  1  0.84520000  0.34260000  0.76580000  1.0 0.0371943608
C  C184  1  0.76580000  0.34260000  0.84520000  1.0 0.0371943608
C  C185  1  0.34260000  0.84520000  0.76580000  1.0 0.0371943608
C  C186  1  0.84520000  0.76580000  0.34260000  1.0 0.0371943608
C  C187  1  0.73690000  0.94190000  0.40530000  1.0 -0.4416707638
C  C188  1  0.40530000  0.73690000  0.94190000  1.0 -0.4416707638
C  C189  1  0.94190000  0.40530000  0.73690000  1.0 -0.4416707638
C  C190  1  0.73690000  0.40530000  0.94190000  1.0 -0.4416707638
C  C191  1  0.40530000  0.94190000  0.73690000  1.0 -0.4416707638
C  C192  1  0.94190000  0.73690000  0.40530000  1.0 -0.4416707638
C  C193  1  0.78421000  0.83311000  0.01861000  1.0 0.1400875277
C  C194  1  0.83311000  0.01861000  0.78421000  1.0 0.1400875277
C  C195  1  0.01861000  0.78421000  0.83311000  1.0 0.1400875277
C  C196  1  0.78421000  0.01861000  0.83311000  1.0 0.1400875277
C  C197  1  0.83311000  0.78421000  0.01861000  1.0 0.1400875277
C  C198  1  0.01861000  0.83311000  0.78421000  1.0 0.1400875277
C  C199  1  0.72897000  0.83067000  0.05007000  1.0 -0.2275828585
C  C200  1  0.83067000  0.05007000  0.72897000  1.0 -0.2275828585
C  C201  1  0.05007000  0.72897000  0.83067000  1.0 -0.2275828585
C  C202  1  0.72897000  0.05007000  0.83067000  1.0 -0.2275828585
C  C203  1  0.83067000  0.72897000  0.05007000  1.0 -0.2275828585
C  C204  1  0.05007000  0.83067000  0.72897000  1.0 -0.2275828585
C  C205  1  0.72462000  0.77492000  0.08242000  1.0 0.1494486053
C  C206  1  0.77492000  0.08242000  0.72462000  1.0 0.1494486053
C  C207  1  0.08242000  0.72462000  0.77492000  1.0 0.1494486053
C  C208  1  0.72462000  0.08242000  0.77492000  1.0 0.1494486053
C  C209  1  0.77492000  0.72462000  0.08242000  1.0 0.1494486053
C  C210  1  0.08242000  0.77492000  0.72462000  1.0 0.1494486053
C  C211  1  0.66915000  0.71815000  0.14705000  1.0 0.1009024606
C  C212  1  0.71815000  0.14705000  0.66915000  1.0 0.1009024606
C  C213  1  0.14705000  0.66915000  0.71815000  1.0 0.1009024606
C  C214  1  0.66915000  0.14705000  0.71815000  1.0 0.1009024606
C  C215  1  0.71815000  0.66915000  0.14705000  1.0 0.1009024606
C  C216  1  0.14705000  0.71815000  0.66915000  1.0 0.1009024606
C  C217  1  0.60733000  0.71703000  0.18413000  1.0 0.1400875277
C  C218  1  0.71703000  0.18413000  0.60733000  1.0 0.1400875277
C  C219  1  0.18413000  0.60733000  0.71703000  1.0 0.1400875277
C  C220  1  0.60733000  0.18413000  0.71703000  1.0 0.1400875277
C  C221  1  0.71703000  0.60733000  0.18413000  1.0 0.1400875277
C  C222  1  0.18413000  0.71703000  0.60733000  1.0 0.1400875277
C  C223  1  0.58909000  0.73509000  0.23609000  1.0 -0.45577214
C  C224  1  0.73509000  0.23609000  0.58909000  1.0 -0.45577214
C  C225  1  0.23609000  0.58909000  0.73509000  1.0 -0.45577214
C  C226  1  0.58909000  0.23609000  0.73509000  1.0 -0.45577214
C  C227  1  0.73509000  0.58909000  0.23609000  1.0 -0.45577214
C  C228  1  0.23609000  0.73509000  0.58909000  1.0 -0.45577214
C  C229  1  0.56759000  0.75599000  0.14879000  1.0 -0.4454481784
C  C230  1  0.75599000  0.14879000  0.56759000  1.0 -0.4416707638
C  C231  1  0.14879000  0.56759000  0.75599000  1.0 -0.4454481784
C  C232  1  0.56759000  0.14879000  0.75599000  1.0 -0.4416707638
C  C233  1  0.75599000  0.56759000  0.14879000  1.0 -0.4454481784
C  C234  1  0.14879000  0.75599000  0.56759000  1.0 -0.4454481784
C  C235  1  0.60531000  0.65721000  0.20901000  1.0 0.1226585713
C  C236  1  0.65721000  0.20901000  0.60531000  1.0 0.1226585713
C  C237  1  0.20901000  0.60531000  0.65721000  1.0 0.1226585713
C  C238  1  0.60531000  0.20901000  0.65721000  1.0 0.1226585713
C  C239  1  0.65721000  0.60531000  0.20901000  1.0 0.1226585713
C  C240  1  0.20901000  0.65721000  0.60531000  1.0 0.1226585713
C  C241  1  0.54837000  0.60057000  0.25647000  1.0 0.1581610124
C  C242  1  0.60057000  0.25647000  0.54837000  1.0 0.1581610124
C  C243  1  0.25647000  0.54837000  0.60057000  1.0 0.1581610124
C  C244  1  0.54837000  0.25647000  0.60057000  1.0 0.1581610124
C  C245  1  0.60057000  0.54837000  0.25647000  1.0 0.1581610124
C  C246  1  0.25647000  0.60057000  0.54837000  1.0 0.1581610124
C  C247  1  0.49486000  0.59456000  0.28416000  1.0 -0.2275828585
C  C248  1  0.59456000  0.28416000  0.49486000  1.0 -0.2275828585
C  C249  1  0.28416000  0.49486000  0.59456000  1.0 -0.2275828585
C  C250  1  0.49486000  0.28416000  0.59456000  1.0 -0.2275828585
C  C251  1  0.59456000  0.49486000  0.28416000  1.0 -0.2275828585
C  C252  1  0.28416000  0.59456000  0.49486000  1.0 -0.2275828585
C  C253  1  0.49165000  0.54065000  0.31035000  1.0 0.1400875277
C  C254  1  0.54065000  0.31035000  0.49165000  1.0 0.1400875277
C  C255  1  0.31035000  0.49165000  0.54065000  1.0 0.1400875277
C  C256  1  0.49165000  0.31035000  0.54065000  1.0 0.1400875277
C  C257  1  0.54065000  0.49165000  0.31035000  1.0 0.1400875277
C  C258  1  0.31035000  0.54065000  0.49165000  1.0 0.1400875277
C  C259  1  0.30670000  0.48970000  0.30670000  1.0 0.0893367071
C  C260  1  0.48970000  0.30670000  0.30670000  1.0 0.0893367071
C  C261  1  0.30670000  0.30670000  0.48970000  1.0 0.0893367071
C  C262  1  0.30675000  0.53970000  0.30675000  1.0 0.0698969631
C  C263  1  0.53970000  0.30675000  0.30675000  1.0 0.0698969631
C  C264  1  0.30675000  0.30675000  0.53970000  1.0 0.0698969631
C  C265  1  0.29270000  0.59370000  0.26350000  1.0 -0.0658239573
C  C266  1  0.59370000  0.26350000  0.29270000  1.0 -0.0658239573
C  C267  1  0.26350000  0.29270000  0.59370000  1.0 -0.0658239573
C  C268  1  0.29270000  0.26350000  0.59370000  1.0 -0.0658239573
C  C269  1  0.59370000  0.29270000  0.26350000  1.0 -0.0649653781
C  C270  1  0.26350000  0.59370000  0.29270000  1.0 -0.0658239573
C  C271  1  0.27520000  0.59680000  0.22540000  1.0 0.0698969631
C  C272  1  0.59680000  0.22540000  0.27520000  1.0 0.0698969631
C  C273  1  0.22540000  0.27520000  0.59680000  1.0 0.0698969631
C  C274  1  0.27520000  0.22540000  0.59680000  1.0 0.0698969631
C  C275  1  0.59680000  0.27520000  0.22540000  1.0 0.0698969631
C  C276  1  0.22540000  0.59680000  0.27520000  1.0 0.0698969631
C  C277  1  0.27530000  0.54610000  0.22290000  1.0 0.0698969631
C  C278  1  0.54610000  0.22290000  0.27530000  1.0 0.0698969631
C  C279  1  0.22290000  0.27530000  0.54610000  1.0 0.0698969631
C  C280  1  0.27530000  0.22290000  0.54610000  1.0 0.0698969631
C  C281  1  0.54610000  0.27530000  0.22290000  1.0 0.0698969631
C  C282  1  0.22290000  0.54610000  0.27530000  1.0 0.0698969631
C  C283  1  0.29590000  0.49290000  0.25700000  1.0 -0.0785958949
C  C284  1  0.49290000  0.25700000  0.29590000  1.0 -0.0785958949
C  C285  1  0.25700000  0.29590000  0.49290000  1.0 -0.0785958949
C  C286  1  0.29590000  0.25700000  0.49290000  1.0 -0.0785958949
C  C287  1  0.49290000  0.29590000  0.25700000  1.0 -0.0785958949
C  C288  1  0.25700000  0.49290000  0.29590000  1.0 -0.0785958949
C  C289  1  0.20970000  0.71860000  0.11630000  1.0 0.081111545
C  C290  1  0.71860000  0.11630000  0.20970000  1.0 0.0893367071
C  C291  1  0.11630000  0.20970000  0.71860000  1.0 0.081111545
C  C292  1  0.20970000  0.11630000  0.71860000  1.0 0.081111545
C  C293  1  0.71860000  0.20970000  0.11630000  1.0 0.0893367071
C  C294  1  0.11630000  0.71860000  0.20970000  1.0 0.081111545
C  C295  1  0.26530000  0.73190000  0.06840000  1.0 -0.4295213255
C  C296  1  0.73190000  0.06840000  0.26530000  1.0 -0.4295213255
C  C297  1  0.06840000  0.26530000  0.73190000  1.0 -0.4295213255
C  C298  1  0.26530000  0.06840000  0.73190000  1.0 -0.4295213255
C  C299  1  0.73190000  0.26530000  0.06840000  1.0 -0.4295213255
C  C300  1  0.06840000  0.73190000  0.26530000  1.0 -0.4295213255
C  C301  1  0.17510000  0.75780000  0.15190000  1.0 -0.1510667443
C  C302  1  0.75780000  0.15190000  0.17510000  1.0 -0.1510667443
C  C303  1  0.15190000  0.17510000  0.75780000  1.0 -0.1510667443
C  C304  1  0.17510000  0.15190000  0.75780000  1.0 -0.1510667443
C  C305  1  0.75780000  0.17510000  0.15190000  1.0 -0.1510667443
C  C306  1  0.15190000  0.75780000  0.17510000  1.0 -0.1510667443
C  C307  1  0.23680000  0.61100000  0.14640000  1.0 0.0021702127
C  C308  1  0.61100000  0.14640000  0.23680000  1.0 0.0021702127
C  C309  1  0.14640000  0.23680000  0.61100000  1.0 0.0021702127
C  C310  1  0.23680000  0.14640000  0.61100000  1.0 0.0021702127
C  C311  1  0.61100000  0.23680000  0.14640000  1.0 0.0021702127
C  C312  1  0.14640000  0.61100000  0.23680000  1.0 0.0021702127
C  C313  1  0.18400000  0.56660000  0.13470000  1.0 -0.1590846636
C  C314  1  0.56660000  0.13470000  0.18400000  1.0 -0.1590846636
C  C315  1  0.13470000  0.18400000  0.56660000  1.0 -0.1590846636
C  C316  1  0.18400000  0.13470000  0.56660000  1.0 -0.1590846636
C  C317  1  0.56660000  0.18400000  0.13470000  1.0 -0.1590846636
C  C318  1  0.13470000  0.56660000  0.18400000  1.0 -0.1590846636
C  C319  1  0.21130000  0.60880000  0.11110000  1.0 0.1226585713
C  C320  1  0.60880000  0.11110000  0.21130000  1.0 0.1226585713
C  C321  1  0.11110000  0.21130000  0.60880000  1.0 0.1226585713
C  C322  1  0.21130000  0.11110000  0.60880000  1.0 0.1226585713
C  C323  1  0.60880000  0.21130000  0.11110000  1.0 0.1226585713
C  C324  1  0.11110000  0.60880000  0.21130000  1.0 0.1226585713
C  C325  1  0.03470000  0.78560000  0.99810000  1.0 0.063891795
C  C326  1  0.78560000  0.99810000  0.03470000  1.0 0.063891795
C  C327  1  0.99810000  0.03470000  0.78560000  1.0 0.063891795
C  C328  1  0.03470000  0.99810000  0.78560000  1.0 0.063891795
C  C329  1  0.78560000  0.03470000  0.99810000  1.0 0.063891795
C  C330  1  0.99810000  0.78560000  0.03470000  1.0 0.063891795
C  C331  1  0.03940000  0.83400000  0.99330000  1.0 0.0096553209
C  C332  1  0.83400000  0.99330000  0.03940000  1.0 0.0096553209
C  C333  1  0.99330000  0.03940000  0.83400000  1.0 0.0096553209
C  C334  1  0.03940000  0.99330000  0.83400000  1.0 0.0096553209
C  C335  1  0.83400000  0.03940000  0.99330000  1.0 0.0096553209
C  C336  1  0.99330000  0.83400000  0.03940000  1.0 0.0096553209
C  C337  1  0.07680000  0.82960000  0.01400000  1.0 -0.1357375218
C  C338  1  0.82960000  0.01400000  0.07680000  1.0 -0.1357375218
C  C339  1  0.01400000  0.07680000  0.82960000  1.0 -0.1357375218
C  C340  1  0.07680000  0.01400000  0.82960000  1.0 -0.1357375218
C  C341  1  0.82960000  0.07680000  0.01400000  1.0 -0.1357375218
C  C342  1  0.01400000  0.82960000  0.07680000  1.0 -0.1357375218
C  C343  1  0.10880000  0.77720000  0.03830000  1.0 0.0893367071
C  C344  1  0.77720000  0.03830000  0.10880000  1.0 0.0893367071
C  C345  1  0.03830000  0.10880000  0.77720000  1.0 0.0893367071
C  C346  1  0.10880000  0.03830000  0.77720000  1.0 0.0893367071
C  C347  1  0.77720000  0.10880000  0.03830000  1.0 0.0893367071
C  C348  1  0.03830000  0.77720000  0.10880000  1.0 0.0893367071
C  C349  1  0.10500000  0.72510000  0.04230000  1.0 0.1009024606
C  C350  1  0.72510000  0.04230000  0.10500000  1.0 0.1009024606
C  C351  1  0.04230000  0.10500000  0.72510000  1.0 0.1009024606
C  C352  1  0.10500000  0.04230000  0.72510000  1.0 0.1009024606
C  C353  1  0.72510000  0.10500000  0.04230000  1.0 0.1009024606
C  C354  1  0.04230000  0.72510000  0.10500000  1.0 0.1009024606
C  C355  1  0.17850000  0.67350000  0.08250000  1.0 0.0096553209
C  C356  1  0.67350000  0.08250000  0.17850000  1.0 0.0096553209
C  C357  1  0.08250000  0.17850000  0.67350000  1.0 0.0096553209
C  C358  1  0.17850000  0.08250000  0.67350000  1.0 0.0096553209
C  C359  1  0.67350000  0.17850000  0.08250000  1.0 0.0096553209
C  C360  1  0.08250000  0.67350000  0.17850000  1.0 0.0096553209
C  C361  1  0.17330000  0.71950000  0.08760000  1.0 0.081111545
C  C362  1  0.71950000  0.08760000  0.17330000  1.0 0.081111545
C  C363  1  0.08760000  0.17330000  0.71950000  1.0 0.081111545
C  C364  1  0.17330000  0.08760000  0.71950000  1.0 0.081111545
C  C365  1  0.71950000  0.17330000  0.08760000  1.0 0.081111545
C  C366  1  0.08760000  0.71950000  0.17330000  1.0 0.081111545
C  C367  1  0.06720000  0.73080000  0.02130000  1.0 -0.1100271551
C  C368  1  0.73080000  0.02130000  0.06720000  1.0 -0.1100271551
C  C369  1  0.02130000  0.06720000  0.73080000  1.0 -0.1100271551
C  C370  1  0.06720000  0.02130000  0.73080000  1.0 -0.1100271551
C  C371  1  0.73080000  0.06720000  0.02130000  1.0 -0.1100271551
C  C372  1  0.02130000  0.73080000  0.06720000  1.0 -0.1100271551
C  C373  1  0.23420000  0.65740000  0.15480000  1.0 0.0371943608
C  C374  1  0.65740000  0.15480000  0.23420000  1.0 0.0371943608
C  C375  1  0.15480000  0.23420000  0.65740000  1.0 0.0371943608
C  C376  1  0.23420000  0.15480000  0.65740000  1.0 0.0371943608
C  C377  1  0.65740000  0.23420000  0.15480000  1.0 0.0371943608
C  C378  1  0.15480000  0.65740000  0.23420000  1.0 0.0371943608
C  C379  1  0.26310000  0.59470000  0.05810000  1.0 -0.4416707638
C  C380  1  0.59470000  0.05810000  0.26310000  1.0 -0.4416707638
C  C381  1  0.05810000  0.26310000  0.59470000  1.0 -0.4416707638
C  C382  1  0.26310000  0.05810000  0.59470000  1.0 -0.4416707638
C  C383  1  0.59470000  0.26310000  0.05810000  1.0 -0.4416707638
C  C384  1  0.05810000  0.59470000  0.26310000  1.0 -0.4416707638
N  N1  1  0.19826000  0.01526000  0.12106000  1.0 -0.2106054516
N  N2  1  0.12106000  0.19826000  0.01526000  1.0 -0.2106054516
N  N3  1  0.01526000  0.12106000  0.19826000  1.0 -0.2106054516
N  N4  1  0.19826000  0.12106000  0.01526000  1.0 -0.2106054516
N  N5  1  0.12106000  0.01526000  0.19826000  1.0 -0.2106054516
N  N6  1  0.01526000  0.19826000  0.12106000  1.0 -0.2106054516
N  N7  1  0.14103000  0.03368000  0.14103000  1.0 -0.0024082271
N  N8  1  0.14103000  0.14103000  0.03368000  1.0 -0.0024082271
N  N9  1  0.03368000  0.14103000  0.14103000  1.0 -0.0024082271
N  N10  1  0.01443000  0.01443000  0.19857000  1.0 -0.2044103029
N  N11  1  0.19857000  0.01444000  0.01444000  1.0 -0.2044103029
N  N12  1  0.01443000  0.19857000  0.01444000  1.0 -0.2044103029
N  N13  1  0.03331000  0.03331000  0.14006000  1.0 -0.0364910844
N  N14  1  0.14006000  0.03331000  0.03331000  1.0 -0.0364910844
N  N15  1  0.03331000  0.14006000  0.03331000  1.0 -0.0364910844
N  N16  1  0.01545000  0.01545000  0.12010000  1.0 -0.1262937847
N  N17  1  0.12010000  0.01545000  0.01545000  1.0 -0.124129552
N  N18  1  0.01545000  0.12010000  0.01545000  1.0 -0.1262937847
N  N19  1  0.32770000  0.88350000  0.23150000  1.0 -0.2716919365
N  N20  1  0.23150000  0.32770000  0.88350000  1.0 -0.2716919365
N  N21  1  0.88350000  0.23150000  0.32770000  1.0 -0.2716919365
N  N22  1  0.32770000  0.23150000  0.88350000  1.0 -0.2716919365
N  N23  1  0.23150000  0.88350000  0.32770000  1.0 -0.2716919365
N  N24  1  0.88350000  0.32770000  0.23150000  1.0 -0.2716919365
N  N25  1  0.44552000  0.76752000  0.34762000  1.0 -0.2781218372
N  N26  1  0.34762000  0.44552000  0.76752000  1.0 -0.2781218372
N  N27  1  0.76752000  0.34762000  0.44552000  1.0 -0.2781218372
N  N28  1  0.44552000  0.34762000  0.76752000  1.0 -0.2781218372
N  N29  1  0.34762000  0.76752000  0.44552000  1.0 -0.2781218372
N  N30  1  0.76752000  0.44552000  0.34762000  1.0 -0.2781218372
N  N31  1  0.55564000  0.65904000  0.47864000  1.0 -0.2211824801
N  N32  1  0.47864000  0.55564000  0.65904000  1.0 -0.2211824801
N  N33  1  0.65904000  0.47864000  0.55564000  1.0 -0.2211824801
N  N34  1  0.55564000  0.47864000  0.65904000  1.0 -0.2211824801
N  N35  1  0.47864000  0.65904000  0.55564000  1.0 -0.2211824801
N  N36  1  0.65904000  0.55564000  0.47864000  1.0 -0.2211824801
N  N37  1  0.53536000  0.64246000  0.53536000  1.0 0.0096553209
N  N38  1  0.53536000  0.53536000  0.64246000  1.0 0.0096553209
N  N39  1  0.64246000  0.53536000  0.53536000  1.0 0.0096553209
N  N40  1  0.65965000  0.65965000  0.48310000  1.0 -0.1900544473
N  N41  1  0.48310000  0.65965000  0.65965000  1.0 -0.1900544473
N  N42  1  0.65965000  0.48310000  0.65965000  1.0 -0.1900544473
N  N43  1  0.64274000  0.64274000  0.53759000  1.0 -0.0024082271
N  N44  1  0.53759000  0.64274000  0.64274000  1.0 -0.0024082271
N  N45  1  0.64274000  0.53759000  0.64274000  1.0 -0.0024082271
N  N46  1  0.66169000  0.66169000  0.55609000  1.0 -0.2211824801
N  N47  1  0.55609000  0.66169000  0.66169000  1.0 -0.2211824801
N  N48  1  0.66169000  0.55609000  0.66169000  1.0 -0.2106054516
N  N49  1  0.74910000  0.80730000  0.34800000  1.0 -0.1510667443
N  N50  1  0.34800000  0.74910000  0.80730000  1.0 -0.1510667443
N  N51  1  0.80730000  0.34800000  0.74910000  1.0 -0.1510667443
N  N52  1  0.74910000  0.34800000  0.80730000  1.0 -0.1510667443
N  N53  1  0.34800000  0.80730000  0.74910000  1.0 -0.1510667443
N  N54  1  0.80730000  0.74910000  0.34800000  1.0 -0.1510667443
N  N55  1  0.74730000  0.81270000  0.44730000  1.0 -0.176217671
N  N56  1  0.44730000  0.74730000  0.81270000  1.0 -0.176217671
N  N57  1  0.81270000  0.44730000  0.74730000  1.0 -0.176217671
N  N58  1  0.74730000  0.44730000  0.81270000  1.0 -0.176217671
N  N59  1  0.44730000  0.81270000  0.74730000  1.0 -0.176217671
N  N60  1  0.81270000  0.74730000  0.44730000  1.0 -0.176217671
N  N61  1  0.85730000  0.93540000  0.23050000  1.0 -0.2211824801
N  N62  1  0.23050000  0.85730000  0.93540000  1.0 -0.2211824801
N  N63  1  0.93540000  0.23050000  0.85730000  1.0 -0.2211824801
N  N64  1  0.85730000  0.23050000  0.93540000  1.0 -0.2211824801
N  N65  1  0.23050000  0.93540000  0.85730000  1.0 -0.2211824801
N  N66  1  0.93540000  0.85730000  0.23050000  1.0 -0.2211824801
N  N67  1  0.85950000  0.93350000  0.32800000  1.0 -0.1900544473
N  N68  1  0.32800000  0.85950000  0.93350000  1.0 -0.1900544473
N  N69  1  0.93350000  0.32800000  0.85950000  1.0 -0.1900544473
N  N70  1  0.85950000  0.32800000  0.93350000  1.0 -0.1900544473
N  N71  1  0.32800000  0.93350000  0.85950000  1.0 -0.1900544473
N  N72  1  0.93350000  0.85950000  0.32800000  1.0 -0.1900544473
N  N73  1  0.80174000  0.87894000  0.98474000  1.0 -0.2106054516
N  N74  1  0.87894000  0.98474000  0.80174000  1.0 -0.2106054516
N  N75  1  0.98474000  0.80174000  0.87894000  1.0 -0.2106054516
N  N76  1  0.80174000  0.98474000  0.87894000  1.0 -0.2106054516
N  N77  1  0.87894000  0.80174000  0.98474000  1.0 -0.2106054516
N  N78  1  0.98474000  0.87894000  0.80174000  1.0 -0.2106054516
N  N79  1  0.85897000  0.85897000  0.96632000  1.0 -0.0024082271
N  N80  1  0.85897000  0.96632000  0.85897000  1.0 -0.0024082271
N  N81  1  0.96632000  0.85897000  0.85897000  1.0 -0.0024082271
N  N82  1  0.98557000  0.80143000  0.98557000  1.0 -0.2044103029
N  N83  1  0.80143000  0.98557000  0.98557000  1.0 -0.2044103029
N  N84  1  0.98557000  0.98557000  0.80143000  1.0 -0.2044103029
N  N85  1  0.96669000  0.85994000  0.96669000  1.0 -0.0364910844
N  N86  1  0.85994000  0.96669000  0.96669000  1.0 -0.0364910844
N  N87  1  0.96669000  0.96669000  0.85994000  1.0 -0.0364910844
N  N88  1  0.98455000  0.87990000  0.98455000  1.0 -0.1262937847
N  N89  1  0.87990000  0.98455000  0.98455000  1.0 -0.1262937847
N  N90  1  0.98455000  0.98455000  0.87990000  1.0 -0.1262937847
N  N91  1  0.67230000  0.76850000  0.11650000  1.0 -0.2716919365
N  N92  1  0.76850000  0.11650000  0.67230000  1.0 -0.2716919365
N  N93  1  0.11650000  0.67230000  0.76850000  1.0 -0.2716919365
N  N94  1  0.67230000  0.11650000  0.76850000  1.0 -0.2716919365
N  N95  1  0.76850000  0.67230000  0.11650000  1.0 -0.2716919365
N  N96  1  0.11650000  0.76850000  0.67230000  1.0 -0.2716919365
N  N97  1  0.55448000  0.65238000  0.23248000  1.0 -0.2781218372
N  N98  1  0.65238000  0.23248000  0.55448000  1.0 -0.2781218372
N  N99  1  0.23248000  0.55448000  0.65238000  1.0 -0.2781218372
N  N100  1  0.55448000  0.23248000  0.65238000  1.0 -0.2781218372
N  N101  1  0.65238000  0.55448000  0.23248000  1.0 -0.2781218372
N  N102  1  0.23248000  0.65238000  0.55448000  1.0 -0.2781218372
N  N103  1  0.44436000  0.52136000  0.34096000  1.0 -0.2211824801
N  N104  1  0.52136000  0.34096000  0.44436000  1.0 -0.2211824801
N  N105  1  0.34096000  0.44436000  0.52136000  1.0 -0.2211824801
N  N106  1  0.44436000  0.34096000  0.52136000  1.0 -0.2211824801
N  N107  1  0.52136000  0.44436000  0.34096000  1.0 -0.2211824801
N  N108  1  0.34096000  0.52136000  0.44436000  1.0 -0.2211824801
N  N109  1  0.46464000  0.46464000  0.35754000  1.0 0.0096553209
N  N110  1  0.46464000  0.35754000  0.46464000  1.0 0.0096553209
N  N111  1  0.35754000  0.46464000  0.46464000  1.0 0.0096553209
N  N112  1  0.34035000  0.51690000  0.34035000  1.0 -0.1900544473
N  N113  1  0.51690000  0.34035000  0.34035000  1.0 -0.1900544473
N  N114  1  0.34035000  0.34035000  0.51690000  1.0 -0.1900544473
N  N115  1  0.35726000  0.46241000  0.35726000  1.0 -0.0024082271
N  N116  1  0.46241000  0.35726000  0.35726000  1.0 -0.0024082271
N  N117  1  0.35726000  0.35726000  0.46241000  1.0 -0.0024082271
N  N118  1  0.33831000  0.44391000  0.33831000  1.0 -0.2211824801
N  N119  1  0.44391000  0.33831000  0.33831000  1.0 -0.2211824801
N  N120  1  0.33831000  0.33831000  0.44391000  1.0 -0.2211824801
N  N121  1  0.25090000  0.65200000  0.19270000  1.0 -0.1510667443
N  N122  1  0.65200000  0.19270000  0.25090000  1.0 -0.1510667443
N  N123  1  0.19270000  0.25090000  0.65200000  1.0 -0.1510667443
N  N124  1  0.25090000  0.19270000  0.65200000  1.0 -0.1510667443
N  N125  1  0.65200000  0.25090000  0.19270000  1.0 -0.1510667443
N  N126  1  0.19270000  0.65200000  0.25090000  1.0 -0.1510667443
N  N127  1  0.25270000  0.55270000  0.18730000  1.0 -0.176217671
N  N128  1  0.55270000  0.18730000  0.25270000  1.0 -0.176217671
N  N129  1  0.18730000  0.25270000  0.55270000  1.0 -0.176217671
N  N130  1  0.25270000  0.18730000  0.55270000  1.0 -0.176217671
N  N131  1  0.55270000  0.25270000  0.18730000  1.0 -0.176217671
N  N132  1  0.18730000  0.55270000  0.25270000  1.0 -0.176217671
N  N133  1  0.14270000  0.76950000  0.06460000  1.0 -0.2211824801
N  N134  1  0.76950000  0.06460000  0.14270000  1.0 -0.2211824801
N  N135  1  0.06460000  0.14270000  0.76950000  1.0 -0.2211824801
N  N136  1  0.14270000  0.06460000  0.76950000  1.0 -0.2211824801
N  N137  1  0.76950000  0.14270000  0.06460000  1.0 -0.2211824801
N  N138  1  0.06460000  0.76950000  0.14270000  1.0 -0.2211824801
N  N139  1  0.14050000  0.67200000  0.06650000  1.0 -0.1900544473
N  N140  1  0.67200000  0.06650000  0.14050000  1.0 -0.1900544473
N  N141  1  0.06650000  0.14050000  0.67200000  1.0 -0.1900544473
N  N142  1  0.14050000  0.06650000  0.67200000  1.0 -0.1900544473
N  N143  1  0.67200000  0.14050000  0.06650000  1.0 -0.1900544473
N  N144  1  0.06650000  0.67200000  0.14050000  1.0 -0.1900544473
Cl  Cl1  1  0.33027000  0.00598000  0.00598000  1.0 -0.5058230045
Cl  Cl2  1  0.00598000  0.33027000  0.00598000  1.0 -0.5058230045
Cl  Cl3  1  0.00598000  0.00598000  0.33027000  1.0 -0.5058230045
Cl  Cl4  1  0.66881000  0.66881000  0.34580000  1.0 -0.501921354
Cl  Cl5  1  0.34580000  0.66881000  0.66881000  1.0 -0.501921354
Cl  Cl6  1  0.66881000  0.34580000  0.66881000  1.0 -0.501921354
Cl  Cl7  1  0.67150000  0.67150000  0.67150000  1.0 1.0788149056
Cl  Cl8  1  0.66973000  0.99402000  0.99402000  1.0 -0.5058230045
Cl  Cl9  1  0.99402000  0.99402000  0.66973000  1.0 -0.5058230045
Cl  Cl10  1  0.99402000  0.66973000  0.99402000  1.0 -0.5058230045
Cl  Cl11  1  0.33119000  0.65420000  0.33119000  1.0 -0.501921354
Cl  Cl12  1  0.65420000  0.33119000  0.33119000  1.0 -0.501921354
Cl  Cl13  1  0.33119000  0.33119000  0.65420000  1.0 -0.501921354
Cl  Cl14  1  0.32850000  0.32850000  0.32850000  1.0 1.0788149056
O  O1  1  0.72670000  0.63100000  0.63100000  1.0 -0.6139639083
O  O2  1  0.63100000  0.72670000  0.63100000  1.0 -0.6139639083
O  O3  1  0.63100000  0.63100000  0.72670000  1.0 -0.6152987662
O  O4  1  0.27330000  0.36900000  0.36900000  1.0 -0.6139639083
O  O5  1  0.36900000  0.36900000  0.27330000  1.0 -0.6139639083
O  O6  1  0.36900000  0.27330000  0.36900000  1.0 -0.6139639083
