# DDEC6 charges by PACMAN v1.1 (https://github.com/mtap-research/PACMAN-charge/)
data_OHIHET_FSR_pacman
_symmetry_space_group_name_H-M   'P 1'
_cell_length_a   13.98220000
_cell_length_b   13.98220000
_cell_length_c   6.22330000
_cell_angle_alpha   90.00000000
_cell_angle_beta   90.00000000
_cell_angle_gamma   90.00000000
_symmetry_Int_Tables_number   1
_chemical_formula_structural   ZnH16(C3N)8
_chemical_formula_sum   'Zn2 H32 C48 N16'
_cell_volume   1216.66707907
_cell_formula_units_Z   2
loop_
 _symmetry_equiv_pos_site_id
 _symmetry_equiv_pos_as_xyz
  1  'x, y, z'
loop_
 _atom_site_type_symbol
 _atom_site_label
 _atom_site_symmetry_multiplicity
 _atom_site_fract_x
 _atom_site_fract_y
 _atom_site_fract_z
 _atom_site_occupancy
 _atom_site_charge
Zn  Zn1  1  0.50000000  0.50000000  0.00000000  1.0 0.5860142748
Zn  Zn2  1  0.00000000  0.00000000  0.50000000  1.0 0.5831179659
H  H1  1  0.19490000  0.34230000  0.53230000  1.0 0.1209135468
H  H2  1  0.80510000  0.65770000  0.53230000  1.0 0.1209135468
H  H3  1  0.84230000  0.30510000  0.03230000  1.0 0.1209135468
H  H4  1  0.15770000  0.69490000  0.03230000  1.0 0.1209135468
H  H5  1  0.30510000  0.15770000  0.96770000  1.0 0.1209135468
H  H6  1  0.69490000  0.84230000  0.96770000  1.0 0.1209135468
H  H7  1  0.65770000  0.19490000  0.46770000  1.0 0.1209135468
H  H8  1  0.34230000  0.80510000  0.46770000  1.0 0.1209135468
H  H9  1  0.40610000  0.19730000  0.24590000  1.0 0.1292251538
H  H10  1  0.59390000  0.80270000  0.24590000  1.0 0.1292251538
H  H11  1  0.69730000  0.09390000  0.74590000  1.0 0.1292251538
H  H12  1  0.30270000  0.90610000  0.74590000  1.0 0.1292251538
H  H13  1  0.09390000  0.30270000  0.25410000  1.0 0.1292251538
H  H14  1  0.90610000  0.69730000  0.25410000  1.0 0.1292251538
H  H15  1  0.80270000  0.40610000  0.75410000  1.0 0.1292251538
H  H16  1  0.19730000  0.59390000  0.75410000  1.0 0.1292251538
H  H17  1  0.34700000  0.44900000  0.66900000  1.0 0.1082805808
H  H18  1  0.65300000  0.55100000  0.66900000  1.0 0.1082805808
H  H19  1  0.94900000  0.15300000  0.16900000  1.0 0.1082805808
H  H20  1  0.05100000  0.84700000  0.16900000  1.0 0.1082805808
H  H21  1  0.15300000  0.05100000  0.83100000  1.0 0.1082805808
H  H22  1  0.84700000  0.94900000  0.83100000  1.0 0.1082805808
H  H23  1  0.55100000  0.34700000  0.33100000  1.0 0.1082805808
H  H24  1  0.44900000  0.65300000  0.33100000  1.0 0.1082805808
H  H25  1  0.54300000  0.29100000  0.90500000  1.0 0.1209135468
H  H26  1  0.45700000  0.70900000  0.90500000  1.0 0.1209135468
H  H27  1  0.79100000  0.95700000  0.40500000  1.0 0.1209135468
H  H28  1  0.20900000  0.04300000  0.40500000  1.0 0.1209135468
H  H29  1  0.95700000  0.20900000  0.59500000  1.0 0.1209135468
H  H30  1  0.04300000  0.79100000  0.59500000  1.0 0.1209135468
H  H31  1  0.70900000  0.54300000  0.09500000  1.0 0.1209135468
H  H32  1  0.29100000  0.45700000  0.09500000  1.0 0.1209135468
C  C1  1  0.38280000  0.39060000  0.67950000  1.0 0.023994918
C  C2  1  0.61720000  0.60940000  0.67950000  1.0 0.023994918
C  C3  1  0.89060000  0.11720000  0.17950000  1.0 0.023994918
C  C4  1  0.10940000  0.88280000  0.17950000  1.0 0.023994918
C  C5  1  0.11720000  0.10940000  0.82050000  1.0 0.023994918
C  C6  1  0.88280000  0.89060000  0.82050000  1.0 0.023994918
C  C7  1  0.60940000  0.38280000  0.32050000  1.0 0.023994918
C  C8  1  0.39060000  0.61720000  0.32050000  1.0 0.023994918
C  C9  1  0.49180000  0.30280000  0.81260000  1.0 -0.0812588349
C  C10  1  0.50820000  0.69720000  0.81260000  1.0 -0.0812588349
C  C11  1  0.80280000  0.00820000  0.31260000  1.0 -0.0812588349
C  C12  1  0.19720000  0.99180000  0.31260000  1.0 -0.0812588349
C  C13  1  0.00820000  0.19720000  0.68740000  1.0 -0.0812588349
C  C14  1  0.99180000  0.80280000  0.68740000  1.0 -0.0812588349
C  C15  1  0.69720000  0.49180000  0.18740000  1.0 -0.0812588349
C  C16  1  0.30280000  0.50820000  0.18740000  1.0 -0.0812588349
C  C17  1  0.44760000  0.24700000  0.66540000  1.0 -0.1265793179
C  C18  1  0.55240000  0.75300000  0.66540000  1.0 -0.1265793179
C  C19  1  0.74700000  0.05240000  0.16540000  1.0 -0.1265793179
C  C20  1  0.25300000  0.94760000  0.16540000  1.0 -0.1265793179
C  C21  1  0.05240000  0.25300000  0.83460000  1.0 -0.1265793179
C  C22  1  0.94760000  0.74700000  0.83460000  1.0 -0.1265793179
C  C23  1  0.75300000  0.44760000  0.33460000  1.0 -0.1265793179
C  C24  1  0.24700000  0.55240000  0.33460000  1.0 -0.1265793179
C  C25  1  0.31190000  0.27470000  0.41460000  1.0 0.1446242373
C  C26  1  0.68810000  0.72530000  0.41460000  1.0 0.1446242373
C  C27  1  0.77470000  0.18810000  0.91460000  1.0 0.1446242373
C  C28  1  0.22530000  0.81190000  0.91460000  1.0 0.1446242373
C  C29  1  0.18810000  0.22530000  0.08540000  1.0 0.1456761699
C  C30  1  0.81190000  0.77470000  0.08540000  1.0 0.1456761699
C  C31  1  0.72530000  0.31190000  0.58540000  1.0 0.1446242373
C  C32  1  0.27470000  0.68810000  0.58540000  1.0 0.1446242373
C  C33  1  0.21720000  0.30550000  0.41840000  1.0 -0.159701036
C  C34  1  0.78280000  0.69450000  0.41840000  1.0 -0.159701036
C  C35  1  0.80550000  0.28280000  0.91840000  1.0 -0.159701036
C  C36  1  0.19450000  0.71720000  0.91840000  1.0 -0.159701036
C  C37  1  0.28280000  0.19450000  0.08160000  1.0 -0.159701036
C  C38  1  0.71720000  0.80550000  0.08160000  1.0 -0.159701036
C  C39  1  0.69450000  0.21720000  0.58160000  1.0 -0.159701036
C  C40  1  0.30550000  0.78280000  0.58160000  1.0 -0.159701036
C  C41  1  0.34320000  0.21890000  0.24730000  1.0 -0.159701036
C  C42  1  0.65680000  0.78110000  0.24730000  1.0 -0.159701036
C  C43  1  0.71890000  0.15680000  0.74730000  1.0 -0.159701036
C  C44  1  0.28110000  0.84320000  0.74730000  1.0 -0.159701036
C  C45  1  0.15680000  0.28110000  0.25270000  1.0 -0.159701036
C  C46  1  0.84320000  0.71890000  0.25270000  1.0 -0.159701036
C  C47  1  0.78110000  0.34320000  0.75270000  1.0 -0.159701036
C  C48  1  0.21890000  0.65680000  0.75270000  1.0 -0.159701036
N  N1  1  0.45440000  0.39090000  0.82370000  1.0 -0.2717666511
N  N2  1  0.54560000  0.60910000  0.82370000  1.0 -0.2717666511
N  N3  1  0.89090000  0.04560000  0.32370000  1.0 -0.2717666511
N  N4  1  0.10910000  0.95440000  0.32370000  1.0 -0.2717666511
N  N5  1  0.04560000  0.10910000  0.67630000  1.0 -0.2717666511
N  N6  1  0.95440000  0.89090000  0.67630000  1.0 -0.2717666511
N  N7  1  0.60910000  0.45440000  0.17630000  1.0 -0.2717666511
N  N8  1  0.39090000  0.54560000  0.17630000  1.0 -0.2717666511
N  N9  1  0.37750000  0.30490000  0.58550000  1.0 0.0041805826
N  N10  1  0.62250000  0.69510000  0.58550000  1.0 0.0041805826
N  N11  1  0.80490000  0.12250000  0.08550000  1.0 0.0051201753
N  N12  1  0.19510000  0.87750000  0.08550000  1.0 0.0051201753
N  N13  1  0.12250000  0.19510000  0.91450000  1.0 0.0041805826
N  N14  1  0.87750000  0.80490000  0.91450000  1.0 0.0041805826
N  N15  1  0.69510000  0.37750000  0.41450000  1.0 0.0051201753
N  N16  1  0.30490000  0.62250000  0.41450000  1.0 0.0051201753
