# DDEC6 charges by PACMAN v1.1 (https://github.com/mtap-research/PACMAN-charge/)
data_OHUHIL_FSR_pacman
_symmetry_space_group_name_H-M   'P 1'
_cell_length_a   12.66200000
_cell_length_b   14.08000000
_cell_length_c   17.49500000
_cell_angle_alpha   108.67400000
_cell_angle_beta   106.44200000
_cell_angle_gamma   91.41100000
_symmetry_Int_Tables_number   1
_chemical_formula_structural   SrH17C21N(OF)6
_chemical_formula_sum   'Sr4 H68 C84 N4 O24 F24'
_cell_volume   2811.10372520
_cell_formula_units_Z   4
loop_
 _symmetry_equiv_pos_site_id
 _symmetry_equiv_pos_as_xyz
  1  'x, y, z'
loop_
 _atom_site_type_symbol
 _atom_site_label
 _atom_site_symmetry_multiplicity
 _atom_site_fract_x
 _atom_site_fract_y
 _atom_site_fract_z
 _atom_site_occupancy
 _atom_site_charge
Sr  Sr1  1  0.03203000  0.90173000  0.07177000  1.0 1.4185372652
Sr  Sr2  1  0.98144000  0.59520000  0.92831000  1.0 1.4185372652
Sr  Sr3  1  0.96797000  0.09827000  0.92823000  1.0 1.4185372652
Sr  Sr4  1  0.01856000  0.40480000  0.07169000  1.0 1.4185372652
H  H1  1  0.75300000  0.16160000  0.77850000  1.0 0.1302330299
H  H2  1  0.57580000  0.12660000  0.68480000  1.0 0.1191787315
H  H3  1  0.54290000  0.42060000  0.75790000  1.0 0.1191787315
H  H4  1  0.72130000  0.45610000  0.84900000  1.0 0.1302330299
H  H5  1  0.05880000  0.85050000  0.41050000  1.0 0.1191787315
H  H6  1  0.07790000  0.96720000  0.45990000  1.0 0.1302330299
H  H7  1  0.17240000  0.91350000  0.42850000  1.0 0.1302330299
H  H8  1  0.04570000  0.76030000  0.30300000  1.0 0.1414290113
H  H9  1  0.98400000  0.72750000  0.20550000  1.0 0.1654776992
H  H10  1  0.91720000  0.76180000  0.27060000  1.0 0.1487991237
H  H11  1  0.05820000  0.06030000  0.28750000  1.0 0.1487991237
H  H12  1  0.15940000  0.07420000  0.36810000  1.0 0.1487991237
H  H13  1  0.04230000  0.09730000  0.37760000  1.0 0.1414290113
H  H14  1  0.59200000  0.89790000  0.89100000  1.0 0.1302330299
H  H15  1  0.42100000  0.80400000  0.81570000  1.0 0.1191787315
H  H16  1  0.61720000  0.94210000  0.68290000  1.0 0.1191787315
H  H17  1  0.44370000  0.85400000  0.60780000  1.0 0.1143489615
H  H18  1  0.15460000  0.96020000  0.84920000  1.0 0.1302330299
H  H19  1  0.05840000  0.66540000  0.77920000  1.0 0.1302330299
H  H20  1  0.26050000  0.92510000  0.75870000  1.0 0.1302330299
H  H21  1  0.15570000  0.63200000  0.68390000  1.0 0.1302330299
H  H22  1  0.72380000  0.73450000  0.71000000  1.0 0.1414290113
H  H23  1  0.78040000  0.76050000  0.80760000  1.0 0.1594896265
H  H24  1  0.65840000  0.70580000  0.76490000  1.0 0.1414290113
H  H25  1  0.63950000  0.52470000  0.56010000  1.0 0.1302330299
H  H26  1  0.73830000  0.59970000  0.56730000  1.0 0.1302330299
H  H27  1  0.64500000  0.64090000  0.60700000  1.0 0.1302330299
H  H28  1  0.86510000  0.46590000  0.63600000  1.0 0.1487991237
H  H29  1  0.74470000  0.41050000  0.60930000  1.0 0.1302330299
H  H30  1  0.82020000  0.44290000  0.70380000  1.0 0.1594896265
H  H31  1  0.13530000  0.44300000  0.68260000  1.0 0.1191787315
H  H32  1  0.41590000  0.29310000  0.81240000  1.0 0.1191787315
H  H33  1  0.24430000  0.35200000  0.60600000  1.0 0.1191787315
H  H34  1  0.31060000  0.38720000  0.88840000  1.0 0.1302330299
H  H35  1  0.24700000  0.83840000  0.22150000  1.0 0.1302330299
H  H36  1  0.42420000  0.87340000  0.31520000  1.0 0.1191787315
H  H37  1  0.45710000  0.57940000  0.24210000  1.0 0.1191787315
H  H38  1  0.27870000  0.54390000  0.15100000  1.0 0.1302330299
H  H39  1  0.94120000  0.14950000  0.58950000  1.0 0.1191787315
H  H40  1  0.92210000  0.03280000  0.54010000  1.0 0.1302330299
H  H41  1  0.82760000  0.08650000  0.57150000  1.0 0.1302330299
H  H42  1  0.95430000  0.23970000  0.69700000  1.0 0.1414290113
H  H43  1  0.01600000  0.27250000  0.79450000  1.0 0.1654776992
H  H44  1  0.08280000  0.23820000  0.72940000  1.0 0.1487991237
H  H45  1  0.94180000  0.93970000  0.71250000  1.0 0.1487991237
H  H46  1  0.84060000  0.92580000  0.63190000  1.0 0.1487991237
H  H47  1  0.95770000  0.90270000  0.62240000  1.0 0.1414290113
H  H48  1  0.40800000  0.10210000  0.10900000  1.0 0.1302330299
H  H49  1  0.57900000  0.19600000  0.18430000  1.0 0.1191787315
H  H50  1  0.38280000  0.05790000  0.31710000  1.0 0.1191787315
H  H51  1  0.55630000  0.14600000  0.39220000  1.0 0.1143489615
H  H52  1  0.84540000  0.03980000  0.15080000  1.0 0.1302330299
H  H53  1  0.94160000  0.33460000  0.22080000  1.0 0.1302330299
H  H54  1  0.73950000  0.07490000  0.24130000  1.0 0.1302330299
H  H55  1  0.84430000  0.36800000  0.31610000  1.0 0.1302330299
H  H56  1  0.27620000  0.26550000  0.29000000  1.0 0.1414290113
H  H57  1  0.21960000  0.23950000  0.19240000  1.0 0.1594896265
H  H58  1  0.34160000  0.29420000  0.23510000  1.0 0.1414290113
H  H59  1  0.36050000  0.47530000  0.43990000  1.0 0.1302330299
H  H60  1  0.26170000  0.40030000  0.43270000  1.0 0.1302330299
H  H61  1  0.35500000  0.35910000  0.39300000  1.0 0.1302330299
H  H62  1  0.13490000  0.53410000  0.36400000  1.0 0.1487991237
H  H63  1  0.25530000  0.58950000  0.39070000  1.0 0.1302330299
H  H64  1  0.17980000  0.55710000  0.29620000  1.0 0.1594896265
H  H65  1  0.86470000  0.55700000  0.31740000  1.0 0.1191787315
H  H66  1  0.58410000  0.70690000  0.18760000  1.0 0.1191787315
H  H67  1  0.75570000  0.64800000  0.39400000  1.0 0.1191787315
H  H68  1  0.68940000  0.61280000  0.11160000  1.0 0.1302330299
C  C1  1  0.53860000  0.26960000  0.71350000  1.0 0.0722719091
C  C2  1  0.86640000  0.33410000  0.89180000  1.0 0.6016728641
C  C3  1  0.75310000  0.31150000  0.82610000  1.0 -0.0108634836
C  C4  1  0.71030000  0.21380000  0.77520000  1.0 -0.079401861
C  C5  1  0.60390000  0.19300000  0.71920000  1.0 -0.1481963782
C  C6  1  0.58450000  0.36800000  0.76230000  1.0 -0.138947826
C  C7  1  0.69100000  0.38940000  0.81750000  1.0 -0.079401861
C  C8  1  0.09360000  0.91440000  0.41540000  1.0 -0.34268959
C  C9  1  0.98640000  0.77270000  0.26050000  1.0 -0.6086588143
C  C10  1  0.08080000  0.05430000  0.34280000  1.0 -0.4462820529
C  C11  1  0.56240000  0.88910000  0.83380000  1.0 -0.091003243
C  C12  1  0.73670000  0.98850000  0.84430000  1.0 0.5385935069
C  C13  1  0.62230000  0.93140000  0.79600000  1.0 -0.0108634836
C  C14  1  0.45870000  0.83360000  0.78880000  1.0 -0.138947826
C  C15  1  0.57700000  0.91610000  0.71030000  1.0 -0.091003243
C  C16  1  0.41090000  0.82180000  0.70390000  1.0 0.0722719091
C  C17  1  0.47290000  0.86270000  0.66500000  1.0 -0.1600090354
C  C18  1  0.03890000  0.83640000  0.89250000  1.0 0.6061835052
C  C19  1  0.09840000  0.81630000  0.82640000  1.0 -0.0108634836
C  C20  1  0.15700000  0.89340000  0.81780000  1.0 -0.079401861
C  C21  1  0.09920000  0.71850000  0.77520000  1.0 -0.079401861
C  C22  1  0.21960000  0.87220000  0.76280000  1.0 -0.1330659068
C  C23  1  0.22280000  0.77500000  0.71400000  1.0 0.0722719091
C  C24  1  0.15860000  0.69810000  0.71900000  1.0 -0.138947826
C  C25  1  0.29710000  0.75740000  0.65550000  1.0 -0.2729479312
C  C26  1  0.31970000  0.64790000  0.62550000  1.0 0.6607033075
C  C27  1  0.73000000  0.71210000  0.75730000  1.0 -0.569119358
C  C28  1  0.68810000  0.58580000  0.59560000  1.0 -0.34268959
C  C29  1  0.80060000  0.46110000  0.65370000  1.0 -0.4799997448
C  C30  1  0.34300000  0.31490000  0.70140000  1.0 0.0722719091
C  C31  1  0.19300000  0.41380000  0.70920000  1.0 -0.091003243
C  C32  1  0.13960000  0.48540000  0.84150000  1.0 0.5385935069
C  C33  1  0.21210000  0.42570000  0.79420000  1.0 -0.015884181
C  C34  1  0.36040000  0.32460000  0.78620000  1.0 -0.1330659068
C  C35  1  0.25820000  0.35880000  0.66280000  1.0 -0.1600090354
C  C36  1  0.41690000  0.24980000  0.65310000  1.0 -0.2766364454
C  C37  1  0.29640000  0.38030000  0.83160000  1.0 -0.079401861
C  C38  1  0.23490000  0.78550000  0.57860000  1.0 0.6656152965
C  C39  1  0.00800000  0.89290000  0.26460000  1.0 0.4798840643
C  C40  1  0.36460000  0.13940000  0.62570000  1.0 0.6656152965
C  C41  1  0.42010000  0.27510000  0.57630000  1.0 0.6607033075
C  C42  1  0.77750000  0.60120000  0.73890000  1.0 0.5155969025
C  C43  1  0.46140000  0.73040000  0.28650000  1.0 0.0722719091
C  C44  1  0.13360000  0.66590000  0.10820000  1.0 0.6016728641
C  C45  1  0.24690000  0.68850000  0.17390000  1.0 -0.0108634836
C  C46  1  0.28970000  0.78620000  0.22480000  1.0 -0.079401861
C  C47  1  0.39610000  0.80700000  0.28080000  1.0 -0.1481963782
C  C48  1  0.41550000  0.63200000  0.23770000  1.0 -0.138947826
C  C49  1  0.30900000  0.61060000  0.18250000  1.0 -0.079401861
C  C50  1  0.90640000  0.08560000  0.58460000  1.0 -0.34268959
C  C51  1  0.01360000  0.22730000  0.73950000  1.0 -0.6086588143
C  C52  1  0.91920000  0.94570000  0.65720000  1.0 -0.4462820529
C  C53  1  0.43760000  0.11090000  0.16620000  1.0 -0.091003243
C  C54  1  0.26330000  0.01150000  0.15570000  1.0 0.5385935069
C  C55  1  0.37770000  0.06860000  0.20400000  1.0 -0.0108634836
C  C56  1  0.54130000  0.16640000  0.21120000  1.0 -0.138947826
C  C57  1  0.42300000  0.08390000  0.28970000  1.0 -0.091003243
C  C58  1  0.58910000  0.17820000  0.29610000  1.0 0.0722719091
C  C59  1  0.52710000  0.13730000  0.33500000  1.0 -0.1600090354
C  C60  1  0.96110000  0.16360000  0.10750000  1.0 0.6061835052
C  C61  1  0.90160000  0.18370000  0.17360000  1.0 -0.0108634836
C  C62  1  0.84300000  0.10660000  0.18220000  1.0 -0.079401861
C  C63  1  0.90080000  0.28150000  0.22480000  1.0 -0.079401861
C  C64  1  0.78040000  0.12780000  0.23720000  1.0 -0.1330659068
C  C65  1  0.77720000  0.22500000  0.28600000  1.0 0.0722719091
C  C66  1  0.84140000  0.30190000  0.28100000  1.0 -0.138947826
C  C67  1  0.70290000  0.24260000  0.34450000  1.0 -0.2729479312
C  C68  1  0.68030000  0.35210000  0.37450000  1.0 0.6607033075
C  C69  1  0.27000000  0.28790000  0.24270000  1.0 -0.569119358
C  C70  1  0.31190000  0.41420000  0.40440000  1.0 -0.34268959
C  C71  1  0.19940000  0.53890000  0.34630000  1.0 -0.4799997448
C  C72  1  0.65700000  0.68510000  0.29860000  1.0 0.0722719091
C  C73  1  0.80700000  0.58620000  0.29080000  1.0 -0.091003243
C  C74  1  0.86040000  0.51460000  0.15850000  1.0 0.5385935069
C  C75  1  0.78790000  0.57430000  0.20580000  1.0 -0.015884181
C  C76  1  0.63960000  0.67540000  0.21380000  1.0 -0.1330659068
C  C77  1  0.74180000  0.64120000  0.33720000  1.0 -0.1600090354
C  C78  1  0.58310000  0.75020000  0.34690000  1.0 -0.2766364454
C  C79  1  0.70360000  0.61970000  0.16840000  1.0 -0.079401861
C  C80  1  0.76510000  0.21450000  0.42140000  1.0 0.6656152965
C  C81  1  0.99200000  0.10710000  0.73540000  1.0 0.4798840643
C  C82  1  0.63540000  0.86060000  0.37430000  1.0 0.6656152965
C  C83  1  0.57990000  0.72490000  0.42370000  1.0 0.6607033075
C  C84  1  0.22250000  0.39880000  0.26110000  1.0 0.5155969025
N  N1  1  0.75080000  0.57420000  0.67480000  1.0 0.048742509
N  N2  1  0.05000000  0.93310000  0.33410000  1.0 0.0274412469
N  N3  1  0.24920000  0.42580000  0.32520000  1.0 0.048742509
N  N4  1  0.95000000  0.06690000  0.66590000  1.0 0.0274412469
O  O1  1  0.16930000  0.50820000  0.92060000  1.0 -0.5231554348
O  O2  1  0.05270000  0.50800000  0.80020000  1.0 -0.5832350491
O  O3  1  0.01240000  0.92340000  0.92100000  1.0 -0.6086588143
O  O4  1  0.98080000  0.91240000  0.20140000  1.0 -0.5231554348
O  O5  1  0.82400000  0.58400000  0.80150000  1.0 -0.5231554348
O  O6  1  0.91710000  0.42140000  0.92050000  1.0 -0.6086588143
O  O7  1  0.90350000  0.26400000  0.91770000  1.0 -0.6331382035
O  O8  1  0.79320000  0.00830000  0.80130000  1.0 -0.6043327092
O  O9  1  0.77030000  0.01330000  0.92410000  1.0 -0.5337723433
O  O10  1  0.02360000  0.76650000  0.92010000  1.0 -0.638742411
O  O11  1  0.81960000  0.87770000  0.00760000  1.0 -0.2291743843
O  O12  1  0.82290000  0.62800000  0.99500000  1.0 -0.1970686524
O  O13  1  0.83070000  0.49180000  0.07940000  1.0 -0.5231554348
O  O14  1  0.94730000  0.49200000  0.19980000  1.0 -0.5832350491
O  O15  1  0.98760000  0.07660000  0.07900000  1.0 -0.6043327092
O  O16  1  0.01920000  0.08760000  0.79860000  1.0 -0.5231554348
O  O17  1  0.17600000  0.41600000  0.19850000  1.0 -0.5231554348
O  O18  1  0.08290000  0.57860000  0.07950000  1.0 -0.6086588143
O  O19  1  0.09650000  0.73600000  0.08230000  1.0 -0.6331382035
O  O20  1  0.20680000  0.99170000  0.19870000  1.0 -0.6043327092
O  O21  1  0.22970000  0.98670000  0.07590000  1.0 -0.5337723433
O  O22  1  0.97640000  0.23350000  0.07990000  1.0 -0.638742411
O  O23  1  0.18040000  0.12230000  0.99240000  1.0 -0.2291743843
O  O24  1  0.17710000  0.37200000  0.00500000  1.0 -0.2072423934
F  F1  1  0.37870000  0.10650000  0.69190000  1.0 -0.188379308
F  F2  1  0.40690000  0.07440000  0.57180000  1.0 -0.188379308
F  F3  1  0.25620000  0.12740000  0.58730000  1.0 -0.188379308
F  F4  1  0.49810000  0.23080000  0.54480000  1.0 -0.1815534173
F  F5  1  0.32430000  0.24190000  0.51160000  1.0 -0.1970686524
F  F6  1  0.44150000  0.37390000  0.59340000  1.0 -0.1815534173
F  F7  1  0.22960000  0.58450000  0.57220000  1.0 -0.1970686524
F  F8  1  0.39420000  0.63720000  0.58340000  1.0 -0.188379308
F  F9  1  0.35950000  0.61580000  0.68990000  1.0 -0.1815534173
F  F10  1  0.23200000  0.88510000  0.59770000  1.0 -0.188379308
F  F11  1  0.27720000  0.75650000  0.51320000  1.0 -0.188379308
F  F12  1  0.12870000  0.74290000  0.54610000  1.0 -0.1815534173
F  F13  1  0.62130000  0.89350000  0.30810000  1.0 -0.188379308
F  F14  1  0.59310000  0.92560000  0.42820000  1.0 -0.188379308
F  F15  1  0.74380000  0.87260000  0.41270000  1.0 -0.188379308
F  F16  1  0.50190000  0.76920000  0.45520000  1.0 -0.1815534173
F  F17  1  0.67570000  0.75810000  0.48840000  1.0 -0.1970686524
F  F18  1  0.55850000  0.62610000  0.40660000  1.0 -0.1815534173
F  F19  1  0.77040000  0.41550000  0.42780000  1.0 -0.1970686524
F  F20  1  0.60580000  0.36280000  0.41660000  1.0 -0.188379308
F  F21  1  0.64050000  0.38420000  0.31010000  1.0 -0.1815534173
F  F22  1  0.76800000  0.11490000  0.40230000  1.0 -0.188379308
F  F23  1  0.72280000  0.24350000  0.48680000  1.0 -0.188379308
F  F24  1  0.87130000  0.25710000  0.45390000  1.0 -0.188379308
