# DDEC6 charges by PACMAN v1.1 (https://github.com/mtap-research/PACMAN-charge/)
data_OHUMEL_ASR_pacman
_symmetry_space_group_name_H-M   'P 1'
_cell_length_a   42.37290000
_cell_length_b   42.37290000
_cell_length_c   42.37290000
_cell_angle_alpha   109.47100000
_cell_angle_beta   109.47100000
_cell_angle_gamma   109.47100000
_symmetry_Int_Tables_number   1
_chemical_formula_structural   Zn4Mo12PH20(CO)36
_chemical_formula_sum   'Zn48 Mo144 P12 H240 C432 O432'
_cell_volume   58566.08874080
_cell_formula_units_Z   12
loop_
 _symmetry_equiv_pos_site_id
 _symmetry_equiv_pos_as_xyz
  1  'x, y, z'
loop_
 _atom_site_type_symbol
 _atom_site_label
 _atom_site_symmetry_multiplicity
 _atom_site_fract_x
 _atom_site_fract_y
 _atom_site_fract_z
 _atom_site_occupancy
 _atom_site_charge
Zn  Zn1  1  0.11262000  0.68588000  0.91638000  1.0 1.0041652962
Zn  Zn2  1  0.26950000  0.19624000  0.58362000  1.0 1.0041652962
Zn  Zn3  1  0.23050000  0.81412000  0.92674000  1.0 1.0041652962
Zn  Zn4  1  0.38738000  0.30376000  0.57326000  1.0 1.0041652962
Zn  Zn5  1  0.68588000  0.91638000  0.11262000  1.0 1.0061521436
Zn  Zn6  1  0.91638000  0.11262000  0.68588000  1.0 1.0041652962
Zn  Zn7  1  0.30376000  0.57326000  0.38738000  1.0 1.0041652962
Zn  Zn8  1  0.58362000  0.26950000  0.19624000  1.0 1.0061521436
Zn  Zn9  1  0.19624000  0.58362000  0.26950000  1.0 1.0041652962
Zn  Zn10  1  0.92674000  0.23050000  0.81412000  1.0 1.0041652962
Zn  Zn11  1  0.81412000  0.92674000  0.23050000  1.0 1.0041652962
Zn  Zn12  1  0.57326000  0.38738000  0.30376000  1.0 1.0041652962
Zn  Zn13  1  0.18588000  0.61262000  0.41638000  1.0 1.0041652962
Zn  Zn14  1  0.69624000  0.76950000  0.08362000  1.0 1.0061521436
Zn  Zn15  1  0.31412000  0.73050000  0.42674000  1.0 1.0041652962
Zn  Zn16  1  0.80376000  0.88738000  0.07326000  1.0 1.0061521436
Zn  Zn17  1  0.41638000  0.18588000  0.61262000  1.0 1.0041652962
Zn  Zn18  1  0.61262000  0.41638000  0.18588000  1.0 1.0061521436
Zn  Zn19  1  0.07326000  0.80376000  0.88738000  1.0 1.0041652962
Zn  Zn20  1  0.76950000  0.08362000  0.69624000  1.0 1.0041652962
Zn  Zn21  1  0.08362000  0.69624000  0.76950000  1.0 1.0041652962
Zn  Zn22  1  0.73050000  0.42674000  0.31412000  1.0 1.0061521436
Zn  Zn23  1  0.42674000  0.31412000  0.73050000  1.0 1.0041652962
Zn  Zn24  1  0.88738000  0.07326000  0.80376000  1.0 1.0041652962
Zn  Zn25  1  0.81412000  0.38738000  0.58362000  1.0 1.0041652962
Zn  Zn26  1  0.30376000  0.23050000  0.91638000  1.0 1.0041652962
Zn  Zn27  1  0.68588000  0.26950000  0.57326000  1.0 1.0041652962
Zn  Zn28  1  0.19624000  0.11262000  0.92674000  1.0 1.0041652962
Zn  Zn29  1  0.58362000  0.81412000  0.38738000  1.0 1.0041652962
Zn  Zn30  1  0.38738000  0.58362000  0.81412000  1.0 1.0041652962
Zn  Zn31  1  0.92674000  0.19624000  0.11262000  1.0 1.0061521436
Zn  Zn32  1  0.23050000  0.91638000  0.30376000  1.0 1.0041652962
Zn  Zn33  1  0.91638000  0.30376000  0.23050000  1.0 1.0061521436
Zn  Zn34  1  0.26950000  0.57326000  0.68588000  1.0 1.0041652962
Zn  Zn35  1  0.57326000  0.68588000  0.26950000  1.0 1.0041652962
Zn  Zn36  1  0.11262000  0.92674000  0.19624000  1.0 1.0041652962
Zn  Zn37  1  0.88738000  0.31412000  0.08362000  1.0 1.0061521436
Zn  Zn38  1  0.73050000  0.80376000  0.41638000  1.0 1.0041652962
Zn  Zn39  1  0.76950000  0.18588000  0.07326000  1.0 1.0061521436
Zn  Zn40  1  0.61262000  0.69624000  0.42674000  1.0 1.0041652962
Zn  Zn41  1  0.31412000  0.08362000  0.88738000  1.0 1.0041652962
Zn  Zn42  1  0.08362000  0.88738000  0.31412000  1.0 1.0041652962
Zn  Zn43  1  0.69624000  0.42674000  0.61262000  1.0 1.0041652962
Zn  Zn44  1  0.41638000  0.73050000  0.80376000  1.0 1.0041652962
Zn  Zn45  1  0.80376000  0.41638000  0.73050000  1.0 1.0041652962
Zn  Zn46  1  0.07326000  0.76950000  0.18588000  1.0 1.0041652962
Zn  Zn47  1  0.18588000  0.07326000  0.76950000  1.0 1.0041652962
Zn  Zn48  1  0.42674000  0.61262000  0.69624000  1.0 1.0041652962
Mo  Mo1  1  0.10154000  0.76851000  0.95339000  1.0 1.8405685037
Mo  Mo2  1  0.31512000  0.14815000  0.54661000  1.0 1.8405685037
Mo  Mo3  1  0.18488000  0.73149000  0.83303000  1.0 1.8405685037
Mo  Mo4  1  0.39846000  0.35185000  0.66697000  1.0 1.8405685037
Mo  Mo5  1  0.76851000  0.95339000  0.10154000  1.0 1.8405685037
Mo  Mo6  1  0.95339000  0.10154000  0.76851000  1.0 1.8405685037
Mo  Mo7  1  0.35185000  0.66697000  0.39846000  1.0 1.8405685037
Mo  Mo8  1  0.54661000  0.31512000  0.14815000  1.0 1.8470062639
Mo  Mo9  1  0.14815000  0.54661000  0.31512000  1.0 1.8405685037
Mo  Mo10  1  0.83303000  0.18488000  0.73149000  1.0 1.8405685037
Mo  Mo11  1  0.73149000  0.83303000  0.18488000  1.0 1.8405685037
Mo  Mo12  1  0.66697000  0.39846000  0.35185000  1.0 1.8405685037
Mo  Mo13  1  0.26851000  0.60154000  0.45339000  1.0 1.8405685037
Mo  Mo14  1  0.64815000  0.81512000  0.04661000  1.0 1.8405685037
Mo  Mo15  1  0.23149000  0.68488000  0.33303000  1.0 1.8405685037
Mo  Mo16  1  0.85185000  0.89846000  0.16697000  1.0 1.8470062639
Mo  Mo17  1  0.45339000  0.26851000  0.60154000  1.0 1.8405685037
Mo  Mo18  1  0.60154000  0.45339000  0.26851000  1.0 1.8405685037
Mo  Mo19  1  0.16697000  0.85185000  0.89846000  1.0 1.8405685037
Mo  Mo20  1  0.81512000  0.04661000  0.64815000  1.0 1.8405685037
Mo  Mo21  1  0.04661000  0.64815000  0.81512000  1.0 1.8405685037
Mo  Mo22  1  0.68488000  0.33303000  0.23149000  1.0 1.8470062639
Mo  Mo23  1  0.33303000  0.23149000  0.68488000  1.0 1.8405685037
Mo  Mo24  1  0.89846000  0.16697000  0.85185000  1.0 1.8470062639
Mo  Mo25  1  0.19131000  0.78008000  0.97671000  1.0 2.0607503473
Mo  Mo26  1  0.30338000  0.21460000  0.52329000  1.0 2.0607503473
Mo  Mo27  1  0.19662000  0.71992000  0.91122000  1.0 2.0607503473
Mo  Mo28  1  0.30870000  0.28540000  0.58878000  1.0 2.0607503473
Mo  Mo29  1  0.78008000  0.97671000  0.19131000  1.0 2.0607503473
Mo  Mo30  1  0.97671000  0.19130000  0.78008000  1.0 2.0607503473
Mo  Mo31  1  0.28540000  0.58878000  0.30869000  1.0 2.0607503473
Mo  Mo32  1  0.52329000  0.30338000  0.21460000  1.0 2.0607503473
Mo  Mo33  1  0.21460000  0.52329000  0.30338000  1.0 2.0607503473
Mo  Mo34  1  0.91122000  0.19662000  0.71992000  1.0 2.0607503473
Mo  Mo35  1  0.71992000  0.91122000  0.19662000  1.0 2.0607503473
Mo  Mo36  1  0.58878000  0.30869000  0.28540000  1.0 2.0607503473
Mo  Mo37  1  0.28008000  0.69130000  0.47670000  1.0 2.0699122679
Mo  Mo38  1  0.71460000  0.80337000  0.02329000  1.0 2.0699122679
Mo  Mo39  1  0.21992000  0.69662000  0.41123000  1.0 2.0607503473
Mo  Mo40  1  0.78540000  0.80870000  0.08878000  1.0 2.0607503473
Mo  Mo41  1  0.47670000  0.28008000  0.69130000  1.0 2.0607503473
Mo  Mo42  1  0.69130000  0.47670000  0.28008000  1.0 2.0699122679
Mo  Mo43  1  0.08877000  0.78540000  0.80870000  1.0 2.0699122679
Mo  Mo44  1  0.80337000  0.02329000  0.71460000  1.0 2.0607503473
Mo  Mo45  1  0.02329000  0.71460000  0.80337000  1.0 2.0607503473
Mo  Mo46  1  0.69663000  0.41123000  0.21992000  1.0 2.0607503473
Mo  Mo47  1  0.41123000  0.21992000  0.69663000  1.0 2.0607503473
Mo  Mo48  1  0.80870000  0.08878000  0.78540000  1.0 2.0699122679
Mo  Mo49  1  0.17354000  0.84737000  0.95921000  1.0 1.9270727937
Mo  Mo50  1  0.38816000  0.21433000  0.54079000  1.0 1.9270727937
Mo  Mo51  1  0.11184000  0.65263000  0.82617000  1.0 1.9239195253
Mo  Mo52  1  0.32646000  0.28567000  0.67383000  1.0 1.9270727937
Mo  Mo53  1  0.84737000  0.95921000  0.17354000  1.0 1.9270727937
Mo  Mo54  1  0.95921000  0.17354000  0.84737000  1.0 1.9270727937
Mo  Mo55  1  0.28567000  0.67383000  0.32646000  1.0 1.9270727937
Mo  Mo56  1  0.54079000  0.38816000  0.21433000  1.0 1.9270727937
Mo  Mo57  1  0.21433000  0.54079000  0.38816000  1.0 1.9270727937
Mo  Mo58  1  0.82617000  0.11184000  0.65263000  1.0 1.9270727937
Mo  Mo59  1  0.65263000  0.82617000  0.11184000  1.0 1.9270727937
Mo  Mo60  1  0.67383000  0.32646000  0.28567000  1.0 1.9270727937
Mo  Mo61  1  0.34737000  0.67354000  0.45921000  1.0 1.9270727937
Mo  Mo62  1  0.71433000  0.88816000  0.04079000  1.0 1.9270727937
Mo  Mo63  1  0.15263000  0.61184000  0.32617000  1.0 1.9270727937
Mo  Mo64  1  0.78567000  0.82646000  0.17383000  1.0 1.9270727937
Mo  Mo65  1  0.45921000  0.34737000  0.67354000  1.0 1.9270727937
Mo  Mo66  1  0.67354000  0.45921000  0.34737000  1.0 1.9270727937
Mo  Mo67  1  0.17383000  0.78567000  0.82646000  1.0 1.9270727937
Mo  Mo68  1  0.88816000  0.04079000  0.71433000  1.0 1.9270727937
Mo  Mo69  1  0.04079000  0.71433000  0.88816000  1.0 1.9270727937
Mo  Mo70  1  0.61184000  0.32617000  0.15263000  1.0 1.9270727937
Mo  Mo71  1  0.32617000  0.15263000  0.61184000  1.0 1.9270727937
Mo  Mo72  1  0.82646000  0.17383000  0.78567000  1.0 1.9270727937
Mo  Mo73  1  0.73149000  0.39846000  0.54661000  1.0 1.8405685037
Mo  Mo74  1  0.35185000  0.18488000  0.95339000  1.0 1.8405685037
Mo  Mo75  1  0.76851000  0.31512000  0.66697000  1.0 1.8405685037
Mo  Mo76  1  0.14815000  0.10154000  0.83303000  1.0 1.8405685037
Mo  Mo77  1  0.54661000  0.73149000  0.39846000  1.0 1.8405685037
Mo  Mo78  1  0.39846000  0.54661000  0.73149000  1.0 1.8405685037
Mo  Mo79  1  0.83303000  0.14815000  0.10154000  1.0 1.8405685037
Mo  Mo80  1  0.18488000  0.95339000  0.35185000  1.0 1.8405685037
Mo  Mo81  1  0.95339000  0.35185000  0.18488000  1.0 1.8405685037
Mo  Mo82  1  0.31512000  0.66697000  0.76851000  1.0 1.8405685037
Mo  Mo83  1  0.66697000  0.76851000  0.31512000  1.0 1.8405685037
Mo  Mo84  1  0.10154000  0.83303000  0.14815000  1.0 1.8405685037
Mo  Mo85  1  0.89846000  0.23149000  0.04661000  1.0 1.8405685037
Mo  Mo86  1  0.68488000  0.85185000  0.45339000  1.0 1.8470062639
Mo  Mo87  1  0.81512000  0.26851000  0.16697000  1.0 1.8405685037
Mo  Mo88  1  0.60154000  0.64815000  0.33303000  1.0 1.8405685037
Mo  Mo89  1  0.23149000  0.04661000  0.89846000  1.0 1.8405685037
Mo  Mo90  1  0.04661000  0.89846000  0.23149000  1.0 1.8405685037
Mo  Mo91  1  0.64815000  0.33303000  0.60154000  1.0 1.8405685037
Mo  Mo92  1  0.45339000  0.68488000  0.85185000  1.0 1.8405685037
Mo  Mo93  1  0.85185000  0.45339000  0.68488000  1.0 1.8405685037
Mo  Mo94  1  0.16697000  0.81512000  0.26851000  1.0 1.8405685037
Mo  Mo95  1  0.26851000  0.16697000  0.81512000  1.0 1.8405685037
Mo  Mo96  1  0.33303000  0.60154000  0.64815000  1.0 1.8405685037
Mo  Mo97  1  0.71992000  0.30869000  0.52329000  1.0 2.0607503473
Mo  Mo98  1  0.28540000  0.19663000  0.97671000  1.0 2.0607503473
Mo  Mo99  1  0.78008000  0.30338000  0.58878000  1.0 2.0607503473
Mo  Mo100  1  0.21460000  0.19130000  0.91122000  1.0 2.0607503473
Mo  Mo101  1  0.52329000  0.71992000  0.30869000  1.0 2.0699122679
Mo  Mo102  1  0.30870000  0.52329000  0.71992000  1.0 2.0607503473
Mo  Mo103  1  0.91122000  0.21460000  0.19131000  1.0 2.0607503473
Mo  Mo104  1  0.19662000  0.97671000  0.28540000  1.0 2.0607503473
Mo  Mo105  1  0.97671000  0.28540000  0.19662000  1.0 2.0607503473
Mo  Mo106  1  0.30337000  0.58878000  0.78008000  1.0 2.0607503473
Mo  Mo107  1  0.58878000  0.78008000  0.30338000  1.0 2.0607503473
Mo  Mo108  1  0.19131000  0.91122000  0.21460000  1.0 2.0607503473
Mo  Mo109  1  0.80870000  0.21992000  0.02329000  1.0 2.0607503473
Mo  Mo110  1  0.69662000  0.78540000  0.47670000  1.0 2.0607503473
Mo  Mo111  1  0.80337000  0.28008000  0.08878000  1.0 2.0699122679
Mo  Mo112  1  0.69130000  0.71460000  0.41123000  1.0 2.0607503473
Mo  Mo113  1  0.21992000  0.02329000  0.80870000  1.0 2.0699122679
Mo  Mo114  1  0.02329000  0.80870000  0.21992000  1.0 2.0607503473
Mo  Mo115  1  0.71460000  0.41123000  0.69130000  1.0 2.0607503473
Mo  Mo116  1  0.47670000  0.69663000  0.78540000  1.0 2.0607503473
Mo  Mo117  1  0.78540000  0.47670000  0.69663000  1.0 2.0607503473
Mo  Mo118  1  0.08878000  0.80337000  0.28008000  1.0 2.0699122679
Mo  Mo119  1  0.28008000  0.08877000  0.80337000  1.0 2.0607503473
Mo  Mo120  1  0.41122000  0.69130000  0.71460000  1.0 2.0607503473
Mo  Mo121  1  0.65263000  0.32646000  0.54079000  1.0 1.9270727937
Mo  Mo122  1  0.28567000  0.11184000  0.95921000  1.0 1.9270727937
Mo  Mo123  1  0.84737000  0.38816000  0.67383000  1.0 1.9270727937
Mo  Mo124  1  0.21433000  0.17354000  0.82617000  1.0 1.9270727937
Mo  Mo125  1  0.54079000  0.65263000  0.32646000  1.0 1.9270727937
Mo  Mo126  1  0.32646000  0.54079000  0.65263000  1.0 1.9270727937
Mo  Mo127  1  0.82617000  0.21433000  0.17354000  1.0 1.9270727937
Mo  Mo128  1  0.11184000  0.95921000  0.28567000  1.0 1.9270727937
Mo  Mo129  1  0.95921000  0.28567000  0.11184000  1.0 1.9270727937
Mo  Mo130  1  0.38816000  0.67383000  0.84737000  1.0 1.9270727937
Mo  Mo131  1  0.67383000  0.84737000  0.38816000  1.0 1.9270727937
Mo  Mo132  1  0.17354000  0.82617000  0.21433000  1.0 1.9270727937
Mo  Mo133  1  0.82646000  0.15263000  0.04079000  1.0 1.9270727937
Mo  Mo134  1  0.61184000  0.78567000  0.45921000  1.0 1.9270727937
Mo  Mo135  1  0.88816000  0.34737000  0.17383000  1.0 1.9270727937
Mo  Mo136  1  0.67354000  0.71433000  0.32617000  1.0 1.9270727937
Mo  Mo137  1  0.15263000  0.04079000  0.82646000  1.0 1.9270727937
Mo  Mo138  1  0.04079000  0.82646000  0.15263000  1.0 1.9270727937
Mo  Mo139  1  0.71433000  0.32617000  0.67354000  1.0 1.9270727937
Mo  Mo140  1  0.45921000  0.61184000  0.78567000  1.0 1.9270727937
Mo  Mo141  1  0.78567000  0.45921000  0.61184000  1.0 1.9270727937
Mo  Mo142  1  0.17383000  0.88816000  0.34737000  1.0 1.9270727937
Mo  Mo143  1  0.34737000  0.17383000  0.88816000  1.0 1.9270727937
Mo  Mo144  1  0.32617000  0.67354000  0.71433000  1.0 1.9270727937
P  P1  1  0.12500000  0.75000000  0.87500000  1.0 1.3888446356
P  P2  1  0.37500000  0.25000000  0.62500000  1.0 1.3888446356
P  P3  1  0.75000000  0.87500000  0.12500000  1.0 1.3888446356
P  P4  1  0.87500000  0.12500000  0.75000000  1.0 1.3888446356
P  P5  1  0.25000000  0.62500000  0.37500000  1.0 1.3888446356
P  P6  1  0.62500000  0.37500000  0.25000000  1.0 1.3888446356
P  P7  1  0.75000000  0.37500000  0.62500000  1.0 1.3888446356
P  P8  1  0.25000000  0.12500000  0.87500000  1.0 1.3888446356
P  P9  1  0.62500000  0.75000000  0.37500000  1.0 1.3888446356
P  P10  1  0.37500000  0.62500000  0.75000000  1.0 1.3888446356
P  P11  1  0.87500000  0.25000000  0.12500000  1.0 1.3888446356
P  P12  1  0.12500000  0.87500000  0.25000000  1.0 1.3888446356
H  H1  1  0.01140000  0.56800000  0.90260000  1.0 0.0998697789
H  H2  1  0.16540000  0.10880000  0.59740000  1.0 0.0998697789
H  H3  1  0.33460000  0.93200000  0.94340000  1.0 0.0998697789
H  H4  1  0.48860000  0.39120000  0.55660000  1.0 0.0998697789
H  H5  1  0.56800000  0.90260000  0.01140000  1.0 0.0998697789
H  H6  1  0.90260000  0.01140000  0.56800000  1.0 0.0998697789
H  H7  1  0.39120000  0.55660000  0.48860000  1.0 0.0998697789
H  H8  1  0.59740000  0.16540000  0.10880000  1.0 0.0998697789
H  H9  1  0.10880000  0.59740000  0.16540000  1.0 0.0998697789
H  H10  1  0.94340000  0.33460000  0.93200000  1.0 0.0998697789
H  H11  1  0.93200000  0.94340000  0.33460000  1.0 0.0998697789
H  H12  1  0.55660000  0.48860000  0.39120000  1.0 0.0998697789
H  H13  1  0.06800000  0.51140000  0.40260000  1.0 0.0998697789
H  H14  1  0.60880000  0.66540000  0.09740000  1.0 0.0998697789
H  H15  1  0.43200000  0.83460000  0.44340000  1.0 0.0998697789
H  H16  1  0.89120000  0.98860000  0.05660000  1.0 0.0998697789
H  H17  1  0.40260000  0.06800000  0.51140000  1.0 0.0998697789
H  H18  1  0.51140000  0.40260000  0.06800000  1.0 0.0998697789
H  H19  1  0.05660000  0.89120000  0.98860000  1.0 0.0998697789
H  H20  1  0.66540000  0.09740000  0.60880000  1.0 0.0998697789
H  H21  1  0.09740000  0.60880000  0.66540000  1.0 0.0998697789
H  H22  1  0.83460000  0.44340000  0.43200000  1.0 0.0998697789
H  H23  1  0.44340000  0.43200000  0.83460000  1.0 0.0998697789
H  H24  1  0.98860000  0.05660000  0.89120000  1.0 0.0998697789
H  H25  1  0.11820000  0.63330000  0.98390000  1.0 0.0998697789
H  H26  1  0.14940000  0.13430000  0.51610000  1.0 0.0998697789
H  H27  1  0.35060000  0.86670000  0.98490000  1.0 0.0998697789
H  H28  1  0.38180000  0.36570000  0.51510000  1.0 0.0998697789
H  H29  1  0.63330000  0.98390000  0.11820000  1.0 0.0998697789
H  H30  1  0.98390000  0.11820000  0.63330000  1.0 0.0998697789
H  H31  1  0.36570000  0.51510000  0.38180000  1.0 0.0998697789
H  H32  1  0.51610000  0.14940000  0.13430000  1.0 0.0998697789
H  H33  1  0.13430000  0.51610000  0.14940000  1.0 0.0998697789
H  H34  1  0.98490000  0.35060000  0.86670000  1.0 0.0998697789
H  H35  1  0.86670000  0.98490000  0.35060000  1.0 0.0998697789
H  H36  1  0.51510000  0.38180000  0.36570000  1.0 0.0998697789
H  H37  1  0.13330000  0.61820000  0.48390000  1.0 0.0998697789
H  H38  1  0.63430000  0.64940000  0.01610000  1.0 0.0998697789
H  H39  1  0.36670000  0.85060000  0.48490000  1.0 0.0998697789
H  H40  1  0.86570000  0.88180000  0.01510000  1.0 0.0998697789
H  H41  1  0.48390000  0.13330000  0.61820000  1.0 0.0998697789
H  H42  1  0.61820000  0.48390000  0.13330000  1.0 0.0998697789
H  H43  1  0.01510000  0.86570000  0.88180000  1.0 0.0998697789
H  H44  1  0.64940000  0.01610000  0.63430000  1.0 0.0998697789
H  H45  1  0.01610000  0.63430000  0.64940000  1.0 0.0998697789
H  H46  1  0.85060000  0.48490000  0.36670000  1.0 0.0998697789
H  H47  1  0.48490000  0.36670000  0.85060000  1.0 0.0998697789
H  H48  1  0.88180000  0.01510000  0.86570000  1.0 0.0998697789
H  H49  1  0.99850000  0.52520000  0.92750000  1.0 0.0883590931
H  H50  1  0.09770000  0.07100000  0.57250000  1.0 0.0883590931
H  H51  1  0.40230000  0.97480000  0.97330000  1.0 0.0883590931
H  H52  1  0.50150000  0.42900000  0.52670000  1.0 0.0883590931
H  H53  1  0.52520000  0.92750000  0.99850000  1.0 0.0883590931
H  H54  1  0.92750000  0.99850000  0.52520000  1.0 0.0883590931
H  H55  1  0.42900000  0.52670000  0.50150000  1.0 0.0883590931
H  H56  1  0.57250000  0.09770000  0.07100000  1.0 0.0883590931
H  H57  1  0.07100000  0.57250000  0.09770000  1.0 0.0883590931
H  H58  1  0.97330000  0.40230000  0.97480000  1.0 0.0883590931
H  H59  1  0.97480000  0.97330000  0.40230000  1.0 0.0883590931
H  H60  1  0.52670000  0.50150000  0.42900000  1.0 0.0883590931
H  H61  1  0.02520000  0.49850000  0.42750000  1.0 0.0883590931
H  H62  1  0.57100000  0.59770000  0.07250000  1.0 0.0883590931
H  H63  1  0.47480000  0.90230000  0.47330000  1.0 0.0883590931
H  H64  1  0.92900000  0.00150000  0.02670000  1.0 0.0883590931
H  H65  1  0.42750000  0.02520000  0.49850000  1.0 0.0883590931
H  H66  1  0.49850000  0.42750000  0.02520000  1.0 0.0883590931
H  H67  1  0.02670000  0.92900000  0.00150000  1.0 0.0883590931
H  H68  1  0.59770000  0.07250000  0.57100000  1.0 0.0883590931
H  H69  1  0.07250000  0.57100000  0.59770000  1.0 0.0883590931
H  H70  1  0.90230000  0.47330000  0.47480000  1.0 0.0883590931
H  H71  1  0.47330000  0.47480000  0.90230000  1.0 0.0883590931
H  H72  1  0.00150000  0.02670000  0.92900000  1.0 0.0883590931
H  H73  1  0.11140000  0.58880000  0.00800000  1.0 0.0998697789
H  H74  1  0.08080000  0.10340000  0.49200000  1.0 0.0998697789
H  H75  1  0.41920000  0.91120000  0.02260000  1.0 0.0998697789
H  H76  1  0.38860000  0.39660000  0.47740000  1.0 0.0998697789
H  H77  1  0.58880000  0.00800000  0.11140000  1.0 0.0998697789
H  H78  1  0.00800000  0.11140000  0.58880000  1.0 0.0998697789
H  H79  1  0.39660000  0.47740000  0.38860000  1.0 0.0998697789
H  H80  1  0.49200000  0.08080000  0.10340000  1.0 0.0998697789
H  H81  1  0.10340000  0.49200000  0.08080000  1.0 0.0998697789
H  H82  1  0.02260000  0.41920000  0.91120000  1.0 0.0998697789
H  H83  1  0.91120000  0.02260000  0.41920000  1.0 0.0998697789
H  H84  1  0.47740000  0.38860000  0.39660000  1.0 0.0998697789
H  H85  1  0.08880000  0.61140000  0.50800000  1.0 0.0998697789
H  H86  1  0.60340000  0.58080000  0.99200000  1.0 0.0998697789
H  H87  1  0.41120000  0.91920000  0.52260000  1.0 0.0998697789
H  H88  1  0.89660000  0.88860000  0.97740000  1.0 0.0998697789
H  H89  1  0.50800000  0.08880000  0.61140000  1.0 0.0998697789
H  H90  1  0.61140000  0.50800000  0.08880000  1.0 0.0998697789
H  H91  1  0.97740000  0.89660000  0.88860000  1.0 0.0998697789
H  H92  1  0.58080000  0.99200000  0.60340000  1.0 0.0998697789
H  H93  1  0.99200000  0.60340000  0.58080000  1.0 0.0998697789
H  H94  1  0.91920000  0.52260000  0.41120000  1.0 0.0998697789
H  H95  1  0.52260000  0.41120000  0.91920000  1.0 0.0998697789
H  H96  1  0.88860000  0.97740000  0.89660000  1.0 0.0998697789
H  H97  1  0.01600000  0.47720000  0.93320000  1.0 0.0998697789
H  H98  1  0.04400000  0.08280000  0.56680000  1.0 0.0998697789
H  H99  1  0.45600000  0.02280000  0.03880000  1.0 0.0998697789
H  H100  1  0.48400000  0.41720000  0.46120000  1.0 0.0998697789
H  H101  1  0.47720000  0.93320000  0.01600000  1.0 0.0998697789
H  H102  1  0.93320000  0.01600000  0.47720000  1.0 0.0998697789
H  H103  1  0.41720000  0.46120000  0.48400000  1.0 0.0998697789
H  H104  1  0.56680000  0.04400000  0.08280000  1.0 0.0998697789
H  H105  1  0.08280000  0.56680000  0.04400000  1.0 0.0998697789
H  H106  1  0.03880000  0.45600000  0.02280000  1.0 0.0998697789
H  H107  1  0.02280000  0.03880000  0.45600000  1.0 0.0998697789
H  H108  1  0.46120000  0.48400000  0.41720000  1.0 0.0998697789
H  H109  1  0.97720000  0.51600000  0.43320000  1.0 0.0998697789
H  H110  1  0.58280000  0.54400000  0.06680000  1.0 0.0998697789
H  H111  1  0.52280000  0.95600000  0.53880000  1.0 0.0998697789
H  H112  1  0.91720000  0.98400000  0.96120000  1.0 0.0998697789
H  H113  1  0.43320000  0.97720000  0.51600000  1.0 0.0998697789
H  H114  1  0.51600000  0.43320000  0.97720000  1.0 0.0998697789
H  H115  1  0.96120000  0.91720000  0.98400000  1.0 0.0998697789
H  H116  1  0.54400000  0.06680000  0.58280000  1.0 0.0998697789
H  H117  1  0.06680000  0.58280000  0.54400000  1.0 0.0998697789
H  H118  1  0.95600000  0.53880000  0.52280000  1.0 0.0998697789
H  H119  1  0.53880000  0.52280000  0.95600000  1.0 0.0998697789
H  H120  1  0.98400000  0.96120000  0.91720000  1.0 0.0998697789
H  H121  1  0.93200000  0.48860000  0.59740000  1.0 0.0998697789
H  H122  1  0.39120000  0.33460000  0.90260000  1.0 0.0998697789
H  H123  1  0.56800000  0.16540000  0.55660000  1.0 0.0998697789
H  H124  1  0.10880000  0.01140000  0.94340000  1.0 0.0998697789
H  H125  1  0.59740000  0.93200000  0.48860000  1.0 0.0998697789
H  H126  1  0.48860000  0.59740000  0.93200000  1.0 0.0998697789
H  H127  1  0.94340000  0.10880000  0.01140000  1.0 0.0998697789
H  H128  1  0.33460000  0.90260000  0.39120000  1.0 0.0998697789
H  H129  1  0.90260000  0.39120000  0.33460000  1.0 0.0998697789
H  H130  1  0.16540000  0.55660000  0.56800000  1.0 0.0998697789
H  H131  1  0.55660000  0.56800000  0.16540000  1.0 0.0998697789
H  H132  1  0.01140000  0.94340000  0.10880000  1.0 0.0998697789
H  H133  1  0.98860000  0.43200000  0.09740000  1.0 0.0998697789
H  H134  1  0.83460000  0.89120000  0.40260000  1.0 0.0998697789
H  H135  1  0.66540000  0.06800000  0.05660000  1.0 0.0998697789
H  H136  1  0.51140000  0.60880000  0.44340000  1.0 0.0998697789
H  H137  1  0.43200000  0.09740000  0.98860000  1.0 0.0998697789
H  H138  1  0.09740000  0.98860000  0.43200000  1.0 0.0998697789
H  H139  1  0.60880000  0.44340000  0.51140000  1.0 0.0998697789
H  H140  1  0.40260000  0.83460000  0.89120000  1.0 0.0998697789
H  H141  1  0.89120000  0.40260000  0.83460000  1.0 0.0998697789
H  H142  1  0.05660000  0.66540000  0.06800000  1.0 0.0998697789
H  H143  1  0.06800000  0.05660000  0.66540000  1.0 0.0998697789
H  H144  1  0.44340000  0.51140000  0.60880000  1.0 0.0998697789
H  H145  1  0.86670000  0.38180000  0.51610000  1.0 0.0998697789
H  H146  1  0.36570000  0.35060000  0.98390000  1.0 0.0998697789
H  H147  1  0.63330000  0.14940000  0.51510000  1.0 0.0998697789
H  H148  1  0.13430000  0.11820000  0.98490000  1.0 0.0998697789
H  H149  1  0.51610000  0.86670000  0.38180000  1.0 0.0998697789
H  H150  1  0.38180000  0.51610000  0.86670000  1.0 0.0998697789
H  H151  1  0.98490000  0.13430000  0.11820000  1.0 0.0998697789
H  H152  1  0.35060000  0.98390000  0.36570000  1.0 0.0998697789
H  H153  1  0.98390000  0.36570000  0.35060000  1.0 0.0998697789
H  H154  1  0.14940000  0.51510000  0.63330000  1.0 0.0998697789
H  H155  1  0.51510000  0.63330000  0.14940000  1.0 0.0998697789
H  H156  1  0.11820000  0.98490000  0.13430000  1.0 0.0998697789
H  H157  1  0.88180000  0.36670000  0.01610000  1.0 0.0998697789
H  H158  1  0.85060000  0.86570000  0.48390000  1.0 0.0998697789
H  H159  1  0.64940000  0.13330000  0.01510000  1.0 0.0998697789
H  H160  1  0.61820000  0.63430000  0.48490000  1.0 0.0998697789
H  H161  1  0.36670000  0.01610000  0.88180000  1.0 0.0998697789
H  H162  1  0.01610000  0.88180000  0.36670000  1.0 0.0998697789
H  H163  1  0.63430000  0.48490000  0.61820000  1.0 0.0998697789
H  H164  1  0.48390000  0.85060000  0.86570000  1.0 0.0998697789
H  H165  1  0.86570000  0.48390000  0.85060000  1.0 0.0998697789
H  H166  1  0.01510000  0.64940000  0.13330000  1.0 0.0998697789
H  H167  1  0.13330000  0.01510000  0.64940000  1.0 0.0998697789
H  H168  1  0.48490000  0.61820000  0.63430000  1.0 0.0998697789
H  H169  1  0.97480000  0.50150000  0.57250000  1.0 0.0883590931
H  H170  1  0.42900000  0.40230000  0.92750000  1.0 0.0883590931
H  H171  1  0.52520000  0.09770000  0.52670000  1.0 0.0883590931
H  H172  1  0.07100000  0.99850000  0.97330000  1.0 0.0883590931
H  H173  1  0.57250000  0.97480000  0.50150000  1.0 0.0883590931
H  H174  1  0.50150000  0.57250000  0.97480000  1.0 0.0883590931
H  H175  1  0.97330000  0.07100000  0.99850000  1.0 0.0883590931
H  H176  1  0.40230000  0.92750000  0.42900000  1.0 0.0883590931
H  H177  1  0.92750000  0.42900000  0.40230000  1.0 0.0883590931
H  H178  1  0.09770000  0.52670000  0.52520000  1.0 0.0883590931
H  H179  1  0.52670000  0.52520000  0.09770000  1.0 0.0883590931
H  H180  1  0.99850000  0.97330000  0.07100000  1.0 0.0883590931
H  H181  1  0.00150000  0.47480000  0.07250000  1.0 0.0883590931
H  H182  1  0.90230000  0.92900000  0.42750000  1.0 0.0883590931
H  H183  1  0.59770000  0.02520000  0.02670000  1.0 0.0883590931
H  H184  1  0.49850000  0.57100000  0.47330000  1.0 0.0883590931
H  H185  1  0.47480000  0.07250000  0.00150000  1.0 0.0883590931
H  H186  1  0.07250000  0.00150000  0.47480000  1.0 0.0883590931
H  H187  1  0.57100000  0.47330000  0.49850000  1.0 0.0883590931
H  H188  1  0.42750000  0.90230000  0.92900000  1.0 0.0883590931
H  H189  1  0.92900000  0.42750000  0.90230000  1.0 0.0883590931
H  H190  1  0.02670000  0.59770000  0.02520000  1.0 0.0883590931
H  H191  1  0.02520000  0.02670000  0.59770000  1.0 0.0883590931
H  H192  1  0.47330000  0.49850000  0.57100000  1.0 0.0883590931
H  H193  1  0.91120000  0.38860000  0.49200000  1.0 0.0998697789
H  H194  1  0.39660000  0.41920000  0.00800000  1.0 0.0998697789
H  H195  1  0.58880000  0.08080000  0.47740000  1.0 0.0998697789
H  H196  1  0.10340000  0.11140000  0.02260000  1.0 0.0998697789
H  H197  1  0.49200000  0.91120000  0.38860000  1.0 0.0998697789
H  H198  1  0.38860000  0.49200000  0.91120000  1.0 0.0998697789
H  H199  1  0.02260000  0.10340000  0.11140000  1.0 0.0998697789
H  H200  1  0.41920000  0.00800000  0.39660000  1.0 0.0998697789
H  H201  1  0.00800000  0.39660000  0.41920000  1.0 0.0998697789
H  H202  1  0.08080000  0.47740000  0.58880000  1.0 0.0998697789
H  H203  1  0.47740000  0.58880000  0.08080000  1.0 0.0998697789
H  H204  1  0.11140000  0.02260000  0.10340000  1.0 0.0998697789
H  H205  1  0.88860000  0.41120000  0.99200000  1.0 0.0998697789
H  H206  1  0.91920000  0.89660000  0.50800000  1.0 0.0998697789
H  H207  1  0.58080000  0.08880000  0.97740000  1.0 0.0998697789
H  H208  1  0.61140000  0.60340000  0.52260000  1.0 0.0998697789
H  H209  1  0.41120000  0.99200000  0.88860000  1.0 0.0998697789
H  H210  1  0.99200000  0.88860000  0.41120000  1.0 0.0998697789
H  H211  1  0.60340000  0.52260000  0.61140000  1.0 0.0998697789
H  H212  1  0.50800000  0.91920000  0.89660000  1.0 0.0998697789
H  H213  1  0.89660000  0.50800000  0.91920000  1.0 0.0998697789
H  H214  1  0.97740000  0.58080000  0.08880000  1.0 0.0998697789
H  H215  1  0.08880000  0.97740000  0.58080000  1.0 0.0998697789
H  H216  1  0.52260000  0.61140000  0.60340000  1.0 0.0998697789
H  H217  1  0.02280000  0.48400000  0.56680000  1.0 0.0998697789
H  H218  1  0.41720000  0.45600000  0.93320000  1.0 0.0998697789
H  H219  1  0.47720000  0.04400000  0.46120000  1.0 0.0998697789
H  H220  1  0.08280000  0.01600000  0.03880000  1.0 0.0998697789
H  H221  1  0.56680000  0.02280000  0.48400000  1.0 0.0998697789
H  H222  1  0.48400000  0.56680000  0.02280000  1.0 0.0998697789
H  H223  1  0.03880000  0.08280000  0.01600000  1.0 0.0998697789
H  H224  1  0.45600000  0.93320000  0.41720000  1.0 0.0998697789
H  H225  1  0.93320000  0.41720000  0.45600000  1.0 0.0998697789
H  H226  1  0.04400000  0.46120000  0.47720000  1.0 0.0998697789
H  H227  1  0.46120000  0.47720000  0.04400000  1.0 0.0998697789
H  H228  1  0.01600000  0.03880000  0.08280000  1.0 0.0998697789
H  H229  1  0.98400000  0.52280000  0.06680000  1.0 0.0998697789
H  H230  1  0.95600000  0.91720000  0.43320000  1.0 0.0998697789
H  H231  1  0.54400000  0.97720000  0.96120000  1.0 0.0998697789
H  H232  1  0.51600000  0.58280000  0.53880000  1.0 0.0998697789
H  H233  1  0.52280000  0.06680000  0.98400000  1.0 0.0998697789
H  H234  1  0.06680000  0.98400000  0.52280000  1.0 0.0998697789
H  H235  1  0.58280000  0.53880000  0.51600000  1.0 0.0998697789
H  H236  1  0.43320000  0.95600000  0.91720000  1.0 0.0998697789
H  H237  1  0.91720000  0.43320000  0.95600000  1.0 0.0998697789
H  H238  1  0.96120000  0.54400000  0.97720000  1.0 0.0998697789
H  H239  1  0.97720000  0.96120000  0.54400000  1.0 0.0998697789
H  H240  1  0.53880000  0.51600000  0.58280000  1.0 0.0998697789
C  C1  1  0.07050000  0.62800000  0.92390000  1.0 0.5264226462
C  C2  1  0.20410000  0.14660000  0.57610000  1.0 0.5264226462
C  C3  1  0.29590000  0.87200000  0.94250000  1.0 0.5264226462
C  C4  1  0.42950000  0.35340000  0.55750000  1.0 0.5264226462
C  C5  1  0.62800000  0.92390000  0.07050000  1.0 0.5264226462
C  C6  1  0.92390000  0.07050000  0.62800000  1.0 0.5264226462
C  C7  1  0.35340000  0.55750000  0.42950000  1.0 0.5264226462
C  C8  1  0.57610000  0.20410000  0.14660000  1.0 0.5264226462
C  C9  1  0.14660000  0.57610000  0.20410000  1.0 0.5239053632
C  C10  1  0.94250000  0.29590000  0.87200000  1.0 0.5264226462
C  C11  1  0.87200000  0.94250000  0.29590000  1.0 0.5264226462
C  C12  1  0.55750000  0.42950000  0.35340000  1.0 0.5264226462
C  C13  1  0.12800000  0.57050000  0.42390000  1.0 0.5264226462
C  C14  1  0.64660000  0.70410000  0.07610000  1.0 0.5264226462
C  C15  1  0.37200000  0.79590000  0.44250000  1.0 0.5264226462
C  C16  1  0.85340000  0.92950000  0.05750000  1.0 0.5264226462
C  C17  1  0.42390000  0.12800000  0.57050000  1.0 0.5264226462
C  C18  1  0.57050000  0.42390000  0.12800000  1.0 0.5264226462
C  C19  1  0.05750000  0.85340000  0.92950000  1.0 0.5264226462
C  C20  1  0.70410000  0.07610000  0.64660000  1.0 0.5264226462
C  C21  1  0.07610000  0.64660000  0.70410000  1.0 0.5264226462
C  C22  1  0.79590000  0.44250000  0.37200000  1.0 0.5264226462
C  C23  1  0.44250000  0.37200000  0.79590000  1.0 0.5264226462
C  C24  1  0.92950000  0.05750000  0.85340000  1.0 0.5264226462
C  C25  1  0.06640000  0.60260000  0.94060000  1.0 -0.0759788941
C  C26  1  0.16200000  0.12580000  0.55940000  1.0 -0.0759788941
C  C27  1  0.33800000  0.89740000  0.96380000  1.0 -0.0759788941
C  C28  1  0.43360000  0.37420000  0.53620000  1.0 -0.0759788941
C  C29  1  0.60260000  0.94060000  0.06640000  1.0 -0.0759788941
C  C30  1  0.94060000  0.06640000  0.60260000  1.0 -0.0759788941
C  C31  1  0.37420000  0.53620000  0.43360000  1.0 -0.0759788941
C  C32  1  0.55940000  0.16200000  0.12580000  1.0 -0.0759788941
C  C33  1  0.12580000  0.55940000  0.16200000  1.0 -0.0759788941
C  C34  1  0.96380000  0.33800000  0.89740000  1.0 -0.0759788941
C  C35  1  0.89740000  0.96380000  0.33800000  1.0 -0.0759788941
C  C36  1  0.53620000  0.43360000  0.37420000  1.0 -0.0759788941
C  C37  1  0.10260000  0.56640000  0.44060000  1.0 -0.0759788941
C  C38  1  0.62580000  0.66200000  0.05940000  1.0 -0.0759788941
C  C39  1  0.39740000  0.83800000  0.46380000  1.0 -0.0759788941
C  C40  1  0.87420000  0.93360000  0.03620000  1.0 -0.0759788941
C  C41  1  0.44060000  0.10260000  0.56640000  1.0 -0.0759788941
C  C42  1  0.56640000  0.44060000  0.10260000  1.0 -0.0759788941
C  C43  1  0.03620000  0.87420000  0.93360000  1.0 -0.0759788941
C  C44  1  0.66200000  0.05940000  0.62580000  1.0 -0.0759788941
C  C45  1  0.05940000  0.62580000  0.66200000  1.0 -0.0759788941
C  C46  1  0.83800000  0.46380000  0.39740000  1.0 -0.0759788941
C  C47  1  0.46380000  0.39740000  0.83800000  1.0 -0.0759788941
C  C48  1  0.93360000  0.03620000  0.87420000  1.0 -0.0759788941
C  C49  1  0.03140000  0.57230000  0.92430000  1.0 -0.1077855301
C  C50  1  0.14800000  0.10710000  0.57570000  1.0 -0.1077855301
C  C51  1  0.35200000  0.92770000  0.95910000  1.0 -0.1077855301
C  C52  1  0.46860000  0.39290000  0.54090000  1.0 -0.1077855301
C  C53  1  0.57230000  0.92430000  0.03140000  1.0 -0.1077855301
C  C54  1  0.92430000  0.03140000  0.57230000  1.0 -0.1077855301
C  C55  1  0.39290000  0.54090000  0.46860000  1.0 -0.1077855301
C  C56  1  0.57570000  0.14800000  0.10710000  1.0 -0.1077855301
C  C57  1  0.10710000  0.57570000  0.14800000  1.0 -0.1077855301
C  C58  1  0.95910000  0.35200000  0.92770000  1.0 -0.1077855301
C  C59  1  0.92770000  0.95910000  0.35200000  1.0 -0.1077855301
C  C60  1  0.54090000  0.46860000  0.39290000  1.0 -0.1077855301
C  C61  1  0.07230000  0.53140000  0.42430000  1.0 -0.1077855301
C  C62  1  0.60710000  0.64800000  0.07570000  1.0 -0.1077855301
C  C63  1  0.42770000  0.85200000  0.45910000  1.0 -0.1077855301
C  C64  1  0.89290000  0.96860000  0.04090000  1.0 -0.1077855301
C  C65  1  0.42430000  0.07230000  0.53140000  1.0 -0.1077855301
C  C66  1  0.53140000  0.42430000  0.07230000  1.0 -0.1077855301
C  C67  1  0.04090000  0.89290000  0.96860000  1.0 -0.1077855301
C  C68  1  0.64800000  0.07570000  0.60710000  1.0 -0.1077855301
C  C69  1  0.07570000  0.60710000  0.64800000  1.0 -0.1077855301
C  C70  1  0.85200000  0.45910000  0.42770000  1.0 -0.1077855301
C  C71  1  0.45910000  0.42770000  0.85200000  1.0 -0.1077855301
C  C72  1  0.96860000  0.04090000  0.89290000  1.0 -0.1077855301
C  C73  1  0.09470000  0.61070000  0.97140000  1.0 -0.1023943564
C  C74  1  0.13930000  0.12330000  0.52860000  1.0 -0.1023943564
C  C75  1  0.36070000  0.88930000  0.98400000  1.0 -0.1023943564
C  C76  1  0.40530000  0.37670000  0.51600000  1.0 -0.1023943564
C  C77  1  0.61070000  0.97140000  0.09470000  1.0 -0.1023943564
C  C78  1  0.97140000  0.09470000  0.61070000  1.0 -0.1023943564
C  C79  1  0.37670000  0.51600000  0.40530000  1.0 -0.1023943564
C  C80  1  0.52860000  0.13930000  0.12330000  1.0 -0.1023943564
C  C81  1  0.12330000  0.52860000  0.13930000  1.0 -0.1023943564
C  C82  1  0.98400000  0.36070000  0.88930000  1.0 -0.1023943564
C  C83  1  0.88930000  0.98400000  0.36070000  1.0 -0.1023943564
C  C84  1  0.51600000  0.40530000  0.37670000  1.0 -0.1023943564
C  C85  1  0.11070000  0.59470000  0.47140000  1.0 -0.1023943564
C  C86  1  0.62330000  0.63930000  0.02860000  1.0 -0.1023943564
C  C87  1  0.38930000  0.86070000  0.48400000  1.0 -0.1023943564
C  C88  1  0.87670000  0.90530000  0.01600000  1.0 -0.1023943564
C  C89  1  0.47140000  0.11070000  0.59470000  1.0 -0.1023943564
C  C90  1  0.59470000  0.47140000  0.11070000  1.0 -0.1023943564
C  C91  1  0.01600000  0.87670000  0.90530000  1.0 -0.1023943564
C  C92  1  0.63930000  0.02860000  0.62330000  1.0 -0.1023943564
C  C93  1  0.02860000  0.62330000  0.63930000  1.0 -0.1023943564
C  C94  1  0.86070000  0.48400000  0.38930000  1.0 -0.1023943564
C  C95  1  0.48400000  0.38930000  0.86070000  1.0 -0.1023943564
C  C96  1  0.90530000  0.01600000  0.87670000  1.0 -0.1023943564
C  C97  1  0.02310000  0.54590000  0.93900000  1.0 -0.167443747
C  C98  1  0.10690000  0.08410000  0.56100000  1.0 -0.167443747
C  C99  1  0.39310000  0.95410000  0.97720000  1.0 -0.167443747
C  C100  1  0.47690000  0.41590000  0.52280000  1.0 -0.167443747
C  C101  1  0.54590000  0.93900000  0.02310000  1.0 -0.167443747
C  C102  1  0.93900000  0.02310000  0.54590000  1.0 -0.167443747
C  C103  1  0.41590000  0.52280000  0.47690000  1.0 -0.167443747
C  C104  1  0.56100000  0.10690000  0.08410000  1.0 -0.167443747
C  C105  1  0.08410000  0.56100000  0.10690000  1.0 -0.167443747
C  C106  1  0.97720000  0.39310000  0.95410000  1.0 -0.167443747
C  C107  1  0.95410000  0.97720000  0.39310000  1.0 -0.167443747
C  C108  1  0.52280000  0.47690000  0.41590000  1.0 -0.167443747
C  C109  1  0.04590000  0.52310000  0.43900000  1.0 -0.167443747
C  C110  1  0.58410000  0.60690000  0.06100000  1.0 -0.167443747
C  C111  1  0.45410000  0.89310000  0.47720000  1.0 -0.167443747
C  C112  1  0.91590000  0.97690000  0.02280000  1.0 -0.167443747
C  C113  1  0.43900000  0.04590000  0.52310000  1.0 -0.167443747
C  C114  1  0.52310000  0.43900000  0.04590000  1.0 -0.167443747
C  C115  1  0.02280000  0.91590000  0.97690000  1.0 -0.167443747
C  C116  1  0.60690000  0.06100000  0.58410000  1.0 -0.167443747
C  C117  1  0.06100000  0.58410000  0.60690000  1.0 -0.167443747
C  C118  1  0.89310000  0.47720000  0.45410000  1.0 -0.167443747
C  C119  1  0.47720000  0.45410000  0.89310000  1.0 -0.167443747
C  C120  1  0.97690000  0.02280000  0.91590000  1.0 -0.167443747
C  C121  1  0.09010000  0.58430000  0.98720000  1.0 -0.1628444378
C  C122  1  0.09710000  0.10290000  0.51280000  1.0 -0.1628444378
C  C123  1  0.40290000  0.91570000  0.00580000  1.0 -0.1628444378
C  C124  1  0.40990000  0.39710000  0.49420000  1.0 -0.1628444378
C  C125  1  0.58430000  0.98720000  0.09010000  1.0 -0.1628444378
C  C126  1  0.98720000  0.09010000  0.58430000  1.0 -0.1628444378
C  C127  1  0.39710000  0.49420000  0.40990000  1.0 -0.1628444378
C  C128  1  0.51280000  0.09710000  0.10290000  1.0 -0.1628444378
C  C129  1  0.10290000  0.51280000  0.09710000  1.0 -0.1628444378
C  C130  1  0.00580000  0.40290000  0.91570000  1.0 -0.1628444378
C  C131  1  0.91570000  0.00580000  0.40290000  1.0 -0.1628444378
C  C132  1  0.49420000  0.40990000  0.39710000  1.0 -0.1628444378
C  C133  1  0.08430000  0.59010000  0.48720000  1.0 -0.1628444378
C  C134  1  0.60290000  0.59710000  0.01280000  1.0 -0.1628444378
C  C135  1  0.41570000  0.90290000  0.50580000  1.0 -0.1628444378
C  C136  1  0.89710000  0.90990000  0.99420000  1.0 -0.1628444378
C  C137  1  0.48720000  0.08430000  0.59010000  1.0 -0.1628444378
C  C138  1  0.59010000  0.48720000  0.08430000  1.0 -0.1628444378
C  C139  1  0.99420000  0.89710000  0.90990000  1.0 -0.1628444378
C  C140  1  0.59710000  0.01280000  0.60290000  1.0 -0.1628444378
C  C141  1  0.01280000  0.60290000  0.59710000  1.0 -0.1628444378
C  C142  1  0.90290000  0.50580000  0.41570000  1.0 -0.1628444378
C  C143  1  0.50580000  0.41570000  0.90290000  1.0 -0.1628444378
C  C144  1  0.90990000  0.99420000  0.89710000  1.0 -0.1628444378
C  C145  1  0.05450000  0.55330000  0.97140000  1.0 0.0411102933
C  C146  1  0.08190000  0.08310000  0.52860000  1.0 0.0411102933
C  C147  1  0.41810000  0.94670000  0.00120000  1.0 0.0411102933
C  C148  1  0.44550000  0.41690000  0.49880000  1.0 0.0411102933
C  C149  1  0.55330000  0.97140000  0.05450000  1.0 0.0411102933
C  C150  1  0.97140000  0.05450000  0.55330000  1.0 0.0411102933
C  C151  1  0.41690000  0.49880000  0.44550000  1.0 0.0411102933
C  C152  1  0.52860000  0.08190000  0.08310000  1.0 0.0411102933
C  C153  1  0.08310000  0.52860000  0.08190000  1.0 0.0411102933
C  C154  1  0.00120000  0.41810000  0.94670000  1.0 0.0411102933
C  C155  1  0.94670000  0.00120000  0.41810000  1.0 0.0411102933
C  C156  1  0.49880000  0.44550000  0.41690000  1.0 0.0411102933
C  C157  1  0.05330000  0.55450000  0.47140000  1.0 0.0411102933
C  C158  1  0.58310000  0.58190000  0.02860000  1.0 0.0411102933
C  C159  1  0.44670000  0.91810000  0.50120000  1.0 0.0411102933
C  C160  1  0.91690000  0.94550000  0.99880000  1.0 0.0411102933
C  C161  1  0.47140000  0.05330000  0.55450000  1.0 0.0411102933
C  C162  1  0.55450000  0.47140000  0.05330000  1.0 0.0411102933
C  C163  1  0.99880000  0.91690000  0.94550000  1.0 0.0411102933
C  C164  1  0.58190000  0.02860000  0.58310000  1.0 0.0411102933
C  C165  1  0.02860000  0.58310000  0.58190000  1.0 0.0411102933
C  C166  1  0.91810000  0.50120000  0.44670000  1.0 0.0411102933
C  C167  1  0.50120000  0.44670000  0.91810000  1.0 0.0411102933
C  C168  1  0.94550000  0.99880000  0.91690000  1.0 0.0411102933
C  C169  1  0.04640000  0.52550000  0.98530000  1.0 0.0691688085
C  C170  1  0.04020000  0.06110000  0.51470000  1.0 0.0691688085
C  C171  1  0.45980000  0.97450000  0.02090000  1.0 0.0691688085
C  C172  1  0.45360000  0.43890000  0.47910000  1.0 0.0691688085
C  C173  1  0.52550000  0.98530000  0.04640000  1.0 0.0691688085
C  C174  1  0.98530000  0.04640000  0.52550000  1.0 0.0691688085
C  C175  1  0.43890000  0.47910000  0.45360000  1.0 0.0691688085
C  C176  1  0.51470000  0.04020000  0.06110000  1.0 0.0691688085
C  C177  1  0.06110000  0.51470000  0.04020000  1.0 0.0691688085
C  C178  1  0.02090000  0.45980000  0.97450000  1.0 0.0691688085
C  C179  1  0.97450000  0.02090000  0.45980000  1.0 0.0691688085
C  C180  1  0.47910000  0.45360000  0.43890000  1.0 0.0691688085
C  C181  1  0.02550000  0.54640000  0.48530000  1.0 0.0691688085
C  C182  1  0.56110000  0.54020000  0.01470000  1.0 0.0691688085
C  C183  1  0.47450000  0.95980000  0.52090000  1.0 0.0691688085
C  C184  1  0.93890000  0.95360000  0.97910000  1.0 0.0691688085
C  C185  1  0.48530000  0.02550000  0.54640000  1.0 0.0691688085
C  C186  1  0.54640000  0.48530000  0.02550000  1.0 0.0691688085
C  C187  1  0.97910000  0.93890000  0.95360000  1.0 0.0691688085
C  C188  1  0.54020000  0.01470000  0.56110000  1.0 0.0691688085
C  C189  1  0.01470000  0.56110000  0.54020000  1.0 0.0691688085
C  C190  1  0.95980000  0.52090000  0.47450000  1.0 0.0691688085
C  C191  1  0.52090000  0.47450000  0.95980000  1.0 0.0691688085
C  C192  1  0.95360000  0.97910000  0.93890000  1.0 0.0691688085
C  C193  1  0.02620000  0.48640000  0.95960000  1.0 -0.2385716476
C  C194  1  0.02680000  0.06660000  0.54040000  1.0 -0.2385716476
C  C195  1  0.47320000  0.01360000  0.03980000  1.0 -0.2385716476
C  C196  1  0.47380000  0.43340000  0.46020000  1.0 -0.2385716476
C  C197  1  0.48640000  0.95960000  0.02620000  1.0 -0.2385716476
C  C198  1  0.95960000  0.02620000  0.48640000  1.0 -0.2385716476
C  C199  1  0.43340000  0.46020000  0.47380000  1.0 -0.2385716476
C  C200  1  0.54040000  0.02680000  0.06660000  1.0 -0.2385716476
C  C201  1  0.06660000  0.54040000  0.02680000  1.0 -0.2385716476
C  C202  1  0.03980000  0.47320000  0.01360000  1.0 -0.2385716476
C  C203  1  0.01360000  0.03980000  0.47320000  1.0 -0.2385716476
C  C204  1  0.46020000  0.47380000  0.43340000  1.0 -0.2385716476
C  C205  1  0.98640000  0.52620000  0.45960000  1.0 -0.2385716476
C  C206  1  0.56660000  0.52680000  0.04040000  1.0 -0.2385716476
C  C207  1  0.51360000  0.97320000  0.53980000  1.0 -0.2385716476
C  C208  1  0.93340000  0.97380000  0.96020000  1.0 -0.2385716476
C  C209  1  0.45960000  0.98640000  0.52620000  1.0 -0.2385716476
C  C210  1  0.52620000  0.45960000  0.98640000  1.0 -0.2385716476
C  C211  1  0.96020000  0.93340000  0.97380000  1.0 -0.2385716476
C  C212  1  0.52680000  0.04040000  0.56660000  1.0 -0.2385716476
C  C213  1  0.04040000  0.56660000  0.52680000  1.0 -0.2385716476
C  C214  1  0.97320000  0.53980000  0.51360000  1.0 -0.2385716476
C  C215  1  0.53980000  0.51360000  0.97320000  1.0 -0.2385716476
C  C216  1  0.97380000  0.96020000  0.93340000  1.0 -0.2385716476
C  C217  1  0.87200000  0.42950000  0.57610000  1.0 0.5264226462
C  C218  1  0.35340000  0.29590000  0.92390000  1.0 0.5264226462
C  C219  1  0.62800000  0.20410000  0.55750000  1.0 0.5264226462
C  C220  1  0.14660000  0.07050000  0.94250000  1.0 0.5264226462
C  C221  1  0.57610000  0.87200000  0.42950000  1.0 0.5264226462
C  C222  1  0.42950000  0.57610000  0.87200000  1.0 0.5264226462
C  C223  1  0.94250000  0.14660000  0.07050000  1.0 0.5264226462
C  C224  1  0.29590000  0.92390000  0.35340000  1.0 0.5264226462
C  C225  1  0.92390000  0.35340000  0.29590000  1.0 0.5264226462
C  C226  1  0.20410000  0.55750000  0.62800000  1.0 0.5264226462
C  C227  1  0.55750000  0.62800000  0.20410000  1.0 0.5264226462
C  C228  1  0.07050000  0.94250000  0.14660000  1.0 0.5264226462
C  C229  1  0.92950000  0.37200000  0.07610000  1.0 0.5264226462
C  C230  1  0.79590000  0.85340000  0.42390000  1.0 0.5239053632
C  C231  1  0.70410000  0.12800000  0.05750000  1.0 0.5264226462
C  C232  1  0.57050000  0.64660000  0.44250000  1.0 0.5264226462
C  C233  1  0.37200000  0.07610000  0.92950000  1.0 0.5264226462
C  C234  1  0.07610000  0.92950000  0.37200000  1.0 0.5264226462
C  C235  1  0.64660000  0.44250000  0.57050000  1.0 0.5264226462
C  C236  1  0.42390000  0.79590000  0.85340000  1.0 0.5264226462
C  C237  1  0.85340000  0.42390000  0.79590000  1.0 0.5264226462
C  C238  1  0.05750000  0.70410000  0.12800000  1.0 0.5264226462
C  C239  1  0.12800000  0.05750000  0.70410000  1.0 0.5264226462
C  C240  1  0.44250000  0.57050000  0.64660000  1.0 0.5264226462
C  C241  1  0.89740000  0.43360000  0.55940000  1.0 -0.0759788941
C  C242  1  0.37420000  0.33800000  0.94060000  1.0 -0.0759788941
C  C243  1  0.60260000  0.16200000  0.53620000  1.0 -0.0759788941
C  C244  1  0.12580000  0.06640000  0.96380000  1.0 -0.0759788941
C  C245  1  0.55940000  0.89740000  0.43360000  1.0 -0.0759788941
C  C246  1  0.43360000  0.55940000  0.89740000  1.0 -0.0759788941
C  C247  1  0.96380000  0.12580000  0.06640000  1.0 -0.0759788941
C  C248  1  0.33800000  0.94060000  0.37420000  1.0 -0.0759788941
C  C249  1  0.94060000  0.37420000  0.33800000  1.0 -0.0759788941
C  C250  1  0.16200000  0.53620000  0.60260000  1.0 -0.0759788941
C  C251  1  0.53620000  0.60260000  0.16200000  1.0 -0.0759788941
C  C252  1  0.06640000  0.96380000  0.12580000  1.0 -0.0759788941
C  C253  1  0.93360000  0.39740000  0.05940000  1.0 -0.0759788941
C  C254  1  0.83800000  0.87420000  0.44060000  1.0 -0.0759788941
C  C255  1  0.66200000  0.10260000  0.03620000  1.0 -0.0759788941
C  C256  1  0.56640000  0.62580000  0.46380000  1.0 -0.0759788941
C  C257  1  0.39740000  0.05940000  0.93360000  1.0 -0.0759788941
C  C258  1  0.05940000  0.93360000  0.39740000  1.0 -0.0759788941
C  C259  1  0.62580000  0.46380000  0.56640000  1.0 -0.0759788941
C  C260  1  0.44060000  0.83800000  0.87420000  1.0 -0.0759788941
C  C261  1  0.87420000  0.44060000  0.83800000  1.0 -0.0759788941
C  C262  1  0.03620000  0.66200000  0.10260000  1.0 -0.0759788941
C  C263  1  0.10260000  0.03620000  0.66200000  1.0 -0.0759788941
C  C264  1  0.46380000  0.56640000  0.62580000  1.0 -0.0759788941
C  C265  1  0.92770000  0.46860000  0.57570000  1.0 -0.1077855301
C  C266  1  0.39290000  0.35200000  0.92430000  1.0 -0.1077855301
C  C267  1  0.57230000  0.14800000  0.54090000  1.0 -0.1077855301
C  C268  1  0.10710000  0.03140000  0.95910000  1.0 -0.1077855301
C  C269  1  0.57570000  0.92770000  0.46860000  1.0 -0.1077855301
C  C270  1  0.46860000  0.57570000  0.92770000  1.0 -0.1077855301
C  C271  1  0.95910000  0.10710000  0.03140000  1.0 -0.1077855301
C  C272  1  0.35200000  0.92430000  0.39290000  1.0 -0.1077855301
C  C273  1  0.92430000  0.39290000  0.35200000  1.0 -0.1077855301
C  C274  1  0.14800000  0.54090000  0.57230000  1.0 -0.1077855301
C  C275  1  0.54090000  0.57230000  0.14800000  1.0 -0.1077855301
C  C276  1  0.03140000  0.95910000  0.10710000  1.0 -0.1077855301
C  C277  1  0.96860000  0.42770000  0.07570000  1.0 -0.1077855301
C  C278  1  0.85200000  0.89290000  0.42430000  1.0 -0.1077855301
C  C279  1  0.64800000  0.07230000  0.04090000  1.0 -0.1077855301
C  C280  1  0.53140000  0.60710000  0.45910000  1.0 -0.1077855301
C  C281  1  0.42770000  0.07570000  0.96860000  1.0 -0.1077855301
C  C282  1  0.07570000  0.96860000  0.42770000  1.0 -0.1077855301
C  C283  1  0.60710000  0.45910000  0.53140000  1.0 -0.1077855301
C  C284  1  0.42430000  0.85200000  0.89290000  1.0 -0.1077855301
C  C285  1  0.89290000  0.42430000  0.85200000  1.0 -0.1077855301
C  C286  1  0.04090000  0.64800000  0.07230000  1.0 -0.1077855301
C  C287  1  0.07230000  0.04090000  0.64800000  1.0 -0.1077855301
C  C288  1  0.45910000  0.53140000  0.60710000  1.0 -0.1077855301
C  C289  1  0.88930000  0.40530000  0.52860000  1.0 -0.1023943564
C  C290  1  0.37670000  0.36070000  0.97140000  1.0 -0.1023943564
C  C291  1  0.61070000  0.13930000  0.51600000  1.0 -0.1023943564
C  C292  1  0.12330000  0.09470000  0.98400000  1.0 -0.1023943564
C  C293  1  0.52860000  0.88930000  0.40530000  1.0 -0.1023943564
C  C294  1  0.40530000  0.52860000  0.88930000  1.0 -0.1023943564
C  C295  1  0.98400000  0.12330000  0.09470000  1.0 -0.1023943564
C  C296  1  0.36070000  0.97140000  0.37670000  1.0 -0.1023943564
C  C297  1  0.97140000  0.37670000  0.36070000  1.0 -0.1023943564
C  C298  1  0.13930000  0.51600000  0.61070000  1.0 -0.1023943564
C  C299  1  0.51600000  0.61070000  0.13930000  1.0 -0.1023943564
C  C300  1  0.09470000  0.98400000  0.12330000  1.0 -0.1023943564
C  C301  1  0.90530000  0.38930000  0.02860000  1.0 -0.1023943564
C  C302  1  0.86070000  0.87670000  0.47140000  1.0 -0.1023943564
C  C303  1  0.63930000  0.11070000  0.01600000  1.0 -0.1023943564
C  C304  1  0.59470000  0.62330000  0.48400000  1.0 -0.1023943564
C  C305  1  0.38930000  0.02860000  0.90530000  1.0 -0.1023943564
C  C306  1  0.02860000  0.90530000  0.38930000  1.0 -0.1023943564
C  C307  1  0.62330000  0.48400000  0.59470000  1.0 -0.1023943564
C  C308  1  0.47140000  0.86070000  0.87670000  1.0 -0.1023943564
C  C309  1  0.87670000  0.47140000  0.86070000  1.0 -0.1023943564
C  C310  1  0.01600000  0.63930000  0.11070000  1.0 -0.1023943564
C  C311  1  0.11070000  0.01600000  0.63930000  1.0 -0.1023943564
C  C312  1  0.48400000  0.59470000  0.62330000  1.0 -0.1023943564
C  C313  1  0.95410000  0.47690000  0.56100000  1.0 -0.167443747
C  C314  1  0.41590000  0.39310000  0.93900000  1.0 -0.167443747
C  C315  1  0.54590000  0.10690000  0.52280000  1.0 -0.167443747
C  C316  1  0.08410000  0.02310000  0.97720000  1.0 -0.167443747
C  C317  1  0.56100000  0.95410000  0.47690000  1.0 -0.167443747
C  C318  1  0.47690000  0.56100000  0.95410000  1.0 -0.167443747
C  C319  1  0.97720000  0.08410000  0.02310000  1.0 -0.167443747
C  C320  1  0.39310000  0.93900000  0.41590000  1.0 -0.167443747
C  C321  1  0.93900000  0.41590000  0.39310000  1.0 -0.167443747
C  C322  1  0.10690000  0.52280000  0.54590000  1.0 -0.167443747
C  C323  1  0.52280000  0.54590000  0.10690000  1.0 -0.167443747
C  C324  1  0.02310000  0.97720000  0.08410000  1.0 -0.167443747
C  C325  1  0.97690000  0.45410000  0.06100000  1.0 -0.167443747
C  C326  1  0.89310000  0.91590000  0.43900000  1.0 -0.167443747
C  C327  1  0.60690000  0.04590000  0.02280000  1.0 -0.167443747
C  C328  1  0.52310000  0.58410000  0.47720000  1.0 -0.167443747
C  C329  1  0.45410000  0.06100000  0.97690000  1.0 -0.167443747
C  C330  1  0.06100000  0.97690000  0.45410000  1.0 -0.167443747
C  C331  1  0.58410000  0.47720000  0.52310000  1.0 -0.167443747
C  C332  1  0.43900000  0.89310000  0.91590000  1.0 -0.167443747
C  C333  1  0.91590000  0.43900000  0.89310000  1.0 -0.167443747
C  C334  1  0.02280000  0.60690000  0.04590000  1.0 -0.167443747
C  C335  1  0.04590000  0.02280000  0.60690000  1.0 -0.167443747
C  C336  1  0.47720000  0.52310000  0.58410000  1.0 -0.167443747
C  C337  1  0.91570000  0.40990000  0.51280000  1.0 -0.1628444378
C  C338  1  0.39710000  0.40290000  0.98720000  1.0 -0.1628444378
C  C339  1  0.58430000  0.09710000  0.49420000  1.0 -0.1628444378
C  C340  1  0.10290000  0.09010000  0.00580000  1.0 -0.1628444378
C  C341  1  0.51280000  0.91570000  0.40990000  1.0 -0.1628444378
C  C342  1  0.40990000  0.51280000  0.91570000  1.0 -0.1628444378
C  C343  1  0.00580000  0.10290000  0.09010000  1.0 -0.1628444378
C  C344  1  0.40290000  0.98720000  0.39710000  1.0 -0.1628444378
C  C345  1  0.98720000  0.39710000  0.40290000  1.0 -0.1628444378
C  C346  1  0.09710000  0.49420000  0.58430000  1.0 -0.1628444378
C  C347  1  0.49420000  0.58430000  0.09710000  1.0 -0.1628444378
C  C348  1  0.09010000  0.00580000  0.10290000  1.0 -0.1628444378
C  C349  1  0.90990000  0.41570000  0.01280000  1.0 -0.1628444378
C  C350  1  0.90290000  0.89710000  0.48720000  1.0 -0.1628444378
C  C351  1  0.59710000  0.08430000  0.99420000  1.0 -0.1628444378
C  C352  1  0.59010000  0.60290000  0.50580000  1.0 -0.1628444378
C  C353  1  0.41570000  0.01280000  0.90990000  1.0 -0.1628444378
C  C354  1  0.01280000  0.90990000  0.41570000  1.0 -0.1628444378
C  C355  1  0.60290000  0.50580000  0.59010000  1.0 -0.1628444378
C  C356  1  0.48720000  0.90290000  0.89710000  1.0 -0.1628444378
C  C357  1  0.89710000  0.48720000  0.90290000  1.0 -0.1628444378
C  C358  1  0.99420000  0.59710000  0.08430000  1.0 -0.1628444378
C  C359  1  0.08430000  0.99420000  0.59710000  1.0 -0.1628444378
C  C360  1  0.50580000  0.59010000  0.60290000  1.0 -0.1628444378
C  C361  1  0.94670000  0.44550000  0.52860000  1.0 0.0411102933
C  C362  1  0.41690000  0.41810000  0.97140000  1.0 0.0411102933
C  C363  1  0.55330000  0.08190000  0.49880000  1.0 0.0411102933
C  C364  1  0.08310000  0.05450000  0.00120000  1.0 0.0411102933
C  C365  1  0.52860000  0.94670000  0.44550000  1.0 0.0411102933
C  C366  1  0.44550000  0.52860000  0.94670000  1.0 0.0411102933
C  C367  1  0.00120000  0.08310000  0.05450000  1.0 0.0411102933
C  C368  1  0.41810000  0.97140000  0.41690000  1.0 0.0411102933
C  C369  1  0.97140000  0.41690000  0.41810000  1.0 0.0411102933
C  C370  1  0.08190000  0.49880000  0.55330000  1.0 0.0411102933
C  C371  1  0.49880000  0.55330000  0.08190000  1.0 0.0411102933
C  C372  1  0.05450000  0.00120000  0.08310000  1.0 0.0411102933
C  C373  1  0.94550000  0.44670000  0.02860000  1.0 0.0411102933
C  C374  1  0.91810000  0.91690000  0.47140000  1.0 0.0411102933
C  C375  1  0.58190000  0.05330000  0.99880000  1.0 0.0411102933
C  C376  1  0.55450000  0.58310000  0.50120000  1.0 0.0411102933
C  C377  1  0.44670000  0.02860000  0.94550000  1.0 0.0411102933
C  C378  1  0.02860000  0.94550000  0.44670000  1.0 0.0411102933
C  C379  1  0.58310000  0.50120000  0.55450000  1.0 0.0411102933
C  C380  1  0.47140000  0.91810000  0.91690000  1.0 0.0411102933
C  C381  1  0.91690000  0.47140000  0.91810000  1.0 0.0411102933
C  C382  1  0.99880000  0.58190000  0.05330000  1.0 0.0411102933
C  C383  1  0.05330000  0.99880000  0.58190000  1.0 0.0411102933
C  C384  1  0.50120000  0.55450000  0.58310000  1.0 0.0411102933
C  C385  1  0.97450000  0.45360000  0.51470000  1.0 0.0691688085
C  C386  1  0.43890000  0.45980000  0.98530000  1.0 0.0691688085
C  C387  1  0.52550000  0.04020000  0.47910000  1.0 0.0691688085
C  C388  1  0.06110000  0.04640000  0.02090000  1.0 0.0691688085
C  C389  1  0.51470000  0.97450000  0.45360000  1.0 0.0691688085
C  C390  1  0.45360000  0.51470000  0.97450000  1.0 0.0691688085
C  C391  1  0.02090000  0.06110000  0.04640000  1.0 0.0691688085
C  C392  1  0.45980000  0.98530000  0.43890000  1.0 0.0691688085
C  C393  1  0.98530000  0.43890000  0.45980000  1.0 0.0691688085
C  C394  1  0.04020000  0.47910000  0.52550000  1.0 0.0691688085
C  C395  1  0.47910000  0.52550000  0.04020000  1.0 0.0691688085
C  C396  1  0.04640000  0.02090000  0.06110000  1.0 0.0691688085
C  C397  1  0.95360000  0.47450000  0.01470000  1.0 0.0691688085
C  C398  1  0.95980000  0.93890000  0.48530000  1.0 0.0691688085
C  C399  1  0.54020000  0.02550000  0.97910000  1.0 0.0691688085
C  C400  1  0.54640000  0.56110000  0.52090000  1.0 0.0691688085
C  C401  1  0.47450000  0.01470000  0.95360000  1.0 0.0691688085
C  C402  1  0.01470000  0.95360000  0.47450000  1.0 0.0691688085
C  C403  1  0.56110000  0.52090000  0.54640000  1.0 0.0691688085
C  C404  1  0.48530000  0.95980000  0.93890000  1.0 0.0691688085
C  C405  1  0.93890000  0.48530000  0.95980000  1.0 0.0691688085
C  C406  1  0.97910000  0.54020000  0.02550000  1.0 0.0691688085
C  C407  1  0.02550000  0.97910000  0.54020000  1.0 0.0691688085
C  C408  1  0.52090000  0.54640000  0.56110000  1.0 0.0691688085
C  C409  1  0.01360000  0.47380000  0.54040000  1.0 -0.2385716476
C  C410  1  0.43340000  0.47320000  0.95960000  1.0 -0.2385716476
C  C411  1  0.48640000  0.02680000  0.46020000  1.0 -0.2385716476
C  C412  1  0.06660000  0.02620000  0.03980000  1.0 -0.2385716476
C  C413  1  0.54040000  0.01360000  0.47380000  1.0 -0.2385716476
C  C414  1  0.47380000  0.54040000  0.01360000  1.0 -0.2385716476
C  C415  1  0.03980000  0.06660000  0.02620000  1.0 -0.2385716476
C  C416  1  0.47320000  0.95960000  0.43340000  1.0 -0.2385716476
C  C417  1  0.95960000  0.43340000  0.47320000  1.0 -0.2385716476
C  C418  1  0.02680000  0.46020000  0.48640000  1.0 -0.2385716476
C  C419  1  0.46020000  0.48640000  0.02680000  1.0 -0.2385716476
C  C420  1  0.02620000  0.03980000  0.06660000  1.0 -0.2385716476
C  C421  1  0.97380000  0.51360000  0.04040000  1.0 -0.2385716476
C  C422  1  0.97320000  0.93340000  0.45960000  1.0 -0.2385716476
C  C423  1  0.52680000  0.98640000  0.96020000  1.0 -0.2385716476
C  C424  1  0.52620000  0.56660000  0.53980000  1.0 -0.2385716476
C  C425  1  0.51360000  0.04040000  0.97380000  1.0 -0.2385716476
C  C426  1  0.04040000  0.97380000  0.51360000  1.0 -0.2385716476
C  C427  1  0.56660000  0.53980000  0.52620000  1.0 -0.2385716476
C  C428  1  0.45960000  0.97320000  0.93340000  1.0 -0.2385716476
C  C429  1  0.93340000  0.45960000  0.97320000  1.0 -0.2385716476
C  C430  1  0.96020000  0.52680000  0.98640000  1.0 -0.2385716476
C  C431  1  0.98640000  0.96020000  0.52680000  1.0 -0.2385716476
C  C432  1  0.53980000  0.52620000  0.56660000  1.0 -0.2385716476
O  O1  1  0.13978000  0.77386000  0.91830000  1.0 -0.9032264647
O  O2  1  0.35556000  0.22148000  0.58170000  1.0 -0.9032264647
O  O3  1  0.14444000  0.72614000  0.86592000  1.0 -0.9032264647
O  O4  1  0.36022000  0.27852000  0.63408000  1.0 -0.9032264647
O  O5  1  0.77386000  0.91830000  0.13978000  1.0 -0.9032264647
O  O6  1  0.91830000  0.13978000  0.77386000  1.0 -0.9032264647
O  O7  1  0.27852000  0.63408000  0.36022000  1.0 -0.9032264647
O  O8  1  0.58170000  0.35556000  0.22148000  1.0 -0.9032264647
O  O9  1  0.22148000  0.58170000  0.35556000  1.0 -0.9032264647
O  O10  1  0.86592000  0.14444000  0.72614000  1.0 -0.9032264647
O  O11  1  0.72614000  0.86592000  0.14444000  1.0 -0.9032264647
O  O12  1  0.63408000  0.36022000  0.27852000  1.0 -0.9032264647
O  O13  1  0.27386000  0.63978000  0.41830000  1.0 -0.9032264647
O  O14  1  0.72148000  0.85556000  0.08170000  1.0 -0.9032264647
O  O15  1  0.22614000  0.64444000  0.36592000  1.0 -0.9032264647
O  O16  1  0.77852000  0.86022000  0.13408000  1.0 -0.9032264647
O  O17  1  0.41830000  0.27386000  0.63978000  1.0 -0.9032264647
O  O18  1  0.63978000  0.41830000  0.27386000  1.0 -0.9032264647
O  O19  1  0.13408000  0.77852000  0.86022000  1.0 -0.9032264647
O  O20  1  0.85556000  0.08170000  0.72148000  1.0 -0.9032264647
O  O21  1  0.08170000  0.72148000  0.85556000  1.0 -0.9032264647
O  O22  1  0.64444000  0.36592000  0.22614000  1.0 -0.9032264647
O  O23  1  0.36592000  0.22614000  0.64444000  1.0 -0.9032264647
O  O24  1  0.86022000  0.13408000  0.77852000  1.0 -0.9032264647
O  O25  1  0.08436000  0.71402000  0.92168000  1.0 -0.9078992341
O  O26  1  0.29234000  0.16268000  0.57832000  1.0 -0.9078992341
O  O27  1  0.20766000  0.78598000  0.87034000  1.0 -0.9078992341
O  O28  1  0.41564000  0.33732000  0.62966000  1.0 -0.9078992341
O  O29  1  0.71402000  0.92168000  0.08436000  1.0 -0.9078992341
O  O30  1  0.92168000  0.08436000  0.71402000  1.0 -0.9078992341
O  O31  1  0.33732000  0.62966000  0.41564000  1.0 -0.9078992341
O  O32  1  0.57832000  0.29234000  0.16268000  1.0 -0.9078992341
O  O33  1  0.16268000  0.57832000  0.29234000  1.0 -0.9078992341
O  O34  1  0.87034000  0.20766000  0.78598000  1.0 -0.9078992341
O  O35  1  0.78598000  0.87034000  0.20766000  1.0 -0.9078992341
O  O36  1  0.62966000  0.41564000  0.33732000  1.0 -0.9078992341
O  O37  1  0.21402000  0.58436000  0.42168000  1.0 -0.9078992341
O  O38  1  0.66268000  0.79234000  0.07832000  1.0 -0.9078992341
O  O39  1  0.28598000  0.70766000  0.37034000  1.0 -0.9078992341
O  O40  1  0.83732000  0.91564000  0.12966000  1.0 -0.9078992341
O  O41  1  0.42168000  0.21402000  0.58436000  1.0 -0.9078992341
O  O42  1  0.58436000  0.42168000  0.21402000  1.0 -0.9078992341
O  O43  1  0.12966000  0.83732000  0.91564000  1.0 -0.9078992341
O  O44  1  0.79234000  0.07832000  0.66268000  1.0 -0.9078992341
O  O45  1  0.07832000  0.66268000  0.79234000  1.0 -0.9078992341
O  O46  1  0.70766000  0.37034000  0.28598000  1.0 -0.9078992341
O  O47  1  0.37034000  0.28598000  0.70766000  1.0 -0.9078992341
O  O48  1  0.91564000  0.12966000  0.83732000  1.0 -0.9078992341
O  O49  1  0.13378000  0.82744000  0.97510000  1.0 -0.9773398076
O  O50  1  0.35234000  0.15868000  0.52490000  1.0 -0.9773398076
O  O51  1  0.14766000  0.67256000  0.80634000  1.0 -0.9773398076
O  O52  1  0.36622000  0.34132000  0.69366000  1.0 -0.9773398076
O  O53  1  0.82744000  0.97510000  0.13378000  1.0 -0.9773398076
O  O54  1  0.97510000  0.13378000  0.82744000  1.0 -0.9773398076
O  O55  1  0.34132000  0.69366000  0.36622000  1.0 -0.9773398076
O  O56  1  0.52490000  0.35234000  0.15868000  1.0 -0.9773398076
O  O57  1  0.15868000  0.52490000  0.35234000  1.0 -0.9773398076
O  O58  1  0.80634000  0.14766000  0.67256000  1.0 -0.9773398076
O  O59  1  0.67256000  0.80634000  0.14766000  1.0 -0.9773398076
O  O60  1  0.69366000  0.36622000  0.34132000  1.0 -0.9773398076
O  O61  1  0.32744000  0.63378000  0.47510000  1.0 -0.9773398076
O  O62  1  0.65868000  0.85234000  0.02490000  1.0 -0.9773398076
O  O63  1  0.17256000  0.64766000  0.30634000  1.0 -0.9773398076
O  O64  1  0.84132000  0.86622000  0.19366000  1.0 -0.9773398076
O  O65  1  0.47510000  0.32744000  0.63378000  1.0 -0.9773398076
O  O66  1  0.63378000  0.47510000  0.32744000  1.0 -0.9773398076
O  O67  1  0.19366000  0.84132000  0.86622000  1.0 -0.9773398076
O  O68  1  0.85234000  0.02490000  0.65868000  1.0 -0.9773398076
O  O69  1  0.02490000  0.65868000  0.85234000  1.0 -0.9773398076
O  O70  1  0.64766000  0.30634000  0.17256000  1.0 -0.9773398076
O  O71  1  0.30634000  0.17256000  0.64766000  1.0 -0.9773398076
O  O72  1  0.86622000  0.19366000  0.84132000  1.0 -0.9773398076
O  O73  1  0.14945000  0.76978000  0.98359000  1.0 -0.8715263147
O  O74  1  0.28619000  0.16586000  0.51641000  1.0 -0.8715263147
O  O75  1  0.21381000  0.73022000  0.87967000  1.0 -0.8715263147
O  O76  1  0.35055000  0.33414000  0.62033000  1.0 -0.8715263147
O  O77  1  0.76978000  0.98359000  0.14945000  1.0 -0.8715263147
O  O78  1  0.98359000  0.14945000  0.76978000  1.0 -0.8715263147
O  O79  1  0.33414000  0.62033000  0.35055000  1.0 -0.8715263147
O  O80  1  0.51641000  0.28619000  0.16586000  1.0 -0.8772651154
O  O81  1  0.16586000  0.51641000  0.28619000  1.0 -0.8715263147
O  O82  1  0.87967000  0.21381000  0.73022000  1.0 -0.8715263147
O  O83  1  0.73022000  0.87967000  0.21381000  1.0 -0.8715263147
O  O84  1  0.62033000  0.35055000  0.33414000  1.0 -0.8715263147
O  O85  1  0.26978000  0.64945000  0.48359000  1.0 -0.8715263147
O  O86  1  0.66586000  0.78619000  0.01641000  1.0 -0.8772651154
O  O87  1  0.23022000  0.71381000  0.37967000  1.0 -0.8715263147
O  O88  1  0.83414000  0.85055000  0.12033000  1.0 -0.8715263147
O  O89  1  0.48359000  0.26978000  0.64945000  1.0 -0.8772651154
O  O90  1  0.64945000  0.48359000  0.26978000  1.0 -0.8772651154
O  O91  1  0.12033000  0.83414000  0.85055000  1.0 -0.8715263147
O  O92  1  0.78619000  0.01641000  0.66586000  1.0 -0.8715263147
O  O93  1  0.01641000  0.66586000  0.78619000  1.0 -0.8715263147
O  O94  1  0.71381000  0.37967000  0.23022000  1.0 -0.8715263147
O  O95  1  0.37967000  0.23022000  0.71381000  1.0 -0.8715263147
O  O96  1  0.85055000  0.12033000  0.83414000  1.0 -0.8715263147
O  O97  1  0.06805000  0.77004000  0.91083000  1.0 -0.8906525035
O  O98  1  0.35921000  0.15722000  0.58917000  1.0 -0.8906525035
O  O99  1  0.14079000  0.72996000  0.79801000  1.0 -0.8906525035
O  O100  1  0.43195000  0.34278000  0.70199000  1.0 -0.8906525035
O  O101  1  0.77004000  0.91083000  0.06805000  1.0 -0.8906525035
O  O102  1  0.91083000  0.06805000  0.77004000  1.0 -0.8906525035
O  O103  1  0.34278000  0.70199000  0.43195000  1.0 -0.8906525035
O  O104  1  0.58917000  0.35921000  0.15722000  1.0 -0.8906525035
O  O105  1  0.15722000  0.58917000  0.35921000  1.0 -0.8906525035
O  O106  1  0.79801000  0.14079000  0.72996000  1.0 -0.8906525035
O  O107  1  0.72996000  0.79801000  0.14079000  1.0 -0.8906525035
O  O108  1  0.70199000  0.43195000  0.34278000  1.0 -0.8906525035
O  O109  1  0.27004000  0.56805000  0.41083000  1.0 -0.8906525035
O  O110  1  0.65722000  0.85921000  0.08917000  1.0 -0.8906525035
O  O111  1  0.22996000  0.64079000  0.29801000  1.0 -0.8906525035
O  O112  1  0.84278000  0.93195000  0.20199000  1.0 -0.8906525035
O  O113  1  0.41083000  0.27004000  0.56805000  1.0 -0.8906525035
O  O114  1  0.56805000  0.41083000  0.27004000  1.0 -0.8906525035
O  O115  1  0.20199000  0.84278000  0.93195000  1.0 -0.8906525035
O  O116  1  0.85921000  0.08917000  0.65722000  1.0 -0.8906525035
O  O117  1  0.08917000  0.65722000  0.85921000  1.0 -0.8906525035
O  O118  1  0.64079000  0.29801000  0.22996000  1.0 -0.8906525035
O  O119  1  0.29801000  0.22996000  0.64079000  1.0 -0.8906525035
O  O120  1  0.93195000  0.20199000  0.84278000  1.0 -0.8906525035
O  O121  1  0.21611000  0.77763000  0.94398000  1.0 -1.0332144756
O  O122  1  0.33365000  0.27213000  0.55602000  1.0 -1.0332144756
O  O123  1  0.16635000  0.72237000  0.93848000  1.0 -1.0332144756
O  O124  1  0.28389000  0.22787000  0.56152000  1.0 -1.0332144756
O  O125  1  0.77763000  0.94398000  0.21611000  1.0 -1.0332144756
O  O126  1  0.94398000  0.21611000  0.77763000  1.0 -1.0332144756
O  O127  1  0.22787000  0.56152000  0.28389000  1.0 -1.0332144756
O  O128  1  0.55602000  0.33365000  0.27213000  1.0 -1.0332144756
O  O129  1  0.27213000  0.55602000  0.33365000  1.0 -1.0332144756
O  O130  1  0.93848000  0.16635000  0.72237000  1.0 -1.0332144756
O  O131  1  0.72237000  0.93848000  0.16635000  1.0 -1.0332144756
O  O132  1  0.56152000  0.28389000  0.22787000  1.0 -1.0332144756
O  O133  1  0.27763000  0.71611000  0.44398000  1.0 -1.0332144756
O  O134  1  0.77213000  0.83365000  0.05602000  1.0 -1.0332144756
O  O135  1  0.22237000  0.66635000  0.43848000  1.0 -1.0332144756
O  O136  1  0.72787000  0.78389000  0.06152000  1.0 -1.0332144756
O  O137  1  0.44398000  0.27763000  0.71611000  1.0 -1.0332144756
O  O138  1  0.71611000  0.44398000  0.27763000  1.0 -1.0332144756
O  O139  1  0.06152000  0.72787000  0.78389000  1.0 -1.0332144756
O  O140  1  0.83365000  0.05602000  0.77213000  1.0 -1.0332144756
O  O141  1  0.05602000  0.77213000  0.83365000  1.0 -1.0332144756
O  O142  1  0.66635000  0.43848000  0.22237000  1.0 -1.0332144756
O  O143  1  0.43848000  0.22237000  0.66635000  1.0 -1.0332144756
O  O144  1  0.78389000  0.06152000  0.72787000  1.0 -1.0332144756
O  O145  1  0.20306000  0.83186000  0.98720000  1.0 -0.8772651154
O  O146  1  0.34466000  0.21586000  0.51280000  1.0 -0.8772651154
O  O147  1  0.15534000  0.66814000  0.87120000  1.0 -0.8772651154
O  O148  1  0.29694000  0.28414000  0.62880000  1.0 -0.8772651154
O  O149  1  0.83186000  0.98720000  0.20306000  1.0 -0.8772651154
O  O150  1  0.98720000  0.20306000  0.83186000  1.0 -0.8772651154
O  O151  1  0.28414000  0.62880000  0.29694000  1.0 -0.8772651154
O  O152  1  0.51280000  0.34466000  0.21586000  1.0 -0.8772651154
O  O153  1  0.21586000  0.51280000  0.34466000  1.0 -0.8772651154
O  O154  1  0.87120000  0.15534000  0.66814000  1.0 -0.8772651154
O  O155  1  0.66814000  0.87120000  0.15534000  1.0 -0.8772651154
O  O156  1  0.62880000  0.29694000  0.28414000  1.0 -0.8772651154
O  O157  1  0.33186000  0.70306000  0.48720000  1.0 -0.8772651154
O  O158  1  0.71586000  0.84466000  0.01280000  1.0 -0.8772651154
O  O159  1  0.16814000  0.65534000  0.37120000  1.0 -0.8772651154
O  O160  1  0.78414000  0.79694000  0.12880000  1.0 -0.8772651154
O  O161  1  0.48720000  0.33186000  0.70306000  1.0 -0.8772651154
O  O162  1  0.70306000  0.48720000  0.33186000  1.0 -0.8772651154
O  O163  1  0.12880000  0.78414000  0.79694000  1.0 -0.8772651154
O  O164  1  0.84466000  0.01280000  0.71586000  1.0 -0.8772651154
O  O165  1  0.01280000  0.71586000  0.84466000  1.0 -0.8772651154
O  O166  1  0.65534000  0.37120000  0.16814000  1.0 -0.8772651154
O  O167  1  0.37120000  0.16814000  0.65534000  1.0 -0.8772651154
O  O168  1  0.79694000  0.12880000  0.78414000  1.0 -0.8772651154
O  O169  1  0.10427000  0.65293000  0.93908000  1.0 -0.4976415674
O  O170  1  0.21385000  0.16519000  0.56092000  1.0 -0.4976415674
O  O171  1  0.28615000  0.84707000  0.95134000  1.0 -0.4976415674
O  O172  1  0.39573000  0.33481000  0.54866000  1.0 -0.4976415674
O  O173  1  0.65293000  0.93908000  0.10427000  1.0 -0.4976415674
O  O174  1  0.93908000  0.10427000  0.65293000  1.0 -0.4976415674
O  O175  1  0.33481000  0.54866000  0.39573000  1.0 -0.4976415674
O  O176  1  0.56092000  0.21385000  0.16519000  1.0 -0.4976415674
O  O177  1  0.16519000  0.56092000  0.21385000  1.0 -0.4976415674
O  O178  1  0.95134000  0.28615000  0.84707000  1.0 -0.4976415674
O  O179  1  0.84707000  0.95134000  0.28615000  1.0 -0.4976415674
O  O180  1  0.54866000  0.39573000  0.33481000  1.0 -0.4976415674
O  O181  1  0.15293000  0.60427000  0.43908000  1.0 -0.4976415674
O  O182  1  0.66519000  0.71385000  0.06092000  1.0 -0.4976415674
O  O183  1  0.34707000  0.78615000  0.45134000  1.0 -0.4976415674
O  O184  1  0.83481000  0.89573000  0.04866000  1.0 -0.4976415674
O  O185  1  0.43908000  0.15293000  0.60427000  1.0 -0.4976415674
O  O186  1  0.60427000  0.43908000  0.15293000  1.0 -0.4976415674
O  O187  1  0.04866000  0.83481000  0.89573000  1.0 -0.4976415674
O  O188  1  0.71385000  0.06092000  0.66519000  1.0 -0.4976415674
O  O189  1  0.06092000  0.66519000  0.71385000  1.0 -0.4976415674
O  O190  1  0.78615000  0.45134000  0.34707000  1.0 -0.4976415674
O  O191  1  0.45134000  0.34707000  0.78615000  1.0 -0.4976415674
O  O192  1  0.89573000  0.04866000  0.83481000  1.0 -0.4976415674
O  O193  1  0.04253000  0.62466000  0.89735000  1.0 -0.492449814
O  O194  1  0.22731000  0.14518000  0.60265000  1.0 -0.492449814
O  O195  1  0.27269000  0.87534000  0.91787000  1.0 -0.492449814
O  O196  1  0.45747000  0.35482000  0.58213000  1.0 -0.492449814
O  O197  1  0.62466000  0.89735000  0.04253000  1.0 -0.492449814
O  O198  1  0.89735000  0.04253000  0.62466000  1.0 -0.492449814
O  O199  1  0.35482000  0.58213000  0.45747000  1.0 -0.492449814
O  O200  1  0.60265000  0.22731000  0.14518000  1.0 -0.492449814
O  O201  1  0.14518000  0.60265000  0.22731000  1.0 -0.492449814
O  O202  1  0.91787000  0.27269000  0.87534000  1.0 -0.492449814
O  O203  1  0.87534000  0.91787000  0.27269000  1.0 -0.492449814
O  O204  1  0.58213000  0.45747000  0.35482000  1.0 -0.492449814
O  O205  1  0.12466000  0.54253000  0.39735000  1.0 -0.492449814
O  O206  1  0.64518000  0.72731000  0.10265000  1.0 -0.492449814
O  O207  1  0.37534000  0.77269000  0.41787000  1.0 -0.492449814
O  O208  1  0.85482000  0.95747000  0.08213000  1.0 -0.492449814
O  O209  1  0.39735000  0.12466000  0.54253000  1.0 -0.492449814
O  O210  1  0.54253000  0.39735000  0.12466000  1.0 -0.492449814
O  O211  1  0.08213000  0.85482000  0.95747000  1.0 -0.492449814
O  O212  1  0.72731000  0.10265000  0.64518000  1.0 -0.492449814
O  O213  1  0.10265000  0.64518000  0.72731000  1.0 -0.492449814
O  O214  1  0.77269000  0.41787000  0.37534000  1.0 -0.492449814
O  O215  1  0.41787000  0.37534000  0.77269000  1.0 -0.492449814
O  O216  1  0.95747000  0.08213000  0.85482000  1.0 -0.492449814
O  O217  1  0.72614000  0.36022000  0.58170000  1.0 -0.9032264647
O  O218  1  0.27852000  0.14444000  0.91830000  1.0 -0.9032264647
O  O219  1  0.77386000  0.35556000  0.63408000  1.0 -0.9032264647
O  O220  1  0.22148000  0.13978000  0.86592000  1.0 -0.9032264647
O  O221  1  0.58170000  0.72614000  0.36022000  1.0 -0.9032264647
O  O222  1  0.36022000  0.58170000  0.72614000  1.0 -0.9032264647
O  O223  1  0.86592000  0.22148000  0.13978000  1.0 -0.9032264647
O  O224  1  0.14444000  0.91830000  0.27852000  1.0 -0.9032264647
O  O225  1  0.91830000  0.27852000  0.14444000  1.0 -0.9032264647
O  O226  1  0.35556000  0.63408000  0.77386000  1.0 -0.9032264647
O  O227  1  0.63408000  0.77386000  0.35556000  1.0 -0.9032264647
O  O228  1  0.13978000  0.86592000  0.22148000  1.0 -0.9032264647
O  O229  1  0.86022000  0.22614000  0.08170000  1.0 -0.9032264647
O  O230  1  0.64444000  0.77852000  0.41830000  1.0 -0.9032264647
O  O231  1  0.85556000  0.27386000  0.13408000  1.0 -0.9032264647
O  O232  1  0.63978000  0.72148000  0.36592000  1.0 -0.9032264647
O  O233  1  0.22614000  0.08170000  0.86022000  1.0 -0.9032264647
O  O234  1  0.08170000  0.86022000  0.22614000  1.0 -0.9032264647
O  O235  1  0.72148000  0.36592000  0.63978000  1.0 -0.9032264647
O  O236  1  0.41830000  0.64444000  0.77852000  1.0 -0.9032264647
O  O237  1  0.77852000  0.41830000  0.64444000  1.0 -0.9032264647
O  O238  1  0.13408000  0.85556000  0.27386000  1.0 -0.9032264647
O  O239  1  0.27386000  0.13408000  0.85556000  1.0 -0.9032264647
O  O240  1  0.36592000  0.63978000  0.72148000  1.0 -0.9032264647
O  O241  1  0.78598000  0.41564000  0.57832000  1.0 -0.9078992341
O  O242  1  0.33732000  0.20766000  0.92168000  1.0 -0.9078992341
O  O243  1  0.71402000  0.29234000  0.62966000  1.0 -0.9078992341
O  O244  1  0.16268000  0.08436000  0.87034000  1.0 -0.9078992341
O  O245  1  0.57832000  0.78598000  0.41564000  1.0 -0.9078992341
O  O246  1  0.41564000  0.57832000  0.78598000  1.0 -0.9078992341
O  O247  1  0.87034000  0.16268000  0.08436000  1.0 -0.9078992341
O  O248  1  0.20766000  0.92168000  0.33732000  1.0 -0.9078992341
O  O249  1  0.92168000  0.33732000  0.20766000  1.0 -0.9078992341
O  O250  1  0.29234000  0.62966000  0.71402000  1.0 -0.9078992341
O  O251  1  0.62966000  0.71402000  0.29234000  1.0 -0.9078992341
O  O252  1  0.08436000  0.87034000  0.16268000  1.0 -0.9078992341
O  O253  1  0.91564000  0.28598000  0.07832000  1.0 -0.9078992341
O  O254  1  0.70766000  0.83732000  0.42168000  1.0 -0.9078992341
O  O255  1  0.79234000  0.21402000  0.12966000  1.0 -0.9078992341
O  O256  1  0.58436000  0.66268000  0.37034000  1.0 -0.9078992341
O  O257  1  0.28598000  0.07832000  0.91564000  1.0 -0.9078992341
O  O258  1  0.07832000  0.91564000  0.28598000  1.0 -0.9078992341
O  O259  1  0.66268000  0.37034000  0.58436000  1.0 -0.9078992341
O  O260  1  0.42168000  0.70766000  0.83732000  1.0 -0.9078992341
O  O261  1  0.83732000  0.42168000  0.70766000  1.0 -0.9078992341
O  O262  1  0.12966000  0.79234000  0.21402000  1.0 -0.9078992341
O  O263  1  0.21402000  0.12966000  0.79234000  1.0 -0.9078992341
O  O264  1  0.37034000  0.58436000  0.66268000  1.0 -0.9078992341
O  O265  1  0.67256000  0.36622000  0.52490000  1.0 -0.9773398076
O  O266  1  0.34132000  0.14766000  0.97510000  1.0 -0.9773398076
O  O267  1  0.82744000  0.35234000  0.69366000  1.0 -0.9773398076
O  O268  1  0.15868000  0.13378000  0.80634000  1.0 -0.9773398076
O  O269  1  0.52490000  0.67256000  0.36622000  1.0 -0.9773398076
O  O270  1  0.36622000  0.52490000  0.67256000  1.0 -0.9773398076
O  O271  1  0.80634000  0.15868000  0.13378000  1.0 -0.9773398076
O  O272  1  0.14766000  0.97510000  0.34132000  1.0 -0.9773398076
O  O273  1  0.97510000  0.34132000  0.14766000  1.0 -0.9773398076
O  O274  1  0.35234000  0.69366000  0.82744000  1.0 -0.9773398076
O  O275  1  0.69366000  0.82744000  0.35234000  1.0 -0.9773398076
O  O276  1  0.13378000  0.80634000  0.15868000  1.0 -0.9773398076
O  O277  1  0.86622000  0.17256000  0.02490000  1.0 -0.9773398076
O  O278  1  0.64766000  0.84132000  0.47510000  1.0 -0.9773398076
O  O279  1  0.85234000  0.32744000  0.19366000  1.0 -0.9773398076
O  O280  1  0.63378000  0.65868000  0.30634000  1.0 -0.9773398076
O  O281  1  0.17256000  0.02490000  0.86622000  1.0 -0.9773398076
O  O282  1  0.02490000  0.86622000  0.17256000  1.0 -0.9773398076
O  O283  1  0.65868000  0.30634000  0.63378000  1.0 -0.9773398076
O  O284  1  0.47510000  0.64766000  0.84132000  1.0 -0.9773398076
O  O285  1  0.84132000  0.47510000  0.64766000  1.0 -0.9773398076
O  O286  1  0.19366000  0.85234000  0.32744000  1.0 -0.9773398076
O  O287  1  0.32744000  0.19366000  0.85234000  1.0 -0.9773398076
O  O288  1  0.30634000  0.63378000  0.65868000  1.0 -0.9773398076
O  O289  1  0.73022000  0.35055000  0.51641000  1.0 -0.8715263147
O  O290  1  0.33414000  0.21381000  0.98359000  1.0 -0.8715263147
O  O291  1  0.76978000  0.28619000  0.62033000  1.0 -0.8715263147
O  O292  1  0.16586000  0.14945000  0.87967000  1.0 -0.8715263147
O  O293  1  0.51641000  0.73022000  0.35055000  1.0 -0.8715263147
O  O294  1  0.35055000  0.51641000  0.73022000  1.0 -0.8715263147
O  O295  1  0.87967000  0.16586000  0.14945000  1.0 -0.8715263147
O  O296  1  0.21381000  0.98359000  0.33414000  1.0 -0.8715263147
O  O297  1  0.98359000  0.33414000  0.21381000  1.0 -0.8715263147
O  O298  1  0.28619000  0.62033000  0.76978000  1.0 -0.8715263147
O  O299  1  0.62033000  0.76978000  0.28619000  1.0 -0.8715263147
O  O300  1  0.14945000  0.87967000  0.16586000  1.0 -0.8715263147
O  O301  1  0.85055000  0.23022000  0.01641000  1.0 -0.8715263147
O  O302  1  0.71381000  0.83414000  0.48359000  1.0 -0.8715263147
O  O303  1  0.78619000  0.26978000  0.12033000  1.0 -0.8715263147
O  O304  1  0.64945000  0.66586000  0.37967000  1.0 -0.8715263147
O  O305  1  0.23022000  0.01641000  0.85055000  1.0 -0.8715263147
O  O306  1  0.01641000  0.85055000  0.23022000  1.0 -0.8715263147
O  O307  1  0.66586000  0.37967000  0.64945000  1.0 -0.8715263147
O  O308  1  0.48359000  0.71381000  0.83414000  1.0 -0.8715263147
O  O309  1  0.83414000  0.48359000  0.71381000  1.0 -0.8715263147
O  O310  1  0.12033000  0.78619000  0.26978000  1.0 -0.8772651154
O  O311  1  0.26978000  0.12033000  0.78619000  1.0 -0.8715263147
O  O312  1  0.37967000  0.64945000  0.66586000  1.0 -0.8715263147
O  O313  1  0.72996000  0.43195000  0.58917000  1.0 -0.8906525035
O  O314  1  0.34278000  0.14079000  0.91083000  1.0 -0.8906525035
O  O315  1  0.77004000  0.35921000  0.70199000  1.0 -0.8906525035
O  O316  1  0.15722000  0.06805000  0.79801000  1.0 -0.8906525035
O  O317  1  0.58917000  0.72996000  0.43195000  1.0 -0.8906525035
O  O318  1  0.43195000  0.58917000  0.72996000  1.0 -0.8906525035
O  O319  1  0.79801000  0.15722000  0.06805000  1.0 -0.8906525035
O  O320  1  0.14079000  0.91083000  0.34278000  1.0 -0.8906525035
O  O321  1  0.91083000  0.34278000  0.14079000  1.0 -0.8906525035
O  O322  1  0.35921000  0.70199000  0.77004000  1.0 -0.8906525035
O  O323  1  0.70199000  0.77004000  0.35921000  1.0 -0.8906525035
O  O324  1  0.06805000  0.79801000  0.15722000  1.0 -0.8906525035
O  O325  1  0.93195000  0.22996000  0.08917000  1.0 -0.8906525035
O  O326  1  0.64079000  0.84278000  0.41083000  1.0 -0.8906525035
O  O327  1  0.85921000  0.27004000  0.20199000  1.0 -0.8906525035
O  O328  1  0.56805000  0.65722000  0.29801000  1.0 -0.8906525035
O  O329  1  0.22996000  0.08917000  0.93195000  1.0 -0.8906525035
O  O330  1  0.08917000  0.93195000  0.22996000  1.0 -0.8906525035
O  O331  1  0.65722000  0.29801000  0.56805000  1.0 -0.8906525035
O  O332  1  0.41083000  0.64079000  0.84278000  1.0 -0.8906525035
O  O333  1  0.84278000  0.41083000  0.64079000  1.0 -0.8906525035
O  O334  1  0.20199000  0.85921000  0.27004000  1.0 -0.8906525035
O  O335  1  0.27004000  0.20199000  0.85921000  1.0 -0.8906525035
O  O336  1  0.29801000  0.56805000  0.65722000  1.0 -0.8906525035
O  O337  1  0.72237000  0.28389000  0.55602000  1.0 -1.0332144756
O  O338  1  0.22787000  0.16635000  0.94398000  1.0 -1.0332144756
O  O339  1  0.77763000  0.33365000  0.56152000  1.0 -1.0332144756
O  O340  1  0.27213000  0.21611000  0.93848000  1.0 -1.0332144756
O  O341  1  0.55602000  0.72237000  0.28389000  1.0 -1.0332144756
O  O342  1  0.28389000  0.55602000  0.72237000  1.0 -1.0332144756
O  O343  1  0.93848000  0.27213000  0.21611000  1.0 -1.0332144756
O  O344  1  0.16635000  0.94398000  0.22787000  1.0 -1.0332144756
O  O345  1  0.94398000  0.22787000  0.16635000  1.0 -1.0332144756
O  O346  1  0.33365000  0.56152000  0.77763000  1.0 -1.0332144756
O  O347  1  0.56152000  0.77763000  0.33365000  1.0 -1.0332144756
O  O348  1  0.21611000  0.93848000  0.27213000  1.0 -1.0332144756
O  O349  1  0.78389000  0.22237000  0.05602000  1.0 -1.0332144756
O  O350  1  0.66635000  0.72787000  0.44398000  1.0 -1.0332144756
O  O351  1  0.83365000  0.27763000  0.06152000  1.0 -1.0332144756
O  O352  1  0.71611000  0.77213000  0.43848000  1.0 -1.0332144756
O  O353  1  0.22237000  0.05602000  0.78389000  1.0 -1.0332144756
O  O354  1  0.05602000  0.78389000  0.22237000  1.0 -1.0332144756
O  O355  1  0.77213000  0.43848000  0.71611000  1.0 -1.0332144756
O  O356  1  0.44398000  0.66635000  0.72787000  1.0 -1.0332144756
O  O357  1  0.72787000  0.44398000  0.66635000  1.0 -1.0332144756
O  O358  1  0.06152000  0.83365000  0.27763000  1.0 -1.0332144756
O  O359  1  0.27763000  0.06152000  0.83365000  1.0 -1.0332144756
O  O360  1  0.43848000  0.71611000  0.77213000  1.0 -1.0332144756
O  O361  1  0.66814000  0.29694000  0.51280000  1.0 -0.8772651154
O  O362  1  0.28414000  0.15534000  0.98720000  1.0 -0.8772651154
O  O363  1  0.83186000  0.34466000  0.62880000  1.0 -0.8772651154
O  O364  1  0.21586000  0.20306000  0.87120000  1.0 -0.8772651154
O  O365  1  0.51280000  0.66814000  0.29694000  1.0 -0.8772651154
O  O366  1  0.29694000  0.51280000  0.66814000  1.0 -0.8772651154
O  O367  1  0.87120000  0.21586000  0.20306000  1.0 -0.8772651154
O  O368  1  0.15534000  0.98720000  0.28414000  1.0 -0.8772651154
O  O369  1  0.98720000  0.28414000  0.15534000  1.0 -0.8772651154
O  O370  1  0.34466000  0.62880000  0.83186000  1.0 -0.8772651154
O  O371  1  0.62880000  0.83186000  0.34466000  1.0 -0.8772651154
O  O372  1  0.20306000  0.87120000  0.21586000  1.0 -0.8772651154
O  O373  1  0.79694000  0.16814000  0.01280000  1.0 -0.8772651154
O  O374  1  0.65534000  0.78414000  0.48720000  1.0 -0.8772651154
O  O375  1  0.84466000  0.33186000  0.12880000  1.0 -0.8772651154
O  O376  1  0.70306000  0.71586000  0.37120000  1.0 -0.8772651154
O  O377  1  0.16814000  0.01280000  0.79694000  1.0 -0.8772651154
O  O378  1  0.01280000  0.79694000  0.16814000  1.0 -0.8772651154
O  O379  1  0.71586000  0.37120000  0.70306000  1.0 -0.8772651154
O  O380  1  0.48720000  0.65534000  0.78414000  1.0 -0.8772651154
O  O381  1  0.78414000  0.48720000  0.65534000  1.0 -0.8772651154
O  O382  1  0.12880000  0.84466000  0.33186000  1.0 -0.8772651154
O  O383  1  0.33186000  0.12880000  0.84466000  1.0 -0.8772651154
O  O384  1  0.37120000  0.70306000  0.71586000  1.0 -0.8772651154
O  O385  1  0.84707000  0.39573000  0.56092000  1.0 -0.4976415674
O  O386  1  0.33481000  0.28615000  0.93908000  1.0 -0.4976415674
O  O387  1  0.65293000  0.21385000  0.54866000  1.0 -0.4976415674
O  O388  1  0.16519000  0.10427000  0.95134000  1.0 -0.4976415674
O  O389  1  0.56092000  0.84707000  0.39573000  1.0 -0.4976415674
O  O390  1  0.39573000  0.56092000  0.84707000  1.0 -0.4976415674
O  O391  1  0.95134000  0.16519000  0.10427000  1.0 -0.4976415674
O  O392  1  0.28615000  0.93908000  0.33481000  1.0 -0.4976415674
O  O393  1  0.93908000  0.33481000  0.28615000  1.0 -0.4976415674
O  O394  1  0.21385000  0.54866000  0.65293000  1.0 -0.4976415674
O  O395  1  0.54866000  0.65293000  0.21385000  1.0 -0.4976415674
O  O396  1  0.10427000  0.95134000  0.16519000  1.0 -0.4976415674
O  O397  1  0.89573000  0.34707000  0.06092000  1.0 -0.4976415674
O  O398  1  0.78615000  0.83481000  0.43908000  1.0 -0.4976415674
O  O399  1  0.71385000  0.15293000  0.04866000  1.0 -0.4976415674
O  O400  1  0.60427000  0.66519000  0.45134000  1.0 -0.4976415674
O  O401  1  0.34707000  0.06092000  0.89573000  1.0 -0.4976415674
O  O402  1  0.06092000  0.89573000  0.34707000  1.0 -0.4976415674
O  O403  1  0.66519000  0.45134000  0.60427000  1.0 -0.4976415674
O  O404  1  0.43908000  0.78615000  0.83481000  1.0 -0.4976415674
O  O405  1  0.83481000  0.43908000  0.78615000  1.0 -0.4976415674
O  O406  1  0.04866000  0.71385000  0.15293000  1.0 -0.4976415674
O  O407  1  0.15293000  0.04866000  0.71385000  1.0 -0.4976415674
O  O408  1  0.45134000  0.60427000  0.66519000  1.0 -0.4976415674
O  O409  1  0.87534000  0.45747000  0.60265000  1.0 -0.492449814
O  O410  1  0.35482000  0.27269000  0.89735000  1.0 -0.492449814
O  O411  1  0.62466000  0.22731000  0.58213000  1.0 -0.492449814
O  O412  1  0.14518000  0.04253000  0.91787000  1.0 -0.492449814
O  O413  1  0.60265000  0.87534000  0.45747000  1.0 -0.492449814
O  O414  1  0.45747000  0.60265000  0.87534000  1.0 -0.492449814
O  O415  1  0.91787000  0.14518000  0.04253000  1.0 -0.492449814
O  O416  1  0.27269000  0.89735000  0.35482000  1.0 -0.492449814
O  O417  1  0.89735000  0.35482000  0.27269000  1.0 -0.492449814
O  O418  1  0.22731000  0.58213000  0.62466000  1.0 -0.492449814
O  O419  1  0.58213000  0.62466000  0.22731000  1.0 -0.492449814
O  O420  1  0.04253000  0.91787000  0.14518000  1.0 -0.492449814
O  O421  1  0.95747000  0.37534000  0.10265000  1.0 -0.492449814
O  O422  1  0.77269000  0.85482000  0.39735000  1.0 -0.492449814
O  O423  1  0.72731000  0.12466000  0.08213000  1.0 -0.492449814
O  O424  1  0.54253000  0.64518000  0.41787000  1.0 -0.492449814
O  O425  1  0.37534000  0.10265000  0.95747000  1.0 -0.492449814
O  O426  1  0.10265000  0.95747000  0.37534000  1.0 -0.492449814
O  O427  1  0.64518000  0.41787000  0.54253000  1.0 -0.4976415674
O  O428  1  0.39735000  0.77269000  0.85482000  1.0 -0.492449814
O  O429  1  0.85482000  0.39735000  0.77269000  1.0 -0.492449814
O  O430  1  0.08213000  0.72731000  0.12466000  1.0 -0.492449814
O  O431  1  0.12466000  0.08213000  0.72731000  1.0 -0.492449814
O  O432  1  0.41787000  0.54253000  0.64518000  1.0 -0.492449814
