# DDEC6 charges by PACMAN v1.1 (https://github.com/mtap-research/PACMAN-charge/)
data_OJAZOP_ASR_pacman
_symmetry_space_group_name_H-M   'P 1'
_cell_length_a   29.60400000
_cell_length_b   29.60400000
_cell_length_c   29.60400000
_cell_angle_alpha   109.47100000
_cell_angle_beta   109.47100000
_cell_angle_gamma   109.47100000
_symmetry_Int_Tables_number   1
_chemical_formula_structural   Nd2Ge3(C3O4)3
_chemical_formula_sum   'Nd64 Ge96 C288 O384'
_cell_volume   19972.51902236
_cell_formula_units_Z   32
loop_
 _symmetry_equiv_pos_site_id
 _symmetry_equiv_pos_as_xyz
  1  'x, y, z'
loop_
 _atom_site_type_symbol
 _atom_site_label
 _atom_site_symmetry_multiplicity
 _atom_site_fract_x
 _atom_site_fract_y
 _atom_site_fract_z
 _atom_site_occupancy
 _atom_site_charge
Nd  Nd1  1  0.60230000  0.60230000  0.60230000  1.0 1.818530919
Nd  Nd2  1  0.50000000  0.00000000  0.89770000  1.0 1.818530919
Nd  Nd3  1  0.00000000  0.89770000  0.50000000  1.0 1.818530919
Nd  Nd4  1  0.89770000  0.50000000  0.00000000  1.0 1.818530919
Nd  Nd5  1  0.90024000  0.90024000  0.90024000  1.0 1.7376287717
Nd  Nd6  1  0.50000000  0.00000000  0.59976000  1.0 1.7376287717
Nd  Nd7  1  0.00000000  0.59976000  0.50000000  1.0 1.7323194761
Nd  Nd8  1  0.59976000  0.50000000  0.00000000  1.0 1.7376287717
Nd  Nd9  1  0.75590000  0.66793000  0.82695000  1.0 2.2441603465
Nd  Nd10  1  0.34098000  0.92895000  0.67305000  1.0 2.2441603465
Nd  Nd11  1  0.15902000  0.83207000  0.58797000  1.0 2.2441603465
Nd  Nd12  1  0.74410000  0.57105000  0.91203000  1.0 2.2441603465
Nd  Nd13  1  0.82695000  0.75590000  0.66793000  1.0 2.2441603465
Nd  Nd14  1  0.67305000  0.34098000  0.92895000  1.0 2.2441603465
Nd  Nd15  1  0.58797000  0.15902000  0.83207000  1.0 2.2441603465
Nd  Nd16  1  0.91203000  0.74410000  0.57105000  1.0 2.2462825555
Nd  Nd17  1  0.66793000  0.82695000  0.75590000  1.0 2.2441603465
Nd  Nd18  1  0.92895000  0.67305000  0.34098000  1.0 2.2441603465
Nd  Nd19  1  0.83207000  0.58797000  0.15902000  1.0 2.2462825555
Nd  Nd20  1  0.57105000  0.91203000  0.74410000  1.0 2.2441603465
Nd  Nd21  1  0.67304000  0.74474000  0.83310000  1.0 2.2322818556
Nd  Nd22  1  0.41164000  0.83994000  0.66690000  1.0 2.2322818556
Nd  Nd23  1  0.08836000  0.75526000  0.42830000  1.0 2.2322818556
Nd  Nd24  1  0.82696000  0.66006000  0.07170000  1.0 2.2322818556
Nd  Nd25  1  0.83310000  0.67304000  0.74474000  1.0 2.2322818556
Nd  Nd26  1  0.66690000  0.41164000  0.83994000  1.0 2.2322818556
Nd  Nd27  1  0.42830000  0.08836000  0.75526000  1.0 2.2322818556
Nd  Nd28  1  0.07170000  0.82696000  0.66006000  1.0 2.2322818556
Nd  Nd29  1  0.74474000  0.83310000  0.67304000  1.0 2.2322818556
Nd  Nd30  1  0.83994000  0.66690000  0.41164000  1.0 2.2322818556
Nd  Nd31  1  0.75526000  0.42830000  0.08836000  1.0 2.2322818556
Nd  Nd32  1  0.66006000  0.07170000  0.82696000  1.0 2.2322818556
Nd  Nd33  1  0.39770000  0.39770000  0.39770000  1.0 1.818530919
Nd  Nd34  1  0.50000000  0.00000000  0.10230000  1.0 1.818530919
Nd  Nd35  1  0.00000000  0.10230000  0.50000000  1.0 1.818530919
Nd  Nd36  1  0.10230000  0.50000000  0.00000000  1.0 1.818530919
Nd  Nd37  1  0.09976000  0.09976000  0.09976000  1.0 1.7323194761
Nd  Nd38  1  0.50000000  0.00000000  0.40024000  1.0 1.7376287717
Nd  Nd39  1  0.00000000  0.40024000  0.50000000  1.0 1.7323194761
Nd  Nd40  1  0.40024000  0.50000000  0.00000000  1.0 1.7376287717
Nd  Nd41  1  0.24410000  0.33207000  0.17305000  1.0 2.2441603465
Nd  Nd42  1  0.65902000  0.07105000  0.32695000  1.0 2.2462825555
Nd  Nd43  1  0.84098000  0.16793000  0.41203000  1.0 2.2462825555
Nd  Nd44  1  0.25590000  0.42895000  0.08797000  1.0 2.2441603465
Nd  Nd45  1  0.17305000  0.24410000  0.33207000  1.0 2.2441603465
Nd  Nd46  1  0.32695000  0.65902000  0.07105000  1.0 2.2441603465
Nd  Nd47  1  0.41203000  0.84098000  0.16793000  1.0 2.2441603465
Nd  Nd48  1  0.08797000  0.25590000  0.42895000  1.0 2.2441603465
Nd  Nd49  1  0.33207000  0.17305000  0.24410000  1.0 2.2441603465
Nd  Nd50  1  0.07105000  0.32695000  0.65902000  1.0 2.2441603465
Nd  Nd51  1  0.16793000  0.41203000  0.84098000  1.0 2.2441603465
Nd  Nd52  1  0.42895000  0.08797000  0.25590000  1.0 2.2462825555
Nd  Nd53  1  0.32696000  0.25526000  0.16690000  1.0 2.2322818556
Nd  Nd54  1  0.58836000  0.16006000  0.33310000  1.0 2.2322818556
Nd  Nd55  1  0.91164000  0.24474000  0.57170000  1.0 2.2322818556
Nd  Nd56  1  0.17304000  0.33994000  0.92830000  1.0 2.2322818556
Nd  Nd57  1  0.16690000  0.32696000  0.25526000  1.0 2.2322818556
Nd  Nd58  1  0.33310000  0.58836000  0.16006000  1.0 2.2322818556
Nd  Nd59  1  0.57170000  0.91164000  0.24474000  1.0 2.2322818556
Nd  Nd60  1  0.92830000  0.17304000  0.33994000  1.0 2.2322818556
Nd  Nd61  1  0.25526000  0.16690000  0.32696000  1.0 2.2322818556
Nd  Nd62  1  0.16006000  0.33310000  0.58836000  1.0 2.2322818556
Nd  Nd63  1  0.24474000  0.57170000  0.91164000  1.0 2.2322818556
Nd  Nd64  1  0.33994000  0.92830000  0.17304000  1.0 2.2322818556
Ge  Ge1  1  0.68538000  0.56833000  0.68409000  1.0 1.5481364954
Ge  Ge2  1  0.38424000  0.00129000  0.81591000  1.0 1.5481364954
Ge  Ge3  1  0.11576000  0.93167000  0.61705000  1.0 1.5481364954
Ge  Ge4  1  0.81462000  0.49871000  0.88295000  1.0 1.5481364954
Ge  Ge5  1  0.68409000  0.68538000  0.56833000  1.0 1.5481364954
Ge  Ge6  1  0.81591000  0.38424000  0.00129000  1.0 1.5481364954
Ge  Ge7  1  0.61705000  0.11576000  0.93167000  1.0 1.5481364954
Ge  Ge8  1  0.88295000  0.81462000  0.49871000  1.0 1.5481364954
Ge  Ge9  1  0.56833000  0.68409000  0.68538000  1.0 1.5481364954
Ge  Ge10  1  0.00129000  0.81591000  0.38424000  1.0 1.5481364954
Ge  Ge11  1  0.93167000  0.61705000  0.11576000  1.0 1.5481364954
Ge  Ge12  1  0.49871000  0.88295000  0.81462000  1.0 1.5481364954
Ge  Ge13  1  0.60675000  0.60651000  0.72216000  1.0 1.5481364954
Ge  Ge14  1  0.38435000  0.88459000  0.77784000  1.0 1.540344851
Ge  Ge15  1  0.11565000  0.89349000  0.50024000  1.0 1.5481364954
Ge  Ge16  1  0.89325000  0.61541000  0.99976000  1.0 1.5481364954
Ge  Ge17  1  0.72216000  0.60675000  0.60651000  1.0 1.5481364954
Ge  Ge18  1  0.77784000  0.38435000  0.88459000  1.0 1.540344851
Ge  Ge19  1  0.50024000  0.11565000  0.89349000  1.0 1.540344851
Ge  Ge20  1  0.99976000  0.89325000  0.61541000  1.0 1.5481364954
Ge  Ge21  1  0.60651000  0.72216000  0.60675000  1.0 1.5481364954
Ge  Ge22  1  0.88459000  0.77784000  0.38435000  1.0 1.5481364954
Ge  Ge23  1  0.89349000  0.50024000  0.11565000  1.0 1.5481364954
Ge  Ge24  1  0.61541000  0.99976000  0.89325000  1.0 1.5481364954
Ge  Ge25  1  0.82146000  0.80901000  0.93011000  1.0 1.5190161336
Ge  Ge26  1  0.37890000  0.89135000  0.56989000  1.0 1.5190161336
Ge  Ge27  1  0.12110000  0.69099000  0.51245000  1.0 1.5190161336
Ge  Ge28  1  0.67854000  0.60865000  0.98755000  1.0 1.5190161336
Ge  Ge29  1  0.93011000  0.82146000  0.80901000  1.0 1.5190161336
Ge  Ge30  1  0.56989000  0.37890000  0.89135000  1.0 1.5190161336
Ge  Ge31  1  0.51245000  0.12110000  0.69099000  1.0 1.5190161336
Ge  Ge32  1  0.98755000  0.67854000  0.60865000  1.0 1.5190161336
Ge  Ge33  1  0.80901000  0.93011000  0.82146000  1.0 1.5190161336
Ge  Ge34  1  0.89135000  0.56989000  0.37890000  1.0 1.5190161336
Ge  Ge35  1  0.69099000  0.51245000  0.12110000  1.0 1.5190161336
Ge  Ge36  1  0.60865000  0.98755000  0.67854000  1.0 1.5190161336
Ge  Ge37  1  0.77705000  0.88586000  0.89997000  1.0 1.5346639175
Ge  Ge38  1  0.48589000  0.87708000  0.60003000  1.0 1.5346639175
Ge  Ge39  1  0.01411000  0.61414000  0.39119000  1.0 1.540344851
Ge  Ge40  1  0.72295000  0.62292000  0.10881000  1.0 1.540344851
Ge  Ge41  1  0.89997000  0.77705000  0.88586000  1.0 1.540344851
Ge  Ge42  1  0.60003000  0.48589000  0.87708000  1.0 1.5346639175
Ge  Ge43  1  0.39119000  0.01411000  0.61414000  1.0 1.5346639175
Ge  Ge44  1  0.10881000  0.72295000  0.62292000  1.0 1.540344851
Ge  Ge45  1  0.88586000  0.89997000  0.77705000  1.0 1.5346639175
Ge  Ge46  1  0.87708000  0.60003000  0.48589000  1.0 1.5346639175
Ge  Ge47  1  0.61414000  0.39119000  0.01411000  1.0 1.540344851
Ge  Ge48  1  0.62292000  0.10881000  0.72295000  1.0 1.5346639175
Ge  Ge49  1  0.31462000  0.43167000  0.31591000  1.0 1.5481364954
Ge  Ge50  1  0.61576000  0.99871000  0.18409000  1.0 1.5481364954
Ge  Ge51  1  0.88424000  0.06833000  0.38295000  1.0 1.5481364954
Ge  Ge52  1  0.18538000  0.50129000  0.11705000  1.0 1.5481364954
Ge  Ge53  1  0.31591000  0.31462000  0.43167000  1.0 1.5481364954
Ge  Ge54  1  0.18409000  0.61576000  0.99871000  1.0 1.5481364954
Ge  Ge55  1  0.38295000  0.88424000  0.06833000  1.0 1.5481364954
Ge  Ge56  1  0.11705000  0.18538000  0.50129000  1.0 1.5481364954
Ge  Ge57  1  0.43167000  0.31591000  0.31462000  1.0 1.5481364954
Ge  Ge58  1  0.99871000  0.18409000  0.61576000  1.0 1.5481364954
Ge  Ge59  1  0.06833000  0.38295000  0.88424000  1.0 1.5481364954
Ge  Ge60  1  0.50129000  0.11705000  0.18538000  1.0 1.5481364954
Ge  Ge61  1  0.39325000  0.39349000  0.27784000  1.0 1.5481364954
Ge  Ge62  1  0.61565000  0.11541000  0.22216000  1.0 1.5481364954
Ge  Ge63  1  0.88435000  0.10651000  0.49976000  1.0 1.540344851
Ge  Ge64  1  0.10675000  0.38459000  0.00024000  1.0 1.540344851
Ge  Ge65  1  0.27784000  0.39325000  0.39349000  1.0 1.5481364954
Ge  Ge66  1  0.22216000  0.61565000  0.11541000  1.0 1.5481364954
Ge  Ge67  1  0.49976000  0.88435000  0.10651000  1.0 1.5481364954
Ge  Ge68  1  0.00024000  0.10675000  0.38459000  1.0 1.540344851
Ge  Ge69  1  0.39349000  0.27784000  0.39325000  1.0 1.540344851
Ge  Ge70  1  0.11541000  0.22216000  0.61565000  1.0 1.5481364954
Ge  Ge71  1  0.10651000  0.49976000  0.88435000  1.0 1.540344851
Ge  Ge72  1  0.38459000  0.00024000  0.10675000  1.0 1.5481364954
Ge  Ge73  1  0.17854000  0.19099000  0.06989000  1.0 1.5190161336
Ge  Ge74  1  0.62110000  0.10865000  0.43011000  1.0 1.5190161336
Ge  Ge75  1  0.87890000  0.30901000  0.48755000  1.0 1.5190161336
Ge  Ge76  1  0.32146000  0.39135000  0.01245000  1.0 1.5190161336
Ge  Ge77  1  0.06989000  0.17854000  0.19099000  1.0 1.5190161336
Ge  Ge78  1  0.43011000  0.62110000  0.10865000  1.0 1.5190161336
Ge  Ge79  1  0.48755000  0.87890000  0.30901000  1.0 1.5190161336
Ge  Ge80  1  0.01245000  0.32146000  0.39135000  1.0 1.5190161336
Ge  Ge81  1  0.19099000  0.06989000  0.17854000  1.0 1.5190161336
Ge  Ge82  1  0.10865000  0.43011000  0.62110000  1.0 1.5190161336
Ge  Ge83  1  0.30901000  0.48755000  0.87890000  1.0 1.5190161336
Ge  Ge84  1  0.39135000  0.01245000  0.32146000  1.0 1.5190161336
Ge  Ge85  1  0.22295000  0.11414000  0.10003000  1.0 1.540344851
Ge  Ge86  1  0.51411000  0.12292000  0.39997000  1.0 1.5346639175
Ge  Ge87  1  0.98589000  0.38586000  0.60881000  1.0 1.5346639175
Ge  Ge88  1  0.27705000  0.37708000  0.89119000  1.0 1.5346639175
Ge  Ge89  1  0.10003000  0.22295000  0.11414000  1.0 1.540344851
Ge  Ge90  1  0.39997000  0.51411000  0.12292000  1.0 1.540344851
Ge  Ge91  1  0.60881000  0.98589000  0.38586000  1.0 1.5346639175
Ge  Ge92  1  0.89119000  0.27705000  0.37708000  1.0 1.5346639175
Ge  Ge93  1  0.11414000  0.10003000  0.22295000  1.0 1.5346639175
Ge  Ge94  1  0.12292000  0.39997000  0.51411000  1.0 1.5346639175
Ge  Ge95  1  0.38586000  0.60881000  0.98589000  1.0 1.5346639175
Ge  Ge96  1  0.37708000  0.89119000  0.27705000  1.0 1.5346639175
C  C1  1  0.68270000  0.50010000  0.67860000  1.0 -0.5638885104
C  C2  1  0.32150000  0.00410000  0.82140000  1.0 -0.5638885104
C  C3  1  0.17850000  0.99990000  0.68260000  1.0 -0.5638885104
C  C4  1  0.81730000  0.49590000  0.81740000  1.0 -0.5693392559
C  C5  1  0.67860000  0.68270000  0.50010000  1.0 -0.5693392559
C  C6  1  0.82140000  0.32150000  0.00410000  1.0 -0.5638885104
C  C7  1  0.68260000  0.17850000  0.99990000  1.0 -0.5638885104
C  C8  1  0.81740000  0.81730000  0.49590000  1.0 -0.5638885104
C  C9  1  0.50010000  0.67860000  0.68270000  1.0 -0.5638885104
C  C10  1  0.00410000  0.82140000  0.32150000  1.0 -0.5638885104
C  C11  1  0.99990000  0.68260000  0.17850000  1.0 -0.5693392559
C  C12  1  0.49590000  0.81740000  0.81730000  1.0 -0.5638885104
C  C13  1  0.66030000  0.48090000  0.71180000  1.0 0.0998883142
C  C14  1  0.26910000  0.94850000  0.78820000  1.0 0.0998883142
C  C15  1  0.23090000  0.01910000  0.67940000  1.0 0.0998883142
C  C16  1  0.83970000  0.55150000  0.82060000  1.0 0.0998883142
C  C17  1  0.71180000  0.66030000  0.48090000  1.0 0.0998883142
C  C18  1  0.78820000  0.26910000  0.94850000  1.0 0.0998883142
C  C19  1  0.67940000  0.23090000  0.01910000  1.0 0.0998883142
C  C20  1  0.82060000  0.83970000  0.55150000  1.0 0.0998883142
C  C21  1  0.48090000  0.71180000  0.66030000  1.0 0.0998883142
C  C22  1  0.94850000  0.78820000  0.26910000  1.0 0.0998883142
C  C23  1  0.01910000  0.67940000  0.23090000  1.0 0.0998883142
C  C24  1  0.55150000  0.82060000  0.83970000  1.0 0.0998883142
C  C25  1  0.68120000  0.52600000  0.76960000  1.0 0.6587821785
C  C26  1  0.25640000  0.91160000  0.73040000  1.0 0.6587821785
C  C27  1  0.24360000  0.97400000  0.65520000  1.0 0.6587821785
C  C28  1  0.81880000  0.58840000  0.84480000  1.0 0.6587821785
C  C29  1  0.76960000  0.68120000  0.52600000  1.0 0.6587821785
C  C30  1  0.73040000  0.25640000  0.91160000  1.0 0.6587821785
C  C31  1  0.65520000  0.24360000  0.97400000  1.0 0.6587821785
C  C32  1  0.84480000  0.81880000  0.58840000  1.0 0.6587821785
C  C33  1  0.52600000  0.76960000  0.68120000  1.0 0.6587821785
C  C34  1  0.91160000  0.73040000  0.25640000  1.0 0.6587821785
C  C35  1  0.97400000  0.65520000  0.24360000  1.0 0.6587821785
C  C36  1  0.58840000  0.84480000  0.81880000  1.0 0.6587821785
C  C37  1  0.56420000  0.55360000  0.73800000  1.0 -0.5373426509
C  C38  1  0.31560000  0.82620000  0.76200000  1.0 -0.5373426509
C  C39  1  0.18440000  0.94640000  0.51060000  1.0 -0.5373426509
C  C40  1  0.93580000  0.67380000  0.98940000  1.0 -0.5373426509
C  C41  1  0.73800000  0.56420000  0.55360000  1.0 -0.5373426509
C  C42  1  0.76200000  0.31560000  0.82620000  1.0 -0.5373426509
C  C43  1  0.51060000  0.18440000  0.94640000  1.0 -0.5373426509
C  C44  1  0.98940000  0.93580000  0.67380000  1.0 -0.5373426509
C  C45  1  0.55360000  0.73800000  0.56420000  1.0 -0.5373426509
C  C46  1  0.82620000  0.76200000  0.31560000  1.0 -0.5373426509
C  C47  1  0.94640000  0.51060000  0.18440000  1.0 -0.5373426509
C  C48  1  0.67380000  0.98940000  0.93580000  1.0 -0.5373426509
C  C49  1  0.52250000  0.56510000  0.74660000  1.0 0.087574735
C  C50  1  0.31850000  0.77590000  0.75340000  1.0 0.087574735
C  C51  1  0.18150000  0.93490000  0.45740000  1.0 0.087574735
C  C52  1  0.97750000  0.72410000  0.04260000  1.0 0.087574735
C  C53  1  0.74660000  0.52250000  0.56510000  1.0 0.087574735
C  C54  1  0.75340000  0.31850000  0.77590000  1.0 0.087574735
C  C55  1  0.45740000  0.18150000  0.93490000  1.0 0.087574735
C  C56  1  0.04260000  0.97750000  0.72410000  1.0 0.087574735
C  C57  1  0.56510000  0.74660000  0.52250000  1.0 0.087574735
C  C58  1  0.77590000  0.75340000  0.31850000  1.0 0.087574735
C  C59  1  0.93490000  0.45740000  0.18150000  1.0 0.087574735
C  C60  1  0.72410000  0.04260000  0.97750000  1.0 0.087574735
C  C61  1  0.54340000  0.62490000  0.78170000  1.0 0.6167507836
C  C62  1  0.34320000  0.76170000  0.71830000  1.0 0.6167507836
C  C63  1  0.15680000  0.87510000  0.41850000  1.0 0.6167507836
C  C64  1  0.95660000  0.73830000  0.08150000  1.0 0.6167507836
C  C65  1  0.78170000  0.54340000  0.62490000  1.0 0.6167507836
C  C66  1  0.71830000  0.34320000  0.76170000  1.0 0.6167507836
C  C67  1  0.41850000  0.15680000  0.87510000  1.0 0.6167507836
C  C68  1  0.08150000  0.95660000  0.73830000  1.0 0.6167507836
C  C69  1  0.62490000  0.78170000  0.54340000  1.0 0.6167507836
C  C70  1  0.76170000  0.71830000  0.34320000  1.0 0.6167507836
C  C71  1  0.87510000  0.41850000  0.15680000  1.0 0.6167507836
C  C72  1  0.73830000  0.08150000  0.95660000  1.0 0.6167507836
C  C73  1  0.82210000  0.80780000  0.99490000  1.0 -0.5207873267
C  C74  1  0.31290000  0.82720000  0.50510000  1.0 -0.5207873267
C  C75  1  0.18710000  0.69220000  0.51430000  1.0 -0.5207873267
C  C76  1  0.67790000  0.67280000  0.98570000  1.0 -0.5207873267
C  C77  1  0.99490000  0.82210000  0.80780000  1.0 -0.5207873267
C  C78  1  0.50510000  0.31290000  0.82720000  1.0 -0.5207873267
C  C79  1  0.51430000  0.18710000  0.69220000  1.0 -0.5207873267
C  C80  1  0.98570000  0.67790000  0.67280000  1.0 -0.5207873267
C  C81  1  0.80780000  0.99490000  0.82210000  1.0 -0.5207873267
C  C82  1  0.82720000  0.50510000  0.31290000  1.0 -0.5207873267
C  C83  1  0.69220000  0.51430000  0.18710000  1.0 -0.5207873267
C  C84  1  0.67280000  0.98570000  0.67790000  1.0 -0.5207873267
C  C85  1  0.85020000  0.77730000  0.01530000  1.0 0.0486869741
C  C86  1  0.26200000  0.83490000  0.48470000  1.0 0.0486869741
C  C87  1  0.23800000  0.72270000  0.57290000  1.0 0.0486869741
C  C88  1  0.64980000  0.66510000  0.92710000  1.0 0.0486869741
C  C89  1  0.01530000  0.85020000  0.77730000  1.0 0.0486869741
C  C90  1  0.48470000  0.26200000  0.83490000  1.0 0.0486869741
C  C91  1  0.57290000  0.23800000  0.72270000  1.0 0.0486869741
C  C92  1  0.92710000  0.64980000  0.66510000  1.0 0.0486869741
C  C93  1  0.77730000  0.01530000  0.85020000  1.0 0.0486869741
C  C94  1  0.83490000  0.48470000  0.26200000  1.0 0.0486869741
C  C95  1  0.72270000  0.57290000  0.23800000  1.0 0.0486869741
C  C96  1  0.66510000  0.92710000  0.64980000  1.0 0.0486869741
C  C97  1  0.82190000  0.71840000  0.97290000  1.0 0.6826068777
C  C98  1  0.24550000  0.84900000  0.52710000  1.0 0.6826068777
C  C99  1  0.25450000  0.78160000  0.60350000  1.0 0.6826068777
C  C100  1  0.67810000  0.65100000  0.89650000  1.0 0.6826068777
C  C101  1  0.97290000  0.82190000  0.71840000  1.0 0.6826068777
C  C102  1  0.52710000  0.24550000  0.84900000  1.0 0.6826068777
C  C103  1  0.60350000  0.25450000  0.78160000  1.0 0.6826068777
C  C104  1  0.89650000  0.67810000  0.65100000  1.0 0.6826068777
C  C105  1  0.71840000  0.97290000  0.82190000  1.0 0.6826068777
C  C106  1  0.84900000  0.52710000  0.24550000  1.0 0.6826068777
C  C107  1  0.78160000  0.60350000  0.25450000  1.0 0.6826068777
C  C108  1  0.65100000  0.89650000  0.67810000  1.0 0.6826068777
C  C109  1  0.76550000  0.93430000  0.95040000  1.0 -0.5693392559
C  C110  1  0.48390000  0.81510000  0.54960000  1.0 -0.5693392559
C  C111  1  0.01610000  0.56570000  0.33120000  1.0 -0.5693392559
C  C112  1  0.73450000  0.68490000  0.16880000  1.0 -0.5693392559
C  C113  1  0.95040000  0.76550000  0.93430000  1.0 -0.5837849956
C  C114  1  0.54960000  0.48390000  0.81510000  1.0 -0.5693392559
C  C115  1  0.33120000  0.01610000  0.56570000  1.0 -0.5693392559
C  C116  1  0.16880000  0.73450000  0.68490000  1.0 -0.5693392559
C  C117  1  0.93430000  0.95040000  0.76550000  1.0 -0.5693392559
C  C118  1  0.81510000  0.54960000  0.48390000  1.0 -0.5693392559
C  C119  1  0.56570000  0.33120000  0.01610000  1.0 -0.5693392559
C  C120  1  0.68490000  0.16880000  0.73450000  1.0 -0.5693392559
C  C121  1  0.75830000  0.91730000  0.99120000  1.0 0.111252007
C  C122  1  0.42610000  0.76710000  0.50880000  1.0 0.111252007
C  C123  1  0.07390000  0.58270000  0.34100000  1.0 0.111252007
C  C124  1  0.74170000  0.73290000  0.15900000  1.0 0.111252007
C  C125  1  0.99120000  0.75830000  0.91730000  1.0 0.111252007
C  C126  1  0.50880000  0.42610000  0.76710000  1.0 0.111252007
C  C127  1  0.34100000  0.07390000  0.58270000  1.0 0.111252007
C  C128  1  0.15900000  0.74170000  0.73290000  1.0 0.111252007
C  C129  1  0.91730000  0.99120000  0.75830000  1.0 0.111252007
C  C130  1  0.76710000  0.50880000  0.42610000  1.0 0.111252007
C  C131  1  0.58270000  0.34100000  0.07390000  1.0 0.111252007
C  C132  1  0.73290000  0.15900000  0.74170000  1.0 0.111252007
C  C133  1  0.72160000  0.85610000  0.96550000  1.0 0.6167507836
C  C134  1  0.39060000  0.75610000  0.53450000  1.0 0.6167507836
C  C135  1  0.10940000  0.64390000  0.36550000  1.0 0.6167507836
C  C136  1  0.77840000  0.74390000  0.13450000  1.0 0.6167507836
C  C137  1  0.96550000  0.72160000  0.85610000  1.0 0.6167507836
C  C138  1  0.53450000  0.39060000  0.75610000  1.0 0.6167507836
C  C139  1  0.36550000  0.10940000  0.64390000  1.0 0.6167507836
C  C140  1  0.13450000  0.77840000  0.74390000  1.0 0.6167507836
C  C141  1  0.85610000  0.96550000  0.72160000  1.0 0.6167507836
C  C142  1  0.75610000  0.53450000  0.39060000  1.0 0.6167507836
C  C143  1  0.64390000  0.36550000  0.10940000  1.0 0.6167507836
C  C144  1  0.74390000  0.13450000  0.77840000  1.0 0.6167507836
C  C145  1  0.31730000  0.49990000  0.32140000  1.0 -0.5638885104
C  C146  1  0.67850000  0.99590000  0.17860000  1.0 -0.5638885104
C  C147  1  0.82150000  0.00010000  0.31740000  1.0 -0.5638885104
C  C148  1  0.18270000  0.50410000  0.18260000  1.0 -0.5638885104
C  C149  1  0.32140000  0.31730000  0.49990000  1.0 -0.5638885104
C  C150  1  0.17860000  0.67850000  0.99590000  1.0 -0.5638885104
C  C151  1  0.31740000  0.82150000  0.00010000  1.0 -0.5638885104
C  C152  1  0.18260000  0.18270000  0.50410000  1.0 -0.5638885104
C  C153  1  0.49990000  0.32140000  0.31730000  1.0 -0.5693392559
C  C154  1  0.99590000  0.17860000  0.67850000  1.0 -0.5638885104
C  C155  1  0.00010000  0.31740000  0.82150000  1.0 -0.5693392559
C  C156  1  0.50410000  0.18260000  0.18270000  1.0 -0.5638885104
C  C157  1  0.33970000  0.51910000  0.28820000  1.0 0.0998883142
C  C158  1  0.73090000  0.05150000  0.21180000  1.0 0.0998883142
C  C159  1  0.76910000  0.98090000  0.32060000  1.0 0.0998883142
C  C160  1  0.16030000  0.44850000  0.17940000  1.0 0.0998883142
C  C161  1  0.28820000  0.33970000  0.51910000  1.0 0.0998883142
C  C162  1  0.21180000  0.73090000  0.05150000  1.0 0.0998883142
C  C163  1  0.32060000  0.76910000  0.98090000  1.0 0.0998883142
C  C164  1  0.17940000  0.16030000  0.44850000  1.0 0.0998883142
C  C165  1  0.51910000  0.28820000  0.33970000  1.0 0.0998883142
C  C166  1  0.05150000  0.21180000  0.73090000  1.0 0.0998883142
C  C167  1  0.98090000  0.32060000  0.76910000  1.0 0.0998883142
C  C168  1  0.44850000  0.17940000  0.16030000  1.0 0.0998883142
C  C169  1  0.31880000  0.47400000  0.23040000  1.0 0.6587821785
C  C170  1  0.74360000  0.08840000  0.26960000  1.0 0.6587821785
C  C171  1  0.75640000  0.02600000  0.34480000  1.0 0.6587821785
C  C172  1  0.18120000  0.41160000  0.15520000  1.0 0.6587821785
C  C173  1  0.23040000  0.31880000  0.47400000  1.0 0.6587821785
C  C174  1  0.26960000  0.74360000  0.08840000  1.0 0.6587821785
C  C175  1  0.34480000  0.75640000  0.02600000  1.0 0.6587821785
C  C176  1  0.15520000  0.18120000  0.41160000  1.0 0.6587821785
C  C177  1  0.47400000  0.23040000  0.31880000  1.0 0.6587821785
C  C178  1  0.08840000  0.26960000  0.74360000  1.0 0.6587821785
C  C179  1  0.02600000  0.34480000  0.75640000  1.0 0.6587821785
C  C180  1  0.41160000  0.15520000  0.18120000  1.0 0.6587821785
C  C181  1  0.43580000  0.44640000  0.26200000  1.0 -0.5373426509
C  C182  1  0.68440000  0.17380000  0.23800000  1.0 -0.5373426509
C  C183  1  0.81560000  0.05360000  0.48940000  1.0 -0.5373426509
C  C184  1  0.06420000  0.32620000  0.01060000  1.0 -0.5373426509
C  C185  1  0.26200000  0.43580000  0.44640000  1.0 -0.5373426509
C  C186  1  0.23800000  0.68440000  0.17380000  1.0 -0.5373426509
C  C187  1  0.48940000  0.81560000  0.05360000  1.0 -0.5373426509
C  C188  1  0.01060000  0.06420000  0.32620000  1.0 -0.5373426509
C  C189  1  0.44640000  0.26200000  0.43580000  1.0 -0.5373426509
C  C190  1  0.17380000  0.23800000  0.68440000  1.0 -0.5373426509
C  C191  1  0.05360000  0.48940000  0.81560000  1.0 -0.5373426509
C  C192  1  0.32620000  0.01060000  0.06420000  1.0 -0.5373426509
C  C193  1  0.47750000  0.43490000  0.25340000  1.0 0.087574735
C  C194  1  0.68150000  0.22410000  0.24660000  1.0 0.087574735
C  C195  1  0.81850000  0.06510000  0.54260000  1.0 0.087574735
C  C196  1  0.02250000  0.27590000  0.95740000  1.0 0.087574735
C  C197  1  0.25340000  0.47750000  0.43490000  1.0 0.087574735
C  C198  1  0.24660000  0.68150000  0.22410000  1.0 0.087574735
C  C199  1  0.54260000  0.81850000  0.06510000  1.0 0.087574735
C  C200  1  0.95740000  0.02250000  0.27590000  1.0 0.087574735
C  C201  1  0.43490000  0.25340000  0.47750000  1.0 0.087574735
C  C202  1  0.22410000  0.24660000  0.68150000  1.0 0.087574735
C  C203  1  0.06510000  0.54260000  0.81850000  1.0 0.087574735
C  C204  1  0.27590000  0.95740000  0.02250000  1.0 0.087574735
C  C205  1  0.45660000  0.37510000  0.21830000  1.0 0.6167507836
C  C206  1  0.65680000  0.23830000  0.28170000  1.0 0.6167507836
C  C207  1  0.84320000  0.12490000  0.58150000  1.0 0.6167507836
C  C208  1  0.04340000  0.26170000  0.91850000  1.0 0.6167507836
C  C209  1  0.21830000  0.45660000  0.37510000  1.0 0.6167507836
C  C210  1  0.28170000  0.65680000  0.23830000  1.0 0.6167507836
C  C211  1  0.58150000  0.84320000  0.12490000  1.0 0.6167507836
C  C212  1  0.91850000  0.04340000  0.26170000  1.0 0.6167507836
C  C213  1  0.37510000  0.21830000  0.45660000  1.0 0.6167507836
C  C214  1  0.23830000  0.28170000  0.65680000  1.0 0.6167507836
C  C215  1  0.12490000  0.58150000  0.84320000  1.0 0.6167507836
C  C216  1  0.26170000  0.91850000  0.04340000  1.0 0.6167507836
C  C217  1  0.17790000  0.19220000  0.00510000  1.0 -0.5207873267
C  C218  1  0.68710000  0.17280000  0.49490000  1.0 -0.5207873267
C  C219  1  0.81290000  0.30780000  0.48570000  1.0 -0.5207873267
C  C220  1  0.32210000  0.32720000  0.01430000  1.0 -0.5270645004
C  C221  1  0.00510000  0.17790000  0.19220000  1.0 -0.5207873267
C  C222  1  0.49490000  0.68710000  0.17280000  1.0 -0.5207873267
C  C223  1  0.48570000  0.81290000  0.30780000  1.0 -0.5207873267
C  C224  1  0.01430000  0.32210000  0.32720000  1.0 -0.5270645004
C  C225  1  0.19220000  0.00510000  0.17790000  1.0 -0.5207873267
C  C226  1  0.17280000  0.49490000  0.68710000  1.0 -0.5207873267
C  C227  1  0.30780000  0.48570000  0.81290000  1.0 -0.5207873267
C  C228  1  0.32720000  0.01430000  0.32210000  1.0 -0.5207873267
C  C229  1  0.14980000  0.22270000  0.98470000  1.0 0.0486869741
C  C230  1  0.73800000  0.16510000  0.51530000  1.0 0.0486869741
C  C231  1  0.76200000  0.27730000  0.42710000  1.0 0.0486869741
C  C232  1  0.35020000  0.33490000  0.07290000  1.0 0.0486869741
C  C233  1  0.98470000  0.14980000  0.22270000  1.0 0.0486869741
C  C234  1  0.51530000  0.73800000  0.16510000  1.0 0.0486869741
C  C235  1  0.42710000  0.76200000  0.27730000  1.0 0.0486869741
C  C236  1  0.07290000  0.35020000  0.33490000  1.0 0.0486869741
C  C237  1  0.22270000  0.98470000  0.14980000  1.0 0.0486869741
C  C238  1  0.16510000  0.51530000  0.73800000  1.0 0.0486869741
C  C239  1  0.27730000  0.42710000  0.76200000  1.0 0.0486869741
C  C240  1  0.33490000  0.07290000  0.35020000  1.0 0.0486869741
C  C241  1  0.17810000  0.28160000  0.02710000  1.0 0.6826068777
C  C242  1  0.75450000  0.15100000  0.47290000  1.0 0.6826068777
C  C243  1  0.74550000  0.21840000  0.39650000  1.0 0.6826068777
C  C244  1  0.32190000  0.34900000  0.10350000  1.0 0.6826068777
C  C245  1  0.02710000  0.17810000  0.28160000  1.0 0.6826068777
C  C246  1  0.47290000  0.75450000  0.15100000  1.0 0.6826068777
C  C247  1  0.39650000  0.74550000  0.21840000  1.0 0.6826068777
C  C248  1  0.10350000  0.32190000  0.34900000  1.0 0.6826068777
C  C249  1  0.28160000  0.02710000  0.17810000  1.0 0.6826068777
C  C250  1  0.15100000  0.47290000  0.75450000  1.0 0.6826068777
C  C251  1  0.21840000  0.39650000  0.74550000  1.0 0.6826068777
C  C252  1  0.34900000  0.10350000  0.32190000  1.0 0.6826068777
C  C253  1  0.23450000  0.06570000  0.04960000  1.0 -0.5837849956
C  C254  1  0.51610000  0.18490000  0.45040000  1.0 -0.5693392559
C  C255  1  0.98390000  0.43430000  0.66880000  1.0 -0.5693392559
C  C256  1  0.26550000  0.31510000  0.83120000  1.0 -0.5693392559
C  C257  1  0.04960000  0.23450000  0.06570000  1.0 -0.5693392559
C  C258  1  0.45040000  0.51610000  0.18490000  1.0 -0.5693392559
C  C259  1  0.66880000  0.98390000  0.43430000  1.0 -0.5693392559
C  C260  1  0.83120000  0.26550000  0.31510000  1.0 -0.5693392559
C  C261  1  0.06570000  0.04960000  0.23450000  1.0 -0.5693392559
C  C262  1  0.18490000  0.45040000  0.51610000  1.0 -0.5693392559
C  C263  1  0.43430000  0.66880000  0.98390000  1.0 -0.5693392559
C  C264  1  0.31510000  0.83120000  0.26550000  1.0 -0.5693392559
C  C265  1  0.24170000  0.08270000  0.00880000  1.0 0.111252007
C  C266  1  0.57390000  0.23290000  0.49120000  1.0 0.111252007
C  C267  1  0.92610000  0.41730000  0.65900000  1.0 0.111252007
C  C268  1  0.25830000  0.26710000  0.84100000  1.0 0.111252007
C  C269  1  0.00880000  0.24170000  0.08270000  1.0 0.111252007
C  C270  1  0.49120000  0.57390000  0.23290000  1.0 0.111252007
C  C271  1  0.65900000  0.92610000  0.41730000  1.0 0.111252007
C  C272  1  0.84100000  0.25830000  0.26710000  1.0 0.111252007
C  C273  1  0.08270000  0.00880000  0.24170000  1.0 0.111252007
C  C274  1  0.23290000  0.49120000  0.57390000  1.0 0.111252007
C  C275  1  0.41730000  0.65900000  0.92610000  1.0 0.111252007
C  C276  1  0.26710000  0.84100000  0.25830000  1.0 0.111252007
C  C277  1  0.27840000  0.14390000  0.03450000  1.0 0.6167507836
C  C278  1  0.60940000  0.24390000  0.46550000  1.0 0.6167507836
C  C279  1  0.89060000  0.35610000  0.63450000  1.0 0.6167507836
C  C280  1  0.22160000  0.25610000  0.86550000  1.0 0.6167507836
C  C281  1  0.03450000  0.27840000  0.14390000  1.0 0.6167507836
C  C282  1  0.46550000  0.60940000  0.24390000  1.0 0.6167507836
C  C283  1  0.63450000  0.89060000  0.35610000  1.0 0.6167507836
C  C284  1  0.86550000  0.22160000  0.25610000  1.0 0.6167507836
C  C285  1  0.14390000  0.03450000  0.27840000  1.0 0.6167507836
C  C286  1  0.24390000  0.46550000  0.60940000  1.0 0.6167507836
C  C287  1  0.35610000  0.63450000  0.89060000  1.0 0.6167507836
C  C288  1  0.25610000  0.86550000  0.22160000  1.0 0.6167507836
O  O1  1  0.62250000  0.56980000  0.67250000  1.0 -0.8719820238
O  O2  1  0.39730000  0.95000000  0.82750000  1.0 -0.8719820238
O  O3  1  0.10270000  0.93020000  0.55270000  1.0 -0.8719820238
O  O4  1  0.87750000  0.55000000  0.94730000  1.0 -0.8719820238
O  O5  1  0.67250000  0.62250000  0.56980000  1.0 -0.8719820238
O  O6  1  0.82750000  0.39730000  0.95000000  1.0 -0.8719820238
O  O7  1  0.55270000  0.10270000  0.93020000  1.0 -0.8719820238
O  O8  1  0.94730000  0.87750000  0.55000000  1.0 -0.8719820238
O  O9  1  0.56980000  0.67250000  0.62250000  1.0 -0.8719820238
O  O10  1  0.95000000  0.82750000  0.39730000  1.0 -0.8719820238
O  O11  1  0.93020000  0.55270000  0.10270000  1.0 -0.8719820238
O  O12  1  0.55000000  0.94730000  0.87750000  1.0 -0.8719820238
O  O13  1  0.88350000  0.82070000  0.92900000  1.0 -0.8306590052
O  O14  1  0.39170000  0.95450000  0.57100000  1.0 -0.8306590052
O  O15  1  0.10830000  0.67930000  0.56280000  1.0 -0.8306590052
O  O16  1  0.61650000  0.54550000  0.93720000  1.0 -0.8306590052
O  O17  1  0.92900000  0.88350000  0.82070000  1.0 -0.8306590052
O  O18  1  0.57100000  0.39170000  0.95450000  1.0 -0.8306590052
O  O19  1  0.56280000  0.10830000  0.67930000  1.0 -0.8306590052
O  O20  1  0.93720000  0.61650000  0.54550000  1.0 -0.8306590052
O  O21  1  0.82070000  0.92900000  0.88350000  1.0 -0.8306590052
O  O22  1  0.95450000  0.57100000  0.39170000  1.0 -0.8306590052
O  O23  1  0.67930000  0.56280000  0.10830000  1.0 -0.8306590052
O  O24  1  0.54550000  0.93720000  0.61650000  1.0 -0.8306590052
O  O25  1  0.83070000  0.87350000  0.93280000  1.0 -0.9129771795
O  O26  1  0.44070000  0.89790000  0.56720000  1.0 -0.9129771795
O  O27  1  0.05930000  0.62650000  0.45720000  1.0 -0.9129771795
O  O28  1  0.66930000  0.60210000  0.04280000  1.0 -0.9129771795
O  O29  1  0.93280000  0.83070000  0.87350000  1.0 -0.9129771795
O  O30  1  0.56720000  0.44070000  0.89790000  1.0 -0.9129771795
O  O31  1  0.45720000  0.05930000  0.62650000  1.0 -0.9129771795
O  O32  1  0.04280000  0.66930000  0.60210000  1.0 -0.9129771795
O  O33  1  0.87350000  0.93280000  0.83070000  1.0 -0.9129771795
O  O34  1  0.89790000  0.56720000  0.44070000  1.0 -0.9129771795
O  O35  1  0.62650000  0.45720000  0.05930000  1.0 -0.9129771795
O  O36  1  0.60210000  0.04280000  0.66930000  1.0 -0.9129771795
O  O37  1  0.67180000  0.56680000  0.61880000  1.0 -0.8829999159
O  O38  1  0.44800000  0.05300000  0.88120000  1.0 -0.8829999159
O  O39  1  0.05200000  0.93320000  0.60500000  1.0 -0.8829999159
O  O40  1  0.82820000  0.44700000  0.89500000  1.0 -0.8829999159
O  O41  1  0.61880000  0.67180000  0.56680000  1.0 -0.8829999159
O  O42  1  0.88120000  0.44800000  0.05300000  1.0 -0.8829999159
O  O43  1  0.60500000  0.05200000  0.93320000  1.0 -0.8829999159
O  O44  1  0.89500000  0.82820000  0.44700000  1.0 -0.8829999159
O  O45  1  0.56680000  0.61880000  0.67180000  1.0 -0.8829999159
O  O46  1  0.05300000  0.88120000  0.44800000  1.0 -0.8829999159
O  O47  1  0.93320000  0.60500000  0.05200000  1.0 -0.8829999159
O  O48  1  0.44700000  0.89500000  0.82820000  1.0 -0.8829999159
O  O49  1  0.67300000  0.66600000  0.76900000  1.0 -1.0279376191
O  O50  1  0.39700000  0.90400000  0.73100000  1.0 -1.0279376191
O  O51  1  0.10300000  0.83400000  0.50700000  1.0 -1.0279376191
O  O52  1  0.82700000  0.59600000  0.99300000  1.0 -1.0279376191
O  O53  1  0.76900000  0.67300000  0.66600000  1.0 -1.0279376191
O  O54  1  0.73100000  0.39700000  0.90400000  1.0 -1.0279376191
O  O55  1  0.50700000  0.10300000  0.83400000  1.0 -1.0279376191
O  O56  1  0.99300000  0.82700000  0.59600000  1.0 -1.0279376191
O  O57  1  0.66600000  0.76900000  0.67300000  1.0 -1.0279376191
O  O58  1  0.90400000  0.73100000  0.39700000  1.0 -1.0279376191
O  O59  1  0.83400000  0.50700000  0.10300000  1.0 -1.0279376191
O  O60  1  0.59600000  0.99300000  0.82700000  1.0 -1.0279376191
O  O61  1  0.74510000  0.63130000  0.73600000  1.0 -1.0508827698
O  O62  1  0.39530000  0.00910000  0.76400000  1.0 -1.0508827698
O  O63  1  0.10470000  0.86870000  0.61380000  1.0 -1.0508827698
O  O64  1  0.75490000  0.49090000  0.88620000  1.0 -1.0508827698
O  O65  1  0.73600000  0.74510000  0.63130000  1.0 -1.0508827698
O  O66  1  0.76400000  0.39530000  0.00910000  1.0 -1.0508827698
O  O67  1  0.61380000  0.10470000  0.86870000  1.0 -1.0508827698
O  O68  1  0.88620000  0.75490000  0.49090000  1.0 -1.0508827698
O  O69  1  0.63130000  0.73600000  0.74510000  1.0 -1.0508827698
O  O70  1  0.00910000  0.76400000  0.39530000  1.0 -1.0508827698
O  O71  1  0.86870000  0.61380000  0.10470000  1.0 -1.0508827698
O  O72  1  0.49090000  0.88620000  0.75490000  1.0 -1.0508827698
O  O73  1  0.76400000  0.75690000  0.86590000  1.0 -1.0619181327
O  O74  1  0.39100000  0.89810000  0.63410000  1.0 -1.0619181327
O  O75  1  0.10900000  0.74310000  0.50710000  1.0 -1.0619181327
O  O76  1  0.73600000  0.60190000  0.99290000  1.0 -1.0619181327
O  O77  1  0.86590000  0.76400000  0.75690000  1.0 -1.0619181327
O  O78  1  0.63410000  0.39100000  0.89810000  1.0 -1.0619181327
O  O79  1  0.50710000  0.10900000  0.74310000  1.0 -1.0619181327
O  O80  1  0.99290000  0.73600000  0.60190000  1.0 -1.0619181327
O  O81  1  0.75690000  0.86590000  0.76400000  1.0 -1.0619181327
O  O82  1  0.89810000  0.63410000  0.39100000  1.0 -1.0619181327
O  O83  1  0.74310000  0.50710000  0.10900000  1.0 -1.0619181327
O  O84  1  0.60190000  0.99290000  0.73600000  1.0 -1.0619181327
O  O85  1  0.83720000  0.72310000  0.83010000  1.0 -1.0508827698
O  O86  1  0.39300000  0.00710000  0.66990000  1.0 -1.0508827698
O  O87  1  0.10700000  0.77690000  0.61410000  1.0 -1.0508827698
O  O88  1  0.66280000  0.49290000  0.88590000  1.0 -1.0508827698
O  O89  1  0.83010000  0.83720000  0.72310000  1.0 -1.0508827698
O  O90  1  0.66990000  0.39300000  0.00710000  1.0 -1.0508827698
O  O91  1  0.61410000  0.10700000  0.77690000  1.0 -1.0508827698
O  O92  1  0.88590000  0.66280000  0.49290000  1.0 -1.0508827698
O  O93  1  0.72310000  0.83010000  0.83720000  1.0 -1.0508827698
O  O94  1  0.00710000  0.66990000  0.39300000  1.0 -1.0508827698
O  O95  1  0.77690000  0.61410000  0.10700000  1.0 -1.0508827698
O  O96  1  0.49290000  0.88590000  0.66280000  1.0 -1.0508827698
O  O97  1  0.68690000  0.57170000  0.77420000  1.0 -0.6812437879
O  O98  1  0.29750000  0.91270000  0.72580000  1.0 -0.6812437879
O  O99  1  0.20250000  0.92830000  0.61520000  1.0 -0.6812437879
O  O100  1  0.81310000  0.58730000  0.88480000  1.0 -0.6812437879
O  O101  1  0.77420000  0.68690000  0.57170000  1.0 -0.6812437879
O  O102  1  0.72580000  0.29750000  0.91270000  1.0 -0.6812437879
O  O103  1  0.61520000  0.20250000  0.92830000  1.0 -0.6812437879
O  O104  1  0.88480000  0.81310000  0.58730000  1.0 -0.6812437879
O  O105  1  0.57170000  0.77420000  0.68690000  1.0 -0.6812437879
O  O106  1  0.91270000  0.72580000  0.29750000  1.0 -0.6812437879
O  O107  1  0.92830000  0.61520000  0.20250000  1.0 -0.6812437879
O  O108  1  0.58730000  0.88480000  0.81310000  1.0 -0.6812437879
O  O109  1  0.69060000  0.51680000  0.80760000  1.0 -0.5837849956
O  O110  1  0.20920000  0.88300000  0.69240000  1.0 -0.5837849956
O  O111  1  0.29080000  0.98320000  0.67380000  1.0 -0.5837849956
O  O112  1  0.80940000  0.61700000  0.82620000  1.0 -0.5837849956
O  O113  1  0.80760000  0.69060000  0.51680000  1.0 -0.5837849956
O  O114  1  0.69240000  0.20920000  0.88300000  1.0 -0.5837849956
O  O115  1  0.67380000  0.29080000  0.98320000  1.0 -0.5837849956
O  O116  1  0.82620000  0.80940000  0.61700000  1.0 -0.5837849956
O  O117  1  0.51680000  0.80760000  0.69060000  1.0 -0.5837849956
O  O118  1  0.88300000  0.69240000  0.20920000  1.0 -0.5852439385
O  O119  1  0.98320000  0.67380000  0.29080000  1.0 -0.5837849956
O  O120  1  0.61700000  0.82620000  0.80940000  1.0 -0.5837849956
O  O121  1  0.58280000  0.65780000  0.77820000  1.0 -0.7343163859
O  O122  1  0.37960000  0.80460000  0.72180000  1.0 -0.7343163859
O  O123  1  0.12040000  0.84220000  0.42500000  1.0 -0.7343163859
O  O124  1  0.91720000  0.69540000  0.07500000  1.0 -0.7343163859
O  O125  1  0.77820000  0.58280000  0.65780000  1.0 -0.7343163859
O  O126  1  0.72180000  0.37960000  0.80460000  1.0 -0.7343163859
O  O127  1  0.42500000  0.12040000  0.84220000  1.0 -0.7343163859
O  O128  1  0.07500000  0.91720000  0.69540000  1.0 -0.7343163859
O  O129  1  0.65780000  0.77820000  0.58280000  1.0 -0.7343163859
O  O130  1  0.80460000  0.72180000  0.37960000  1.0 -0.7343163859
O  O131  1  0.84220000  0.42500000  0.12040000  1.0 -0.7343163859
O  O132  1  0.69540000  0.07500000  0.91720000  1.0 -0.7350760084
O  O133  1  0.52470000  0.64180000  0.80870000  1.0 -0.350497704
O  O134  1  0.33310000  0.71600000  0.69130000  1.0 -0.350497704
O  O135  1  0.16690000  0.85820000  0.38290000  1.0 -0.350497704
O  O136  1  0.97530000  0.78400000  0.11710000  1.0 -0.350497704
O  O137  1  0.80870000  0.52470000  0.64180000  1.0 -0.350497704
O  O138  1  0.69130000  0.33310000  0.71600000  1.0 -0.350497704
O  O139  1  0.38290000  0.16690000  0.85820000  1.0 -0.350497704
O  O140  1  0.11710000  0.97530000  0.78400000  1.0 -0.350497704
O  O141  1  0.64180000  0.80870000  0.52470000  1.0 -0.350497704
O  O142  1  0.71600000  0.69130000  0.33310000  1.0 -0.350497704
O  O143  1  0.85820000  0.38290000  0.16690000  1.0 -0.350497704
O  O144  1  0.78400000  0.11710000  0.97530000  1.0 -0.3583697062
O  O145  1  0.81180000  0.70580000  0.92340000  1.0 -0.704133034
O  O146  1  0.28240000  0.88840000  0.57660000  1.0 -0.7064475039
O  O147  1  0.21760000  0.79420000  0.60600000  1.0 -0.7064475039
O  O148  1  0.68820000  0.61160000  0.89400000  1.0 -0.7064475039
O  O149  1  0.92340000  0.81180000  0.70580000  1.0 -0.704133034
O  O150  1  0.57660000  0.28240000  0.88840000  1.0 -0.7064475039
O  O151  1  0.60600000  0.21760000  0.79420000  1.0 -0.7064475039
O  O152  1  0.89400000  0.68820000  0.61160000  1.0 -0.704133034
O  O153  1  0.70580000  0.92340000  0.81180000  1.0 -0.7064475039
O  O154  1  0.88840000  0.57660000  0.28240000  1.0 -0.7064475039
O  O155  1  0.79420000  0.60600000  0.21760000  1.0 -0.7064475039
O  O156  1  0.61160000  0.89400000  0.68820000  1.0 -0.704133034
O  O157  1  0.81190000  0.68140000  0.98650000  1.0 -0.704133034
O  O158  1  0.19490000  0.82540000  0.51350000  1.0 -0.704133034
O  O159  1  0.30510000  0.81860000  0.63050000  1.0 -0.704133034
O  O160  1  0.68810000  0.67460000  0.86950000  1.0 -0.704133034
O  O161  1  0.98650000  0.81190000  0.68140000  1.0 -0.704133034
O  O162  1  0.51350000  0.19490000  0.82540000  1.0 -0.704133034
O  O163  1  0.63050000  0.30510000  0.81860000  1.0 -0.704133034
O  O164  1  0.86950000  0.68810000  0.67460000  1.0 -0.704133034
O  O165  1  0.68140000  0.98650000  0.81190000  1.0 -0.704133034
O  O166  1  0.82540000  0.51350000  0.19490000  1.0 -0.704133034
O  O167  1  0.81860000  0.63050000  0.30510000  1.0 -0.704133034
O  O168  1  0.67460000  0.86950000  0.68810000  1.0 -0.704133034
O  O169  1  0.72620000  0.82360000  0.92880000  1.0 -0.7064475039
O  O170  1  0.39480000  0.79740000  0.57120000  1.0 -0.7064475039
O  O171  1  0.10520000  0.67640000  0.40260000  1.0 -0.7064475039
O  O172  1  0.77380000  0.70260000  0.09740000  1.0 -0.7064475039
O  O173  1  0.92880000  0.72620000  0.82360000  1.0 -0.7064475039
O  O174  1  0.57120000  0.39480000  0.79740000  1.0 -0.7064475039
O  O175  1  0.40260000  0.10520000  0.67640000  1.0 -0.7064475039
O  O176  1  0.09740000  0.77380000  0.70260000  1.0 -0.7064475039
O  O177  1  0.82360000  0.92880000  0.72620000  1.0 -0.7064475039
O  O178  1  0.79740000  0.57120000  0.39480000  1.0 -0.7064475039
O  O179  1  0.67640000  0.40260000  0.10520000  1.0 -0.7064475039
O  O180  1  0.70260000  0.09740000  0.77380000  1.0 -0.7064475039
O  O181  1  0.68920000  0.83710000  0.97970000  1.0 -0.38130774
O  O182  1  0.35740000  0.70950000  0.52030000  1.0 -0.38130774
O  O183  1  0.14260000  0.66290000  0.35210000  1.0 -0.38130774
O  O184  1  0.81080000  0.79050000  0.14790000  1.0 -0.38130774
O  O185  1  0.97970000  0.68920000  0.83710000  1.0 -0.38130774
O  O186  1  0.52030000  0.35740000  0.70950000  1.0 -0.38130774
O  O187  1  0.35210000  0.14260000  0.66290000  1.0 -0.38130774
O  O188  1  0.14790000  0.81080000  0.79050000  1.0 -0.38130774
O  O189  1  0.83710000  0.97970000  0.68920000  1.0 -0.38130774
O  O190  1  0.70950000  0.52030000  0.35740000  1.0 -0.38130774
O  O191  1  0.66290000  0.35210000  0.14260000  1.0 -0.3877773565
O  O192  1  0.79050000  0.14790000  0.81080000  1.0 -0.38130774
O  O193  1  0.37750000  0.43020000  0.32750000  1.0 -0.8719820238
O  O194  1  0.60270000  0.05000000  0.17250000  1.0 -0.8719820238
O  O195  1  0.89730000  0.06980000  0.44730000  1.0 -0.8719820238
O  O196  1  0.12250000  0.45000000  0.05270000  1.0 -0.8719820238
O  O197  1  0.32750000  0.37750000  0.43020000  1.0 -0.8719820238
O  O198  1  0.17250000  0.60270000  0.05000000  1.0 -0.8719820238
O  O199  1  0.44730000  0.89730000  0.06980000  1.0 -0.8719820238
O  O200  1  0.05270000  0.12250000  0.45000000  1.0 -0.8719820238
O  O201  1  0.43020000  0.32750000  0.37750000  1.0 -0.8719820238
O  O202  1  0.05000000  0.17250000  0.60270000  1.0 -0.8719820238
O  O203  1  0.06980000  0.44730000  0.89730000  1.0 -0.8719820238
O  O204  1  0.45000000  0.05270000  0.12250000  1.0 -0.8719820238
O  O205  1  0.11650000  0.17930000  0.07100000  1.0 -0.8306590052
O  O206  1  0.60830000  0.04550000  0.42900000  1.0 -0.8306590052
O  O207  1  0.89170000  0.32070000  0.43720000  1.0 -0.8306590052
O  O208  1  0.38350000  0.45450000  0.06280000  1.0 -0.8306590052
O  O209  1  0.07100000  0.11650000  0.17930000  1.0 -0.8306590052
O  O210  1  0.42900000  0.60830000  0.04550000  1.0 -0.8306590052
O  O211  1  0.43720000  0.89170000  0.32070000  1.0 -0.8306590052
O  O212  1  0.06280000  0.38350000  0.45450000  1.0 -0.8306590052
O  O213  1  0.17930000  0.07100000  0.11650000  1.0 -0.8306590052
O  O214  1  0.04550000  0.42900000  0.60830000  1.0 -0.8306590052
O  O215  1  0.32070000  0.43720000  0.89170000  1.0 -0.8306590052
O  O216  1  0.45450000  0.06280000  0.38350000  1.0 -0.8306590052
O  O217  1  0.16930000  0.12650000  0.06720000  1.0 -0.9129771795
O  O218  1  0.55930000  0.10210000  0.43280000  1.0 -0.9129771795
O  O219  1  0.94070000  0.37350000  0.54280000  1.0 -0.9129771795
O  O220  1  0.33070000  0.39790000  0.95720000  1.0 -0.9129771795
O  O221  1  0.06720000  0.16930000  0.12650000  1.0 -0.9129771795
O  O222  1  0.43280000  0.55930000  0.10210000  1.0 -0.9129771795
O  O223  1  0.54280000  0.94070000  0.37350000  1.0 -0.9129771795
O  O224  1  0.95720000  0.33070000  0.39790000  1.0 -0.9129771795
O  O225  1  0.12650000  0.06720000  0.16930000  1.0 -0.9129771795
O  O226  1  0.10210000  0.43280000  0.55930000  1.0 -0.9129771795
O  O227  1  0.37350000  0.54280000  0.94070000  1.0 -0.9129771795
O  O228  1  0.39790000  0.95720000  0.33070000  1.0 -0.9129771795
O  O229  1  0.32820000  0.43320000  0.38120000  1.0 -0.8829999159
O  O230  1  0.55200000  0.94700000  0.11880000  1.0 -0.8829999159
O  O231  1  0.94800000  0.06680000  0.39500000  1.0 -0.8850807529
O  O232  1  0.17180000  0.55300000  0.10500000  1.0 -0.8829999159
O  O233  1  0.38120000  0.32820000  0.43320000  1.0 -0.8829999159
O  O234  1  0.11880000  0.55200000  0.94700000  1.0 -0.8829999159
O  O235  1  0.39500000  0.94800000  0.06680000  1.0 -0.8829999159
O  O236  1  0.10500000  0.17180000  0.55300000  1.0 -0.8829999159
O  O237  1  0.43320000  0.38120000  0.32820000  1.0 -0.8829999159
O  O238  1  0.94700000  0.11880000  0.55200000  1.0 -0.8829999159
O  O239  1  0.06680000  0.39500000  0.94800000  1.0 -0.8829999159
O  O240  1  0.55300000  0.10500000  0.17180000  1.0 -0.8829999159
O  O241  1  0.32700000  0.33400000  0.23100000  1.0 -1.0279376191
O  O242  1  0.60300000  0.09600000  0.26900000  1.0 -1.0279376191
O  O243  1  0.89700000  0.16600000  0.49300000  1.0 -1.0279376191
O  O244  1  0.17300000  0.40400000  0.00700000  1.0 -1.0279376191
O  O245  1  0.23100000  0.32700000  0.33400000  1.0 -1.0279376191
O  O246  1  0.26900000  0.60300000  0.09600000  1.0 -1.0279376191
O  O247  1  0.49300000  0.89700000  0.16600000  1.0 -1.0279376191
O  O248  1  0.00700000  0.17300000  0.40400000  1.0 -1.0279376191
O  O249  1  0.33400000  0.23100000  0.32700000  1.0 -1.0279376191
O  O250  1  0.09600000  0.26900000  0.60300000  1.0 -1.0279376191
O  O251  1  0.16600000  0.49300000  0.89700000  1.0 -1.0279376191
O  O252  1  0.40400000  0.00700000  0.17300000  1.0 -1.0279376191
O  O253  1  0.25490000  0.36870000  0.26400000  1.0 -1.0508827698
O  O254  1  0.60470000  0.99090000  0.23600000  1.0 -1.0508827698
O  O255  1  0.89530000  0.13130000  0.38620000  1.0 -1.0508827698
O  O256  1  0.24510000  0.50910000  0.11380000  1.0 -1.0508827698
O  O257  1  0.26400000  0.25490000  0.36870000  1.0 -1.0508827698
O  O258  1  0.23600000  0.60470000  0.99090000  1.0 -1.0508827698
O  O259  1  0.38620000  0.89530000  0.13130000  1.0 -1.0508827698
O  O260  1  0.11380000  0.24510000  0.50910000  1.0 -1.0508827698
O  O261  1  0.36870000  0.26400000  0.25490000  1.0 -1.0508827698
O  O262  1  0.99090000  0.23600000  0.60470000  1.0 -1.0508827698
O  O263  1  0.13130000  0.38620000  0.89530000  1.0 -1.0508827698
O  O264  1  0.50910000  0.11380000  0.24510000  1.0 -1.0508827698
O  O265  1  0.23600000  0.24310000  0.13410000  1.0 -1.0619181327
O  O266  1  0.60900000  0.10190000  0.36590000  1.0 -1.0619181327
O  O267  1  0.89100000  0.25690000  0.49290000  1.0 -1.0619181327
O  O268  1  0.26400000  0.39810000  0.00710000  1.0 -1.0619181327
O  O269  1  0.13410000  0.23600000  0.24310000  1.0 -1.0619181327
O  O270  1  0.36590000  0.60900000  0.10190000  1.0 -1.0619181327
O  O271  1  0.49290000  0.89100000  0.25690000  1.0 -1.0619181327
O  O272  1  0.00710000  0.26400000  0.39810000  1.0 -1.0619181327
O  O273  1  0.24310000  0.13410000  0.23600000  1.0 -1.0619181327
O  O274  1  0.10190000  0.36590000  0.60900000  1.0 -1.0619181327
O  O275  1  0.25690000  0.49290000  0.89100000  1.0 -1.0619181327
O  O276  1  0.39810000  0.00710000  0.26400000  1.0 -1.0619181327
O  O277  1  0.16280000  0.27690000  0.16990000  1.0 -1.0508827698
O  O278  1  0.60700000  0.99290000  0.33010000  1.0 -1.0508827698
O  O279  1  0.89300000  0.22310000  0.38590000  1.0 -1.0508827698
O  O280  1  0.33720000  0.50710000  0.11410000  1.0 -1.0508827698
O  O281  1  0.16990000  0.16280000  0.27690000  1.0 -1.0508827698
O  O282  1  0.33010000  0.60700000  0.99290000  1.0 -1.0508827698
O  O283  1  0.38590000  0.89300000  0.22310000  1.0 -1.0508827698
O  O284  1  0.11410000  0.33720000  0.50710000  1.0 -1.0508827698
O  O285  1  0.27690000  0.16990000  0.16280000  1.0 -1.0508827698
O  O286  1  0.99290000  0.33010000  0.60700000  1.0 -1.0508827698
O  O287  1  0.22310000  0.38590000  0.89300000  1.0 -1.0508827698
O  O288  1  0.50710000  0.11410000  0.33720000  1.0 -1.0508827698
O  O289  1  0.31310000  0.42830000  0.22580000  1.0 -0.6812437879
O  O290  1  0.70250000  0.08730000  0.27420000  1.0 -0.6812437879
O  O291  1  0.79750000  0.07170000  0.38480000  1.0 -0.6812437879
O  O292  1  0.18690000  0.41270000  0.11520000  1.0 -0.6812437879
O  O293  1  0.22580000  0.31310000  0.42830000  1.0 -0.6812437879
O  O294  1  0.27420000  0.70250000  0.08730000  1.0 -0.6812437879
O  O295  1  0.38480000  0.79750000  0.07170000  1.0 -0.6812437879
O  O296  1  0.11520000  0.18690000  0.41270000  1.0 -0.6812437879
O  O297  1  0.42830000  0.22580000  0.31310000  1.0 -0.6812437879
O  O298  1  0.08730000  0.27420000  0.70250000  1.0 -0.6812437879
O  O299  1  0.07170000  0.38480000  0.79750000  1.0 -0.6812437879
O  O300  1  0.41270000  0.11520000  0.18690000  1.0 -0.6812437879
O  O301  1  0.30940000  0.48320000  0.19240000  1.0 -0.5852439385
O  O302  1  0.79080000  0.11700000  0.30760000  1.0 -0.5837849956
O  O303  1  0.70920000  0.01680000  0.32620000  1.0 -0.5837849956
O  O304  1  0.19060000  0.38300000  0.17380000  1.0 -0.5837849956
O  O305  1  0.19240000  0.30940000  0.48320000  1.0 -0.5837849956
O  O306  1  0.30760000  0.79080000  0.11700000  1.0 -0.5837849956
O  O307  1  0.32620000  0.70920000  0.01680000  1.0 -0.5837849956
O  O308  1  0.17380000  0.19060000  0.38300000  1.0 -0.5837849956
O  O309  1  0.48320000  0.19240000  0.30940000  1.0 -0.5837849956
O  O310  1  0.11700000  0.30760000  0.79080000  1.0 -0.5837849956
O  O311  1  0.01680000  0.32620000  0.70920000  1.0 -0.5852439385
O  O312  1  0.38300000  0.17380000  0.19060000  1.0 -0.5837849956
O  O313  1  0.41720000  0.34220000  0.22180000  1.0 -0.7343163859
O  O314  1  0.62040000  0.19540000  0.27820000  1.0 -0.7350760084
O  O315  1  0.87960000  0.15780000  0.57500000  1.0 -0.7343163859
O  O316  1  0.08280000  0.30460000  0.92500000  1.0 -0.7343163859
O  O317  1  0.22180000  0.41720000  0.34220000  1.0 -0.7343163859
O  O318  1  0.27820000  0.62040000  0.19540000  1.0 -0.7343163859
O  O319  1  0.57500000  0.87960000  0.15780000  1.0 -0.7343163859
O  O320  1  0.92500000  0.08280000  0.30460000  1.0 -0.7343163859
O  O321  1  0.34220000  0.22180000  0.41720000  1.0 -0.7350760084
O  O322  1  0.19540000  0.27820000  0.62040000  1.0 -0.7350760084
O  O323  1  0.15780000  0.57500000  0.87960000  1.0 -0.7343163859
O  O324  1  0.30460000  0.92500000  0.08280000  1.0 -0.7343163859
O  O325  1  0.47530000  0.35820000  0.19130000  1.0 -0.350497704
O  O326  1  0.66690000  0.28400000  0.30870000  1.0 -0.350497704
O  O327  1  0.83310000  0.14180000  0.61710000  1.0 -0.350497704
O  O328  1  0.02470000  0.21600000  0.88290000  1.0 -0.350497704
O  O329  1  0.19130000  0.47530000  0.35820000  1.0 -0.350497704
O  O330  1  0.30870000  0.66690000  0.28400000  1.0 -0.350497704
O  O331  1  0.61710000  0.83310000  0.14180000  1.0 -0.350497704
O  O332  1  0.88290000  0.02470000  0.21600000  1.0 -0.350497704
O  O333  1  0.35820000  0.19130000  0.47530000  1.0 -0.350497704
O  O334  1  0.28400000  0.30870000  0.66690000  1.0 -0.350497704
O  O335  1  0.14180000  0.61710000  0.83310000  1.0 -0.350497704
O  O336  1  0.21600000  0.88290000  0.02470000  1.0 -0.350497704
O  O337  1  0.18820000  0.29420000  0.07660000  1.0 -0.7064475039
O  O338  1  0.71760000  0.11160000  0.42340000  1.0 -0.7064475039
O  O339  1  0.78240000  0.20580000  0.39400000  1.0 -0.7064475039
O  O340  1  0.31180000  0.38840000  0.10600000  1.0 -0.7064475039
O  O341  1  0.07660000  0.18820000  0.29420000  1.0 -0.7064475039
O  O342  1  0.42340000  0.71760000  0.11160000  1.0 -0.7064475039
O  O343  1  0.39400000  0.78240000  0.20580000  1.0 -0.7064475039
O  O344  1  0.10600000  0.31180000  0.38840000  1.0 -0.7064475039
O  O345  1  0.29420000  0.07660000  0.18820000  1.0 -0.7064475039
O  O346  1  0.11160000  0.42340000  0.71760000  1.0 -0.7064475039
O  O347  1  0.20580000  0.39400000  0.78240000  1.0 -0.7064475039
O  O348  1  0.38840000  0.10600000  0.31180000  1.0 -0.704133034
O  O349  1  0.18810000  0.31860000  0.01350000  1.0 -0.704133034
O  O350  1  0.80510000  0.17460000  0.48650000  1.0 -0.704133034
O  O351  1  0.69490000  0.18140000  0.36950000  1.0 -0.704133034
O  O352  1  0.31190000  0.32540000  0.13050000  1.0 -0.704133034
O  O353  1  0.01350000  0.18810000  0.31860000  1.0 -0.704133034
O  O354  1  0.48650000  0.80510000  0.17460000  1.0 -0.704133034
O  O355  1  0.36950000  0.69490000  0.18140000  1.0 -0.704133034
O  O356  1  0.13050000  0.31190000  0.32540000  1.0 -0.704133034
O  O357  1  0.31860000  0.01350000  0.18810000  1.0 -0.704133034
O  O358  1  0.17460000  0.48650000  0.80510000  1.0 -0.704133034
O  O359  1  0.18140000  0.36950000  0.69490000  1.0 -0.704133034
O  O360  1  0.32540000  0.13050000  0.31190000  1.0 -0.704133034
O  O361  1  0.27380000  0.17640000  0.07120000  1.0 -0.7064475039
O  O362  1  0.60520000  0.20260000  0.42880000  1.0 -0.7064475039
O  O363  1  0.89480000  0.32360000  0.59740000  1.0 -0.7064475039
O  O364  1  0.22620000  0.29740000  0.90260000  1.0 -0.7064475039
O  O365  1  0.07120000  0.27380000  0.17640000  1.0 -0.7064475039
O  O366  1  0.42880000  0.60520000  0.20260000  1.0 -0.7064475039
O  O367  1  0.59740000  0.89480000  0.32360000  1.0 -0.7064475039
O  O368  1  0.90260000  0.22620000  0.29740000  1.0 -0.7064475039
O  O369  1  0.17640000  0.07120000  0.27380000  1.0 -0.7064475039
O  O370  1  0.20260000  0.42880000  0.60520000  1.0 -0.7064475039
O  O371  1  0.32360000  0.59740000  0.89480000  1.0 -0.7064475039
O  O372  1  0.29740000  0.90260000  0.22620000  1.0 -0.7064475039
O  O373  1  0.31080000  0.16290000  0.02030000  1.0 -0.38130774
O  O374  1  0.64260000  0.29050000  0.47970000  1.0 -0.38130774
O  O375  1  0.85740000  0.33710000  0.64790000  1.0 -0.38130774
O  O376  1  0.18920000  0.20950000  0.85210000  1.0 -0.38130774
O  O377  1  0.02030000  0.31080000  0.16290000  1.0 -0.38130774
O  O378  1  0.47970000  0.64260000  0.29050000  1.0 -0.38130774
O  O379  1  0.64790000  0.85740000  0.33710000  1.0 -0.38130774
O  O380  1  0.85210000  0.18920000  0.20950000  1.0 -0.38130774
O  O381  1  0.16290000  0.02030000  0.31080000  1.0 -0.38130774
O  O382  1  0.29050000  0.47970000  0.64260000  1.0 -0.38130774
O  O383  1  0.33710000  0.64790000  0.85740000  1.0 -0.38130774
O  O384  1  0.20950000  0.85210000  0.18920000  1.0 -0.38130774
