# DDEC6 charges by PACMAN v1.1 (https://github.com/mtap-research/PACMAN-charge/)
data_OJIDAN_ASR_pacman
_symmetry_space_group_name_H-M   'P 1'
_cell_length_a   31.47000000
_cell_length_b   31.47000000
_cell_length_c   16.84300000
_cell_angle_alpha   90.00000000
_cell_angle_beta   90.00000000
_cell_angle_gamma   120.00000000
_symmetry_Int_Tables_number   1
_chemical_formula_structural   Sc3H34C58O13
_chemical_formula_sum   'Sc18 H204 C348 O78'
_cell_volume   14445.86547272
_cell_formula_units_Z   6
loop_
 _symmetry_equiv_pos_site_id
 _symmetry_equiv_pos_as_xyz
  1  'x, y, z'
loop_
 _atom_site_type_symbol
 _atom_site_label
 _atom_site_symmetry_multiplicity
 _atom_site_fract_x
 _atom_site_fract_y
 _atom_site_fract_z
 _atom_site_occupancy
 _atom_site_charge
Sc  Sc1  1  0.35788000  0.81884000  0.25000000  1.0 1.7800711762
Sc  Sc2  1  0.18116000  0.53904000  0.25000000  1.0 1.7800711762
Sc  Sc3  1  0.46096000  0.64212000  0.25000000  1.0 1.7800711762
Sc  Sc4  1  0.81884000  0.35788000  0.75000000  1.0 1.7800711762
Sc  Sc5  1  0.53904000  0.18116000  0.75000000  1.0 1.7800711762
Sc  Sc6  1  0.64212000  0.46096000  0.75000000  1.0 1.7800711762
Sc  Sc7  1  0.42941000  0.92804000  0.35274000  1.0 1.793469446
Sc  Sc8  1  0.07196000  0.50137000  0.35274000  1.0 1.793469446
Sc  Sc9  1  0.49863000  0.57059000  0.35274000  1.0 1.793469446
Sc  Sc10  1  0.42941000  0.92804000  0.14726000  1.0 1.793469446
Sc  Sc11  1  0.07196000  0.50137000  0.14726000  1.0 1.793469446
Sc  Sc12  1  0.49863000  0.57059000  0.14726000  1.0 1.793469446
Sc  Sc13  1  0.92804000  0.42941000  0.64726000  1.0 1.793469446
Sc  Sc14  1  0.50137000  0.07196000  0.64726000  1.0 1.793469446
Sc  Sc15  1  0.57059000  0.49863000  0.64726000  1.0 1.793469446
Sc  Sc16  1  0.92804000  0.42941000  0.85274000  1.0 1.793469446
Sc  Sc17  1  0.50137000  0.07196000  0.85274000  1.0 1.793469446
Sc  Sc18  1  0.57059000  0.49863000  0.85274000  1.0 1.793469446
H  H1  1  0.40790000  0.76470000  0.75000000  1.0 0.1098194535
H  H2  1  0.23530000  0.64320000  0.75000000  1.0 0.1098194535
H  H3  1  0.35680000  0.59210000  0.75000000  1.0 0.1098194535
H  H4  1  0.76470000  0.40790000  0.25000000  1.0 0.1098194535
H  H5  1  0.64320000  0.23530000  0.25000000  1.0 0.1098194535
H  H6  1  0.59210000  0.35680000  0.25000000  1.0 0.1098194535
H  H7  1  0.48010000  0.64000000  0.63400000  1.0 0.1098194535
H  H8  1  0.36000000  0.84010000  0.63400000  1.0 0.1098194535
H  H9  1  0.15990000  0.51990000  0.63400000  1.0 0.1098194535
H  H10  1  0.48010000  0.64000000  0.86600000  1.0 0.1098194535
H  H11  1  0.36000000  0.84010000  0.86600000  1.0 0.1098194535
H  H12  1  0.15990000  0.51990000  0.86600000  1.0 0.1098194535
H  H13  1  0.64000000  0.48010000  0.36600000  1.0 0.1098194535
H  H14  1  0.84010000  0.36000000  0.36600000  1.0 0.1098194535
H  H15  1  0.51990000  0.15990000  0.36600000  1.0 0.1098194535
H  H16  1  0.64000000  0.48010000  0.13400000  1.0 0.1098194535
H  H17  1  0.84010000  0.36000000  0.13400000  1.0 0.1098194535
H  H18  1  0.51990000  0.15990000  0.13400000  1.0 0.1098194535
H  H19  1  0.26600000  0.87600000  0.62880000  1.0 0.1098194535
H  H20  1  0.12400000  0.39000000  0.62880000  1.0 0.1098194535
H  H21  1  0.61000000  0.73400000  0.62880000  1.0 0.1098194535
H  H22  1  0.26600000  0.87600000  0.87120000  1.0 0.1098194535
H  H23  1  0.12400000  0.39000000  0.87120000  1.0 0.1098194535
H  H24  1  0.61000000  0.73400000  0.87120000  1.0 0.1191333202
H  H25  1  0.87600000  0.26600000  0.37120000  1.0 0.1098194535
H  H26  1  0.39000000  0.12400000  0.37120000  1.0 0.1098194535
H  H27  1  0.73400000  0.61000000  0.37120000  1.0 0.1098194535
H  H28  1  0.87600000  0.26600000  0.12880000  1.0 0.1098194535
H  H29  1  0.39000000  0.12400000  0.12880000  1.0 0.1098194535
H  H30  1  0.73400000  0.61000000  0.12880000  1.0 0.1098194535
H  H31  1  0.45080000  0.68320000  0.63110000  1.0 0.103758999
H  H32  1  0.31680000  0.76760000  0.63110000  1.0 0.103758999
H  H33  1  0.23240000  0.54920000  0.63110000  1.0 0.103758999
H  H34  1  0.45080000  0.68320000  0.86890000  1.0 0.103758999
H  H35  1  0.31680000  0.76760000  0.86890000  1.0 0.103758999
H  H36  1  0.23240000  0.54920000  0.86890000  1.0 0.103758999
H  H37  1  0.68320000  0.45080000  0.36890000  1.0 0.103758999
H  H38  1  0.76760000  0.31680000  0.36890000  1.0 0.103758999
H  H39  1  0.54920000  0.23240000  0.36890000  1.0 0.103758999
H  H40  1  0.68320000  0.45080000  0.13110000  1.0 0.103758999
H  H41  1  0.76760000  0.31680000  0.13110000  1.0 0.103758999
H  H42  1  0.54920000  0.23240000  0.13110000  1.0 0.103758999
H  H43  1  0.40040000  0.69310000  0.53030000  1.0 0.1098194535
H  H44  1  0.30690000  0.70730000  0.53030000  1.0 0.1098194535
H  H45  1  0.29270000  0.59960000  0.53030000  1.0 0.1098194535
H  H46  1  0.40040000  0.69310000  0.96970000  1.0 0.1098194535
H  H47  1  0.30690000  0.70730000  0.96970000  1.0 0.1098194535
H  H48  1  0.29270000  0.59960000  0.96970000  1.0 0.1098194535
H  H49  1  0.69310000  0.40040000  0.46970000  1.0 0.1098194535
H  H50  1  0.70730000  0.30690000  0.46970000  1.0 0.1098194535
H  H51  1  0.59960000  0.29270000  0.46970000  1.0 0.1098194535
H  H52  1  0.69310000  0.40040000  0.03030000  1.0 0.1098194535
H  H53  1  0.70730000  0.30690000  0.03030000  1.0 0.1098194535
H  H54  1  0.59960000  0.29270000  0.03030000  1.0 0.1098194535
H  H55  1  0.52440000  0.59900000  0.63290000  1.0 0.1191333202
H  H56  1  0.40100000  0.92540000  0.63290000  1.0 0.1191333202
H  H57  1  0.07460000  0.47560000  0.63290000  1.0 0.1191333202
H  H58  1  0.52440000  0.59900000  0.86710000  1.0 0.1191333202
H  H59  1  0.40100000  0.92540000  0.86710000  1.0 0.1191333202
H  H60  1  0.07460000  0.47560000  0.86710000  1.0 0.1191333202
H  H61  1  0.59900000  0.52440000  0.36710000  1.0 0.1191333202
H  H62  1  0.92540000  0.40100000  0.36710000  1.0 0.1191333202
H  H63  1  0.47560000  0.07460000  0.36710000  1.0 0.1191333202
H  H64  1  0.59900000  0.52440000  0.13290000  1.0 0.1191333202
H  H65  1  0.92540000  0.40100000  0.13290000  1.0 0.1191333202
H  H66  1  0.47560000  0.07460000  0.13290000  1.0 0.1191333202
H  H67  1  0.31720000  0.90480000  0.52160000  1.0 0.1191333202
H  H68  1  0.09520000  0.41240000  0.52160000  1.0 0.1191333202
H  H69  1  0.58760000  0.68280000  0.52160000  1.0 0.1191333202
H  H70  1  0.31720000  0.90480000  0.97840000  1.0 0.1191333202
H  H71  1  0.09520000  0.41240000  0.97840000  1.0 0.1191333202
H  H72  1  0.58760000  0.68280000  0.97840000  1.0 0.1191333202
H  H73  1  0.90480000  0.31720000  0.47840000  1.0 0.1191333202
H  H74  1  0.41240000  0.09520000  0.47840000  1.0 0.1191333202
H  H75  1  0.68280000  0.58760000  0.47840000  1.0 0.1191333202
H  H76  1  0.90480000  0.31720000  0.02160000  1.0 0.1191333202
H  H77  1  0.41240000  0.09520000  0.02160000  1.0 0.1191333202
H  H78  1  0.68280000  0.58760000  0.02160000  1.0 0.1191333202
H  H79  1  0.25930000  0.83110000  0.75000000  1.0 0.1098194535
H  H80  1  0.16890000  0.42820000  0.75000000  1.0 0.1098194535
H  H81  1  0.57180000  0.74070000  0.75000000  1.0 0.1098194535
H  H82  1  0.83110000  0.25930000  0.25000000  1.0 0.1098194535
H  H83  1  0.42820000  0.16890000  0.25000000  1.0 0.1098194535
H  H84  1  0.74070000  0.57180000  0.25000000  1.0 0.1098194535
H  H85  1  0.14780000  0.72560000  0.63240000  1.0 0.103758999
H  H86  1  0.27440000  0.42220000  0.63240000  1.0 0.103758999
H  H87  1  0.57780000  0.85220000  0.63240000  1.0 0.103758999
H  H88  1  0.14780000  0.72560000  0.86760000  1.0 0.103758999
H  H89  1  0.27440000  0.42220000  0.86760000  1.0 0.103758999
H  H90  1  0.57780000  0.85220000  0.86760000  1.0 0.103758999
H  H91  1  0.72560000  0.14780000  0.36760000  1.0 0.103758999
H  H92  1  0.42220000  0.27440000  0.36760000  1.0 0.103758999
H  H93  1  0.85220000  0.57780000  0.36760000  1.0 0.103758999
H  H94  1  0.72560000  0.14780000  0.13240000  1.0 0.103758999
H  H95  1  0.42220000  0.27440000  0.13240000  1.0 0.103758999
H  H96  1  0.85220000  0.57780000  0.13240000  1.0 0.103758999
H  H97  1  0.25560000  0.76890000  0.43240000  1.0 0.1191333202
H  H98  1  0.23110000  0.48670000  0.43240000  1.0 0.1191333202
H  H99  1  0.51330000  0.74440000  0.43240000  1.0 0.1191333202
H  H100  1  0.25560000  0.76890000  0.06760000  1.0 0.1191333202
H  H101  1  0.23110000  0.48670000  0.06760000  1.0 0.1191333202
H  H102  1  0.51330000  0.74440000  0.06760000  1.0 0.1191333202
H  H103  1  0.76890000  0.25560000  0.56760000  1.0 0.1191333202
H  H104  1  0.48670000  0.23110000  0.56760000  1.0 0.1191333202
H  H105  1  0.74440000  0.51330000  0.56760000  1.0 0.1191333202
H  H106  1  0.76890000  0.25560000  0.93240000  1.0 0.1191333202
H  H107  1  0.48670000  0.23110000  0.93240000  1.0 0.1191333202
H  H108  1  0.74440000  0.51330000  0.93240000  1.0 0.1191333202
H  H109  1  0.39640000  0.73250000  0.41760000  1.0 0.1191333202
H  H110  1  0.26750000  0.66390000  0.41760000  1.0 0.1191333202
H  H111  1  0.33610000  0.60360000  0.41760000  1.0 0.1191333202
H  H112  1  0.39640000  0.73250000  0.08240000  1.0 0.1191333202
H  H113  1  0.26750000  0.66390000  0.08240000  1.0 0.1191333202
H  H114  1  0.33610000  0.60360000  0.08240000  1.0 0.1191333202
H  H115  1  0.73250000  0.39640000  0.58240000  1.0 0.1191333202
H  H116  1  0.66390000  0.26750000  0.58240000  1.0 0.1191333202
H  H117  1  0.60360000  0.33610000  0.58240000  1.0 0.1191333202
H  H118  1  0.73250000  0.39640000  0.91760000  1.0 0.1191333202
H  H119  1  0.66390000  0.26750000  0.91760000  1.0 0.1191333202
H  H120  1  0.60360000  0.33610000  0.91760000  1.0 0.1191333202
H  H121  1  0.20850000  0.73960000  0.54690000  1.0 0.103758999
H  H122  1  0.26040000  0.46890000  0.54690000  1.0 0.103758999
H  H123  1  0.53110000  0.79150000  0.54690000  1.0 0.1098194535
H  H124  1  0.20850000  0.73960000  0.95310000  1.0 0.103758999
H  H125  1  0.26040000  0.46890000  0.95310000  1.0 0.103758999
H  H126  1  0.53110000  0.79150000  0.95310000  1.0 0.1098194535
H  H127  1  0.73960000  0.20850000  0.45310000  1.0 0.103758999
H  H128  1  0.46890000  0.26040000  0.45310000  1.0 0.103758999
H  H129  1  0.79150000  0.53110000  0.45310000  1.0 0.103758999
H  H130  1  0.73960000  0.20850000  0.04690000  1.0 0.1098194535
H  H131  1  0.46890000  0.26040000  0.04690000  1.0 0.1098194535
H  H132  1  0.79150000  0.53110000  0.04690000  1.0 0.1098194535
H  H133  1  0.44630000  0.85690000  0.54250000  1.0 0.1098194535
H  H134  1  0.14310000  0.58940000  0.54250000  1.0 0.1098194535
H  H135  1  0.41060000  0.55370000  0.54250000  1.0 0.1098194535
H  H136  1  0.44630000  0.85690000  0.95750000  1.0 0.1098194535
H  H137  1  0.14310000  0.58940000  0.95750000  1.0 0.1098194535
H  H138  1  0.41060000  0.55370000  0.95750000  1.0 0.1098194535
H  H139  1  0.85690000  0.44630000  0.45750000  1.0 0.1098194535
H  H140  1  0.58940000  0.14310000  0.45750000  1.0 0.1098194535
H  H141  1  0.55370000  0.41060000  0.45750000  1.0 0.1098194535
H  H142  1  0.85690000  0.44630000  0.04250000  1.0 0.1098194535
H  H143  1  0.58940000  0.14310000  0.04250000  1.0 0.1098194535
H  H144  1  0.55370000  0.41060000  0.04250000  1.0 0.1098194535
H  H145  1  0.45060000  0.81770000  0.65320000  1.0 0.1098194535
H  H146  1  0.18230000  0.63290000  0.65320000  1.0 0.1098194535
H  H147  1  0.36710000  0.54940000  0.65320000  1.0 0.1098194535
H  H148  1  0.45060000  0.81770000  0.84680000  1.0 0.1098194535
H  H149  1  0.18230000  0.63290000  0.84680000  1.0 0.1098194535
H  H150  1  0.36710000  0.54940000  0.84680000  1.0 0.1098194535
H  H151  1  0.81770000  0.45060000  0.34680000  1.0 0.1098194535
H  H152  1  0.63290000  0.18230000  0.34680000  1.0 0.1098194535
H  H153  1  0.54940000  0.36710000  0.34680000  1.0 0.1098194535
H  H154  1  0.81770000  0.45060000  0.15320000  1.0 0.1098194535
H  H155  1  0.63290000  0.18230000  0.15320000  1.0 0.1098194535
H  H156  1  0.54940000  0.36710000  0.15320000  1.0 0.1098194535
H  H157  1  0.06090000  0.67690000  0.65300000  1.0 0.1098194535
H  H158  1  0.32310000  0.38400000  0.65300000  1.0 0.1098194535
H  H159  1  0.61600000  0.93910000  0.65300000  1.0 0.1098194535
H  H160  1  0.06090000  0.67690000  0.84700000  1.0 0.1098194535
H  H161  1  0.32310000  0.38400000  0.84700000  1.0 0.1098194535
H  H162  1  0.61600000  0.93910000  0.84700000  1.0 0.1098194535
H  H163  1  0.67690000  0.06090000  0.34700000  1.0 0.1098194535
H  H164  1  0.38400000  0.32310000  0.34700000  1.0 0.1098194535
H  H165  1  0.93910000  0.61600000  0.34700000  1.0 0.1098194535
H  H166  1  0.67690000  0.06090000  0.15300000  1.0 0.1098194535
H  H167  1  0.38400000  0.32310000  0.15300000  1.0 0.1098194535
H  H168  1  0.93910000  0.61600000  0.15300000  1.0 0.1098194535
H  H169  1  0.00330000  0.59470000  0.64530000  1.0 0.1098194535
H  H170  1  0.40530000  0.40860000  0.64530000  1.0 0.1098194535
H  H171  1  0.59140000  0.99670000  0.64530000  1.0 0.1098194535
H  H172  1  0.00330000  0.59470000  0.85470000  1.0 0.1098194535
H  H173  1  0.40530000  0.40860000  0.85470000  1.0 0.1098194535
H  H174  1  0.59140000  0.99670000  0.85470000  1.0 0.1098194535
H  H175  1  0.59470000  0.00330000  0.35470000  1.0 0.1098194535
H  H176  1  0.40860000  0.40530000  0.35470000  1.0 0.1098194535
H  H177  1  0.99670000  0.59140000  0.35470000  1.0 0.1098194535
H  H178  1  0.59470000  0.00330000  0.14530000  1.0 0.1098194535
H  H179  1  0.40860000  0.40530000  0.14530000  1.0 0.1098194535
H  H180  1  0.99670000  0.59140000  0.14530000  1.0 0.1098194535
H  H181  1  0.10760000  0.64810000  0.64160000  1.0 0.103758999
H  H182  1  0.35190000  0.45950000  0.64160000  1.0 0.103758999
H  H183  1  0.54050000  0.89240000  0.64160000  1.0 0.103758999
H  H184  1  0.10760000  0.64810000  0.85840000  1.0 0.103758999
H  H185  1  0.35190000  0.45950000  0.85840000  1.0 0.103758999
H  H186  1  0.54050000  0.89240000  0.85840000  1.0 0.103758999
H  H187  1  0.64810000  0.10760000  0.35840000  1.0 0.103758999
H  H188  1  0.45950000  0.35190000  0.35840000  1.0 0.103758999
H  H189  1  0.89240000  0.54050000  0.35840000  1.0 0.103758999
H  H190  1  0.64810000  0.10760000  0.14160000  1.0 0.103758999
H  H191  1  0.45950000  0.35190000  0.14160000  1.0 0.103758999
H  H192  1  0.89240000  0.54050000  0.14160000  1.0 0.103758999
H  H193  1  0.04540000  0.56740000  0.65260000  1.0 0.1098194535
H  H194  1  0.43260000  0.47800000  0.65260000  1.0 0.1098194535
H  H195  1  0.52200000  0.95460000  0.65260000  1.0 0.1098194535
H  H196  1  0.04540000  0.56740000  0.84740000  1.0 0.1098194535
H  H197  1  0.43260000  0.47800000  0.84740000  1.0 0.1098194535
H  H198  1  0.52200000  0.95460000  0.84740000  1.0 0.1098194535
H  H199  1  0.56740000  0.04540000  0.34740000  1.0 0.1098194535
H  H200  1  0.47800000  0.43260000  0.34740000  1.0 0.1098194535
H  H201  1  0.95460000  0.52200000  0.34740000  1.0 0.1098194535
H  H202  1  0.56740000  0.04540000  0.15260000  1.0 0.1098194535
H  H203  1  0.47800000  0.43260000  0.15260000  1.0 0.1098194535
H  H204  1  0.95460000  0.52200000  0.15260000  1.0 0.1098194535
C  C1  1  0.42040000  0.74340000  0.75000000  1.0 -0.1785644936
C  C2  1  0.25660000  0.67700000  0.75000000  1.0 -0.1785644936
C  C3  1  0.32300000  0.57960000  0.75000000  1.0 -0.1785644936
C  C4  1  0.74340000  0.42040000  0.25000000  1.0 -0.1852511247
C  C5  1  0.67700000  0.25660000  0.25000000  1.0 -0.1852511247
C  C6  1  0.57960000  0.32300000  0.25000000  1.0 -0.1785644936
C  C7  1  0.42890000  0.72880000  0.67860000  1.0 0.0696994419
C  C8  1  0.27120000  0.70010000  0.67860000  1.0 0.0696994419
C  C9  1  0.29990000  0.57110000  0.67860000  1.0 0.0696994419
C  C10  1  0.42890000  0.72880000  0.82140000  1.0 0.0696994419
C  C11  1  0.27120000  0.70010000  0.82140000  1.0 0.0696994419
C  C12  1  0.29990000  0.57110000  0.82140000  1.0 0.0696994419
C  C13  1  0.72880000  0.42890000  0.32140000  1.0 0.0696994419
C  C14  1  0.70010000  0.27120000  0.32140000  1.0 0.0696994419
C  C15  1  0.57110000  0.29990000  0.32140000  1.0 0.0696994419
C  C16  1  0.72880000  0.42890000  0.17860000  1.0 0.0696994419
C  C17  1  0.70010000  0.27120000  0.17860000  1.0 0.0696994419
C  C18  1  0.57110000  0.29990000  0.17860000  1.0 0.0696994419
C  C19  1  0.42560000  0.75190000  0.60420000  1.0 0.0696994419
C  C20  1  0.24810000  0.67370000  0.60420000  1.0 0.0696994419
C  C21  1  0.32630000  0.57440000  0.60420000  1.0 0.0696994419
C  C22  1  0.42560000  0.75190000  0.89580000  1.0 0.0696994419
C  C23  1  0.24810000  0.67370000  0.89580000  1.0 0.0696994419
C  C24  1  0.32630000  0.57440000  0.89580000  1.0 0.0696994419
C  C25  1  0.75190000  0.42560000  0.39580000  1.0 0.0696994419
C  C26  1  0.67370000  0.24810000  0.39580000  1.0 0.0696994419
C  C27  1  0.57440000  0.32630000  0.39580000  1.0 0.0696994419
C  C28  1  0.75190000  0.42560000  0.10420000  1.0 0.0696994419
C  C29  1  0.67370000  0.24810000  0.10420000  1.0 0.0696994419
C  C30  1  0.57440000  0.32630000  0.10420000  1.0 0.0696994419
C  C31  1  0.41990000  0.79940000  0.46800000  1.0 -0.0689709736
C  C32  1  0.20060000  0.62050000  0.46800000  1.0 -0.062099482
C  C33  1  0.37950000  0.58010000  0.46800000  1.0 -0.062099482
C  C34  1  0.41990000  0.79940000  0.03200000  1.0 -0.062099482
C  C35  1  0.20060000  0.62050000  0.03200000  1.0 -0.062099482
C  C36  1  0.37950000  0.58010000  0.03200000  1.0 -0.062099482
C  C37  1  0.79940000  0.41990000  0.53200000  1.0 -0.0689709736
C  C38  1  0.62050000  0.20060000  0.53200000  1.0 -0.0689709736
C  C39  1  0.58010000  0.37950000  0.53200000  1.0 -0.0689709736
C  C40  1  0.79940000  0.41990000  0.96800000  1.0 -0.0689709736
C  C41  1  0.62050000  0.20060000  0.96800000  1.0 -0.0689709736
C  C42  1  0.58010000  0.37950000  0.96800000  1.0 -0.0689709736
C  C43  1  0.01440000  0.57240000  0.75000000  1.0 -0.0371464167
C  C44  1  0.42760000  0.44200000  0.75000000  1.0 -0.0371464167
C  C45  1  0.55800000  0.98560000  0.75000000  1.0 -0.0371464167
C  C46  1  0.57240000  0.01440000  0.25000000  1.0 -0.0371464167
C  C47  1  0.44200000  0.42760000  0.25000000  1.0 -0.0371464167
C  C48  1  0.98560000  0.55800000  0.25000000  1.0 -0.0371464167
C  C49  1  0.97680000  0.52370000  0.75000000  1.0 0.5175130934
C  C50  1  0.47630000  0.45310000  0.75000000  1.0 0.5175130934
C  C51  1  0.54690000  0.02320000  0.75000000  1.0 0.5175130934
C  C52  1  0.52370000  0.97680000  0.25000000  1.0 0.5175130934
C  C53  1  0.45310000  0.47630000  0.25000000  1.0 0.5175130934
C  C54  1  0.02320000  0.54690000  0.25000000  1.0 0.5175130934
C  C55  1  0.55910000  0.57220000  0.75000000  1.0 0.6230144868
C  C56  1  0.42780000  0.98690000  0.75000000  1.0 0.6230144868
C  C57  1  0.01310000  0.44090000  0.75000000  1.0 0.6230144868
C  C58  1  0.57220000  0.55910000  0.25000000  1.0 0.6230144868
C  C59  1  0.98690000  0.42780000  0.25000000  1.0 0.6230144868
C  C60  1  0.44090000  0.01310000  0.25000000  1.0 0.6230144868
C  C61  1  0.48960000  0.63290000  0.68220000  1.0 -0.1785644936
C  C62  1  0.36710000  0.85670000  0.68220000  1.0 -0.1785644936
C  C63  1  0.14330000  0.51040000  0.68220000  1.0 -0.1785644936
C  C64  1  0.48960000  0.63290000  0.81780000  1.0 -0.1785644936
C  C65  1  0.36710000  0.85670000  0.81780000  1.0 -0.1785644936
C  C66  1  0.14330000  0.51040000  0.81780000  1.0 -0.1785644936
C  C67  1  0.63290000  0.48960000  0.31780000  1.0 -0.1785644936
C  C68  1  0.85670000  0.36710000  0.31780000  1.0 -0.1785644936
C  C69  1  0.51040000  0.14330000  0.31780000  1.0 -0.1785644936
C  C70  1  0.63290000  0.48960000  0.18220000  1.0 -0.1785644936
C  C71  1  0.85670000  0.36710000  0.18220000  1.0 -0.1785644936
C  C72  1  0.51040000  0.14330000  0.18220000  1.0 -0.1785644936
C  C73  1  0.23320000  0.80460000  0.60530000  1.0 0.0696994419
C  C74  1  0.19540000  0.42860000  0.60530000  1.0 0.0696994419
C  C75  1  0.57140000  0.76680000  0.60530000  1.0 0.0696994419
C  C76  1  0.23320000  0.80460000  0.89470000  1.0 0.0696994419
C  C77  1  0.19540000  0.42860000  0.89470000  1.0 0.0696994419
C  C78  1  0.57140000  0.76680000  0.89470000  1.0 0.0696994419
C  C79  1  0.80460000  0.23320000  0.39470000  1.0 0.0696994419
C  C80  1  0.42860000  0.19540000  0.39470000  1.0 0.0696994419
C  C81  1  0.76680000  0.57140000  0.39470000  1.0 0.0696994419
C  C82  1  0.80460000  0.23320000  0.10530000  1.0 0.0696994419
C  C83  1  0.42860000  0.19540000  0.10530000  1.0 0.0696994419
C  C84  1  0.76680000  0.57140000  0.10530000  1.0 0.0696994419
C  C85  1  0.26470000  0.85360000  0.59140000  1.0 -0.161505424
C  C86  1  0.14640000  0.41110000  0.59140000  1.0 -0.161505424
C  C87  1  0.58890000  0.73530000  0.59140000  1.0 -0.161505424
C  C88  1  0.26470000  0.85360000  0.90860000  1.0 -0.161505424
C  C89  1  0.14640000  0.41110000  0.90860000  1.0 -0.161505424
C  C90  1  0.58890000  0.73530000  0.90860000  1.0 -0.161505424
C  C91  1  0.85360000  0.26470000  0.40860000  1.0 -0.161505424
C  C92  1  0.41110000  0.14640000  0.40860000  1.0 -0.161505424
C  C93  1  0.73530000  0.58890000  0.40860000  1.0 -0.161505424
C  C94  1  0.85360000  0.26470000  0.09140000  1.0 -0.161505424
C  C95  1  0.41110000  0.14640000  0.09140000  1.0 -0.161505424
C  C96  1  0.73530000  0.58890000  0.09140000  1.0 -0.161505424
C  C97  1  0.44560000  0.69460000  0.67890000  1.0 -0.1996969677
C  C98  1  0.30540000  0.75100000  0.67890000  1.0 -0.1996969677
C  C99  1  0.24900000  0.55440000  0.67890000  1.0 -0.1996969677
C  C100  1  0.44560000  0.69460000  0.82110000  1.0 -0.1996969677
C  C101  1  0.30540000  0.75100000  0.82110000  1.0 -0.1996969677
C  C102  1  0.24900000  0.55440000  0.82110000  1.0 -0.1996969677
C  C103  1  0.69460000  0.44560000  0.32110000  1.0 -0.1996969677
C  C104  1  0.75100000  0.30540000  0.32110000  1.0 -0.1996969677
C  C105  1  0.55440000  0.24900000  0.32110000  1.0 -0.1996969677
C  C106  1  0.69460000  0.44560000  0.17890000  1.0 -0.1996969677
C  C107  1  0.75100000  0.30540000  0.17890000  1.0 -0.1996969677
C  C108  1  0.55440000  0.24900000  0.17890000  1.0 -0.1996969677
C  C109  1  0.47700000  0.64730000  0.75000000  1.0 0.0696994419
C  C110  1  0.35270000  0.82970000  0.75000000  1.0 0.0696994419
C  C111  1  0.17030000  0.52300000  0.75000000  1.0 0.0696994419
C  C112  1  0.64730000  0.47700000  0.25000000  1.0 0.0696994419
C  C113  1  0.82970000  0.35270000  0.25000000  1.0 0.0696994419
C  C114  1  0.52300000  0.17030000  0.25000000  1.0 0.0696994419
C  C115  1  0.40940000  0.72610000  0.53250000  1.0 -0.161505424
C  C116  1  0.27390000  0.68330000  0.53250000  1.0 -0.161505424
C  C117  1  0.31670000  0.59060000  0.53250000  1.0 -0.161505424
C  C118  1  0.40940000  0.72610000  0.96750000  1.0 -0.161505424
C  C119  1  0.27390000  0.68330000  0.96750000  1.0 -0.161505424
C  C120  1  0.31670000  0.59060000  0.96750000  1.0 -0.161505424
C  C121  1  0.72610000  0.40940000  0.46750000  1.0 -0.161505424
C  C122  1  0.68330000  0.27390000  0.46750000  1.0 -0.161505424
C  C123  1  0.59060000  0.31670000  0.46750000  1.0 -0.161505424
C  C124  1  0.72610000  0.40940000  0.03250000  1.0 -0.161505424
C  C125  1  0.68330000  0.27390000  0.03250000  1.0 -0.161505424
C  C126  1  0.59060000  0.31670000  0.03250000  1.0 -0.161505424
C  C127  1  0.51630000  0.60790000  0.68080000  1.0 -0.1007832086
C  C128  1  0.39210000  0.90840000  0.68080000  1.0 -0.1007832086
C  C129  1  0.09160000  0.48370000  0.68080000  1.0 -0.1007832086
C  C130  1  0.51630000  0.60790000  0.81920000  1.0 -0.1007832086
C  C131  1  0.39210000  0.90840000  0.81920000  1.0 -0.1007832086
C  C132  1  0.09160000  0.48370000  0.81920000  1.0 -0.1007832086
C  C133  1  0.60790000  0.51630000  0.31920000  1.0 -0.1007832086
C  C134  1  0.90840000  0.39210000  0.31920000  1.0 -0.1007832086
C  C135  1  0.48370000  0.09160000  0.31920000  1.0 -0.1007832086
C  C136  1  0.60790000  0.51630000  0.18080000  1.0 -0.1007832086
C  C137  1  0.90840000  0.39210000  0.18080000  1.0 -0.1007832086
C  C138  1  0.48370000  0.09160000  0.18080000  1.0 -0.1007832086
C  C139  1  0.09380000  0.66960000  0.75000000  1.0 0.0412186957
C  C140  1  0.33040000  0.42420000  0.75000000  1.0 0.0412186957
C  C141  1  0.57580000  0.90620000  0.75000000  1.0 0.0412186957
C  C142  1  0.66960000  0.09380000  0.25000000  1.0 0.0412186957
C  C143  1  0.42420000  0.33040000  0.25000000  1.0 0.0412186957
C  C144  1  0.90620000  0.57580000  0.25000000  1.0 0.0412186957
C  C145  1  0.20660000  0.78370000  0.67870000  1.0 0.0795356999
C  C146  1  0.21630000  0.42290000  0.67870000  1.0 0.0795356999
C  C147  1  0.57710000  0.79340000  0.67870000  1.0 0.0795356999
C  C148  1  0.20660000  0.78370000  0.82130000  1.0 0.0795356999
C  C149  1  0.21630000  0.42290000  0.82130000  1.0 0.0795356999
C  C150  1  0.57710000  0.79340000  0.82130000  1.0 0.0795356999
C  C151  1  0.78370000  0.20660000  0.32130000  1.0 0.0795356999
C  C152  1  0.42290000  0.21630000  0.32130000  1.0 0.0795356999
C  C153  1  0.79340000  0.57710000  0.32130000  1.0 0.0795356999
C  C154  1  0.78370000  0.20660000  0.17870000  1.0 0.0795356999
C  C155  1  0.42290000  0.21630000  0.17870000  1.0 0.0795356999
C  C156  1  0.79340000  0.57710000  0.17870000  1.0 0.0795356999
C  C157  1  0.29430000  0.87160000  0.52580000  1.0 -0.1007832086
C  C158  1  0.12840000  0.42270000  0.52580000  1.0 -0.1007832086
C  C159  1  0.57730000  0.70570000  0.52580000  1.0 -0.1007832086
C  C160  1  0.29430000  0.87160000  0.97420000  1.0 -0.1007832086
C  C161  1  0.12840000  0.42270000  0.97420000  1.0 -0.1007832086
C  C162  1  0.57730000  0.70570000  0.97420000  1.0 -0.1007832086
C  C163  1  0.87160000  0.29430000  0.47420000  1.0 -0.1007832086
C  C164  1  0.42270000  0.12840000  0.47420000  1.0 -0.1007832086
C  C165  1  0.70570000  0.57730000  0.47420000  1.0 -0.1007832086
C  C166  1  0.87160000  0.29430000  0.02580000  1.0 -0.1007832086
C  C167  1  0.42270000  0.12840000  0.02580000  1.0 -0.1007832086
C  C168  1  0.70570000  0.57730000  0.02580000  1.0 -0.1007832086
C  C169  1  0.22830000  0.80320000  0.75000000  1.0 -0.1996969677
C  C170  1  0.19680000  0.42510000  0.75000000  1.0 -0.1996969677
C  C171  1  0.57490000  0.77170000  0.75000000  1.0 -0.1996969677
C  C172  1  0.80320000  0.22830000  0.25000000  1.0 -0.1996969677
C  C173  1  0.42510000  0.19680000  0.25000000  1.0 -0.1996969677
C  C174  1  0.77170000  0.57490000  0.25000000  1.0 -0.1996969677
C  C175  1  0.16260000  0.74030000  0.68020000  1.0 -0.2228300799
C  C176  1  0.25970000  0.42230000  0.68020000  1.0 -0.2228300799
C  C177  1  0.57770000  0.83740000  0.68020000  1.0 -0.2228300799
C  C178  1  0.16260000  0.74030000  0.81980000  1.0 -0.2228300799
C  C179  1  0.25970000  0.42230000  0.81980000  1.0 -0.2228300799
C  C180  1  0.57770000  0.83740000  0.81980000  1.0 -0.2228300799
C  C181  1  0.74030000  0.16260000  0.31980000  1.0 -0.2228300799
C  C182  1  0.42230000  0.25970000  0.31980000  1.0 -0.2228300799
C  C183  1  0.83740000  0.57770000  0.31980000  1.0 -0.2228300799
C  C184  1  0.74030000  0.16260000  0.18020000  1.0 -0.2228300799
C  C185  1  0.42230000  0.25970000  0.18020000  1.0 -0.2228300799
C  C186  1  0.83740000  0.57770000  0.18020000  1.0 -0.2228300799
C  C187  1  0.25830000  0.79050000  0.47240000  1.0 -0.0921403212
C  C188  1  0.20950000  0.46780000  0.47240000  1.0 -0.0921403212
C  C189  1  0.53220000  0.74170000  0.47240000  1.0 -0.0921403212
C  C190  1  0.25830000  0.79050000  0.02760000  1.0 -0.0921403212
C  C191  1  0.20950000  0.46780000  0.02760000  1.0 -0.0921403212
C  C192  1  0.53220000  0.74170000  0.02760000  1.0 -0.0921403212
C  C193  1  0.79050000  0.25830000  0.52760000  1.0 -0.0921403212
C  C194  1  0.46780000  0.20950000  0.52760000  1.0 -0.0921403212
C  C195  1  0.74170000  0.53220000  0.52760000  1.0 -0.0921403212
C  C196  1  0.79050000  0.25830000  0.97240000  1.0 -0.0921403212
C  C197  1  0.46780000  0.20950000  0.97240000  1.0 -0.0921403212
C  C198  1  0.74170000  0.53220000  0.97240000  1.0 -0.0921403212
C  C199  1  0.40690000  0.74960000  0.46530000  1.0 -0.1007832086
C  C200  1  0.25040000  0.65730000  0.46530000  1.0 -0.1007832086
C  C201  1  0.34270000  0.59310000  0.46530000  1.0 -0.1007832086
C  C202  1  0.40690000  0.74960000  0.03470000  1.0 -0.1007832086
C  C203  1  0.25040000  0.65730000  0.03470000  1.0 -0.1007832086
C  C204  1  0.34270000  0.59310000  0.03470000  1.0 -0.1007832086
C  C205  1  0.74960000  0.40690000  0.53470000  1.0 -0.1007832086
C  C206  1  0.65730000  0.25040000  0.53470000  1.0 -0.1007832086
C  C207  1  0.59310000  0.34270000  0.53470000  1.0 -0.1007832086
C  C208  1  0.74960000  0.40690000  0.96530000  1.0 -0.1007832086
C  C209  1  0.65730000  0.25040000  0.96530000  1.0 -0.1007832086
C  C210  1  0.59310000  0.34270000  0.96530000  1.0 -0.1007832086
C  C211  1  0.23010000  0.77310000  0.54190000  1.0 -0.1785644936
C  C212  1  0.22690000  0.45700000  0.54190000  1.0 -0.1785644936
C  C213  1  0.54300000  0.76990000  0.54190000  1.0 -0.1785644936
C  C214  1  0.23010000  0.77310000  0.95810000  1.0 -0.1785644936
C  C215  1  0.22690000  0.45700000  0.95810000  1.0 -0.1785644936
C  C216  1  0.54300000  0.76990000  0.95810000  1.0 -0.1785644936
C  C217  1  0.77310000  0.23010000  0.45810000  1.0 -0.1785644936
C  C218  1  0.45700000  0.22690000  0.45810000  1.0 -0.1785644936
C  C219  1  0.76990000  0.54300000  0.45810000  1.0 -0.1785644936
C  C220  1  0.77310000  0.23010000  0.04190000  1.0 -0.1785644936
C  C221  1  0.45700000  0.22690000  0.04190000  1.0 -0.1785644936
C  C222  1  0.76990000  0.54300000  0.04190000  1.0 -0.1785644936
C  C223  1  0.32310000  0.85520000  0.39790000  1.0 0.6290860445
C  C224  1  0.14480000  0.46790000  0.39790000  1.0 0.6290860445
C  C225  1  0.53210000  0.67690000  0.39790000  1.0 0.6290860445
C  C226  1  0.32310000  0.85520000  0.10210000  1.0 0.6290860445
C  C227  1  0.14480000  0.46790000  0.10210000  1.0 0.6290860445
C  C228  1  0.53210000  0.67690000  0.10210000  1.0 0.6290860445
C  C229  1  0.85520000  0.32310000  0.60210000  1.0 0.6290860445
C  C230  1  0.46790000  0.14480000  0.60210000  1.0 0.6290860445
C  C231  1  0.67690000  0.53210000  0.60210000  1.0 0.6290860445
C  C232  1  0.85520000  0.32310000  0.89790000  1.0 0.6290860445
C  C233  1  0.46790000  0.14480000  0.89790000  1.0 0.6290860445
C  C234  1  0.67690000  0.53210000  0.89790000  1.0 0.6290860445
C  C235  1  0.41700000  0.82530000  0.39830000  1.0 0.6290860445
C  C236  1  0.17470000  0.59170000  0.39830000  1.0 0.6290860445
C  C237  1  0.40830000  0.58300000  0.39830000  1.0 0.6290860445
C  C238  1  0.41700000  0.82530000  0.10170000  1.0 0.6290860445
C  C239  1  0.17470000  0.59170000  0.10170000  1.0 0.6290860445
C  C240  1  0.40830000  0.58300000  0.10170000  1.0 0.6290860445
C  C241  1  0.82530000  0.41700000  0.60170000  1.0 0.6290860445
C  C242  1  0.59170000  0.17470000  0.60170000  1.0 0.6290860445
C  C243  1  0.58300000  0.40830000  0.60170000  1.0 0.6290860445
C  C244  1  0.82530000  0.41700000  0.89830000  1.0 0.6290860445
C  C245  1  0.59170000  0.17470000  0.89830000  1.0 0.6290860445
C  C246  1  0.58300000  0.40830000  0.89830000  1.0 0.6290860445
C  C247  1  0.43660000  0.82380000  0.53950000  1.0 -0.1007832086
C  C248  1  0.17620000  0.61280000  0.53950000  1.0 -0.1007832086
C  C249  1  0.38720000  0.56340000  0.53950000  1.0 -0.1007832086
C  C250  1  0.43660000  0.82380000  0.96050000  1.0 -0.1007832086
C  C251  1  0.17620000  0.61280000  0.96050000  1.0 -0.1007832086
C  C252  1  0.38720000  0.56340000  0.96050000  1.0 -0.1007832086
C  C253  1  0.82380000  0.43660000  0.46050000  1.0 -0.1007832086
C  C254  1  0.61280000  0.17620000  0.46050000  1.0 -0.1007832086
C  C255  1  0.56340000  0.38720000  0.46050000  1.0 -0.1007832086
C  C256  1  0.82380000  0.43660000  0.03950000  1.0 -0.1007832086
C  C257  1  0.61280000  0.17620000  0.03950000  1.0 -0.1007832086
C  C258  1  0.56340000  0.38720000  0.03950000  1.0 -0.1007832086
C  C259  1  0.13990000  0.71770000  0.75000000  1.0 0.0590955884
C  C260  1  0.28230000  0.42220000  0.75000000  1.0 0.0590955884
C  C261  1  0.57780000  0.86010000  0.75000000  1.0 0.0590955884
C  C262  1  0.71770000  0.13990000  0.25000000  1.0 0.0590955884
C  C263  1  0.42220000  0.28230000  0.25000000  1.0 0.0590955884
C  C264  1  0.86010000  0.57780000  0.25000000  1.0 0.0590955884
C  C265  1  0.43930000  0.80030000  0.60600000  1.0 -0.1702305903
C  C266  1  0.19970000  0.63900000  0.60600000  1.0 -0.1702305903
C  C267  1  0.36100000  0.56070000  0.60600000  1.0 -0.1702305903
C  C268  1  0.43930000  0.80030000  0.89400000  1.0 -0.1702305903
C  C269  1  0.19970000  0.63900000  0.89400000  1.0 -0.1702305903
C  C270  1  0.36100000  0.56070000  0.89400000  1.0 -0.1702305903
C  C271  1  0.80030000  0.43930000  0.39400000  1.0 -0.1702305903
C  C272  1  0.63900000  0.19970000  0.39400000  1.0 -0.1702305903
C  C273  1  0.56070000  0.36100000  0.39400000  1.0 -0.1702305903
C  C274  1  0.80030000  0.43930000  0.10600000  1.0 -0.1702305903
C  C275  1  0.63900000  0.19970000  0.10600000  1.0 -0.1702305903
C  C276  1  0.56070000  0.36100000  0.10600000  1.0 -0.1702305903
C  C277  1  0.45440000  0.67800000  0.75000000  1.0 0.0696994419
C  C278  1  0.32200000  0.77640000  0.75000000  1.0 0.0696994419
C  C279  1  0.22360000  0.54560000  0.75000000  1.0 0.0696994419
C  C280  1  0.67800000  0.45440000  0.25000000  1.0 0.0696994419
C  C281  1  0.77640000  0.32200000  0.25000000  1.0 0.0696994419
C  C282  1  0.54560000  0.22360000  0.25000000  1.0 0.0696994419
C  C283  1  0.28930000  0.83890000  0.46520000  1.0 -0.062099482
C  C284  1  0.16110000  0.45040000  0.46520000  1.0 -0.062099482
C  C285  1  0.54960000  0.71070000  0.46520000  1.0 -0.062099482
C  C286  1  0.28930000  0.83890000  0.03480000  1.0 -0.062099482
C  C287  1  0.16110000  0.45040000  0.03480000  1.0 -0.062099482
C  C288  1  0.54960000  0.71070000  0.03480000  1.0 -0.062099482
C  C289  1  0.83890000  0.28930000  0.53480000  1.0 -0.062099482
C  C290  1  0.45040000  0.16110000  0.53480000  1.0 -0.062099482
C  C291  1  0.71070000  0.54960000  0.53480000  1.0 -0.062099482
C  C292  1  0.83890000  0.28930000  0.96520000  1.0 -0.062099482
C  C293  1  0.45040000  0.16110000  0.96520000  1.0 -0.062099482
C  C294  1  0.71070000  0.54960000  0.96520000  1.0 -0.062099482
C  C295  1  0.52970000  0.59730000  0.75000000  1.0 -0.0371464167
C  C296  1  0.40270000  0.93240000  0.75000000  1.0 -0.0371464167
C  C297  1  0.06760000  0.47030000  0.75000000  1.0 -0.0371464167
C  C298  1  0.59730000  0.52970000  0.25000000  1.0 -0.0371464167
C  C299  1  0.93240000  0.40270000  0.25000000  1.0 -0.0371464167
C  C300  1  0.47030000  0.06760000  0.25000000  1.0 -0.0371464167
C  C301  1  0.05980000  0.65490000  0.69110000  1.0 -0.1007832086
C  C302  1  0.34510000  0.40490000  0.69110000  1.0 -0.0921403212
C  C303  1  0.59510000  0.94020000  0.69110000  1.0 -0.0921403212
C  C304  1  0.05980000  0.65490000  0.80890000  1.0 -0.1007832086
C  C305  1  0.34510000  0.40490000  0.80890000  1.0 -0.1007832086
C  C306  1  0.59510000  0.94020000  0.80890000  1.0 -0.0921403212
C  C307  1  0.65490000  0.05980000  0.30890000  1.0 -0.0921403212
C  C308  1  0.40490000  0.34510000  0.30890000  1.0 -0.1007832086
C  C309  1  0.94020000  0.59510000  0.30890000  1.0 -0.0921403212
C  C310  1  0.65490000  0.05980000  0.19110000  1.0 -0.0921403212
C  C311  1  0.40490000  0.34510000  0.19110000  1.0 -0.0921403212
C  C312  1  0.94020000  0.59510000  0.19110000  1.0 -0.0921403212
C  C313  1  0.02330000  0.60590000  0.68990000  1.0 -0.0371464167
C  C314  1  0.39410000  0.41740000  0.68990000  1.0 -0.0371464167
C  C315  1  0.58260000  0.97670000  0.68990000  1.0 -0.0371464167
C  C316  1  0.02330000  0.60590000  0.81010000  1.0 -0.0371464167
C  C317  1  0.39410000  0.41740000  0.81010000  1.0 -0.0371464167
C  C318  1  0.58260000  0.97670000  0.81010000  1.0 -0.0371464167
C  C319  1  0.60590000  0.02330000  0.31010000  1.0 -0.0371464167
C  C320  1  0.41740000  0.39410000  0.31010000  1.0 -0.0371464167
C  C321  1  0.97670000  0.58260000  0.31010000  1.0 -0.0371464167
C  C322  1  0.60590000  0.02330000  0.18990000  1.0 -0.0371464167
C  C323  1  0.41740000  0.39410000  0.18990000  1.0 -0.0371464167
C  C324  1  0.97670000  0.58260000  0.18990000  1.0 -0.034896879
C  C325  1  0.08710000  0.63750000  0.68570000  1.0 -0.1007832086
C  C326  1  0.36250000  0.44960000  0.68570000  1.0 -0.1007832086
C  C327  1  0.55040000  0.91290000  0.68570000  1.0 -0.1007832086
C  C328  1  0.08710000  0.63750000  0.81430000  1.0 -0.1007832086
C  C329  1  0.36250000  0.44960000  0.81430000  1.0 -0.1007832086
C  C330  1  0.55040000  0.91290000  0.81430000  1.0 -0.1007832086
C  C331  1  0.63750000  0.08710000  0.31430000  1.0 -0.1007832086
C  C332  1  0.44960000  0.36250000  0.31430000  1.0 -0.1007832086
C  C333  1  0.91290000  0.55040000  0.31430000  1.0 -0.1007832086
C  C334  1  0.63750000  0.08710000  0.18570000  1.0 -0.1007832086
C  C335  1  0.44960000  0.36250000  0.18570000  1.0 -0.1007832086
C  C336  1  0.91290000  0.55040000  0.18570000  1.0 -0.1007832086
C  C337  1  0.04810000  0.58940000  0.69180000  1.0 -0.0689709736
C  C338  1  0.41060000  0.45870000  0.69180000  1.0 -0.0689709736
C  C339  1  0.54130000  0.95190000  0.69180000  1.0 -0.0689709736
C  C340  1  0.04810000  0.58940000  0.80820000  1.0 -0.0689709736
C  C341  1  0.41060000  0.45870000  0.80820000  1.0 -0.0689709736
C  C342  1  0.54130000  0.95190000  0.80820000  1.0 -0.0689709736
C  C343  1  0.58940000  0.04810000  0.30820000  1.0 -0.0689709736
C  C344  1  0.45870000  0.41060000  0.30820000  1.0 -0.0689709736
C  C345  1  0.95190000  0.54130000  0.30820000  1.0 -0.0689709736
C  C346  1  0.58940000  0.04810000  0.19180000  1.0 -0.0689709736
C  C347  1  0.45870000  0.41060000  0.19180000  1.0 -0.0689709736
C  C348  1  0.95190000  0.54130000  0.19180000  1.0 -0.0689709736
O  O1  1  0.43001000  0.87013000  0.40650000  1.0 -0.6560199846
O  O2  1  0.12987000  0.55988000  0.40650000  1.0 -0.6560199846
O  O3  1  0.44012000  0.56999000  0.40650000  1.0 -0.6560199846
O  O4  1  0.43001000  0.87013000  0.09350000  1.0 -0.6560199846
O  O5  1  0.12987000  0.55988000  0.09350000  1.0 -0.6560199846
O  O6  1  0.44012000  0.56999000  0.09350000  1.0 -0.6560199846
O  O7  1  0.87013000  0.43001000  0.59350000  1.0 -0.6542422999
O  O8  1  0.55988000  0.12987000  0.59350000  1.0 -0.6560199846
O  O9  1  0.56999000  0.44012000  0.59350000  1.0 -0.6560199846
O  O10  1  0.87013000  0.43001000  0.90650000  1.0 -0.6542422999
O  O11  1  0.55988000  0.12987000  0.90650000  1.0 -0.6560199846
O  O12  1  0.56999000  0.44012000  0.90650000  1.0 -0.6560199846
O  O13  1  0.96020000  0.50230000  0.68490000  1.0 -0.6100000818
O  O14  1  0.49770000  0.45790000  0.68490000  1.0 -0.6100000818
O  O15  1  0.54210000  0.03980000  0.68490000  1.0 -0.6100000818
O  O16  1  0.96020000  0.50230000  0.81510000  1.0 -0.6100000818
O  O17  1  0.49770000  0.45790000  0.81510000  1.0 -0.6100000818
O  O18  1  0.54210000  0.03980000  0.81510000  1.0 -0.6100000818
O  O19  1  0.50230000  0.96020000  0.31510000  1.0 -0.6100000818
O  O20  1  0.45790000  0.49770000  0.31510000  1.0 -0.6100000818
O  O21  1  0.03980000  0.54210000  0.31510000  1.0 -0.6100000818
O  O22  1  0.50230000  0.96020000  0.18490000  1.0 -0.6100000818
O  O23  1  0.45790000  0.49770000  0.18490000  1.0 -0.6100000818
O  O24  1  0.03980000  0.54210000  0.18490000  1.0 -0.6100000818
O  O25  1  0.39490000  0.80130000  0.33710000  1.0 -0.6272786935
O  O26  1  0.19870000  0.59360000  0.33710000  1.0 -0.6272786935
O  O27  1  0.40640000  0.60510000  0.33710000  1.0 -0.6272786935
O  O28  1  0.39490000  0.80130000  0.16290000  1.0 -0.6272786935
O  O29  1  0.19870000  0.59360000  0.16290000  1.0 -0.6272786935
O  O30  1  0.40640000  0.60510000  0.16290000  1.0 -0.6272786935
O  O31  1  0.80130000  0.39490000  0.66290000  1.0 -0.6272786935
O  O32  1  0.59360000  0.19870000  0.66290000  1.0 -0.6272786935
O  O33  1  0.60510000  0.40640000  0.66290000  1.0 -0.6272786935
O  O34  1  0.80130000  0.39490000  0.83710000  1.0 -0.6272786935
O  O35  1  0.59360000  0.19870000  0.83710000  1.0 -0.6272786935
O  O36  1  0.60510000  0.40640000  0.83710000  1.0 -0.6272786935
O  O37  1  0.40660000  0.89234000  0.25000000  1.0 -1.2366080313
O  O38  1  0.10766000  0.51426000  0.25000000  1.0 -1.2366080313
O  O39  1  0.48574000  0.59340000  0.25000000  1.0 -1.2366080313
O  O40  1  0.89234000  0.40660000  0.75000000  1.0 -1.2366080313
O  O41  1  0.51426000  0.10766000  0.75000000  1.0 -1.2366080313
O  O42  1  0.59340000  0.48574000  0.75000000  1.0 -1.2366080313
O  O43  1  0.56890000  0.56095000  0.68540000  1.0 -0.6026243795
O  O44  1  0.43905000  0.00795000  0.68540000  1.0 -0.6026243795
O  O45  1  0.99205000  0.43110000  0.68540000  1.0 -0.6026243795
O  O46  1  0.56890000  0.56095000  0.81460000  1.0 -0.6026243795
O  O47  1  0.43905000  0.00795000  0.81460000  1.0 -0.6026243795
O  O48  1  0.99205000  0.43110000  0.81460000  1.0 -0.6026243795
O  O49  1  0.56095000  0.56890000  0.31460000  1.0 -0.6026243795
O  O50  1  0.00795000  0.43905000  0.31460000  1.0 -0.6026243795
O  O51  1  0.43110000  0.99205000  0.31460000  1.0 -0.6026243795
O  O52  1  0.56095000  0.56890000  0.18540000  1.0 -0.6026243795
O  O53  1  0.00795000  0.43905000  0.18540000  1.0 -0.6026243795
O  O54  1  0.43110000  0.99205000  0.18540000  1.0 -0.6026243795
O  O55  1  0.31747000  0.82664000  0.34370000  1.0 -0.6100000818
O  O56  1  0.17336000  0.49083000  0.34370000  1.0 -0.6100000818
O  O57  1  0.50917000  0.68253000  0.34370000  1.0 -0.6100000818
O  O58  1  0.31747000  0.82664000  0.15630000  1.0 -0.6100000818
O  O59  1  0.17336000  0.49083000  0.15630000  1.0 -0.6100000818
O  O60  1  0.50917000  0.68253000  0.15630000  1.0 -0.6100000818
O  O61  1  0.82664000  0.31747000  0.65630000  1.0 -0.6100000818
O  O62  1  0.49083000  0.17336000  0.65630000  1.0 -0.6100000818
O  O63  1  0.68253000  0.50917000  0.65630000  1.0 -0.6100000818
O  O64  1  0.82664000  0.31747000  0.84370000  1.0 -0.6100000818
O  O65  1  0.49083000  0.17336000  0.84370000  1.0 -0.6100000818
O  O66  1  0.68253000  0.50917000  0.84370000  1.0 -0.6100000818
O  O67  1  0.35841000  0.90045000  0.39760000  1.0 -0.6542422999
O  O68  1  0.09955000  0.45796000  0.39760000  1.0 -0.6542422999
O  O69  1  0.54204000  0.64159000  0.39760000  1.0 -0.6542422999
O  O70  1  0.35841000  0.90045000  0.10240000  1.0 -0.6542422999
O  O71  1  0.09955000  0.45796000  0.10240000  1.0 -0.6542422999
O  O72  1  0.54204000  0.64159000  0.10240000  1.0 -0.6542422999
O  O73  1  0.90045000  0.35841000  0.60240000  1.0 -0.6542422999
O  O74  1  0.45796000  0.09955000  0.60240000  1.0 -0.6542422999
O  O75  1  0.64159000  0.54204000  0.60240000  1.0 -0.6542422999
O  O76  1  0.90045000  0.35841000  0.89760000  1.0 -0.6542422999
O  O77  1  0.45796000  0.09955000  0.89760000  1.0 -0.6542422999
O  O78  1  0.64159000  0.54204000  0.89760000  1.0 -0.6542422999
