# DDEC6 charges by PACMAN v1.1 (https://github.com/mtap-research/PACMAN-charge/)
data_OJOSIR_ASR_pacman
_symmetry_space_group_name_H-M   'P 1'
_cell_length_a   18.86050000
_cell_length_b   18.86050000
_cell_length_c   16.61830000
_cell_angle_alpha   90.00000000
_cell_angle_beta   90.00000000
_cell_angle_gamma   120.00000000
_symmetry_Int_Tables_number   1
_chemical_formula_structural   Co5H48C66N27O19
_chemical_formula_sum   'Co10 H96 C132 N54 O38'
_cell_volume   5119.45382503
_cell_formula_units_Z   2
loop_
 _symmetry_equiv_pos_site_id
 _symmetry_equiv_pos_as_xyz
  1  'x, y, z'
loop_
 _atom_site_type_symbol
 _atom_site_label
 _atom_site_symmetry_multiplicity
 _atom_site_fract_x
 _atom_site_fract_y
 _atom_site_fract_z
 _atom_site_occupancy
 _atom_site_charge
Co  Co1  1  0.72820000  0.45640000  0.75000000  1.0 0.4512248023
Co  Co2  1  0.54360000  0.27180000  0.75000000  1.0 0.4512248023
Co  Co3  1  0.72820000  0.27180000  0.75000000  1.0 0.4512248023
Co  Co4  1  0.27180000  0.54360000  0.25000000  1.0 0.4512248023
Co  Co5  1  0.45640000  0.72820000  0.25000000  1.0 0.4512248023
Co  Co6  1  0.27180000  0.72820000  0.25000000  1.0 0.4512248023
Co  Co7  1  0.00000000  0.00000000  0.68150000  1.0 0.6415975623
Co  Co8  1  0.00000000  0.00000000  0.18150000  1.0 0.6415975623
Co  Co9  1  0.00000000  0.00000000  0.31850000  1.0 0.6415975623
Co  Co10  1  0.00000000  0.00000000  0.81850000  1.0 0.6415975623
H  H1  1  0.80115000  0.60230000  0.63250000  1.0 0.0432401488
H  H2  1  0.39770000  0.19885000  0.63250000  1.0 0.0432401488
H  H3  1  0.80115000  0.19885000  0.63250000  1.0 0.0432401488
H  H4  1  0.19885000  0.39770000  0.13250000  1.0 0.0432401488
H  H5  1  0.60230000  0.80115000  0.13250000  1.0 0.0432401488
H  H6  1  0.19885000  0.80115000  0.13250000  1.0 0.0432401488
H  H7  1  0.60230000  0.80115000  0.36750000  1.0 0.0432401488
H  H8  1  0.19885000  0.39770000  0.36750000  1.0 0.0432401488
H  H9  1  0.19885000  0.80115000  0.36750000  1.0 0.0432401488
H  H10  1  0.39770000  0.19885000  0.86750000  1.0 0.0432401488
H  H11  1  0.80115000  0.60230000  0.86750000  1.0 0.0432401488
H  H12  1  0.80115000  0.19885000  0.86750000  1.0 0.0432401488
H  H13  1  0.87055000  0.74110000  0.62910000  1.0 0.0888605047
H  H14  1  0.25890000  0.12945000  0.62910000  1.0 0.0888605047
H  H15  1  0.87055000  0.12945000  0.62910000  1.0 0.0888605047
H  H16  1  0.12945000  0.25890000  0.12910000  1.0 0.0888605047
H  H17  1  0.74110000  0.87055000  0.12910000  1.0 0.0888605047
H  H18  1  0.12945000  0.87055000  0.12910000  1.0 0.0888605047
H  H19  1  0.74110000  0.87055000  0.37090000  1.0 0.0888605047
H  H20  1  0.12945000  0.25890000  0.37090000  1.0 0.0888605047
H  H21  1  0.12945000  0.87055000  0.37090000  1.0 0.0888605047
H  H22  1  0.25890000  0.12945000  0.87090000  1.0 0.0888605047
H  H23  1  0.87055000  0.74110000  0.87090000  1.0 0.0888605047
H  H24  1  0.87055000  0.12945000  0.87090000  1.0 0.0888605047
H  H25  1  0.64690000  0.56630000  0.57410000  1.0 0.0888605047
H  H26  1  0.43370000  0.08060000  0.57410000  1.0 0.0888605047
H  H27  1  0.91940000  0.35310000  0.57410000  1.0 0.0888605047
H  H28  1  0.35310000  0.43370000  0.07410000  1.0 0.0888605047
H  H29  1  0.56630000  0.91940000  0.07410000  1.0 0.0888605047
H  H30  1  0.08060000  0.64690000  0.07410000  1.0 0.0888605047
H  H31  1  0.56630000  0.64690000  0.42590000  1.0 0.0888605047
H  H32  1  0.08060000  0.43370000  0.42590000  1.0 0.0888605047
H  H33  1  0.35310000  0.91940000  0.42590000  1.0 0.0888605047
H  H34  1  0.43370000  0.35310000  0.92590000  1.0 0.0888605047
H  H35  1  0.91940000  0.56630000  0.92590000  1.0 0.0888605047
H  H36  1  0.64690000  0.08060000  0.92590000  1.0 0.0888605047
H  H37  1  0.35310000  0.43370000  0.42590000  1.0 0.0888605047
H  H38  1  0.56630000  0.91940000  0.42590000  1.0 0.0888605047
H  H39  1  0.08060000  0.64690000  0.42590000  1.0 0.0888605047
H  H40  1  0.64690000  0.56630000  0.92590000  1.0 0.0888605047
H  H41  1  0.43370000  0.08060000  0.92590000  1.0 0.0888605047
H  H42  1  0.91940000  0.35310000  0.92590000  1.0 0.0888605047
H  H43  1  0.43370000  0.35310000  0.57410000  1.0 0.0888605047
H  H44  1  0.91940000  0.56630000  0.57410000  1.0 0.0888605047
H  H45  1  0.64690000  0.08060000  0.57410000  1.0 0.0888605047
H  H46  1  0.56630000  0.64690000  0.07410000  1.0 0.0888605047
H  H47  1  0.08060000  0.43370000  0.07410000  1.0 0.0888605047
H  H48  1  0.35310000  0.91940000  0.07410000  1.0 0.0888605047
H  H49  1  0.69550000  0.60180000  0.75000000  1.0 0.0432401488
H  H50  1  0.39820000  0.09370000  0.75000000  1.0 0.0432401488
H  H51  1  0.90630000  0.30450000  0.75000000  1.0 0.0432401488
H  H52  1  0.30450000  0.39820000  0.25000000  1.0 0.0432401488
H  H53  1  0.60180000  0.90630000  0.25000000  1.0 0.0432401488
H  H54  1  0.09370000  0.69550000  0.25000000  1.0 0.0432401488
H  H55  1  0.60180000  0.69550000  0.25000000  1.0 0.0432401488
H  H56  1  0.09370000  0.39820000  0.25000000  1.0 0.0432401488
H  H57  1  0.30450000  0.90630000  0.25000000  1.0 0.0432401488
H  H58  1  0.39820000  0.30450000  0.75000000  1.0 0.0432401488
H  H59  1  0.90630000  0.60180000  0.75000000  1.0 0.0432401488
H  H60  1  0.69550000  0.09370000  0.75000000  1.0 0.0432401488
H  H61  1  0.76560000  0.74220000  0.75000000  1.0 0.0817958683
H  H62  1  0.25780000  0.02340000  0.75000000  1.0 0.0817958683
H  H63  1  0.97660000  0.23440000  0.75000000  1.0 0.0817958683
H  H64  1  0.23440000  0.25780000  0.25000000  1.0 0.0817958683
H  H65  1  0.74220000  0.97660000  0.25000000  1.0 0.0817958683
H  H66  1  0.02340000  0.76560000  0.25000000  1.0 0.0817958683
H  H67  1  0.74220000  0.76560000  0.25000000  1.0 0.0817958683
H  H68  1  0.02340000  0.25780000  0.25000000  1.0 0.0817958683
H  H69  1  0.23440000  0.97660000  0.25000000  1.0 0.0817958683
H  H70  1  0.25780000  0.23440000  0.75000000  1.0 0.0817958683
H  H71  1  0.97660000  0.74220000  0.75000000  1.0 0.0817958683
H  H72  1  0.76560000  0.02340000  0.75000000  1.0 0.0817958683
H  H73  1  0.59250000  0.60950000  0.47660000  1.0 0.0888605047
H  H74  1  0.39050000  0.98300000  0.47660000  1.0 0.0888605047
H  H75  1  0.01700000  0.40750000  0.47660000  1.0 0.0888605047
H  H76  1  0.40750000  0.39050000  0.97660000  1.0 0.0888605047
H  H77  1  0.60950000  0.01700000  0.97660000  1.0 0.0888605047
H  H78  1  0.98300000  0.59250000  0.97660000  1.0 0.0888605047
H  H79  1  0.60950000  0.59250000  0.52340000  1.0 0.0888605047
H  H80  1  0.98300000  0.39050000  0.52340000  1.0 0.0888605047
H  H81  1  0.40750000  0.01700000  0.52340000  1.0 0.0888605047
H  H82  1  0.39050000  0.40750000  0.02340000  1.0 0.0888605047
H  H83  1  0.01700000  0.60950000  0.02340000  1.0 0.0888605047
H  H84  1  0.59250000  0.98300000  0.02340000  1.0 0.0888605047
H  H85  1  0.40750000  0.39050000  0.52340000  1.0 0.0888605047
H  H86  1  0.60950000  0.01700000  0.52340000  1.0 0.0888605047
H  H87  1  0.98300000  0.59250000  0.52340000  1.0 0.0888605047
H  H88  1  0.59250000  0.60950000  0.02340000  1.0 0.0888605047
H  H89  1  0.39050000  0.98300000  0.02340000  1.0 0.0888605047
H  H90  1  0.01700000  0.40750000  0.02340000  1.0 0.0888605047
H  H91  1  0.39050000  0.40750000  0.47660000  1.0 0.0888605047
H  H92  1  0.01700000  0.60950000  0.47660000  1.0 0.0888605047
H  H93  1  0.59250000  0.98300000  0.47660000  1.0 0.0888605047
H  H94  1  0.60950000  0.59250000  0.97660000  1.0 0.0888605047
H  H95  1  0.98300000  0.39050000  0.97660000  1.0 0.0888605047
H  H96  1  0.40750000  0.01700000  0.97660000  1.0 0.0888605047
C  C1  1  0.55056000  0.44944000  0.58210000  1.0 0.0340718188
C  C2  1  0.55056000  0.10112000  0.58210000  1.0 0.0340718188
C  C3  1  0.89888000  0.44944000  0.58210000  1.0 0.0340718188
C  C4  1  0.44944000  0.55056000  0.08210000  1.0 0.0340718188
C  C5  1  0.44944000  0.89888000  0.08210000  1.0 0.0340718188
C  C6  1  0.10112000  0.55056000  0.08210000  1.0 0.0340718188
C  C7  1  0.44944000  0.55056000  0.41790000  1.0 0.0340718188
C  C8  1  0.10112000  0.55056000  0.41790000  1.0 0.0340718188
C  C9  1  0.44944000  0.89888000  0.41790000  1.0 0.0340718188
C  C10  1  0.55056000  0.44944000  0.91790000  1.0 0.0340718188
C  C11  1  0.89888000  0.44944000  0.91790000  1.0 0.0340718188
C  C12  1  0.55056000  0.10112000  0.91790000  1.0 0.0340718188
C  C13  1  0.56260000  0.56260000  0.50000000  1.0 -0.1023830993
C  C14  1  0.43740000  0.00000000  0.50000000  1.0 -0.1023830993
C  C15  1  0.00000000  0.43740000  0.50000000  1.0 -0.1023830993
C  C16  1  0.43740000  0.43740000  0.00000000  1.0 -0.1023830993
C  C17  1  0.56260000  0.00000000  0.00000000  1.0 -0.1023830993
C  C18  1  0.00000000  0.56260000  0.00000000  1.0 -0.1023830993
C  C19  1  0.43740000  0.43740000  0.50000000  1.0 -0.1023830993
C  C20  1  0.56260000  0.00000000  0.50000000  1.0 -0.1023830993
C  C21  1  0.00000000  0.56260000  0.50000000  1.0 -0.1023830993
C  C22  1  0.56260000  0.56260000  0.00000000  1.0 -0.1023830993
C  C23  1  0.43740000  0.00000000  0.00000000  1.0 -0.1023830993
C  C24  1  0.00000000  0.43740000  0.00000000  1.0 -0.1023830993
C  C25  1  0.51720000  0.48280000  0.52400000  1.0 -0.0203889255
C  C26  1  0.51720000  0.03440000  0.52400000  1.0 -0.0203889255
C  C27  1  0.96560000  0.48280000  0.52400000  1.0 -0.0203889255
C  C28  1  0.48280000  0.51720000  0.02400000  1.0 -0.0203889255
C  C29  1  0.48280000  0.96560000  0.02400000  1.0 -0.0203889255
C  C30  1  0.03440000  0.51720000  0.02400000  1.0 -0.0203889255
C  C31  1  0.48280000  0.51720000  0.47600000  1.0 -0.0203889255
C  C32  1  0.03440000  0.51720000  0.47600000  1.0 -0.0203889255
C  C33  1  0.48280000  0.96560000  0.47600000  1.0 -0.0203889255
C  C34  1  0.51720000  0.48280000  0.97600000  1.0 -0.0203889255
C  C35  1  0.96560000  0.48280000  0.97600000  1.0 -0.0203889255
C  C36  1  0.51720000  0.03440000  0.97600000  1.0 -0.0203889255
C  C37  1  0.81525000  0.63050000  0.68110000  1.0 -0.0203889255
C  C38  1  0.36950000  0.18475000  0.68110000  1.0 -0.0203889255
C  C39  1  0.81525000  0.18475000  0.68110000  1.0 -0.0203889255
C  C40  1  0.18475000  0.36950000  0.18110000  1.0 -0.0203889255
C  C41  1  0.63050000  0.81525000  0.18110000  1.0 -0.0203889255
C  C42  1  0.18475000  0.81525000  0.18110000  1.0 -0.0203889255
C  C43  1  0.63050000  0.81525000  0.31890000  1.0 -0.0203889255
C  C44  1  0.18475000  0.36950000  0.31890000  1.0 -0.0203889255
C  C45  1  0.18475000  0.81525000  0.31890000  1.0 -0.0203889255
C  C46  1  0.36950000  0.18475000  0.81890000  1.0 -0.0203889255
C  C47  1  0.81525000  0.63050000  0.81890000  1.0 -0.0203889255
C  C48  1  0.81525000  0.18475000  0.81890000  1.0 -0.0203889255
C  C49  1  0.87940000  0.75880000  0.75000000  1.0 0.0030746182
C  C50  1  0.24120000  0.12060000  0.75000000  1.0 0.0030746182
C  C51  1  0.87940000  0.12060000  0.75000000  1.0 0.0030746182
C  C52  1  0.12060000  0.24120000  0.25000000  1.0 0.0030746182
C  C53  1  0.75880000  0.87940000  0.25000000  1.0 0.0030746182
C  C54  1  0.12060000  0.87940000  0.25000000  1.0 0.0030746182
C  C55  1  0.92585000  0.85170000  0.75000000  1.0 0.538253107
C  C56  1  0.14830000  0.07415000  0.75000000  1.0 0.538253107
C  C57  1  0.92585000  0.07415000  0.75000000  1.0 0.538253107
C  C58  1  0.07415000  0.14830000  0.25000000  1.0 0.538253107
C  C59  1  0.85170000  0.92585000  0.25000000  1.0 0.538253107
C  C60  1  0.07415000  0.92585000  0.25000000  1.0 0.538253107
C  C61  1  0.85705000  0.71410000  0.67840000  1.0 -0.0848474495
C  C62  1  0.28590000  0.14295000  0.67840000  1.0 -0.0848474495
C  C63  1  0.85705000  0.14295000  0.67840000  1.0 -0.0848474495
C  C64  1  0.14295000  0.28590000  0.17840000  1.0 -0.0848474495
C  C65  1  0.71410000  0.85705000  0.17840000  1.0 -0.0848474495
C  C66  1  0.14295000  0.85705000  0.17840000  1.0 -0.0848474495
C  C67  1  0.71410000  0.85705000  0.32160000  1.0 -0.0848474495
C  C68  1  0.14295000  0.28590000  0.32160000  1.0 -0.0848474495
C  C69  1  0.14295000  0.85705000  0.32160000  1.0 -0.0848474495
C  C70  1  0.28590000  0.14295000  0.82160000  1.0 -0.0848474495
C  C71  1  0.85705000  0.71410000  0.82160000  1.0 -0.0848474495
C  C72  1  0.85705000  0.14295000  0.82160000  1.0 -0.0848474495
C  C73  1  0.59450000  0.53200000  0.55440000  1.0 -0.0696152536
C  C74  1  0.46800000  0.06250000  0.55440000  1.0 -0.0696152536
C  C75  1  0.93750000  0.40550000  0.55440000  1.0 -0.0696152536
C  C76  1  0.40550000  0.46800000  0.05440000  1.0 -0.0696152536
C  C77  1  0.53200000  0.93750000  0.05440000  1.0 -0.0696152536
C  C78  1  0.06250000  0.59450000  0.05440000  1.0 -0.0696152536
C  C79  1  0.53200000  0.59450000  0.44560000  1.0 -0.0696152536
C  C80  1  0.06250000  0.46800000  0.44560000  1.0 -0.0696152536
C  C81  1  0.40550000  0.93750000  0.44560000  1.0 -0.0696152536
C  C82  1  0.46800000  0.40550000  0.94560000  1.0 -0.0696152536
C  C83  1  0.93750000  0.53200000  0.94560000  1.0 -0.0696152536
C  C84  1  0.59450000  0.06250000  0.94560000  1.0 -0.0696152536
C  C85  1  0.40550000  0.46800000  0.44560000  1.0 -0.0696152536
C  C86  1  0.53200000  0.93750000  0.44560000  1.0 -0.0696152536
C  C87  1  0.06250000  0.59450000  0.44560000  1.0 -0.0696152536
C  C88  1  0.59450000  0.53200000  0.94560000  1.0 -0.0696152536
C  C89  1  0.46800000  0.06250000  0.94560000  1.0 -0.0696152536
C  C90  1  0.93750000  0.40550000  0.94560000  1.0 -0.0696152536
C  C91  1  0.46800000  0.40550000  0.55440000  1.0 -0.0696152536
C  C92  1  0.93750000  0.53200000  0.55440000  1.0 -0.0696152536
C  C93  1  0.59450000  0.06250000  0.55440000  1.0 -0.0696152536
C  C94  1  0.53200000  0.59450000  0.05440000  1.0 -0.0696152536
C  C95  1  0.06250000  0.46800000  0.05440000  1.0 -0.0696152536
C  C96  1  0.40550000  0.93750000  0.05440000  1.0 -0.0696152536
C  C97  1  0.58400000  0.41600000  0.64050000  1.0 0.2921065224
C  C98  1  0.58400000  0.16800000  0.64050000  1.0 0.2921065224
C  C99  1  0.83200000  0.41600000  0.64050000  1.0 0.2921065224
C  C100  1  0.41600000  0.58400000  0.14050000  1.0 0.2921065224
C  C101  1  0.41600000  0.83200000  0.14050000  1.0 0.2921065224
C  C102  1  0.16800000  0.58400000  0.14050000  1.0 0.2921065224
C  C103  1  0.41600000  0.58400000  0.35950000  1.0 0.2921065224
C  C104  1  0.16800000  0.58400000  0.35950000  1.0 0.2921065224
C  C105  1  0.41600000  0.83200000  0.35950000  1.0 0.2921065224
C  C106  1  0.58400000  0.41600000  0.85950000  1.0 0.2921065224
C  C107  1  0.83200000  0.41600000  0.85950000  1.0 0.2921065224
C  C108  1  0.58400000  0.16800000  0.85950000  1.0 0.2921065224
C  C109  1  0.75240000  0.62980000  0.75000000  1.0 -0.0286420371
C  C110  1  0.37020000  0.12260000  0.75000000  1.0 -0.0286420371
C  C111  1  0.87740000  0.24760000  0.75000000  1.0 -0.0286420371
C  C112  1  0.24760000  0.37020000  0.25000000  1.0 -0.0286420371
C  C113  1  0.62980000  0.87740000  0.25000000  1.0 -0.0286420371
C  C114  1  0.12260000  0.75240000  0.25000000  1.0 -0.0286420371
C  C115  1  0.62980000  0.75240000  0.25000000  1.0 -0.0286420371
C  C116  1  0.12260000  0.37020000  0.25000000  1.0 -0.0286420371
C  C117  1  0.24760000  0.87740000  0.25000000  1.0 -0.0286420371
C  C118  1  0.37020000  0.24760000  0.75000000  1.0 -0.0286420371
C  C119  1  0.87740000  0.62980000  0.75000000  1.0 -0.0286420371
C  C120  1  0.75240000  0.12260000  0.75000000  1.0 -0.0286420371
C  C121  1  0.79470000  0.71440000  0.75000000  1.0 -0.0916503734
C  C122  1  0.28560000  0.08030000  0.75000000  1.0 -0.0916503734
C  C123  1  0.91970000  0.20530000  0.75000000  1.0 -0.0916503734
C  C124  1  0.20530000  0.28560000  0.25000000  1.0 -0.0916503734
C  C125  1  0.71440000  0.91970000  0.25000000  1.0 -0.0916503734
C  C126  1  0.08030000  0.79470000  0.25000000  1.0 -0.0916503734
C  C127  1  0.71440000  0.79470000  0.25000000  1.0 -0.0916503734
C  C128  1  0.08030000  0.28560000  0.25000000  1.0 -0.0916503734
C  C129  1  0.20530000  0.91970000  0.25000000  1.0 -0.0916503734
C  C130  1  0.28560000  0.20530000  0.75000000  1.0 -0.0916503734
C  C131  1  0.91970000  0.71440000  0.75000000  1.0 -0.0916503734
C  C132  1  0.79470000  0.08030000  0.75000000  1.0 -0.0916503734
N  N1  1  0.63220000  0.43480000  0.66360000  1.0 -0.0629819453
N  N2  1  0.56520000  0.19740000  0.66360000  1.0 -0.0629819453
N  N3  1  0.80260000  0.36780000  0.66360000  1.0 -0.0629819453
N  N4  1  0.36780000  0.56520000  0.16360000  1.0 -0.0629819453
N  N5  1  0.43480000  0.80260000  0.16360000  1.0 -0.0629819453
N  N6  1  0.19740000  0.63220000  0.16360000  1.0 -0.0629819453
N  N7  1  0.43480000  0.63220000  0.33640000  1.0 -0.0629819453
N  N8  1  0.19740000  0.56520000  0.33640000  1.0 -0.0629819453
N  N9  1  0.36780000  0.80260000  0.33640000  1.0 -0.0629819453
N  N10  1  0.56520000  0.36780000  0.83640000  1.0 -0.0629819453
N  N11  1  0.80260000  0.43480000  0.83640000  1.0 -0.0629819453
N  N12  1  0.63220000  0.19740000  0.83640000  1.0 -0.0629819453
N  N13  1  0.36780000  0.56520000  0.33640000  1.0 -0.0629819453
N  N14  1  0.43480000  0.80260000  0.33640000  1.0 -0.0629819453
N  N15  1  0.19740000  0.63220000  0.33640000  1.0 -0.0629819453
N  N16  1  0.63220000  0.43480000  0.83640000  1.0 -0.0629819453
N  N17  1  0.56520000  0.19740000  0.83640000  1.0 -0.0629819453
N  N18  1  0.80260000  0.36780000  0.83640000  1.0 -0.0629819453
N  N19  1  0.56520000  0.36780000  0.66360000  1.0 -0.0629819453
N  N20  1  0.80260000  0.43480000  0.66360000  1.0 -0.0629819453
N  N21  1  0.63220000  0.19740000  0.66360000  1.0 -0.0629819453
N  N22  1  0.43480000  0.63220000  0.16360000  1.0 -0.0629819453
N  N23  1  0.19740000  0.56520000  0.16360000  1.0 -0.0629819453
N  N24  1  0.36780000  0.80260000  0.16360000  1.0 -0.0629819453
N  N25  1  0.62780000  0.49020000  0.61390000  1.0 -0.1210317582
N  N26  1  0.50980000  0.13760000  0.61390000  1.0 -0.1210317582
N  N27  1  0.86240000  0.37220000  0.61390000  1.0 -0.1210317582
N  N28  1  0.37220000  0.50980000  0.11390000  1.0 -0.1210317582
N  N29  1  0.49020000  0.86240000  0.11390000  1.0 -0.1210317582
N  N30  1  0.13760000  0.62780000  0.11390000  1.0 -0.1210317582
N  N31  1  0.49020000  0.62780000  0.38610000  1.0 -0.1210317582
N  N32  1  0.13760000  0.50980000  0.38610000  1.0 -0.1210317582
N  N33  1  0.37220000  0.86240000  0.38610000  1.0 -0.1210317582
N  N34  1  0.50980000  0.37220000  0.88610000  1.0 -0.1210317582
N  N35  1  0.86240000  0.49020000  0.88610000  1.0 -0.1210317582
N  N36  1  0.62780000  0.13760000  0.88610000  1.0 -0.1210317582
N  N37  1  0.37220000  0.50980000  0.38610000  1.0 -0.1210317582
N  N38  1  0.49020000  0.86240000  0.38610000  1.0 -0.1210317582
N  N39  1  0.13760000  0.62780000  0.38610000  1.0 -0.1210317582
N  N40  1  0.62780000  0.49020000  0.88610000  1.0 -0.1210317582
N  N41  1  0.50980000  0.13760000  0.88610000  1.0 -0.1210317582
N  N42  1  0.86240000  0.37220000  0.88610000  1.0 -0.1210317582
N  N43  1  0.50980000  0.37220000  0.61390000  1.0 -0.1210317582
N  N44  1  0.86240000  0.49020000  0.61390000  1.0 -0.1210317582
N  N45  1  0.62780000  0.13760000  0.61390000  1.0 -0.1210317582
N  N46  1  0.49020000  0.62780000  0.11390000  1.0 -0.1210317582
N  N47  1  0.13760000  0.50980000  0.11390000  1.0 -0.1210317582
N  N48  1  0.37220000  0.86240000  0.11390000  1.0 -0.1210317582
N  N49  1  0.79305000  0.58610000  0.75000000  1.0 -0.2811674195
N  N50  1  0.41390000  0.20695000  0.75000000  1.0 -0.2811674195
N  N51  1  0.79305000  0.20695000  0.75000000  1.0 -0.2811674195
N  N52  1  0.20695000  0.41390000  0.25000000  1.0 -0.2811674195
N  N53  1  0.58610000  0.79305000  0.25000000  1.0 -0.2811674195
N  N54  1  0.20695000  0.79305000  0.25000000  1.0 -0.2811674195
O  O1  1  0.66666667  0.33333333  0.75000000  1.0 -0.4932756193
O  O2  1  0.33333333  0.66666667  0.25000000  1.0 -0.4932756193
O  O3  1  0.94035000  0.88070000  0.68220000  1.0 -0.4784976708
O  O4  1  0.11930000  0.05965000  0.68220000  1.0 -0.4784976708
O  O5  1  0.94035000  0.05965000  0.68220000  1.0 -0.4784976708
O  O6  1  0.05965000  0.11930000  0.18220000  1.0 -0.4784976708
O  O7  1  0.88070000  0.94035000  0.18220000  1.0 -0.4784976708
O  O8  1  0.05965000  0.94035000  0.18220000  1.0 -0.4784976708
O  O9  1  0.88070000  0.94035000  0.31780000  1.0 -0.4784976708
O  O10  1  0.05965000  0.11930000  0.31780000  1.0 -0.4784976708
O  O11  1  0.05965000  0.94035000  0.31780000  1.0 -0.4784976708
O  O12  1  0.11930000  0.05965000  0.81780000  1.0 -0.4784976708
O  O13  1  0.94035000  0.88070000  0.81780000  1.0 -0.4784976708
O  O14  1  0.94035000  0.05965000  0.81780000  1.0 -0.4784976708
O  O15  1  0.65420000  0.46150000  0.66190000  1.0 -0.0435568045
O  O16  1  0.53850000  0.19270000  0.66190000  1.0 -0.0465165033
O  O17  1  0.80730000  0.34580000  0.66190000  1.0 -0.0435568045
O  O18  1  0.34580000  0.53850000  0.16190000  1.0 -0.0465165033
O  O19  1  0.46150000  0.80730000  0.16190000  1.0 -0.0465165033
O  O20  1  0.19270000  0.65420000  0.16190000  1.0 -0.0465165033
O  O21  1  0.46150000  0.65420000  0.33810000  1.0 -0.0465165033
O  O22  1  0.19270000  0.53850000  0.33810000  1.0 -0.0465165033
O  O23  1  0.34580000  0.80730000  0.33810000  1.0 -0.0465165033
O  O24  1  0.53850000  0.34580000  0.83810000  1.0 -0.0465165033
O  O25  1  0.80730000  0.46150000  0.83810000  1.0 -0.0465165033
O  O26  1  0.65420000  0.19270000  0.83810000  1.0 -0.0465165033
O  O27  1  0.34580000  0.53850000  0.33810000  1.0 -0.0465165033
O  O28  1  0.46150000  0.80730000  0.33810000  1.0 -0.0465165033
O  O29  1  0.19270000  0.65420000  0.33810000  1.0 -0.0465165033
O  O30  1  0.65420000  0.46150000  0.83810000  1.0 -0.0465165033
O  O31  1  0.53850000  0.19270000  0.83810000  1.0 -0.0465165033
O  O32  1  0.80730000  0.34580000  0.83810000  1.0 -0.0465165033
O  O33  1  0.53850000  0.34580000  0.66190000  1.0 -0.0435568045
O  O34  1  0.80730000  0.46150000  0.66190000  1.0 -0.0435568045
O  O35  1  0.65420000  0.19270000  0.66190000  1.0 -0.0465165033
O  O36  1  0.46150000  0.65420000  0.16190000  1.0 -0.0465165033
O  O37  1  0.19270000  0.53850000  0.16190000  1.0 -0.0465165033
O  O38  1  0.34580000  0.80730000  0.16190000  1.0 -0.0465165033
