# DDEC6 charges by PACMAN v1.1 (https://github.com/mtap-research/PACMAN-charge/)
data_OJOSEN_ASR_pacman
_symmetry_space_group_name_H-M   'P 1'
_cell_length_a   16.86760000
_cell_length_b   16.86760000
_cell_length_c   18.81860000
_cell_angle_alpha   90.00000000
_cell_angle_beta   90.00000000
_cell_angle_gamma   120.00000000
_symmetry_Int_Tables_number   1
_chemical_formula_structural   Co3H24C36N24O13
_chemical_formula_sum   'Co6 H48 C72 N48 O26'
_cell_volume   4636.86583475
_cell_formula_units_Z   2
loop_
 _symmetry_equiv_pos_site_id
 _symmetry_equiv_pos_as_xyz
  1  'x, y, z'
loop_
 _atom_site_type_symbol
 _atom_site_label
 _atom_site_symmetry_multiplicity
 _atom_site_fract_x
 _atom_site_fract_y
 _atom_site_fract_z
 _atom_site_occupancy
 _atom_site_charge
Co  Co1  1  0.73535000  0.47069000  0.25000000  1.0 0.4113221376
Co  Co2  1  0.26465000  0.73534000  0.75000000  1.0 0.4113221376
Co  Co3  1  0.52931000  0.26465000  0.25000000  1.0 0.4113221376
Co  Co4  1  0.26465000  0.52931000  0.75000000  1.0 0.4113221376
Co  Co5  1  0.73535000  0.26465000  0.25000000  1.0 0.4113221376
Co  Co6  1  0.47069000  0.73534000  0.75000000  1.0 0.4113221376
H  H1  1  0.41850000  0.34230000  0.42330000  1.0 0.0678878819
H  H2  1  0.07620000  0.41850000  0.92330000  1.0 0.0678878819
H  H3  1  0.65770000  0.07620000  0.42330000  1.0 0.0678878819
H  H4  1  0.58150000  0.65770000  0.92330000  1.0 0.0678878819
H  H5  1  0.92380000  0.58150000  0.42330000  1.0 0.0678878819
H  H6  1  0.34230000  0.92380000  0.92330000  1.0 0.0678878819
H  H7  1  0.07620000  0.65770000  0.57670000  1.0 0.0678878819
H  H8  1  0.58150000  0.92380000  0.57670000  1.0 0.0678878819
H  H9  1  0.34230000  0.41850000  0.57670000  1.0 0.0678878819
H  H10  1  0.65770000  0.58150000  0.07670000  1.0 0.0678878819
H  H11  1  0.92380000  0.34230000  0.07670000  1.0 0.0678878819
H  H12  1  0.41850000  0.07620000  0.07670000  1.0 0.0678878819
H  H13  1  0.58150000  0.65770000  0.57670000  1.0 0.0678878819
H  H14  1  0.92380000  0.58150000  0.07670000  1.0 0.0678878819
H  H15  1  0.34230000  0.92380000  0.57670000  1.0 0.0678878819
H  H16  1  0.41850000  0.34230000  0.07670000  1.0 0.0678878819
H  H17  1  0.07620000  0.41850000  0.57670000  1.0 0.0678878819
H  H18  1  0.65770000  0.07620000  0.07670000  1.0 0.0678878819
H  H19  1  0.92380000  0.34230000  0.42330000  1.0 0.0678878819
H  H20  1  0.41850000  0.07620000  0.42330000  1.0 0.0678878819
H  H21  1  0.65770000  0.58150000  0.42330000  1.0 0.0678878819
H  H22  1  0.34230000  0.41850000  0.92330000  1.0 0.0678878819
H  H23  1  0.07620000  0.65770000  0.92330000  1.0 0.0678878819
H  H24  1  0.58150000  0.92380000  0.92330000  1.0 0.0678878819
H  H25  1  0.37580000  0.39260000  0.52290000  1.0 0.0678878819
H  H26  1  0.98320000  0.37580000  0.02290000  1.0 0.0678878819
H  H27  1  0.60740000  0.98320000  0.52290000  1.0 0.0678878819
H  H28  1  0.62420000  0.60740000  0.02290000  1.0 0.0678878819
H  H29  1  0.01680000  0.62420000  0.52290000  1.0 0.0678878819
H  H30  1  0.39260000  0.01680000  0.02290000  1.0 0.0678878819
H  H31  1  0.98320000  0.60740000  0.47710000  1.0 0.0678878819
H  H32  1  0.62420000  0.01680000  0.47710000  1.0 0.0678878819
H  H33  1  0.39260000  0.37580000  0.47710000  1.0 0.0678878819
H  H34  1  0.60740000  0.62420000  0.97710000  1.0 0.0678878819
H  H35  1  0.01680000  0.39260000  0.97710000  1.0 0.0678878819
H  H36  1  0.37580000  0.98320000  0.97710000  1.0 0.0678878819
H  H37  1  0.62420000  0.60740000  0.47710000  1.0 0.0678878819
H  H38  1  0.01680000  0.62420000  0.97710000  1.0 0.0678878819
H  H39  1  0.39260000  0.01680000  0.47710000  1.0 0.0678878819
H  H40  1  0.37580000  0.39260000  0.97710000  1.0 0.0678878819
H  H41  1  0.98320000  0.37580000  0.47710000  1.0 0.0678878819
H  H42  1  0.60740000  0.98320000  0.97710000  1.0 0.0678878819
H  H43  1  0.01680000  0.39260000  0.52290000  1.0 0.0678878819
H  H44  1  0.37580000  0.98320000  0.52290000  1.0 0.0678878819
H  H45  1  0.60740000  0.62420000  0.52290000  1.0 0.0678878819
H  H46  1  0.39260000  0.37580000  0.02290000  1.0 0.0678878819
H  H47  1  0.98320000  0.60740000  0.02290000  1.0 0.0678878819
H  H48  1  0.62420000  0.01680000  0.02290000  1.0 0.0678878819
C  C1  1  0.54595000  0.45405000  0.41173000  1.0 -0.0131793845
C  C2  1  0.09190000  0.54595000  0.91173000  1.0 -0.0131793845
C  C3  1  0.54595000  0.09190000  0.41173000  1.0 -0.0131793845
C  C4  1  0.45405000  0.54595000  0.91173000  1.0 -0.0131793845
C  C5  1  0.90810000  0.45405000  0.41173000  1.0 -0.0131793845
C  C6  1  0.45405000  0.90810000  0.91173000  1.0 -0.0131793845
C  C7  1  0.09190000  0.54595000  0.58827000  1.0 -0.0131793845
C  C8  1  0.45405000  0.90810000  0.58827000  1.0 -0.0131793845
C  C9  1  0.45405000  0.54595000  0.58827000  1.0 -0.0131793845
C  C10  1  0.54595000  0.45405000  0.08827000  1.0 -0.0131793845
C  C11  1  0.90810000  0.45405000  0.08827000  1.0 -0.0131793845
C  C12  1  0.54595000  0.09190000  0.08827000  1.0 -0.0131793845
C  C13  1  0.43080000  0.43080000  0.50000000  1.0 -0.0878723597
C  C14  1  0.00000000  0.43080000  0.00000000  1.0 -0.0878723597
C  C15  1  0.56920000  0.00000000  0.50000000  1.0 -0.0878723597
C  C16  1  0.56920000  0.56920000  0.00000000  1.0 -0.0878723597
C  C17  1  0.00000000  0.56920000  0.50000000  1.0 -0.0878723597
C  C18  1  0.43080000  0.00000000  0.00000000  1.0 -0.0878723597
C  C19  1  0.56920000  0.56920000  0.50000000  1.0 -0.0878723597
C  C20  1  0.00000000  0.56920000  0.00000000  1.0 -0.0878723597
C  C21  1  0.43080000  0.00000000  0.50000000  1.0 -0.0878723597
C  C22  1  0.43080000  0.43080000  0.00000000  1.0 -0.0878723597
C  C23  1  0.00000000  0.43080000  0.50000000  1.0 -0.0878723597
C  C24  1  0.56920000  0.00000000  0.00000000  1.0 -0.0878723597
C  C25  1  0.45900000  0.40090000  0.44270000  1.0 -0.0433833029
C  C26  1  0.05810000  0.45900000  0.94270000  1.0 -0.0433833029
C  C27  1  0.59910000  0.05810000  0.44270000  1.0 -0.0433833029
C  C28  1  0.54100000  0.59910000  0.94270000  1.0 -0.0433833029
C  C29  1  0.94190000  0.54100000  0.44270000  1.0 -0.0433833029
C  C30  1  0.40090000  0.94190000  0.94270000  1.0 -0.0433833029
C  C31  1  0.05810000  0.59910000  0.55730000  1.0 -0.0433833029
C  C32  1  0.54100000  0.94190000  0.55730000  1.0 -0.0433833029
C  C33  1  0.40090000  0.45900000  0.55730000  1.0 -0.0433833029
C  C34  1  0.59910000  0.54100000  0.05730000  1.0 -0.0433833029
C  C35  1  0.94190000  0.40090000  0.05730000  1.0 -0.0433833029
C  C36  1  0.45900000  0.05810000  0.05730000  1.0 -0.0433833029
C  C37  1  0.54100000  0.59910000  0.55730000  1.0 -0.0433833029
C  C38  1  0.94190000  0.54100000  0.05730000  1.0 -0.0433833029
C  C39  1  0.40090000  0.94190000  0.55730000  1.0 -0.0433833029
C  C40  1  0.45900000  0.40090000  0.05730000  1.0 -0.0433833029
C  C41  1  0.05810000  0.45900000  0.55730000  1.0 -0.0433833029
C  C42  1  0.59910000  0.05810000  0.05730000  1.0 -0.0433833029
C  C43  1  0.94190000  0.40090000  0.44270000  1.0 -0.0433833029
C  C44  1  0.45900000  0.05810000  0.44270000  1.0 -0.0433833029
C  C45  1  0.59910000  0.54100000  0.44270000  1.0 -0.0433833029
C  C46  1  0.40090000  0.45900000  0.94270000  1.0 -0.0433833029
C  C47  1  0.05810000  0.59910000  0.94270000  1.0 -0.0433833029
C  C48  1  0.54100000  0.94190000  0.94270000  1.0 -0.0433833029
C  C49  1  0.51710000  0.48290000  0.47150000  1.0 0.0069824515
C  C50  1  0.03420000  0.51710000  0.97150000  1.0 0.0069824515
C  C51  1  0.51710000  0.03420000  0.47150000  1.0 0.0069824515
C  C52  1  0.48290000  0.51710000  0.97150000  1.0 0.0069824515
C  C53  1  0.96580000  0.48290000  0.47150000  1.0 0.0069824515
C  C54  1  0.48290000  0.96580000  0.97150000  1.0 0.0069824515
C  C55  1  0.03420000  0.51710000  0.52850000  1.0 0.0069824515
C  C56  1  0.48290000  0.96580000  0.52850000  1.0 0.0069824515
C  C57  1  0.48290000  0.51710000  0.52850000  1.0 0.0069824515
C  C58  1  0.51710000  0.48290000  0.02850000  1.0 0.0069824515
C  C59  1  0.96580000  0.48290000  0.02850000  1.0 0.0069824515
C  C60  1  0.51710000  0.03420000  0.02850000  1.0 0.0069824515
C  C61  1  0.57660000  0.42340000  0.35120000  1.0 0.2710988232
C  C62  1  0.15320000  0.57660000  0.85120000  1.0 0.2710988232
C  C63  1  0.57660000  0.15320000  0.35120000  1.0 0.2710988232
C  C64  1  0.42340000  0.57660000  0.85120000  1.0 0.2710988232
C  C65  1  0.84680000  0.42340000  0.35120000  1.0 0.2710988232
C  C66  1  0.42340000  0.84680000  0.85120000  1.0 0.2710988232
C  C67  1  0.15320000  0.57660000  0.64880000  1.0 0.2710988232
C  C68  1  0.42340000  0.84680000  0.64880000  1.0 0.2710988232
C  C69  1  0.42340000  0.57660000  0.64880000  1.0 0.2710988232
C  C70  1  0.57660000  0.42340000  0.14880000  1.0 0.2710988232
C  C71  1  0.84680000  0.42340000  0.14880000  1.0 0.2710988232
C  C72  1  0.57660000  0.15320000  0.14880000  1.0 0.2710988232
N  N1  1  0.63100000  0.44780000  0.32620000  1.0 -0.0625750774
N  N2  1  0.18320000  0.63100000  0.82620000  1.0 -0.0625750774
N  N3  1  0.55220000  0.18320000  0.32620000  1.0 -0.0625750774
N  N4  1  0.36900000  0.55220000  0.82620000  1.0 -0.0625750774
N  N5  1  0.81680000  0.36900000  0.32620000  1.0 -0.0625750774
N  N6  1  0.44780000  0.81680000  0.82620000  1.0 -0.0625750774
N  N7  1  0.18320000  0.55220000  0.67380000  1.0 -0.0625750774
N  N8  1  0.36900000  0.81680000  0.67380000  1.0 -0.0625750774
N  N9  1  0.44780000  0.63100000  0.67380000  1.0 -0.0625750774
N  N10  1  0.55220000  0.36900000  0.17380000  1.0 -0.0625750774
N  N11  1  0.81680000  0.44780000  0.17380000  1.0 -0.0625750774
N  N12  1  0.63100000  0.18320000  0.17380000  1.0 -0.0625750774
N  N13  1  0.36900000  0.55220000  0.67380000  1.0 -0.0625750774
N  N14  1  0.81680000  0.36900000  0.17380000  1.0 -0.0625750774
N  N15  1  0.44780000  0.81680000  0.67380000  1.0 -0.0625750774
N  N16  1  0.63100000  0.44780000  0.17380000  1.0 -0.0625750774
N  N17  1  0.18320000  0.63100000  0.67380000  1.0 -0.0625750774
N  N18  1  0.55220000  0.18320000  0.17380000  1.0 -0.0625750774
N  N19  1  0.81680000  0.44780000  0.32620000  1.0 -0.0625750774
N  N20  1  0.63100000  0.18320000  0.32620000  1.0 -0.0625750774
N  N21  1  0.55220000  0.36900000  0.32620000  1.0 -0.0625750774
N  N22  1  0.44780000  0.63100000  0.82620000  1.0 -0.0625750774
N  N23  1  0.18320000  0.55220000  0.82620000  1.0 -0.0625750774
N  N24  1  0.36900000  0.81680000  0.82620000  1.0 -0.0625750774
N  N25  1  0.63050000  0.50280000  0.37860000  1.0 -0.1077653335
N  N26  1  0.12770000  0.63050000  0.87860000  1.0 -0.1077653335
N  N27  1  0.49720000  0.12770000  0.37860000  1.0 -0.1077653335
N  N28  1  0.36950000  0.49720000  0.87860000  1.0 -0.1077653335
N  N29  1  0.87230000  0.36950000  0.37860000  1.0 -0.1077653335
N  N30  1  0.50280000  0.87230000  0.87860000  1.0 -0.1077653335
N  N31  1  0.12770000  0.49720000  0.62140000  1.0 -0.1077653335
N  N32  1  0.36950000  0.87230000  0.62140000  1.0 -0.1077653335
N  N33  1  0.50280000  0.63050000  0.62140000  1.0 -0.1077653335
N  N34  1  0.49720000  0.36950000  0.12140000  1.0 -0.1077653335
N  N35  1  0.87230000  0.50280000  0.12140000  1.0 -0.1077653335
N  N36  1  0.63050000  0.12770000  0.12140000  1.0 -0.1077653335
N  N37  1  0.36950000  0.49720000  0.62140000  1.0 -0.1077653335
N  N38  1  0.87230000  0.36950000  0.12140000  1.0 -0.1077653335
N  N39  1  0.50280000  0.87230000  0.62140000  1.0 -0.1077653335
N  N40  1  0.63050000  0.50280000  0.12140000  1.0 -0.1077653335
N  N41  1  0.12770000  0.63050000  0.62140000  1.0 -0.1077653335
N  N42  1  0.49720000  0.12770000  0.12140000  1.0 -0.1077653335
N  N43  1  0.87230000  0.50280000  0.37860000  1.0 -0.1077653335
N  N44  1  0.63050000  0.12770000  0.37860000  1.0 -0.1077653335
N  N45  1  0.49720000  0.36950000  0.37860000  1.0 -0.1077653335
N  N46  1  0.50280000  0.63050000  0.87860000  1.0 -0.1077653335
N  N47  1  0.12770000  0.49720000  0.87860000  1.0 -0.1077653335
N  N48  1  0.36950000  0.87230000  0.87860000  1.0 -0.1077653335
O  O1  1  0.66666667  0.33333333  0.25000000  1.0 -0.4699970128
O  O2  1  0.33333333  0.66666667  0.75000000  1.0 -0.4699970128
O  O3  1  0.65510000  0.47920000  0.32930000  1.0 -0.0742309321
O  O4  1  0.17590000  0.65510000  0.82930000  1.0 -0.0742309321
O  O5  1  0.52080000  0.17590000  0.32930000  1.0 -0.0742309321
O  O6  1  0.34490000  0.52080000  0.82930000  1.0 -0.0742309321
O  O7  1  0.82410000  0.34490000  0.32930000  1.0 -0.0742309321
O  O8  1  0.47920000  0.82410000  0.82930000  1.0 -0.0742309321
O  O9  1  0.17590000  0.52080000  0.67070000  1.0 -0.0742309321
O  O10  1  0.34490000  0.82410000  0.67070000  1.0 -0.0742309321
O  O11  1  0.47920000  0.65510000  0.67070000  1.0 -0.0742309321
O  O12  1  0.52080000  0.34490000  0.17070000  1.0 -0.0742309321
O  O13  1  0.82410000  0.47920000  0.17070000  1.0 -0.0742309321
O  O14  1  0.65510000  0.17590000  0.17070000  1.0 -0.0742309321
O  O15  1  0.34490000  0.52080000  0.67070000  1.0 -0.0742309321
O  O16  1  0.82410000  0.34490000  0.17070000  1.0 -0.0742309321
O  O17  1  0.47920000  0.82410000  0.67070000  1.0 -0.0742309321
O  O18  1  0.65510000  0.47920000  0.17070000  1.0 -0.0742309321
O  O19  1  0.17590000  0.65510000  0.67070000  1.0 -0.0742309321
O  O20  1  0.52080000  0.17590000  0.17070000  1.0 -0.0742309321
O  O21  1  0.82410000  0.47920000  0.32930000  1.0 -0.0742309321
O  O22  1  0.65510000  0.17590000  0.32930000  1.0 -0.0742309321
O  O23  1  0.52080000  0.34490000  0.32930000  1.0 -0.0742309321
O  O24  1  0.47920000  0.65510000  0.82930000  1.0 -0.0742309321
O  O25  1  0.17590000  0.52080000  0.82930000  1.0 -0.0742309321
O  O26  1  0.34490000  0.82410000  0.82930000  1.0 -0.0742309321
