# DDEC6 charges by PACMAN v1.1 (https://github.com/mtap-research/PACMAN-charge/)
data_OJUPEQ_ASR_pacman
_symmetry_space_group_name_H-M   'P 1'
_cell_length_a   18.84460000
_cell_length_b   18.84460000
_cell_length_c   31.47950000
_cell_angle_alpha   73.56530000
_cell_angle_beta   106.43500000
_cell_angle_gamma   118.62200000
_symmetry_Int_Tables_number   1
_chemical_formula_structural   Zn4H71C79N5O34
_chemical_formula_sum   'Zn16 H284 C316 N20 O136'
_cell_volume   9266.59797312
_cell_formula_units_Z   4
loop_
 _symmetry_equiv_pos_site_id
 _symmetry_equiv_pos_as_xyz
  1  'x, y, z'
loop_
 _atom_site_type_symbol
 _atom_site_label
 _atom_site_symmetry_multiplicity
 _atom_site_fract_x
 _atom_site_fract_y
 _atom_site_fract_z
 _atom_site_occupancy
 _atom_site_charge
Zn  Zn1  1  0.31479000  0.28015000  0.41272000  1.0 0.8885263081
Zn  Zn2  1  0.28015000  0.31479000  0.08728000  1.0 0.8885263081
Zn  Zn3  1  0.68521000  0.71985000  0.58728000  1.0 0.8885263081
Zn  Zn4  1  0.71985000  0.68521000  0.91272000  1.0 0.8885263081
Zn  Zn5  1  0.02790000  0.19046000  0.34180000  1.0 0.8436850186
Zn  Zn6  1  0.19046000  0.02790000  0.15820000  1.0 0.8436850186
Zn  Zn7  1  0.97210000  0.80954000  0.65820000  1.0 0.8450229641
Zn  Zn8  1  0.80954000  0.97210000  0.84180000  1.0 0.8450229641
Zn  Zn9  1  0.24640000  0.38778000  0.44580000  1.0 0.790888178
Zn  Zn10  1  0.38778000  0.24640000  0.05420000  1.0 0.790888178
Zn  Zn11  1  0.75360000  0.61222000  0.55420000  1.0 0.790888178
Zn  Zn12  1  0.61222000  0.75360000  0.94580000  1.0 0.790888178
Zn  Zn13  1  0.29581000  0.43205000  0.33527000  1.0 0.8224482413
Zn  Zn14  1  0.43205000  0.29581000  0.16473000  1.0 0.8224482413
Zn  Zn15  1  0.70419000  0.56795000  0.66473000  1.0 0.8224482413
Zn  Zn16  1  0.56795000  0.70419000  0.83527000  1.0 0.8224482413
H  H1  1  0.07340000  0.02380000  0.40170000  1.0 0.1319588514
H  H2  1  0.02380000  0.07340000  0.09830000  1.0 0.1319588514
H  H3  1  0.92660000  0.97620000  0.59830000  1.0 0.1319588514
H  H4  1  0.97620000  0.92660000  0.90170000  1.0 0.1319588514
H  H5  1  0.06310000  0.06030000  0.43850000  1.0 0.1497201896
H  H6  1  0.06030000  0.06310000  0.06150000  1.0 0.1497201896
H  H7  1  0.93690000  0.93970000  0.56150000  1.0 0.1497201896
H  H8  1  0.93970000  0.93690000  0.93850000  1.0 0.1497201896
H  H9  1  0.96620000  0.75840000  0.52160000  1.0 0.1381130001
H  H10  1  0.75840000  0.96620000  0.97840000  1.0 0.1381130001
H  H11  1  0.03380000  0.24160000  0.47840000  1.0 0.1381130001
H  H12  1  0.24160000  0.03380000  0.02160000  1.0 0.1381130001
H  H13  1  0.03950000  0.74110000  0.55580000  1.0 0.1381130001
H  H14  1  0.74110000  0.03950000  0.94420000  1.0 0.1319588514
H  H15  1  0.96050000  0.25890000  0.44420000  1.0 0.1381130001
H  H16  1  0.25890000  0.96050000  0.05580000  1.0 0.1319588514
H  H17  1  0.45380000  0.37000000  0.55520000  1.0 0.1319588514
H  H18  1  0.37000000  0.45380000  0.94480000  1.0 0.1319588514
H  H19  1  0.54620000  0.63000000  0.44480000  1.0 0.1319588514
H  H20  1  0.63000000  0.54620000  0.05520000  1.0 0.1319588514
H  H21  1  0.51000000  0.44840000  0.52360000  1.0 0.122079145
H  H22  1  0.44840000  0.51000000  0.97640000  1.0 0.122079145
H  H23  1  0.49000000  0.55160000  0.47640000  1.0 0.122079145
H  H24  1  0.55160000  0.49000000  0.02360000  1.0 0.122079145
H  H25  1  0.75310000  0.36250000  0.66570000  1.0 0.0615487362
H  H26  1  0.36250000  0.75310000  0.83430000  1.0 0.0615487362
H  H27  1  0.24690000  0.63750000  0.33430000  1.0 0.0615487362
H  H28  1  0.63750000  0.24690000  0.16570000  1.0 0.0615487362
H  H29  1  0.78650000  0.39050000  0.61920000  1.0 0.0799001426
H  H30  1  0.39050000  0.78650000  0.88080000  1.0 0.0799001426
H  H31  1  0.21350000  0.60950000  0.38080000  1.0 0.0799001426
H  H32  1  0.60950000  0.21350000  0.11920000  1.0 0.0799001426
H  H33  1  0.47990000  0.36490000  0.30400000  1.0 0.122079145
H  H34  1  0.36490000  0.47990000  0.19600000  1.0 0.122079145
H  H35  1  0.52010000  0.63510000  0.69600000  1.0 0.122079145
H  H36  1  0.63510000  0.52010000  0.80400000  1.0 0.122079145
H  H37  1  0.39670000  0.32510000  0.26960000  1.0 0.122079145
H  H38  1  0.32510000  0.39670000  0.23040000  1.0 0.122079145
H  H39  1  0.60330000  0.67490000  0.73040000  1.0 0.122079145
H  H40  1  0.67490000  0.60330000  0.76960000  1.0 0.122079145
H  H41  1  0.39700000  0.03540000  0.24230000  1.0 0.1381130001
H  H42  1  0.03540000  0.39700000  0.25770000  1.0 0.1381130001
H  H43  1  0.60300000  0.96460000  0.75770000  1.0 0.1381130001
H  H44  1  0.96460000  0.60300000  0.74230000  1.0 0.1381130001
H  H45  1  0.30430000  0.01070000  0.24550000  1.0 0.1009153601
H  H46  1  0.01070000  0.30430000  0.25450000  1.0 0.1009153601
H  H47  1  0.69570000  0.98930000  0.75450000  1.0 0.1009153601
H  H48  1  0.98930000  0.69570000  0.74550000  1.0 0.1009153601
H  H49  1  0.22840000  0.51720000  0.47710000  1.0 0.122079145
H  H50  1  0.51720000  0.22840000  0.02290000  1.0 0.122079145
H  H51  1  0.77160000  0.48280000  0.52290000  1.0 0.122079145
H  H52  1  0.48280000  0.77160000  0.97710000  1.0 0.122079145
H  H53  1  0.19540000  0.38320000  0.57780000  1.0 0.122079145
H  H54  1  0.38320000  0.19540000  0.92220000  1.0 0.122079145
H  H55  1  0.80460000  0.61680000  0.42220000  1.0 0.122079145
H  H56  1  0.61680000  0.80460000  0.07780000  1.0 0.122079145
H  H57  1  0.17090000  0.43590000  0.59790000  1.0 0.0911458037
H  H58  1  0.43590000  0.17090000  0.90210000  1.0 0.0911458037
H  H59  1  0.82910000  0.56410000  0.40210000  1.0 0.0911458037
H  H60  1  0.56410000  0.82910000  0.09790000  1.0 0.0911458037
H  H61  1  0.06010000  0.30970000  0.59060000  1.0 0.1381130001
H  H62  1  0.30970000  0.06010000  0.90940000  1.0 0.1381130001
H  H63  1  0.93990000  0.69030000  0.40940000  1.0 0.1381130001
H  H64  1  0.69030000  0.93990000  0.09060000  1.0 0.1381130001
H  H65  1  0.03730000  0.37970000  0.55640000  1.0 0.1319588514
H  H66  1  0.37970000  0.03730000  0.94360000  1.0 0.1319588514
H  H67  1  0.96270000  0.62030000  0.44360000  1.0 0.1319588514
H  H68  1  0.62030000  0.96270000  0.05640000  1.0 0.1319588514
H  H69  1  0.06220000  0.32500000  0.53820000  1.0 0.1319588514
H  H70  1  0.32500000  0.06220000  0.96180000  1.0 0.1319588514
H  H71  1  0.93780000  0.67500000  0.46180000  1.0 0.1319588514
H  H72  1  0.67500000  0.93780000  0.03820000  1.0 0.1319588514
H  H73  1  0.09350000  0.51930000  0.52150000  1.0 0.0911458037
H  H74  1  0.51930000  0.09350000  0.97850000  1.0 0.0911458037
H  H75  1  0.90650000  0.48070000  0.47850000  1.0 0.0911458037
H  H76  1  0.48070000  0.90650000  0.02150000  1.0 0.0911458037
H  H77  1  0.16510000  0.58050000  0.49270000  1.0 0.122079145
H  H78  1  0.58050000  0.16510000  0.00730000  1.0 0.122079145
H  H79  1  0.83490000  0.41950000  0.50730000  1.0 0.122079145
H  H80  1  0.41950000  0.83490000  0.99270000  1.0 0.122079145
H  H81  1  0.18050000  0.64110000  0.55260000  1.0 0.1381130001
H  H82  1  0.64110000  0.18050000  0.94740000  1.0 0.1381130001
H  H83  1  0.81950000  0.35890000  0.44740000  1.0 0.1381130001
H  H84  1  0.35890000  0.81950000  0.05260000  1.0 0.1381130001
H  H85  1  0.18310000  0.56210000  0.58800000  1.0 0.1319588514
H  H86  1  0.56210000  0.18310000  0.91200000  1.0 0.1319588514
H  H87  1  0.81690000  0.43790000  0.41200000  1.0 0.1319588514
H  H88  1  0.43790000  0.81690000  0.08800000  1.0 0.1319588514
H  H89  1  0.25680000  0.62040000  0.56060000  1.0 0.1319588514
H  H90  1  0.62040000  0.25680000  0.93940000  1.0 0.1319588514
H  H91  1  0.74320000  0.37960000  0.43940000  1.0 0.1319588514
H  H92  1  0.37960000  0.74320000  0.06060000  1.0 0.1319588514
H  H93  1  0.47510000  0.55710000  0.33390000  1.0 0.1381130001
H  H94  1  0.55710000  0.47510000  0.16610000  1.0 0.1381130001
H  H95  1  0.52490000  0.44290000  0.66610000  1.0 0.1381130001
H  H96  1  0.44290000  0.52490000  0.83390000  1.0 0.1381130001
H  H97  1  0.52380000  0.46380000  0.44260000  1.0 0.0911458037
H  H98  1  0.46380000  0.52380000  0.05740000  1.0 0.0911458037
H  H99  1  0.47620000  0.53620000  0.55740000  1.0 0.0911458037
H  H100  1  0.53620000  0.47620000  0.94260000  1.0 0.0911458037
H  H101  1  0.62040000  0.52100000  0.44660000  1.0 0.1086866761
H  H102  1  0.52100000  0.62040000  0.05340000  1.0 0.1086866761
H  H103  1  0.37960000  0.47900000  0.55340000  1.0 0.1086866761
H  H104  1  0.47900000  0.37960000  0.94660000  1.0 0.1086866761
H  H105  1  0.56220000  0.37240000  0.44310000  1.0 0.0911458037
H  H106  1  0.37240000  0.56220000  0.05690000  1.0 0.0911458037
H  H107  1  0.43780000  0.62760000  0.55690000  1.0 0.0911458037
H  H108  1  0.62760000  0.43780000  0.94310000  1.0 0.0911458037
H  H109  1  0.64170000  0.43810000  0.42160000  1.0 0.1009153601
H  H110  1  0.43810000  0.64170000  0.07840000  1.0 0.1009153601
H  H111  1  0.35830000  0.56190000  0.57840000  1.0 0.1009153601
H  H112  1  0.56190000  0.35830000  0.92160000  1.0 0.1009153601
H  H113  1  0.55320000  0.40660000  0.39020000  1.0 0.0799001426
H  H114  1  0.40660000  0.55320000  0.10980000  1.0 0.0799001426
H  H115  1  0.44680000  0.59340000  0.60980000  1.0 0.0799001426
H  H116  1  0.59340000  0.44680000  0.89020000  1.0 0.0799001426
H  H117  1  0.60800000  0.62540000  0.33380000  1.0 0.0911458037
H  H118  1  0.62540000  0.60800000  0.16620000  1.0 0.0911458037
H  H119  1  0.39200000  0.37460000  0.66620000  1.0 0.0911458037
H  H120  1  0.37460000  0.39200000  0.83380000  1.0 0.0911458037
H  H121  1  0.66580000  0.58400000  0.36580000  1.0 0.0281757451
H  H122  1  0.58400000  0.66580000  0.13420000  1.0 0.0281757451
H  H123  1  0.33420000  0.41600000  0.63420000  1.0 0.0281757451
H  H124  1  0.41600000  0.33420000  0.86580000  1.0 0.0281757451
H  H125  1  0.71180000  0.72500000  0.37290000  1.0 0.069608162
H  H126  1  0.72500000  0.71180000  0.12710000  1.0 0.069608162
H  H127  1  0.28820000  0.27500000  0.62710000  1.0 0.069608162
H  H128  1  0.27500000  0.28820000  0.87290000  1.0 0.069608162
H  H129  1  0.70250000  0.66270000  0.41980000  1.0 0.1086866761
H  H130  1  0.66270000  0.70250000  0.08020000  1.0 0.1086866761
H  H131  1  0.29750000  0.33730000  0.58020000  1.0 0.1086866761
H  H132  1  0.33730000  0.29750000  0.91980000  1.0 0.1086866761
H  H133  1  0.63320000  0.69400000  0.39520000  1.0 0.1319588514
H  H134  1  0.69400000  0.63320000  0.10480000  1.0 0.1319588514
H  H135  1  0.36680000  0.30600000  0.60480000  1.0 0.1319588514
H  H136  1  0.30600000  0.36680000  0.89520000  1.0 0.1319588514
H  H137  1  0.72150000  0.36290000  0.66770000  1.0 0.0799001426
H  H138  1  0.36290000  0.72150000  0.83230000  1.0 0.0799001426
H  H139  1  0.27850000  0.63710000  0.33230000  1.0 0.0799001426
H  H140  1  0.63710000  0.27850000  0.16770000  1.0 0.0799001426
H  H141  1  0.77360000  0.35820000  0.63720000  1.0 0.069608162
H  H142  1  0.35820000  0.77360000  0.86280000  1.0 0.069608162
H  H143  1  0.22640000  0.64180000  0.36280000  1.0 0.069608162
H  H144  1  0.64180000  0.22640000  0.13720000  1.0 0.069608162
H  H145  1  0.84790000  0.55450000  0.62710000  1.0 0.3002264526
H  H146  1  0.55450000  0.84790000  0.87290000  1.0 0.3002264526
H  H147  1  0.15210000  0.44550000  0.37290000  1.0 0.3002264526
H  H148  1  0.44550000  0.15210000  0.12710000  1.0 0.3002264526
H  H149  1  0.97990000  0.06370000  0.28250000  1.0 0.069608162
H  H150  1  0.06370000  0.97990000  0.21750000  1.0 0.069608162
H  H151  1  0.02010000  0.93630000  0.71750000  1.0 0.069608162
H  H152  1  0.93630000  0.02010000  0.78250000  1.0 0.069608162
H  H153  1  0.03040000  0.23880000  0.20100000  1.0 0.122079145
H  H154  1  0.23880000  0.03040000  0.29900000  1.0 0.122079145
H  H155  1  0.96960000  0.76120000  0.79900000  1.0 0.122079145
H  H156  1  0.76120000  0.96960000  0.70100000  1.0 0.122079145
H  H157  1  0.00150000  0.19190000  0.15940000  1.0 0.1009153601
H  H158  1  0.19190000  0.00150000  0.34060000  1.0 0.1009153601
H  H159  1  0.99850000  0.80810000  0.84060000  1.0 0.1009153601
H  H160  1  0.80810000  0.99850000  0.65940000  1.0 0.1009153601
H  H161  1  0.14480000  0.27780000  0.17540000  1.0 0.1086866761
H  H162  1  0.27780000  0.14480000  0.32460000  1.0 0.1086866761
H  H163  1  0.85520000  0.72220000  0.82460000  1.0 0.1086866761
H  H164  1  0.72220000  0.85520000  0.67540000  1.0 0.1086866761
H  H165  1  0.14770000  0.21170000  0.22000000  1.0 0.0799001426
H  H166  1  0.21170000  0.14770000  0.28000000  1.0 0.0799001426
H  H167  1  0.85230000  0.78830000  0.78000000  1.0 0.0799001426
H  H168  1  0.78830000  0.85230000  0.72000000  1.0 0.0799001426
H  H169  1  0.12110000  0.18590000  0.17160000  1.0 0.1009153601
H  H170  1  0.18590000  0.12110000  0.32840000  1.0 0.1009153601
H  H171  1  0.87890000  0.81410000  0.82840000  1.0 0.1009153601
H  H172  1  0.81410000  0.87890000  0.67160000  1.0 0.1009153601
H  H173  1  0.01830000  0.04530000  0.18680000  1.0 0.069608162
H  H174  1  0.04530000  0.01830000  0.31320000  1.0 0.069608162
H  H175  1  0.98170000  0.95470000  0.81320000  1.0 0.069608162
H  H176  1  0.95470000  0.98170000  0.68680000  1.0 0.069608162
H  H177  1  0.98850000  0.99450000  0.23380000  1.0 0.069608162
H  H178  1  0.99450000  0.98850000  0.26620000  1.0 0.069608162
H  H179  1  0.01150000  0.00550000  0.76620000  1.0 0.069608162
H  H180  1  0.00550000  0.01150000  0.73380000  1.0 0.069608162
H  H181  1  0.87790000  0.95090000  0.17380000  1.0 0.1497201896
H  H182  1  0.95090000  0.87790000  0.32620000  1.0 0.1497201896
H  H183  1  0.12210000  0.04910000  0.82620000  1.0 0.1497201896
H  H184  1  0.04910000  0.12210000  0.67380000  1.0 0.1497201896
H  H185  1  0.85700000  0.99240000  0.20340000  1.0 0.0911458037
H  H186  1  0.99240000  0.85700000  0.29660000  1.0 0.0911458037
H  H187  1  0.14300000  0.00760000  0.79660000  1.0 0.0911458037
H  H188  1  0.00760000  0.14300000  0.70340000  1.0 0.0911458037
H  H189  1  0.88670000  0.04270000  0.15650000  1.0 0.0911458037
H  H190  1  0.04270000  0.88670000  0.34350000  1.0 0.0911458037
H  H191  1  0.11330000  0.95730000  0.84350000  1.0 0.0911458037
H  H192  1  0.95730000  0.11330000  0.65650000  1.0 0.0911458037
H  H193  1  0.92240000  0.11580000  0.26420000  1.0 0.0799001426
H  H194  1  0.11580000  0.92240000  0.23580000  1.0 0.0799001426
H  H195  1  0.07760000  0.88420000  0.73580000  1.0 0.0799001426
H  H196  1  0.88420000  0.07760000  0.76420000  1.0 0.0799001426
H  H197  1  0.07020000  0.20540000  0.17720000  1.0 0.0799001426
H  H198  1  0.20540000  0.07020000  0.32280000  1.0 0.0799001426
H  H199  1  0.92980000  0.79460000  0.82280000  1.0 0.0799001426
H  H200  1  0.79460000  0.92980000  0.67720000  1.0 0.0799001426
H  H201  1  0.04240000  0.10900000  0.19170000  1.0 0.0799001426
H  H202  1  0.10900000  0.04240000  0.30830000  1.0 0.0799001426
H  H203  1  0.95760000  0.89100000  0.80830000  1.0 0.0799001426
H  H204  1  0.89100000  0.95760000  0.69170000  1.0 0.0799001426
H  H205  1  0.10520000  0.15600000  0.26810000  1.0 0.1086866761
H  H206  1  0.15600000  0.10520000  0.23190000  1.0 0.1086866761
H  H207  1  0.89480000  0.84400000  0.73190000  1.0 0.1086866761
H  H208  1  0.84400000  0.89480000  0.76810000  1.0 0.1086866761
H  H209  1  0.15320000  0.14200000  0.23900000  1.0 0.0510213982
H  H210  1  0.14200000  0.15320000  0.26100000  1.0 0.0510213982
H  H211  1  0.84680000  0.85800000  0.76100000  1.0 0.0510213982
H  H212  1  0.85800000  0.84680000  0.73900000  1.0 0.0510213982
H  H213  1  0.16200000  0.23200000  0.23570000  1.0 0.1009153601
H  H214  1  0.23200000  0.16200000  0.26430000  1.0 0.1009153601
H  H215  1  0.83800000  0.76800000  0.76430000  1.0 0.1009153601
H  H216  1  0.76800000  0.83800000  0.73570000  1.0 0.1009153601
H  H217  1  0.86140000  0.04520000  0.20110000  1.0 0.0615487362
H  H218  1  0.04520000  0.86140000  0.29890000  1.0 0.0615487362
H  H219  1  0.13860000  0.95480000  0.79890000  1.0 0.0615487362
H  H220  1  0.95480000  0.13860000  0.70110000  1.0 0.0615487362
H  H221  1  0.90090000  0.09010000  0.15630000  1.0 0.0911458037
H  H222  1  0.09010000  0.90090000  0.34370000  1.0 0.0911458037
H  H223  1  0.09910000  0.90990000  0.84370000  1.0 0.0911458037
H  H224  1  0.90990000  0.09910000  0.65630000  1.0 0.0911458037
H  H225  1  0.78830000  0.11950000  0.15270000  1.0 0.1599689152
H  H226  1  0.11950000  0.78830000  0.34730000  1.0 0.1599689152
H  H227  1  0.21170000  0.88050000  0.84730000  1.0 0.1599689152
H  H228  1  0.88050000  0.21170000  0.65270000  1.0 0.1599689152
H  H229  1  0.83610000  0.16090000  0.19660000  1.0 0.1381130001
H  H230  1  0.16090000  0.83610000  0.30340000  1.0 0.1381130001
H  H231  1  0.16390000  0.83910000  0.80340000  1.0 0.1381130001
H  H232  1  0.83910000  0.16390000  0.69660000  1.0 0.1381130001
H  H233  1  0.87180000  0.20220000  0.15060000  1.0 0.1497201896
H  H234  1  0.20220000  0.87180000  0.34940000  1.0 0.1497201896
H  H235  1  0.12820000  0.79780000  0.84940000  1.0 0.1497201896
H  H236  1  0.79780000  0.12820000  0.65060000  1.0 0.1497201896
H  H237  1  0.32370000  0.52110000  0.49470000  1.0 0.122079145
H  H238  1  0.52110000  0.32370000  0.00530000  1.0 0.122079145
H  H239  1  0.67630000  0.47890000  0.50530000  1.0 0.122079145
H  H240  1  0.47890000  0.67630000  0.99470000  1.0 0.122079145
H  H241  1  0.21080000  0.38900000  0.58230000  1.0 0.1319588514
H  H242  1  0.38900000  0.21080000  0.91770000  1.0 0.1319588514
H  H243  1  0.78920000  0.61100000  0.41770000  1.0 0.1319588514
H  H244  1  0.61100000  0.78920000  0.08230000  1.0 0.1319588514
H  H245  1  0.27870000  0.43970000  0.61960000  1.0 0.0615487362
H  H246  1  0.43970000  0.27870000  0.88040000  1.0 0.0615487362
H  H247  1  0.72130000  0.56030000  0.38040000  1.0 0.0615487362
H  H248  1  0.56030000  0.72130000  0.11960000  1.0 0.0615487362
H  H249  1  0.29520000  0.32800000  0.63470000  1.0 0.0192971297
H  H250  1  0.32800000  0.29520000  0.86530000  1.0 0.0192971297
H  H251  1  0.70480000  0.67200000  0.36530000  1.0 0.0192971297
H  H252  1  0.67200000  0.70480000  0.13470000  1.0 0.0192971297
H  H253  1  0.28040000  0.32280000  0.58280000  1.0 0.1086866761
H  H254  1  0.32280000  0.28040000  0.91720000  1.0 0.1086866761
H  H255  1  0.71960000  0.67720000  0.41720000  1.0 0.1086866761
H  H256  1  0.67720000  0.71960000  0.08280000  1.0 0.1086866761
H  H257  1  0.36500000  0.38940000  0.60520000  1.0 0.069608162
H  H258  1  0.38940000  0.36500000  0.89480000  1.0 0.069608162
H  H259  1  0.63500000  0.61060000  0.39480000  1.0 0.069608162
H  H260  1  0.61060000  0.63500000  0.10520000  1.0 0.069608162
H  H261  1  0.34590000  0.58990000  0.58830000  1.0 0.0911458037
H  H262  1  0.58990000  0.34590000  0.91170000  1.0 0.0911458037
H  H263  1  0.65410000  0.41010000  0.41170000  1.0 0.0911458037
H  H264  1  0.41010000  0.65410000  0.08830000  1.0 0.0911458037
H  H265  1  0.37970000  0.61470000  0.54230000  1.0 0.0799001426
H  H266  1  0.61470000  0.37970000  0.95770000  1.0 0.0799001426
H  H267  1  0.62030000  0.38530000  0.45770000  1.0 0.0799001426
H  H268  1  0.38530000  0.62030000  0.04230000  1.0 0.0799001426
H  H269  1  0.48490000  0.61610000  0.60590000  1.0 0.0911458037
H  H270  1  0.61610000  0.48490000  0.89410000  1.0 0.0911458037
H  H271  1  0.51510000  0.38390000  0.39410000  1.0 0.0911458037
H  H272  1  0.38390000  0.51510000  0.10590000  1.0 0.0911458037
H  H273  1  0.43140000  0.52040000  0.62220000  1.0 0.1086866761
H  H274  1  0.52040000  0.43140000  0.87780000  1.0 0.1086866761
H  H275  1  0.56860000  0.47960000  0.37780000  1.0 0.1086866761
H  H276  1  0.47960000  0.56860000  0.12220000  1.0 0.1086866761
H  H277  1  0.46750000  0.55070000  0.57670000  1.0 0.0911458037
H  H278  1  0.55070000  0.46750000  0.92330000  1.0 0.0911458037
H  H279  1  0.53250000  0.44930000  0.42330000  1.0 0.0911458037
H  H280  1  0.44930000  0.53250000  0.07670000  1.0 0.0911458037
H  H281  1  0.42660000  0.51000000  0.38520000  1.0 0.1986503478
H  H282  1  0.51000000  0.42660000  0.11480000  1.0 0.1986503478
H  H283  1  0.57340000  0.49000000  0.61480000  1.0 0.1986503478
H  H284  1  0.49000000  0.57340000  0.88520000  1.0 0.1986503478
C  C1  1  0.35211000  0.06715000  0.43191000  1.0 -0.020488357
C  C2  1  0.06715000  0.35211000  0.06809000  1.0 -0.020488357
C  C3  1  0.64789000  0.93285000  0.56809000  1.0 -0.020488357
C  C4  1  0.93285000  0.64789000  0.93191000  1.0 -0.020488357
C  C5  1  0.42449000  0.13005000  0.41555000  1.0 -0.0402115455
C  C6  1  0.13005000  0.42449000  0.08445000  1.0 -0.0402115455
C  C7  1  0.57551000  0.86995000  0.58445000  1.0 -0.0402115455
C  C8  1  0.86995000  0.57551000  0.91555000  1.0 -0.0402115455
C  C9  1  0.48526000  0.18376000  0.44356000  1.0 -0.020488357
C  C10  1  0.18376000  0.48526000  0.05644000  1.0 -0.020488357
C  C11  1  0.51474000  0.81624000  0.55644000  1.0 -0.020488357
C  C12  1  0.81624000  0.51474000  0.94356000  1.0 -0.020488357
C  C13  1  0.47308000  0.17892000  0.48713000  1.0 -0.0402115455
C  C14  1  0.17892000  0.47308000  0.01287000  1.0 -0.0402115455
C  C15  1  0.52692000  0.82108000  0.51287000  1.0 -0.0402115455
C  C16  1  0.82108000  0.52692000  0.98713000  1.0 -0.0402115455
C  C17  1  0.59775000  0.88283000  0.49719000  1.0 0.0281757451
C  C18  1  0.88283000  0.59775000  0.00281000  1.0 0.0281757451
C  C19  1  0.40225000  0.11717000  0.50281000  1.0 0.0281757451
C  C20  1  0.11717000  0.40225000  0.99719000  1.0 0.0281757451
C  C21  1  0.34020000  0.06218000  0.47443000  1.0 -0.020488357
C  C22  1  0.06218000  0.34020000  0.02557000  1.0 -0.020488357
C  C23  1  0.65980000  0.93782000  0.52557000  1.0 -0.020488357
C  C24  1  0.93782000  0.65980000  0.97443000  1.0 -0.020488357
C  C25  1  0.70404000  0.01740000  0.49702000  1.0 0.0510213982
C  C26  1  0.01740000  0.70404000  0.00298000  1.0 0.0510213982
C  C27  1  0.29596000  0.98260000  0.50298000  1.0 0.0510213982
C  C28  1  0.98260000  0.29596000  0.99702000  1.0 0.0510213982
C  C29  1  0.27076000  0.90246000  0.48392000  1.0 0.0615487362
C  C30  1  0.90246000  0.27076000  0.01608000  1.0 0.0615487362
C  C31  1  0.72924000  0.09754000  0.51608000  1.0 0.0615487362
C  C32  1  0.09754000  0.72924000  0.98392000  1.0 0.0615487362
C  C33  1  0.29532000  0.91534000  0.44052000  1.0 -0.020488357
C  C34  1  0.91534000  0.29532000  0.05948000  1.0 -0.020488357
C  C35  1  0.70468000  0.08466000  0.55948000  1.0 -0.020488357
C  C36  1  0.08466000  0.70468000  0.94052000  1.0 -0.020488357
C  C37  1  0.33008000  0.99284000  0.41484000  1.0 -0.0450451795
C  C38  1  0.99284000  0.33008000  0.08516000  1.0 -0.0402115455
C  C39  1  0.66992000  0.00716000  0.58516000  1.0 -0.0402115455
C  C40  1  0.00716000  0.66992000  0.91484000  1.0 -0.0450451795
C  C41  1  0.38831000  0.01105000  0.38840000  1.0 -0.0402115455
C  C42  1  0.01105000  0.38831000  0.11160000  1.0 -0.0402115455
C  C43  1  0.61169000  0.98895000  0.61160000  1.0 -0.0402115455
C  C44  1  0.98895000  0.61169000  0.88840000  1.0 -0.0402115455
C  C45  1  0.44373000  0.10019000  0.38366000  1.0 0.069608162
C  C46  1  0.10019000  0.44373000  0.11634000  1.0 0.069608162
C  C47  1  0.55627000  0.89981000  0.61634000  1.0 0.069608162
C  C48  1  0.89981000  0.55627000  0.88366000  1.0 0.069608162
C  C49  1  0.53954000  0.12714000  0.38594000  1.0 0.0510213982
C  C50  1  0.12714000  0.53954000  0.11406000  1.0 0.0510213982
C  C51  1  0.46046000  0.87286000  0.61406000  1.0 0.0510213982
C  C52  1  0.87286000  0.46046000  0.88594000  1.0 0.0510213982
C  C53  1  0.59752000  0.17670000  0.42082000  1.0 -0.0065040196
C  C54  1  0.17670000  0.59752000  0.07918000  1.0 -0.0065040196
C  C55  1  0.40248000  0.82330000  0.57918000  1.0 -0.0065040196
C  C56  1  0.82330000  0.40248000  0.92082000  1.0 -0.0065040196
C  C57  1  0.57264000  0.20704000  0.44615000  1.0 -0.0402115455
C  C58  1  0.20704000  0.57264000  0.05385000  1.0 -0.0402115455
C  C59  1  0.42736000  0.79296000  0.55385000  1.0 -0.0402115455
C  C60  1  0.79296000  0.42736000  0.94615000  1.0 -0.0402115455
C  C61  1  0.61309000  0.21615000  0.49129000  1.0 -0.020488357
C  C62  1  0.21615000  0.61309000  0.00871000  1.0 -0.020488357
C  C63  1  0.38691000  0.78385000  0.50871000  1.0 -0.020488357
C  C64  1  0.78385000  0.38691000  0.99129000  1.0 -0.020488357
C  C65  1  0.55443000  0.20893000  0.51683000  1.0 0.069608162
C  C66  1  0.20893000  0.55443000  0.98317000  1.0 0.069608162
C  C67  1  0.44557000  0.79107000  0.48317000  1.0 0.069608162
C  C68  1  0.79107000  0.44557000  0.01683000  1.0 0.069608162
C  C69  1  0.44298000  0.84046000  0.43220000  1.0 0.0510213982
C  C70  1  0.84046000  0.44298000  0.06780000  1.0 0.0510213982
C  C71  1  0.55702000  0.15954000  0.56780000  1.0 0.0510213982
C  C72  1  0.15954000  0.55702000  0.93220000  1.0 0.0510213982
C  C73  1  0.52077000  0.91091000  0.42104000  1.0 -0.0065040196
C  C74  1  0.91091000  0.52077000  0.07896000  1.0 -0.0065040196
C  C75  1  0.47923000  0.08909000  0.57896000  1.0 -0.0065040196
C  C76  1  0.08909000  0.47923000  0.92104000  1.0 -0.0047506813
C  C77  1  0.59440000  0.92888000  0.45074000  1.0 0.0017002823
C  C78  1  0.92888000  0.59440000  0.04926000  1.0 0.0017002823
C  C79  1  0.40560000  0.07112000  0.54926000  1.0 0.0017002823
C  C80  1  0.07112000  0.40560000  0.95074000  1.0 0.0017002823
C  C81  1  0.65441000  0.01099000  0.45118000  1.0 0.0017002823
C  C82  1  0.01099000  0.65441000  0.04882000  1.0 0.0017002823
C  C83  1  0.34559000  0.98901000  0.54882000  1.0 0.0017002823
C  C84  1  0.98901000  0.34559000  0.95118000  1.0 0.0017002823
C  C85  1  0.63680000  0.07478000  0.42389000  1.0 0.0097390874
C  C86  1  0.07478000  0.63680000  0.07611000  1.0 0.0097390874
C  C87  1  0.36320000  0.92522000  0.57611000  1.0 0.0097390874
C  C88  1  0.92522000  0.36320000  0.92389000  1.0 0.0097390874
C  C89  1  0.65998000  0.14884000  0.44109000  1.0 0.0017002823
C  C90  1  0.14884000  0.65998000  0.05891000  1.0 0.0017002823
C  C91  1  0.34002000  0.85116000  0.55891000  1.0 0.0017002823
C  C92  1  0.85116000  0.34002000  0.94109000  1.0 0.0017002823
C  C93  1  0.70004000  0.15796000  0.48505000  1.0 -0.020488357
C  C94  1  0.15796000  0.70004000  0.01495000  1.0 -0.020488357
C  C95  1  0.29996000  0.84204000  0.51495000  1.0 -0.020488357
C  C96  1  0.84204000  0.29996000  0.98505000  1.0 -0.020488357
C  C97  1  0.67413000  0.18975000  0.51074000  1.0 0.0281757451
C  C98  1  0.18975000  0.67413000  0.98926000  1.0 0.0281757451
C  C99  1  0.32587000  0.81025000  0.48926000  1.0 0.0281757451
C  C100  1  0.81025000  0.32587000  0.01074000  1.0 0.0281757451
C  C101  1  0.32279000  0.85573000  0.44269000  1.0 0.0097390874
C  C102  1  0.85573000  0.32279000  0.05731000  1.0 0.0097390874
C  C103  1  0.67721000  0.14427000  0.55731000  1.0 0.0097390874
C  C104  1  0.14427000  0.67721000  0.94269000  1.0 0.0097390874
C  C105  1  0.38018000  0.87284000  0.41664000  1.0 -0.0313051665
C  C106  1  0.87284000  0.38018000  0.08336000  1.0 -0.0313051665
C  C107  1  0.61982000  0.12716000  0.58336000  1.0 -0.0313051665
C  C108  1  0.12716000  0.61982000  0.91664000  1.0 -0.0313051665
C  C109  1  0.41477000  0.95273000  0.39038000  1.0 -0.0065040196
C  C110  1  0.95273000  0.41477000  0.10962000  1.0 -0.0065040196
C  C111  1  0.58523000  0.04727000  0.60962000  1.0 -0.0065040196
C  C112  1  0.04727000  0.58523000  0.89038000  1.0 -0.0065040196
C  C113  1  0.50275000  0.97669000  0.39274000  1.0 0.0017002823
C  C114  1  0.97669000  0.50275000  0.10726000  1.0 0.0017002823
C  C115  1  0.49725000  0.02331000  0.60726000  1.0 0.0017002823
C  C116  1  0.02331000  0.49725000  0.89274000  1.0 0.0017002823
C  C117  1  0.56123000  0.05777000  0.39298000  1.0 -0.0065040196
C  C118  1  0.05777000  0.56123000  0.10702000  1.0 -0.0065040196
C  C119  1  0.43877000  0.94223000  0.60702000  1.0 -0.0065040196
C  C120  1  0.94223000  0.43877000  0.89298000  1.0 -0.0065040196
C  C121  1  0.20686000  0.92484000  0.49021000  1.0 -0.1604578208
C  C122  1  0.92484000  0.20686000  0.00979000  1.0 -0.1604578208
C  C123  1  0.79314000  0.07516000  0.50979000  1.0 -0.1604578208
C  C124  1  0.07516000  0.79314000  0.99021000  1.0 -0.1604578208
C  C125  1  0.57373000  0.24875000  0.55657000  1.0 -0.116258153
C  C126  1  0.24875000  0.57373000  0.94343000  1.0 -0.116258153
C  C127  1  0.42627000  0.75125000  0.44343000  1.0 -0.116258153
C  C128  1  0.75125000  0.42627000  0.05657000  1.0 -0.116258153
C  C129  1  0.48795000  0.15275000  0.34501000  1.0 -0.1681050898
C  C130  1  0.15275000  0.48795000  0.15499000  1.0 -0.1681050898
C  C131  1  0.51205000  0.84725000  0.65499000  1.0 -0.1681050898
C  C132  1  0.84725000  0.51205000  0.84501000  1.0 -0.1681050898
C  C133  1  0.16074000  0.96018000  0.44927000  1.0 0.5093978521
C  C134  1  0.96018000  0.16074000  0.05073000  1.0 0.5093978521
C  C135  1  0.83926000  0.03982000  0.55073000  1.0 0.5093978521
C  C136  1  0.03982000  0.83926000  0.94927000  1.0 0.5093978521
C  C137  1  0.10352000  0.05514000  0.42667000  1.0 -0.1681050898
C  C138  1  0.05514000  0.10352000  0.07333000  1.0 -0.1681050898
C  C139  1  0.89648000  0.94486000  0.57333000  1.0 -0.1681050898
C  C140  1  0.94486000  0.89648000  0.92667000  1.0 -0.1681050898
C  C141  1  0.16490000  0.13998000  0.40889000  1.0 0.5883682992
C  C142  1  0.13998000  0.16490000  0.09111000  1.0 0.5883682992
C  C143  1  0.83510000  0.86002000  0.59111000  1.0 0.5883682992
C  C144  1  0.86002000  0.83510000  0.90889000  1.0 0.5883682992
C  C145  1  0.15661000  0.86845000  0.52582000  1.0 0.5269355353
C  C146  1  0.86845000  0.15661000  0.97418000  1.0 0.5269355353
C  C147  1  0.84339000  0.13155000  0.47418000  1.0 0.5269355353
C  C148  1  0.13155000  0.84339000  0.02582000  1.0 0.5269355353
C  C149  1  0.02258000  0.78486000  0.53845000  1.0 -0.1681050898
C  C150  1  0.78486000  0.02258000  0.96155000  1.0 -0.1681050898
C  C151  1  0.97742000  0.21514000  0.46155000  1.0 -0.1681050898
C  C152  1  0.21514000  0.97742000  0.03845000  1.0 -0.1681050898
C  C153  1  0.02195000  0.83099000  0.57100000  1.0 0.6091430362
C  C154  1  0.83099000  0.02195000  0.92900000  1.0 0.6091430362
C  C155  1  0.97805000  0.16901000  0.42900000  1.0 0.6091430362
C  C156  1  0.16901000  0.97805000  0.07100000  1.0 0.6091430362
C  C157  1  0.50961000  0.27477000  0.55747000  1.0 0.4926696595
C  C158  1  0.27477000  0.50961000  0.94253000  1.0 0.4926696595
C  C159  1  0.49039000  0.72523000  0.44253000  1.0 0.4926696595
C  C160  1  0.72523000  0.49039000  0.05747000  1.0 0.4926696595
C  C161  1  0.47735000  0.38805000  0.52749000  1.0 -0.1772632238
C  C162  1  0.38805000  0.47735000  0.97251000  1.0 -0.1772632238
C  C163  1  0.52265000  0.61195000  0.47251000  1.0 -0.1772632238
C  C164  1  0.61195000  0.52265000  0.02749000  1.0 -0.1772632238
C  C165  1  0.40749000  0.36657000  0.48714000  1.0 0.50447427
C  C166  1  0.36657000  0.40749000  0.01286000  1.0 0.50447427
C  C167  1  0.59251000  0.63343000  0.51286000  1.0 0.50447427
C  C168  1  0.63343000  0.59251000  0.98714000  1.0 0.50447427
C  C169  1  0.66012000  0.30858000  0.57232000  1.0 0.5883682992
C  C170  1  0.30858000  0.66012000  0.92768000  1.0 0.5883682992
C  C171  1  0.33988000  0.69142000  0.42768000  1.0 0.5883682992
C  C172  1  0.69142000  0.33988000  0.07232000  1.0 0.5883682992
C  C173  1  0.74050000  0.38050000  0.63280000  1.0 -0.0313051665
C  C174  1  0.38050000  0.74050000  0.86720000  1.0 -0.0313051665
C  C175  1  0.25950000  0.61950000  0.36720000  1.0 -0.0402115455
C  C176  1  0.61950000  0.25950000  0.13280000  1.0 -0.0402115455
C  C177  1  0.72940000  0.45960000  0.62330000  1.0 0.2886392053
C  C178  1  0.45960000  0.72940000  0.87670000  1.0 0.2886392053
C  C179  1  0.27060000  0.54040000  0.37670000  1.0 0.2886392053
C  C180  1  0.54040000  0.27060000  0.12330000  1.0 0.2886392053
C  C181  1  0.49967000  0.24103000  0.33373000  1.0 0.5217474874
C  C182  1  0.24103000  0.49967000  0.16627000  1.0 0.5217474874
C  C183  1  0.50033000  0.75897000  0.66627000  1.0 0.5217474874
C  C184  1  0.75897000  0.50033000  0.83373000  1.0 0.5217474874
C  C185  1  0.42371000  0.31969000  0.30144000  1.0 -0.1681050898
C  C186  1  0.31969000  0.42371000  0.19856000  1.0 -0.1681050898
C  C187  1  0.57629000  0.68031000  0.69856000  1.0 -0.1681050898
C  C188  1  0.68031000  0.57629000  0.80144000  1.0 -0.1681050898
C  C189  1  0.37591000  0.32635000  0.33033000  1.0 0.5093978521
C  C190  1  0.32635000  0.37591000  0.16967000  1.0 0.5093978521
C  C191  1  0.62409000  0.67365000  0.66967000  1.0 0.5093978521
C  C192  1  0.67365000  0.62409000  0.83033000  1.0 0.5093978521
C  C193  1  0.46843000  0.11709000  0.30323000  1.0 0.5217474874
C  C194  1  0.11709000  0.46843000  0.19677000  1.0 0.5217474874
C  C195  1  0.53157000  0.88291000  0.69677000  1.0 0.5217474874
C  C196  1  0.88291000  0.53157000  0.80323000  1.0 0.5217474874
C  C197  1  0.36043000  0.05617000  0.24632000  1.0 -0.1681050898
C  C198  1  0.05617000  0.36043000  0.25368000  1.0 -0.1681050898
C  C199  1  0.63957000  0.94383000  0.75368000  1.0 -0.1681050898
C  C200  1  0.94383000  0.63957000  0.74632000  1.0 -0.1681050898
C  C201  1  0.35963000  0.12677000  0.20823000  1.0 0.5807043787
C  C202  1  0.12677000  0.35963000  0.29177000  1.0 0.5807043787
C  C203  1  0.64037000  0.87323000  0.79177000  1.0 0.5807043787
C  C204  1  0.87323000  0.64037000  0.70823000  1.0 0.5807043787
C  C205  1  0.21700000  0.47360000  0.50210000  1.0 0.1319588514
C  C206  1  0.47360000  0.21700000  0.99790000  1.0 0.1319588514
C  C207  1  0.78300000  0.52640000  0.49790000  1.0 0.1319588514
C  C208  1  0.52640000  0.78300000  0.00210000  1.0 0.1319588514
C  C209  1  0.16030000  0.41210000  0.57120000  1.0 -0.1264306132
C  C210  1  0.41210000  0.16030000  0.92880000  1.0 -0.1264306132
C  C211  1  0.83970000  0.58790000  0.42880000  1.0 -0.1264306132
C  C212  1  0.58790000  0.83970000  0.07120000  1.0 -0.1264306132
C  C213  1  0.07240000  0.35140000  0.56340000  1.0 -0.4231084335
C  C214  1  0.35140000  0.07240000  0.93660000  1.0 -0.4231084335
C  C215  1  0.92760000  0.64860000  0.43660000  1.0 -0.4231084335
C  C216  1  0.64860000  0.92760000  0.06340000  1.0 -0.4231084335
C  C217  1  0.15350000  0.54550000  0.52230000  1.0 -0.0402115455
C  C218  1  0.54550000  0.15350000  0.97770000  1.0 -0.0402115455
C  C219  1  0.84650000  0.45450000  0.47770000  1.0 -0.0402115455
C  C220  1  0.45450000  0.84650000  0.02230000  1.0 -0.0402115455
C  C221  1  0.19740000  0.59680000  0.55910000  1.0 -0.4065915767
C  C222  1  0.59680000  0.19740000  0.94090000  1.0 -0.4065915767
C  C223  1  0.80260000  0.40320000  0.44090000  1.0 -0.4065915767
C  C224  1  0.40320000  0.80260000  0.05910000  1.0 -0.4065915767
C  C225  1  0.48110000  0.52830000  0.36380000  1.0 0.0017002823
C  C226  1  0.52830000  0.48110000  0.13620000  1.0 0.0017002823
C  C227  1  0.51890000  0.47170000  0.63620000  1.0 0.0017002823
C  C228  1  0.47170000  0.51890000  0.86380000  1.0 0.0017002823
C  C229  1  0.57110000  0.48750000  0.42690000  1.0 -0.092094389
C  C230  1  0.48750000  0.57110000  0.07310000  1.0 -0.092094389
C  C231  1  0.42890000  0.51250000  0.57310000  1.0 -0.092094389
C  C232  1  0.51250000  0.42890000  0.92690000  1.0 -0.092094389
C  C233  1  0.58300000  0.42060000  0.41990000  1.0 -0.1428244758
C  C234  1  0.42060000  0.58300000  0.08010000  1.0 -0.1428244758
C  C235  1  0.41700000  0.57940000  0.58010000  1.0 -0.1428244758
C  C236  1  0.57940000  0.41700000  0.91990000  1.0 -0.1428244758
C  C237  1  0.62740000  0.60600000  0.36550000  1.0 -0.0701169768
C  C238  1  0.60600000  0.62740000  0.13450000  1.0 -0.0701169768
C  C239  1  0.37260000  0.39400000  0.63450000  1.0 -0.0701169768
C  C240  1  0.39400000  0.37260000  0.86550000  1.0 -0.0701169768
C  C241  1  0.67280000  0.67840000  0.39060000  1.0 -0.23870233
C  C242  1  0.67840000  0.67280000  0.10940000  1.0 -0.23870233
C  C243  1  0.32720000  0.32160000  0.60940000  1.0 -0.23870233
C  C244  1  0.32160000  0.32720000  0.89060000  1.0 -0.23870233
C  C245  1  0.73000000  0.37400000  0.63640000  1.0 0.0097390874
C  C246  1  0.37400000  0.73000000  0.86360000  1.0 0.0097390874
C  C247  1  0.27000000  0.62600000  0.36360000  1.0 0.0097390874
C  C248  1  0.62600000  0.27000000  0.13640000  1.0 0.0097390874
C  C249  1  0.75910000  0.46590000  0.61810000  1.0 0.2522105303
C  C250  1  0.46590000  0.75910000  0.88190000  1.0 0.2522105303
C  C251  1  0.24090000  0.53410000  0.38190000  1.0 0.2522105303
C  C252  1  0.53410000  0.24090000  0.11810000  1.0 0.2522105303
C  C253  1  0.00550000  0.11510000  0.26390000  1.0 0.0799001426
C  C254  1  0.11510000  0.00550000  0.23610000  1.0 0.0799001426
C  C255  1  0.99450000  0.88490000  0.73610000  1.0 0.0799001426
C  C256  1  0.88490000  0.99450000  0.76390000  1.0 0.0799001426
C  C257  1  0.03450000  0.19690000  0.19000000  1.0 0.0017002823
C  C258  1  0.19690000  0.03450000  0.31000000  1.0 0.0017002823
C  C259  1  0.96550000  0.80310000  0.81000000  1.0 0.0017002823
C  C260  1  0.80310000  0.96550000  0.69000000  1.0 0.0017002823
C  C261  1  0.11870000  0.21990000  0.18920000  1.0 -0.205413786
C  C262  1  0.21990000  0.11870000  0.31080000  1.0 -0.205413786
C  C263  1  0.88130000  0.78010000  0.81080000  1.0 -0.205413786
C  C264  1  0.78010000  0.88130000  0.68920000  1.0 -0.205413786
C  C265  1  0.98160000  0.03520000  0.20720000  1.0 -0.3044087116
C  C266  1  0.03520000  0.98160000  0.29280000  1.0 -0.3075655822
C  C267  1  0.01840000  0.96480000  0.79280000  1.0 -0.3044087116
C  C268  1  0.96480000  0.01840000  0.70720000  1.0 -0.3044087116
C  C269  1  0.89300000  0.00240000  0.18310000  1.0 -0.3180548299
C  C270  1  0.00240000  0.89300000  0.31690000  1.0 -0.3180548299
C  C271  1  0.10700000  0.99760000  0.81690000  1.0 -0.3180548299
C  C272  1  0.99760000  0.10700000  0.68310000  1.0 -0.3180548299
C  C273  1  0.97360000  0.14420000  0.25390000  1.0 0.1319588514
C  C274  1  0.14420000  0.97360000  0.24610000  1.0 0.1319588514
C  C275  1  0.02640000  0.85580000  0.74610000  1.0 0.1319588514
C  C276  1  0.85580000  0.02640000  0.75390000  1.0 0.1319588514
C  C277  1  0.05380000  0.15860000  0.20230000  1.0 0.0510213982
C  C278  1  0.15860000  0.05380000  0.29770000  1.0 0.0510213982
C  C279  1  0.94620000  0.84140000  0.79770000  1.0 0.0510213982
C  C280  1  0.84140000  0.94620000  0.70230000  1.0 0.0510213982
C  C281  1  0.12440000  0.17340000  0.23940000  1.0 -0.2002767865
C  C282  1  0.17340000  0.12440000  0.26060000  1.0 -0.2002767865
C  C283  1  0.87560000  0.82660000  0.76060000  1.0 -0.2002767865
C  C284  1  0.82660000  0.87560000  0.73940000  1.0 -0.2002767865
C  C285  1  0.89180000  0.09920000  0.18330000  1.0 -0.0752102707
C  C286  1  0.09920000  0.89180000  0.31670000  1.0 -0.0701169768
C  C287  1  0.10820000  0.90080000  0.81670000  1.0 -0.0752102707
C  C288  1  0.90080000  0.10820000  0.68330000  1.0 -0.0701169768
C  C289  1  0.84250000  0.15010000  0.16960000  1.0 -0.4746726278
C  C290  1  0.15010000  0.84250000  0.33040000  1.0 -0.4801908599
C  C291  1  0.15750000  0.84990000  0.83040000  1.0 -0.4801908599
C  C292  1  0.84990000  0.15750000  0.66960000  1.0 -0.4801908599
C  C293  1  0.29010000  0.47950000  0.51520000  1.0 0.069608162
C  C294  1  0.47950000  0.29010000  0.98480000  1.0 0.069608162
C  C295  1  0.70990000  0.52050000  0.48480000  1.0 0.069608162
C  C296  1  0.52050000  0.70990000  0.01520000  1.0 0.069608162
C  C297  1  0.27070000  0.41890000  0.59220000  1.0 -0.1888591192
C  C298  1  0.41890000  0.27070000  0.90780000  1.0 -0.1888591192
C  C299  1  0.72930000  0.58110000  0.40780000  1.0 -0.1888591192
C  C300  1  0.58110000  0.72930000  0.09220000  1.0 -0.1888591192
C  C301  1  0.30570000  0.35990000  0.60480000  1.0 -0.1428244758
C  C302  1  0.35990000  0.30570000  0.89520000  1.0 -0.1428244758
C  C303  1  0.69430000  0.64010000  0.39520000  1.0 -0.1428244758
C  C304  1  0.64010000  0.69430000  0.10480000  1.0 -0.1428244758
C  C305  1  0.36730000  0.57250000  0.56970000  1.0 0.0097390874
C  C306  1  0.57250000  0.36730000  0.93030000  1.0 0.0097390874
C  C307  1  0.63270000  0.42750000  0.43030000  1.0 0.0097390874
C  C308  1  0.42750000  0.63270000  0.06970000  1.0 0.0097390874
C  C309  1  0.44460000  0.56420000  0.59590000  1.0 -0.1103997354
C  C310  1  0.56420000  0.44460000  0.90410000  1.0 -0.1103997354
C  C311  1  0.55540000  0.43580000  0.40410000  1.0 -0.1103997354
C  C312  1  0.43580000  0.55540000  0.09590000  1.0 -0.1103997354
C  C313  1  0.42720000  0.55420000  0.36120000  1.0 0.2841878038
C  C314  1  0.55420000  0.42720000  0.13880000  1.0 0.2841878038
C  C315  1  0.57280000  0.44580000  0.63880000  1.0 0.2841878038
C  C316  1  0.44580000  0.57280000  0.86120000  1.0 0.2841878038
N  N1  1  0.18410000  0.47990000  0.53220000  1.0 -0.1428244758
N  N2  1  0.47990000  0.18410000  0.96780000  1.0 -0.1428244758
N  N3  1  0.81590000  0.52010000  0.46780000  1.0 -0.1428244758
N  N4  1  0.52010000  0.81590000  0.03220000  1.0 -0.1428244758
N  N5  1  0.55650000  0.53970000  0.38570000  1.0 -0.1604578208
N  N6  1  0.53970000  0.55650000  0.11430000  1.0 -0.1604578208
N  N7  1  0.44350000  0.46030000  0.61430000  1.0 -0.1604578208
N  N8  1  0.46030000  0.44350000  0.88570000  1.0 -0.1604578208
N  N9  1  0.00350000  0.11450000  0.22150000  1.0 0.1381130001
N  N10  1  0.11450000  0.00350000  0.27850000  1.0 0.1381130001
N  N11  1  0.99650000  0.88550000  0.77850000  1.0 0.1381130001
N  N12  1  0.88550000  0.99650000  0.72150000  1.0 0.1381130001
N  N13  1  0.97480000  0.14760000  0.21180000  1.0 0.1319588514
N  N14  1  0.14760000  0.97480000  0.28820000  1.0 0.1319588514
N  N15  1  0.02520000  0.85240000  0.78820000  1.0 0.1319588514
N  N16  1  0.85240000  0.02520000  0.71180000  1.0 0.1319588514
N  N17  1  0.30310000  0.49030000  0.55670000  1.0 -0.1428244758
N  N18  1  0.49030000  0.30310000  0.94330000  1.0 -0.1428244758
N  N19  1  0.69690000  0.50970000  0.44330000  1.0 -0.1428244758
N  N20  1  0.50970000  0.69690000  0.05670000  1.0 -0.1428244758
O  O1  1  0.14495000  0.94685000  0.41194000  1.0 -0.4493709007
O  O2  1  0.94685000  0.14495000  0.08806000  1.0 -0.4493709007
O  O3  1  0.85505000  0.05315000  0.58806000  1.0 -0.4493709007
O  O4  1  0.05315000  0.85505000  0.91194000  1.0 -0.4493709007
O  O5  1  0.14306000  0.01076000  0.46186000  1.0 -0.1772632238
O  O6  1  0.01076000  0.14306000  0.03814000  1.0 -0.1772632238
O  O7  1  0.85694000  0.98924000  0.53814000  1.0 -0.1772632238
O  O8  1  0.98924000  0.85694000  0.96186000  1.0 -0.1772632238
O  O9  1  0.23853000  0.16411000  0.42886000  1.0 -0.5351328973
O  O10  1  0.16411000  0.23853000  0.07114000  1.0 -0.5351328973
O  O11  1  0.76147000  0.83589000  0.57114000  1.0 -0.5351328973
O  O12  1  0.83589000  0.76147000  0.92886000  1.0 -0.528925455
O  O13  1  0.13831000  0.18105000  0.37584000  1.0 -0.5199361418
O  O14  1  0.18105000  0.13831000  0.12416000  1.0 -0.5199361418
O  O15  1  0.86169000  0.81895000  0.62416000  1.0 -0.5199361418
O  O16  1  0.81895000  0.86169000  0.87584000  1.0 -0.5199361418
O  O17  1  0.18266000  0.85022000  0.56434000  1.0 -0.4065915767
O  O18  1  0.85022000  0.18266000  0.93566000  1.0 -0.4065915767
O  O19  1  0.81734000  0.14978000  0.43566000  1.0 -0.4065915767
O  O20  1  0.14978000  0.81734000  0.06434000  1.0 -0.4065915767
O  O21  1  0.07721000  0.83787000  0.50712000  1.0 -0.2002767865
O  O22  1  0.83787000  0.07721000  0.99288000  1.0 -0.2002767865
O  O23  1  0.92279000  0.16213000  0.49288000  1.0 -0.2002767865
O  O24  1  0.16213000  0.92279000  0.00712000  1.0 -0.2002767865
O  O25  1  0.05833000  0.90637000  0.56595000  1.0 -0.528925455
O  O26  1  0.90637000  0.05833000  0.93405000  1.0 -0.528925455
O  O27  1  0.94167000  0.09363000  0.43405000  1.0 -0.528925455
O  O28  1  0.09363000  0.94167000  0.06595000  1.0 -0.528925455
O  O29  1  0.98083000  0.78351000  0.60173000  1.0 -0.5879422847
O  O30  1  0.78351000  0.98083000  0.89827000  1.0 -0.5879422847
O  O31  1  0.01917000  0.21649000  0.39827000  1.0 -0.5879422847
O  O32  1  0.21649000  0.01917000  0.10173000  1.0 -0.5879422847
O  O33  1  0.45136000  0.23602000  0.57522000  1.0 -0.3697888974
O  O34  1  0.23602000  0.45136000  0.92478000  1.0 -0.3697888974
O  O35  1  0.54864000  0.76398000  0.42478000  1.0 -0.3697888974
O  O36  1  0.76398000  0.54864000  0.07522000  1.0 -0.3697888974
O  O37  1  0.53067000  0.35037000  0.53279000  1.0 -0.3510087553
O  O38  1  0.35037000  0.53067000  0.96721000  1.0 -0.3510087553
O  O39  1  0.46933000  0.64963000  0.46721000  1.0 -0.3510087553
O  O40  1  0.64963000  0.46933000  0.03279000  1.0 -0.3510087553
O  O41  1  0.39813000  0.31343000  0.46670000  1.0 -0.4940934379
O  O42  1  0.31343000  0.39813000  0.03330000  1.0 -0.4940934379
O  O43  1  0.60187000  0.68657000  0.53330000  1.0 -0.4940934379
O  O44  1  0.68657000  0.60187000  0.96670000  1.0 -0.4940934379
O  O45  1  0.36478000  0.40446000  0.47945000  1.0 -0.5199361418
O  O46  1  0.40446000  0.36478000  0.02055000  1.0 -0.5199361418
O  O47  1  0.63522000  0.59554000  0.52055000  1.0 -0.5199361418
O  O48  1  0.59554000  0.63522000  0.97945000  1.0 -0.5199361418
O  O49  1  0.71510000  0.33370000  0.55250000  1.0 -0.5199361418
O  O50  1  0.33370000  0.71510000  0.94750000  1.0 -0.5199361418
O  O51  1  0.28490000  0.66630000  0.44750000  1.0 -0.5199361418
O  O52  1  0.66630000  0.28490000  0.05250000  1.0 -0.5199361418
O  O53  1  0.66490000  0.31790000  0.61360000  1.0 -0.2002767865
O  O54  1  0.31790000  0.66490000  0.88640000  1.0 -0.2002767865
O  O55  1  0.33510000  0.68210000  0.38640000  1.0 -0.205413786
O  O56  1  0.68210000  0.33510000  0.11360000  1.0 -0.205413786
O  O57  1  0.71197000  0.48857000  0.58381000  1.0 -0.3783964936
O  O58  1  0.48857000  0.71197000  0.91619000  1.0 -0.3783964936
O  O59  1  0.28803000  0.51143000  0.41619000  1.0 -0.3783964936
O  O60  1  0.51143000  0.28803000  0.08381000  1.0 -0.3783964936
O  O61  1  0.74749000  0.48911000  0.65710000  1.0 -0.2345133398
O  O62  1  0.48911000  0.74749000  0.84290000  1.0 -0.2345133398
O  O63  1  0.25251000  0.51089000  0.34290000  1.0 -0.2345133398
O  O64  1  0.51089000  0.25251000  0.15710000  1.0 -0.2345133398
O  O65  1  0.56272000  0.29940000  0.34199000  1.0 -0.4493709007
O  O66  1  0.29940000  0.56272000  0.15801000  1.0 -0.4493709007
O  O67  1  0.43728000  0.70060000  0.65801000  1.0 -0.4493709007
O  O68  1  0.70060000  0.43728000  0.84199000  1.0 -0.4493709007
O  O69  1  0.42815000  0.24189000  0.31525000  1.0 -0.2717238788
O  O70  1  0.24189000  0.42815000  0.18475000  1.0 -0.2717238788
O  O71  1  0.57185000  0.75811000  0.68475000  1.0 -0.2717238788
O  O72  1  0.75811000  0.57185000  0.81525000  1.0 -0.2717238788
O  O73  1  0.37350000  0.28426000  0.36922000  1.0 -0.5199361418
O  O74  1  0.28426000  0.37350000  0.13078000  1.0 -0.5199361418
O  O75  1  0.62650000  0.71574000  0.63078000  1.0 -0.5199361418
O  O76  1  0.71574000  0.62650000  0.86922000  1.0 -0.5199361418
O  O77  1  0.34592000  0.37632000  0.31298000  1.0 -0.5100403402
O  O78  1  0.37632000  0.34592000  0.18702000  1.0 -0.5100403402
O  O79  1  0.65408000  0.62368000  0.68702000  1.0 -0.5100403402
O  O80  1  0.62368000  0.65408000  0.81298000  1.0 -0.5100403402
O  O81  1  0.52015000  0.12145000  0.28664000  1.0 -0.4330151279
O  O82  1  0.12145000  0.52015000  0.21336000  1.0 -0.4330151279
O  O83  1  0.47985000  0.87855000  0.71336000  1.0 -0.4330151279
O  O84  1  0.87855000  0.47985000  0.78664000  1.0 -0.4330151279
O  O85  1  0.38871000  0.08271000  0.28951000  1.0 -0.3075655822
O  O86  1  0.08271000  0.38871000  0.21049000  1.0 -0.3075655822
O  O87  1  0.61129000  0.91729000  0.71049000  1.0 -0.3075655822
O  O88  1  0.91729000  0.61129000  0.78951000  1.0 -0.3075655822
O  O89  1  0.40579000  0.19779000  0.21520000  1.0 -0.4493709007
O  O90  1  0.19779000  0.40579000  0.28480000  1.0 -0.4493709007
O  O91  1  0.59421000  0.80221000  0.78480000  1.0 -0.4493709007
O  O92  1  0.80221000  0.59421000  0.71520000  1.0 -0.4493709007
O  O93  1  0.31467000  0.10735000  0.17148000  1.0 -0.4801908599
O  O94  1  0.10735000  0.31467000  0.32852000  1.0 -0.4801908599
O  O95  1  0.68533000  0.89265000  0.82852000  1.0 -0.4801908599
O  O96  1  0.89265000  0.68533000  0.67148000  1.0 -0.4801908599
O  O97  1  0.25757000  0.35041000  0.39161000  1.0 -0.7698853139
O  O98  1  0.35041000  0.25757000  0.10839000  1.0 -0.7698853139
O  O99  1  0.74243000  0.64959000  0.60839000  1.0 -0.7698853139
O  O100  1  0.64959000  0.74243000  0.89161000  1.0 -0.7698853139
O  O101  1  0.03841000  0.17749000  0.28122000  1.0 -0.355831099
O  O102  1  0.17749000  0.03841000  0.21878000  1.0 -0.355831099
O  O103  1  0.96159000  0.82251000  0.71878000  1.0 -0.355831099
O  O104  1  0.82251000  0.96159000  0.78122000  1.0 -0.355831099
O  O105  1  0.23489000  0.41631000  0.50270000  1.0 -0.3180548299
O  O106  1  0.41631000  0.23489000  0.99730000  1.0 -0.3180548299
O  O107  1  0.76511000  0.58369000  0.49730000  1.0 -0.3180548299
O  O108  1  0.58369000  0.76511000  0.00270000  1.0 -0.3180548299
O  O109  1  0.35870000  0.53570000  0.28170000  1.0 -0.1681050898
O  O110  1  0.53570000  0.35870000  0.21830000  1.0 -0.1681050898
O  O111  1  0.64130000  0.46430000  0.71830000  1.0 -0.1681050898
O  O112  1  0.46430000  0.64130000  0.78170000  1.0 -0.1681050898
O  O113  1  0.41928000  0.48292000  0.38029000  1.0 -0.2161508922
O  O114  1  0.48292000  0.41928000  0.11971000  1.0 -0.2161508922
O  O115  1  0.58072000  0.51708000  0.61971000  1.0 -0.2161508922
O  O116  1  0.51708000  0.58072000  0.88029000  1.0 -0.2161508922
O  O117  1  0.72070000  0.34470000  0.55600000  1.0 -0.5100403402
O  O118  1  0.34470000  0.72070000  0.94400000  1.0 -0.5100403402
O  O119  1  0.27930000  0.65530000  0.44400000  1.0 -0.5100403402
O  O120  1  0.65530000  0.27930000  0.05600000  1.0 -0.5100403402
O  O121  1  0.65540000  0.32420000  0.61020000  1.0 -0.23870233
O  O122  1  0.32420000  0.65540000  0.88980000  1.0 -0.23870233
O  O123  1  0.34460000  0.67580000  0.38980000  1.0 -0.23870233
O  O124  1  0.67580000  0.34460000  0.11020000  1.0 -0.23870233
O  O125  1  0.83110000  0.50410000  0.63770000  1.0 -0.1888591192
O  O126  1  0.50410000  0.83110000  0.86230000  1.0 -0.1888591192
O  O127  1  0.16890000  0.49590000  0.36230000  1.0 -0.1888591192
O  O128  1  0.49590000  0.16890000  0.13770000  1.0 -0.1888591192
O  O129  1  0.37240000  0.54420000  0.32830000  1.0 -0.1681050898
O  O130  1  0.54420000  0.37240000  0.17170000  1.0 -0.1681050898
O  O131  1  0.62760000  0.45580000  0.67170000  1.0 -0.1681050898
O  O132  1  0.45580000  0.62760000  0.82830000  1.0 -0.1681050898
O  O133  1  0.48840000  0.63080000  0.36220000  1.0 -0.3697888974
O  O134  1  0.63080000  0.48840000  0.13780000  1.0 -0.3697888974
O  O135  1  0.51160000  0.36920000  0.63780000  1.0 -0.3697888974
O  O136  1  0.36920000  0.51160000  0.86220000  1.0 -0.3697888974
