# DDEC6 charges by PACMAN v1.1 (https://github.com/mtap-research/PACMAN-charge/)
data_OJUPIU_ASR_pacman
_symmetry_space_group_name_H-M   'P 1'
_cell_length_a   20.92610000
_cell_length_b   20.92610000
_cell_length_c   20.92610000
_cell_angle_alpha   52.21090000
_cell_angle_beta   52.21090000
_cell_angle_gamma   52.21090000
_symmetry_Int_Tables_number   1
_chemical_formula_structural   Zn12H228C210N12O103
_chemical_formula_sum   'Zn12 H228 C210 N12 O103'
_cell_volume   5293.75560116
_cell_formula_units_Z   1
loop_
 _symmetry_equiv_pos_site_id
 _symmetry_equiv_pos_as_xyz
  1  'x, y, z'
loop_
 _atom_site_type_symbol
 _atom_site_label
 _atom_site_symmetry_multiplicity
 _atom_site_fract_x
 _atom_site_fract_y
 _atom_site_fract_z
 _atom_site_occupancy
 _atom_site_charge
Zn  Zn1  1  0.78952000  0.78952000  0.78952000  1.0 0.9720573496
Zn  Zn2  1  0.21048000  0.21048000  0.21048000  1.0 0.9720573496
Zn  Zn3  1  0.72407000  0.72407000  0.72407000  1.0 0.7623452317
Zn  Zn4  1  0.27593000  0.27593000  0.27593000  1.0 0.7623452317
Zn  Zn5  1  0.48728000  0.42170000  0.62243000  1.0 0.4100378773
Zn  Zn6  1  0.42170000  0.62243000  0.48728000  1.0 0.4100378773
Zn  Zn7  1  0.62243000  0.48728000  0.42170000  1.0 0.4100378773
Zn  Zn8  1  0.51272000  0.57830000  0.37757000  1.0 0.4100378773
Zn  Zn9  1  0.57830000  0.37757000  0.51272000  1.0 0.4100378773
Zn  Zn10  1  0.37757000  0.51272000  0.57830000  1.0 0.4100378773
Zn  Zn11  1  0.46199000  0.46199000  0.46199000  1.0 0.4386822652
Zn  Zn12  1  0.53801000  0.53801000  0.53801000  1.0 0.4386822652
H  H1  1  0.49245000  0.90329000  0.77330000  1.0 0.0788029649
H  H2  1  0.90329000  0.77330000  0.49245000  1.0 0.0788029649
H  H3  1  0.77330000  0.49245000  0.90329000  1.0 0.0788029649
H  H4  1  0.50755000  0.09671000  0.22670000  1.0 0.0788029649
H  H5  1  0.09671000  0.22670000  0.50755000  1.0 0.0788029649
H  H6  1  0.22670000  0.50755000  0.09671000  1.0 0.0788029649
H  H7  1  0.50985000  0.98949000  0.69370000  1.0 0.0907909939
H  H8  1  0.98949000  0.69370000  0.50985000  1.0 0.0907909939
H  H9  1  0.69370000  0.50985000  0.98949000  1.0 0.0907909939
H  H10  1  0.49015000  0.01051000  0.30630000  1.0 0.0907909939
H  H11  1  0.01051000  0.30630000  0.49015000  1.0 0.0907909939
H  H12  1  0.30630000  0.49015000  0.01051000  1.0 0.0907909939
H  H13  1  0.53845000  0.00789000  0.76880000  1.0 0.1424367623
H  H14  1  0.00789000  0.76880000  0.53845000  1.0 0.1424367623
H  H15  1  0.76880000  0.53845000  0.00789000  1.0 0.1424367623
H  H16  1  0.46155000  0.99211000  0.23120000  1.0 0.1424367623
H  H17  1  0.99211000  0.23120000  0.46155000  1.0 0.1424367623
H  H18  1  0.23120000  0.46155000  0.99211000  1.0 0.1424367623
H  H19  1  0.50365000  0.93569000  0.85720000  1.0 0.1424367623
H  H20  1  0.93569000  0.85720000  0.50365000  1.0 0.1424367623
H  H21  1  0.85720000  0.50365000  0.93569000  1.0 0.1424367623
H  H22  1  0.49635000  0.06431000  0.14280000  1.0 0.1424367623
H  H23  1  0.06431000  0.14280000  0.49635000  1.0 0.1424367623
H  H24  1  0.14280000  0.49635000  0.06431000  1.0 0.1424367623
H  H25  1  0.29485000  0.32899000  0.63370000  1.0 0.0711172443
H  H26  1  0.32899000  0.63370000  0.29485000  1.0 0.0711172443
H  H27  1  0.63370000  0.29485000  0.32899000  1.0 0.0711172443
H  H28  1  0.70515000  0.67101000  0.36630000  1.0 0.0711172443
H  H29  1  0.67101000  0.36630000  0.70515000  1.0 0.0711172443
H  H30  1  0.36630000  0.70515000  0.67101000  1.0 0.0711172443
H  H31  1  0.26535000  0.31169000  0.73150000  1.0 0.0412497517
H  H32  1  0.31169000  0.73150000  0.26535000  1.0 0.0412497517
H  H33  1  0.73150000  0.26535000  0.31169000  1.0 0.0412497517
H  H34  1  0.73465000  0.68831000  0.26850000  1.0 0.0412497517
H  H35  1  0.68831000  0.26850000  0.73465000  1.0 0.0412497517
H  H36  1  0.26850000  0.73465000  0.68831000  1.0 0.0412497517
H  H37  1  0.40225000  0.21389000  0.73050000  1.0 0.0711172443
H  H38  1  0.21389000  0.73050000  0.40225000  1.0 0.0711172443
H  H39  1  0.73050000  0.40225000  0.21389000  1.0 0.0711172443
H  H40  1  0.59775000  0.78611000  0.26950000  1.0 0.0711172443
H  H41  1  0.78611000  0.26950000  0.59775000  1.0 0.0711172443
H  H42  1  0.26950000  0.59775000  0.78611000  1.0 0.0711172443
H  H43  1  0.43295000  0.21519000  0.63910000  1.0 0.0788029649
H  H44  1  0.21519000  0.63910000  0.43295000  1.0 0.0788029649
H  H45  1  0.63910000  0.43295000  0.21519000  1.0 0.0788029649
H  H46  1  0.56705000  0.78481000  0.36090000  1.0 0.0788029649
H  H47  1  0.78481000  0.36090000  0.56705000  1.0 0.0788029649
H  H48  1  0.36090000  0.56705000  0.78481000  1.0 0.0788029649
H  H49  1  0.59295000  0.67999000  0.89580000  1.0 0.1007046118
H  H50  1  0.67999000  0.89580000  0.59295000  1.0 0.1007046118
H  H51  1  0.89580000  0.59295000  0.67999000  1.0 0.1007046118
H  H52  1  0.40705000  0.32001000  0.10420000  1.0 0.1007046118
H  H53  1  0.32001000  0.10420000  0.40705000  1.0 0.1007046118
H  H54  1  0.10420000  0.40705000  0.32001000  1.0 0.1007046118
H  H55  1  0.43015000  0.64719000  0.90570000  1.0 0.0510620451
H  H56  1  0.64719000  0.90570000  0.43015000  1.0 0.0510620451
H  H57  1  0.90570000  0.43015000  0.64719000  1.0 0.0510620451
H  H58  1  0.56985000  0.35281000  0.09430000  1.0 0.0510620451
H  H59  1  0.35281000  0.09430000  0.56985000  1.0 0.0510620451
H  H60  1  0.09430000  0.56985000  0.35281000  1.0 0.0510620451
H  H61  1  0.52615000  0.63249000  0.83760000  1.0 0.1212989212
H  H62  1  0.63249000  0.83760000  0.52615000  1.0 0.1212989212
H  H63  1  0.83760000  0.52615000  0.63249000  1.0 0.1212989212
H  H64  1  0.47385000  0.36751000  0.16240000  1.0 0.1212989212
H  H65  1  0.36751000  0.16240000  0.47385000  1.0 0.1212989212
H  H66  1  0.16240000  0.47385000  0.36751000  1.0 0.1212989212
H  H67  1  0.43685000  0.69349000  0.77620000  1.0 0.0907909939
H  H68  1  0.69349000  0.77620000  0.43685000  1.0 0.0907909939
H  H69  1  0.77620000  0.43685000  0.69349000  1.0 0.0907909939
H  H70  1  0.56315000  0.30651000  0.22380000  1.0 0.0907909939
H  H71  1  0.30651000  0.22380000  0.56315000  1.0 0.0907909939
H  H72  1  0.22380000  0.56315000  0.30651000  1.0 0.0907909939
H  H73  1  0.47905000  0.75919000  0.73490000  1.0 0.0788029649
H  H74  1  0.75919000  0.73490000  0.47905000  1.0 0.0788029649
H  H75  1  0.73490000  0.47905000  0.75919000  1.0 0.0788029649
H  H76  1  0.52095000  0.24081000  0.26510000  1.0 0.0788029649
H  H77  1  0.24081000  0.26510000  0.52095000  1.0 0.0788029649
H  H78  1  0.26510000  0.52095000  0.24081000  1.0 0.0788029649
H  H79  1  0.38145000  0.77419000  0.80400000  1.0 0.0907909939
H  H80  1  0.77419000  0.80400000  0.38145000  1.0 0.0907909939
H  H81  1  0.80400000  0.38145000  0.77419000  1.0 0.0907909939
H  H82  1  0.61855000  0.22581000  0.19600000  1.0 0.0907909939
H  H83  1  0.22581000  0.19600000  0.61855000  1.0 0.0907909939
H  H84  1  0.19600000  0.61855000  0.22581000  1.0 0.0907909939
H  H85  1  0.36785000  0.77319000  0.96080000  1.0 0.0788029649
H  H86  1  0.77319000  0.96080000  0.36785000  1.0 0.0788029649
H  H87  1  0.96080000  0.36785000  0.77319000  1.0 0.0788029649
H  H88  1  0.63215000  0.22681000  0.03920000  1.0 0.0788029649
H  H89  1  0.22681000  0.03920000  0.63215000  1.0 0.0788029649
H  H90  1  0.03920000  0.63215000  0.22681000  1.0 0.0788029649
H  H91  1  0.44425000  0.76299000  0.96840000  1.0 0.0907909939
H  H92  1  0.76299000  0.96840000  0.44425000  1.0 0.0907909939
H  H93  1  0.96840000  0.44425000  0.76299000  1.0 0.0907909939
H  H94  1  0.55575000  0.23701000  0.03160000  1.0 0.0907909939
H  H95  1  0.23701000  0.03160000  0.55575000  1.0 0.0907909939
H  H96  1  0.03160000  0.55575000  0.23701000  1.0 0.0907909939
H  H97  1  0.35635000  0.69949000  0.10060000  1.0 0.1256602179
H  H98  1  0.69949000  0.10060000  0.35635000  1.0 0.1256602179
H  H99  1  0.10060000  0.35635000  0.69949000  1.0 0.1256602179
H  H100  1  0.64365000  0.30051000  0.89940000  1.0 0.1256602179
H  H101  1  0.30051000  0.89940000  0.64365000  1.0 0.1256602179
H  H102  1  0.89940000  0.64365000  0.30051000  1.0 0.1256602179
H  H103  1  0.45075000  0.62739000  0.07500000  1.0 0.1007046118
H  H104  1  0.62739000  0.07500000  0.45075000  1.0 0.1007046118
H  H105  1  0.07500000  0.45075000  0.62739000  1.0 0.1007046118
H  H106  1  0.54925000  0.37261000  0.92500000  1.0 0.1007046118
H  H107  1  0.37261000  0.92500000  0.54925000  1.0 0.1007046118
H  H108  1  0.92500000  0.54925000  0.37261000  1.0 0.1007046118
H  H109  1  0.37385000  0.63759000  0.06730000  1.0 0.059509247
H  H110  1  0.63759000  0.06730000  0.37385000  1.0 0.059509247
H  H111  1  0.06730000  0.37385000  0.63759000  1.0 0.059509247
H  H112  1  0.62615000  0.36241000  0.93270000  1.0 0.059509247
H  H113  1  0.36241000  0.93270000  0.62615000  1.0 0.059509247
H  H114  1  0.93270000  0.62615000  0.36241000  1.0 0.059509247
H  H115  1  0.31085000  0.31929000  0.62800000  1.0 0.0788029649
H  H116  1  0.31929000  0.62800000  0.31085000  1.0 0.0788029649
H  H117  1  0.62800000  0.31085000  0.31929000  1.0 0.0788029649
H  H118  1  0.68915000  0.68071000  0.37200000  1.0 0.0788029649
H  H119  1  0.68071000  0.37200000  0.68915000  1.0 0.0788029649
H  H120  1  0.37200000  0.68915000  0.68071000  1.0 0.0788029649
H  H121  1  0.24485000  0.32489000  0.72170000  1.0 0.0412497517
H  H122  1  0.32489000  0.72170000  0.24485000  1.0 0.0412497517
H  H123  1  0.72170000  0.24485000  0.32489000  1.0 0.0412497517
H  H124  1  0.75515000  0.67511000  0.27830000  1.0 0.0412497517
H  H125  1  0.67511000  0.27830000  0.75515000  1.0 0.0412497517
H  H126  1  0.27830000  0.75515000  0.67511000  1.0 0.0412497517
H  H127  1  0.34975000  0.25439000  0.76770000  1.0 0.0510620451
H  H128  1  0.25439000  0.76770000  0.34975000  1.0 0.0510620451
H  H129  1  0.76770000  0.34975000  0.25439000  1.0 0.0510620451
H  H130  1  0.65025000  0.74561000  0.23230000  1.0 0.0510620451
H  H131  1  0.74561000  0.23230000  0.65025000  1.0 0.0510620451
H  H132  1  0.23230000  0.65025000  0.74561000  1.0 0.0510620451
H  H133  1  0.41485000  0.20339000  0.70380000  1.0 0.059509247
H  H134  1  0.20339000  0.70380000  0.41485000  1.0 0.059509247
H  H135  1  0.70380000  0.41485000  0.20339000  1.0 0.059509247
H  H136  1  0.58515000  0.79661000  0.29620000  1.0 0.059509247
H  H137  1  0.79661000  0.29620000  0.58515000  1.0 0.059509247
H  H138  1  0.29620000  0.58515000  0.79661000  1.0 0.059509247
H  H139  1  0.27165000  0.28479000  0.77190000  1.0 0.0311045825
H  H140  1  0.28479000  0.77190000  0.27165000  1.0 0.0311045825
H  H141  1  0.77190000  0.27165000  0.28479000  1.0 0.0311045825
H  H142  1  0.72835000  0.71521000  0.22810000  1.0 0.0311045825
H  H143  1  0.71521000  0.22810000  0.72835000  1.0 0.0311045825
H  H144  1  0.22810000  0.72835000  0.71521000  1.0 0.0311045825
H  H145  1  0.28465000  0.32319000  0.67340000  1.0 0.0510620451
H  H146  1  0.32319000  0.67340000  0.28465000  1.0 0.0510620451
H  H147  1  0.67340000  0.28465000  0.32319000  1.0 0.0510620451
H  H148  1  0.71535000  0.67681000  0.32660000  1.0 0.0510620451
H  H149  1  0.67681000  0.32660000  0.71535000  1.0 0.0510620451
H  H150  1  0.32660000  0.71535000  0.67681000  1.0 0.0510620451
H  H151  1  0.42045000  0.21639000  0.73470000  1.0 0.0711172443
H  H152  1  0.21639000  0.73470000  0.42045000  1.0 0.0711172443
H  H153  1  0.73470000  0.42045000  0.21639000  1.0 0.0711172443
H  H154  1  0.57955000  0.78361000  0.26530000  1.0 0.0711172443
H  H155  1  0.78361000  0.26530000  0.57955000  1.0 0.0711172443
H  H156  1  0.26530000  0.57955000  0.78361000  1.0 0.0711172443
H  H157  1  0.43585000  0.24839000  0.63690000  1.0 0.059509247
H  H158  1  0.24839000  0.63690000  0.43585000  1.0 0.059509247
H  H159  1  0.63690000  0.43585000  0.24839000  1.0 0.059509247
H  H160  1  0.56415000  0.75161000  0.36310000  1.0 0.059509247
H  H161  1  0.75161000  0.36310000  0.56415000  1.0 0.059509247
H  H162  1  0.36310000  0.56415000  0.75161000  1.0 0.059509247
H  H163  1  0.63125000  0.60799000  0.85510000  1.0 0.0907909939
H  H164  1  0.60799000  0.85510000  0.63125000  1.0 0.0907909939
H  H165  1  0.85510000  0.63125000  0.60799000  1.0 0.0907909939
H  H166  1  0.36875000  0.39201000  0.14490000  1.0 0.0907909939
H  H167  1  0.39201000  0.14490000  0.36875000  1.0 0.0907909939
H  H168  1  0.14490000  0.36875000  0.39201000  1.0 0.0907909939
H  H169  1  0.42825000  0.77169000  0.86500000  1.0 0.0907909939
H  H170  1  0.77169000  0.86500000  0.42825000  1.0 0.0907909939
H  H171  1  0.86500000  0.42825000  0.77169000  1.0 0.0907909939
H  H172  1  0.57175000  0.22831000  0.13500000  1.0 0.0907909939
H  H173  1  0.22831000  0.13500000  0.57175000  1.0 0.0907909939
H  H174  1  0.13500000  0.57175000  0.22831000  1.0 0.0907909939
H  H175  1  0.38725000  0.71119000  0.89390000  1.0 0.0788029649
H  H176  1  0.71119000  0.89390000  0.38725000  1.0 0.0788029649
H  H177  1  0.89390000  0.38725000  0.71119000  1.0 0.0788029649
H  H178  1  0.61275000  0.28881000  0.10610000  1.0 0.0788029649
H  H179  1  0.28881000  0.10610000  0.61275000  1.0 0.0788029649
H  H180  1  0.10610000  0.61275000  0.28881000  1.0 0.0788029649
H  H181  1  0.37135000  0.82599000  0.77280000  1.0 0.1091199439
H  H182  1  0.82599000  0.77280000  0.37135000  1.0 0.1091199439
H  H183  1  0.77280000  0.37135000  0.82599000  1.0 0.1091199439
H  H184  1  0.62865000  0.17401000  0.22720000  1.0 0.1091199439
H  H185  1  0.17401000  0.22720000  0.62865000  1.0 0.1091199439
H  H186  1  0.22720000  0.62865000  0.17401000  1.0 0.1091199439
H  H187  1  0.43235000  0.73999000  0.75250000  1.0 0.0788029649
H  H188  1  0.73999000  0.75250000  0.43235000  1.0 0.0788029649
H  H189  1  0.75250000  0.43235000  0.73999000  1.0 0.0788029649
H  H190  1  0.56765000  0.26001000  0.24750000  1.0 0.0788029649
H  H191  1  0.26001000  0.24750000  0.56765000  1.0 0.0788029649
H  H192  1  0.24750000  0.56765000  0.26001000  1.0 0.0788029649
H  H193  1  0.47375000  0.80109000  0.72320000  1.0 0.0788029649
H  H194  1  0.80109000  0.72320000  0.47375000  1.0 0.0788029649
H  H195  1  0.72320000  0.47375000  0.80109000  1.0 0.0788029649
H  H196  1  0.52625000  0.19891000  0.27680000  1.0 0.0788029649
H  H197  1  0.19891000  0.27680000  0.52625000  1.0 0.0788029649
H  H198  1  0.27680000  0.52625000  0.19891000  1.0 0.0788029649
H  H199  1  0.47245000  0.56529000  0.90510000  1.0 0.059509247
H  H200  1  0.56529000  0.90510000  0.47245000  1.0 0.059509247
H  H201  1  0.90510000  0.47245000  0.56529000  1.0 0.059509247
H  H202  1  0.52755000  0.43471000  0.09490000  1.0 0.059509247
H  H203  1  0.43471000  0.09490000  0.52755000  1.0 0.059509247
H  H204  1  0.09490000  0.52755000  0.43471000  1.0 0.059509247
H  H205  1  0.56005000  0.52049000  0.91840000  1.0 0.0788029649
H  H206  1  0.52049000  0.91840000  0.56005000  1.0 0.0788029649
H  H207  1  0.91840000  0.56005000  0.52049000  1.0 0.0788029649
H  H208  1  0.43995000  0.47951000  0.08160000  1.0 0.0788029649
H  H209  1  0.47951000  0.08160000  0.43995000  1.0 0.0788029649
H  H210  1  0.08160000  0.43995000  0.47951000  1.0 0.0788029649
H  H211  1  0.44555000  0.49989000  0.05260000  1.0 0.0711172443
H  H212  1  0.49989000  0.05260000  0.44555000  1.0 0.0711172443
H  H213  1  0.05260000  0.44555000  0.49989000  1.0 0.0711172443
H  H214  1  0.55445000  0.50011000  0.94740000  1.0 0.0711172443
H  H215  1  0.50011000  0.94740000  0.55445000  1.0 0.0711172443
H  H216  1  0.94740000  0.55445000  0.50011000  1.0 0.0711172443
H  H217  1  0.39365000  0.60239000  0.02540000  1.0 0.059509247
H  H218  1  0.60239000  0.02540000  0.39365000  1.0 0.059509247
H  H219  1  0.02540000  0.39365000  0.60239000  1.0 0.059509247
H  H220  1  0.60635000  0.39761000  0.97460000  1.0 0.059509247
H  H221  1  0.39761000  0.97460000  0.60635000  1.0 0.059509247
H  H222  1  0.97460000  0.60635000  0.39761000  1.0 0.059509247
H  H223  1  0.48115000  0.55779000  0.03860000  1.0 0.059509247
H  H224  1  0.55779000  0.03860000  0.48115000  1.0 0.059509247
H  H225  1  0.03860000  0.48115000  0.55779000  1.0 0.059509247
H  H226  1  0.51885000  0.44221000  0.96140000  1.0 0.059509247
H  H227  1  0.44221000  0.96140000  0.51885000  1.0 0.059509247
H  H228  1  0.96140000  0.51885000  0.44221000  1.0 0.059509247
C  C1  1  0.17552000  0.82878000  0.90440000  1.0 0.0510620451
C  C2  1  0.82878000  0.90440000  0.17552000  1.0 0.0510620451
C  C3  1  0.90440000  0.17552000  0.82878000  1.0 0.0510620451
C  C4  1  0.82448000  0.17122000  0.09560000  1.0 0.0510620451
C  C5  1  0.17122000  0.09560000  0.82448000  1.0 0.0510620451
C  C6  1  0.09560000  0.82448000  0.17122000  1.0 0.0510620451
C  C7  1  0.20643000  0.82991000  0.95150000  1.0 -0.0877588851
C  C8  1  0.82991000  0.95150000  0.20643000  1.0 -0.0829088311
C  C9  1  0.95150000  0.20643000  0.82991000  1.0 -0.0829088311
C  C10  1  0.79357000  0.17009000  0.04850000  1.0 -0.0829088311
C  C11  1  0.17009000  0.04850000  0.79357000  1.0 -0.0829088311
C  C12  1  0.04850000  0.79357000  0.17009000  1.0 -0.0877588851
C  C13  1  0.22868000  0.90394000  0.90025000  1.0 -0.0023431231
C  C14  1  0.90394000  0.90025000  0.22868000  1.0 -0.0023431231
C  C15  1  0.90025000  0.22868000  0.90394000  1.0 -0.0023431231
C  C16  1  0.77132000  0.09606000  0.09975000  1.0 -0.0023431231
C  C17  1  0.09606000  0.09975000  0.77132000  1.0 -0.0023431231
C  C18  1  0.09975000  0.77132000  0.09606000  1.0 -0.0023431231
C  C19  1  0.22321000  0.94177000  0.94064000  1.0 -0.0078768638
C  C20  1  0.94177000  0.94064000  0.22321000  1.0 -0.0078768638
C  C21  1  0.94064000  0.22321000  0.94177000  1.0 -0.0078768638
C  C22  1  0.77679000  0.05823000  0.05936000  1.0 -0.0078768638
C  C23  1  0.05823000  0.05936000  0.77679000  1.0 -0.0078768638
C  C24  1  0.05936000  0.77679000  0.05823000  1.0 -0.0078768638
C  C25  1  0.19066000  0.90853000  0.03343000  1.0 -0.0078768638
C  C26  1  0.90853000  0.03343000  0.19066000  1.0 -0.0078768638
C  C27  1  0.03343000  0.19066000  0.90853000  1.0 -0.0078768638
C  C28  1  0.80934000  0.09147000  0.96657000  1.0 -0.0078768638
C  C29  1  0.09147000  0.96657000  0.80934000  1.0 -0.0078768638
C  C30  1  0.96657000  0.80934000  0.09147000  1.0 -0.0078768638
C  C31  1  0.16875000  0.83584000  0.08402000  1.0 -0.1007699113
C  C32  1  0.83584000  0.08402000  0.16875000  1.0 -0.1007699113
C  C33  1  0.08402000  0.16875000  0.83584000  1.0 -0.1007699113
C  C34  1  0.83125000  0.16416000  0.91598000  1.0 -0.1007699113
C  C35  1  0.16416000  0.91598000  0.83125000  1.0 -0.1007699113
C  C36  1  0.91598000  0.83125000  0.16416000  1.0 -0.1007699113
C  C37  1  0.17442000  0.79811000  0.04162000  1.0 -0.0611803647
C  C38  1  0.79811000  0.04162000  0.17442000  1.0 -0.0611803647
C  C39  1  0.04162000  0.17442000  0.79811000  1.0 -0.0611803647
C  C40  1  0.82558000  0.20189000  0.95838000  1.0 -0.0611803647
C  C41  1  0.20189000  0.95838000  0.82558000  1.0 -0.0611803647
C  C42  1  0.95838000  0.82558000  0.20189000  1.0 -0.0611803647
C  C43  1  0.13584000  0.98381000  0.05979000  1.0 0.0017521489
C  C44  1  0.98381000  0.05979000  0.13584000  1.0 0.0017521489
C  C45  1  0.05979000  0.13584000  0.98381000  1.0 0.0017521489
C  C46  1  0.86416000  0.01619000  0.94021000  1.0 0.0017521489
C  C47  1  0.01619000  0.94021000  0.86416000  1.0 0.0017521489
C  C48  1  0.94021000  0.86416000  0.01619000  1.0 0.0017521489
C  C49  1  0.13655000  0.06134000  0.98324000  1.0 -0.0689520337
C  C50  1  0.06134000  0.98324000  0.13655000  1.0 -0.0689520337
C  C51  1  0.98324000  0.13655000  0.06134000  1.0 -0.0689520337
C  C52  1  0.86345000  0.93866000  0.01676000  1.0 -0.0689520337
C  C53  1  0.93866000  0.01676000  0.86345000  1.0 -0.0689520337
C  C54  1  0.01676000  0.86345000  0.93866000  1.0 -0.0689520337
C  C55  1  0.19923000  0.03741000  0.90594000  1.0 0.0510620451
C  C56  1  0.03741000  0.90594000  0.19923000  1.0 0.0510620451
C  C57  1  0.90594000  0.19923000  0.03741000  1.0 0.0510620451
C  C58  1  0.80077000  0.96259000  0.09406000  1.0 0.0510620451
C  C59  1  0.96259000  0.09406000  0.80077000  1.0 0.0510620451
C  C60  1  0.09406000  0.80077000  0.96259000  1.0 0.0510620451
C  C61  1  0.25113000  0.08923000  0.81710000  1.0 -0.2287138332
C  C62  1  0.08923000  0.81710000  0.25113000  1.0 -0.2287138332
C  C63  1  0.81710000  0.25113000  0.08923000  1.0 -0.2287138332
C  C64  1  0.74887000  0.91077000  0.18290000  1.0 -0.2287138332
C  C65  1  0.91077000  0.18290000  0.74887000  1.0 -0.2287138332
C  C66  1  0.18290000  0.74887000  0.91077000  1.0 -0.2287138332
C  C67  1  0.34074000  0.03498000  0.76959000  1.0 0.307310027
C  C68  1  0.03498000  0.76959000  0.34074000  1.0 0.307310027
C  C69  1  0.76959000  0.34074000  0.03498000  1.0 0.307310027
C  C70  1  0.65926000  0.96502000  0.23041000  1.0 0.307310027
C  C71  1  0.96502000  0.23041000  0.65926000  1.0 0.307310027
C  C72  1  0.23041000  0.65926000  0.96502000  1.0 0.307310027
C  C73  1  0.48731000  0.96065000  0.75756000  1.0 -0.0877588851
C  C74  1  0.96065000  0.75756000  0.48731000  1.0 -0.0877588851
C  C75  1  0.75756000  0.48731000  0.96065000  1.0 -0.0877588851
C  C76  1  0.51269000  0.03935000  0.24244000  1.0 -0.0877588851
C  C77  1  0.03935000  0.24244000  0.51269000  1.0 -0.0877588851
C  C78  1  0.24244000  0.51269000  0.03935000  1.0 -0.0877588851
C  C79  1  0.53566000  0.95140000  0.79391000  1.0 -0.3582008063
C  C80  1  0.95140000  0.79391000  0.53566000  1.0 -0.3582008063
C  C81  1  0.79391000  0.53566000  0.95140000  1.0 -0.3582008063
C  C82  1  0.46434000  0.04860000  0.20609000  1.0 -0.3582008063
C  C83  1  0.04860000  0.20609000  0.46434000  1.0 -0.3582008063
C  C84  1  0.20609000  0.46434000  0.04860000  1.0 -0.3582008063
C  C85  1  0.62805000  0.88269000  0.77620000  1.0 0.6427921128
C  C86  1  0.88269000  0.77620000  0.62805000  1.0 0.6427921128
C  C87  1  0.77620000  0.62805000  0.88269000  1.0 0.6427921128
C  C88  1  0.37195000  0.11731000  0.22380000  1.0 0.6427921128
C  C89  1  0.11731000  0.22380000  0.37195000  1.0 0.6427921128
C  C90  1  0.22380000  0.37195000  0.11731000  1.0 0.6427921128
C  C91  1  0.24886000  0.16980000  0.80441000  1.0 0.3249744248
C  C92  1  0.16980000  0.80441000  0.24886000  1.0 0.3256399404
C  C93  1  0.80441000  0.24886000  0.16980000  1.0 0.3249744248
C  C94  1  0.75114000  0.83020000  0.19559000  1.0 0.3249744248
C  C95  1  0.83020000  0.19559000  0.75114000  1.0 0.3249744248
C  C96  1  0.19559000  0.75114000  0.83020000  1.0 0.3249744248
C  C97  1  0.30385000  0.28459000  0.68860000  1.0 0.0311045825
C  C98  1  0.28459000  0.68860000  0.30385000  1.0 0.0311045825
C  C99  1  0.68860000  0.30385000  0.28459000  1.0 0.0311045825
C  C100  1  0.69615000  0.71541000  0.31140000  1.0 0.0311045825
C  C101  1  0.71541000  0.31140000  0.69615000  1.0 0.0311045825
C  C102  1  0.31140000  0.69615000  0.71541000  1.0 0.0311045825
C  C103  1  0.39545000  0.25099000  0.67410000  1.0 -0.0689520337
C  C104  1  0.25099000  0.67410000  0.39545000  1.0 -0.0689520337
C  C105  1  0.67410000  0.39545000  0.25099000  1.0 -0.0689520337
C  C106  1  0.60455000  0.74901000  0.32590000  1.0 -0.0689520337
C  C107  1  0.74901000  0.32590000  0.60455000  1.0 -0.0689520337
C  C108  1  0.32590000  0.60455000  0.74901000  1.0 -0.0689520337
C  C109  1  0.42505000  0.32869000  0.62530000  1.0 0.307310027
C  C110  1  0.32869000  0.62530000  0.42505000  1.0 0.307310027
C  C111  1  0.62530000  0.42505000  0.32869000  1.0 0.307310027
C  C112  1  0.57495000  0.67131000  0.37470000  1.0 0.307310027
C  C113  1  0.67131000  0.37470000  0.57495000  1.0 0.307310027
C  C114  1  0.37470000  0.57495000  0.67131000  1.0 0.307310027
C  C115  1  0.56655000  0.69639000  0.86170000  1.0 0.1256602179
C  C116  1  0.69639000  0.86170000  0.56655000  1.0 0.1256602179
C  C117  1  0.86170000  0.56655000  0.69639000  1.0 0.1256602179
C  C118  1  0.43345000  0.30361000  0.13830000  1.0 0.1256602179
C  C119  1  0.30361000  0.13830000  0.43345000  1.0 0.1256602179
C  C120  1  0.13830000  0.43345000  0.30361000  1.0 0.1256602179
C  C121  1  0.47045000  0.67759000  0.85750000  1.0 0.0412497517
C  C122  1  0.67759000  0.85750000  0.47045000  1.0 0.0412497517
C  C123  1  0.85750000  0.47045000  0.67759000  1.0 0.0412497517
C  C124  1  0.52955000  0.32241000  0.14250000  1.0 0.0412497517
C  C125  1  0.32241000  0.14250000  0.52955000  1.0 0.0412497517
C  C126  1  0.14250000  0.52955000  0.32241000  1.0 0.0412497517
C  C127  1  0.43945000  0.73049000  0.78730000  1.0 -0.2014076192
C  C128  1  0.73049000  0.78730000  0.43945000  1.0 -0.2014076192
C  C129  1  0.78730000  0.43945000  0.73049000  1.0 -0.2014076192
C  C130  1  0.56055000  0.26951000  0.21270000  1.0 -0.2014076192
C  C131  1  0.26951000  0.21270000  0.56055000  1.0 -0.2014076192
C  C132  1  0.21270000  0.56055000  0.26951000  1.0 -0.2014076192
C  C133  1  0.42195000  0.73089000  0.97210000  1.0 -0.2485036928
C  C134  1  0.73089000  0.97210000  0.42195000  1.0 -0.2485036928
C  C135  1  0.97210000  0.42195000  0.73089000  1.0 -0.2485036928
C  C136  1  0.57805000  0.26911000  0.02790000  1.0 -0.2485036928
C  C137  1  0.26911000  0.02790000  0.57805000  1.0 -0.2485036928
C  C138  1  0.02790000  0.57805000  0.26911000  1.0 -0.2485036928
C  C139  1  0.39875000  0.66869000  0.06110000  1.0 -0.4449568916
C  C140  1  0.66869000  0.06110000  0.39875000  1.0 -0.4449568916
C  C141  1  0.06110000  0.39875000  0.66869000  1.0 -0.4460952182
C  C142  1  0.60125000  0.33131000  0.93890000  1.0 -0.4460952182
C  C143  1  0.33131000  0.93890000  0.60125000  1.0 -0.4460952182
C  C144  1  0.93890000  0.60125000  0.33131000  1.0 -0.4460952182
C  C145  1  0.29945000  0.28649000  0.69050000  1.0 0.0311045825
C  C146  1  0.28649000  0.69050000  0.29945000  1.0 0.0311045825
C  C147  1  0.69050000  0.29945000  0.28649000  1.0 0.0311045825
C  C148  1  0.70055000  0.71351000  0.30950000  1.0 0.0311045825
C  C149  1  0.71351000  0.30950000  0.70055000  1.0 0.0311045825
C  C150  1  0.30950000  0.70055000  0.71351000  1.0 0.0311045825
C  C151  1  0.37165000  0.26069000  0.70770000  1.0 -0.0611803647
C  C152  1  0.26069000  0.70770000  0.37165000  1.0 -0.0611803647
C  C153  1  0.70770000  0.37165000  0.26069000  1.0 -0.0611803647
C  C154  1  0.62835000  0.73931000  0.29230000  1.0 -0.0611803647
C  C155  1  0.73931000  0.29230000  0.62835000  1.0 -0.0611803647
C  C156  1  0.29230000  0.62835000  0.73931000  1.0 -0.0611803647
C  C157  1  0.41645000  0.32819000  0.64190000  1.0 0.3021940064
C  C158  1  0.32819000  0.64190000  0.41645000  1.0 0.3021940064
C  C159  1  0.64190000  0.41645000  0.32819000  1.0 0.3021940064
C  C160  1  0.58355000  0.67181000  0.35810000  1.0 0.3021940064
C  C161  1  0.67181000  0.35810000  0.58355000  1.0 0.3021940064
C  C162  1  0.35810000  0.58355000  0.67181000  1.0 0.3021940064
C  C163  1  0.30915000  0.27359000  0.71800000  1.0 0.0089854213
C  C164  1  0.27359000  0.71800000  0.30915000  1.0 0.0089854213
C  C165  1  0.71800000  0.30915000  0.27359000  1.0 0.0089854213
C  C166  1  0.69085000  0.72641000  0.28200000  1.0 0.0089854213
C  C167  1  0.72641000  0.28200000  0.69085000  1.0 0.0089854213
C  C168  1  0.28200000  0.69085000  0.72641000  1.0 0.0089854213
C  C169  1  0.39685000  0.26389000  0.68890000  1.0 -0.0829088311
C  C170  1  0.26389000  0.68890000  0.39685000  1.0 -0.0829088311
C  C171  1  0.68890000  0.39685000  0.26389000  1.0 -0.0829088311
C  C172  1  0.60315000  0.73611000  0.31110000  1.0 -0.0829088311
C  C173  1  0.73611000  0.31110000  0.60315000  1.0 -0.0829088311
C  C174  1  0.31110000  0.60315000  0.73611000  1.0 -0.0829088311
C  C175  1  0.39525000  0.35179000  0.66560000  1.0 0.2778074812
C  C176  1  0.35179000  0.66560000  0.39525000  1.0 0.2778074812
C  C177  1  0.66560000  0.39525000  0.35179000  1.0 0.2778074812
C  C178  1  0.60475000  0.64821000  0.33440000  1.0 0.2778074812
C  C179  1  0.64821000  0.33440000  0.60475000  1.0 0.2778074812
C  C180  1  0.33440000  0.60475000  0.64821000  1.0 0.2778074812
C  C181  1  0.58745000  0.65909000  0.83490000  1.0 0.0788029649
C  C182  1  0.65909000  0.83490000  0.58745000  1.0 0.0788029649
C  C183  1  0.83490000  0.58745000  0.65909000  1.0 0.0788029649
C  C184  1  0.41255000  0.34091000  0.16510000  1.0 0.0788029649
C  C185  1  0.34091000  0.16510000  0.41255000  1.0 0.0788029649
C  C186  1  0.16510000  0.41255000  0.34091000  1.0 0.0788029649
C  C187  1  0.43755000  0.72899000  0.85100000  1.0 0.0089854213
C  C188  1  0.72899000  0.85100000  0.43755000  1.0 0.0089854213
C  C189  1  0.85100000  0.43755000  0.72899000  1.0 0.0089854213
C  C190  1  0.56245000  0.27101000  0.14900000  1.0 0.0089854213
C  C191  1  0.27101000  0.14900000  0.56245000  1.0 0.0089854213
C  C192  1  0.14900000  0.56245000  0.27101000  1.0 0.0089854213
C  C193  1  0.42795000  0.77809000  0.76800000  1.0 -0.2138800848
C  C194  1  0.77809000  0.76800000  0.42795000  1.0 -0.2138800848
C  C195  1  0.76800000  0.42795000  0.77809000  1.0 -0.2138800848
C  C196  1  0.57205000  0.22191000  0.23200000  1.0 -0.2138800848
C  C197  1  0.22191000  0.23200000  0.57205000  1.0 -0.2138800848
C  C198  1  0.23200000  0.57205000  0.22191000  1.0 -0.2138800848
C  C199  1  0.50225000  0.56789000  0.92520000  1.0 -0.1689868499
C  C200  1  0.56789000  0.92520000  0.50225000  1.0 -0.1689868499
C  C201  1  0.92520000  0.50225000  0.56789000  1.0 -0.1689868499
C  C202  1  0.49775000  0.43211000  0.07480000  1.0 -0.1689868499
C  C203  1  0.43211000  0.07480000  0.49775000  1.0 -0.1689868499
C  C204  1  0.07480000  0.49775000  0.43211000  1.0 -0.1689868499
C  C205  1  0.45125000  0.55589000  0.01850000  1.0 -0.3880923022
C  C206  1  0.55589000  0.01850000  0.45125000  1.0 -0.3880923022
C  C207  1  0.01850000  0.45125000  0.55589000  1.0 -0.3880923022
C  C208  1  0.54875000  0.44411000  0.98150000  1.0 -0.3880923022
C  C209  1  0.44411000  0.98150000  0.54875000  1.0 -0.3880923022
C  C210  1  0.98150000  0.54875000  0.44411000  1.0 -0.3880923022
N  N1  1  0.48645000  0.69809000  0.89990000  1.0 0.1424367623
N  N2  1  0.69809000  0.89990000  0.48645000  1.0 0.1424367623
N  N3  1  0.89990000  0.48645000  0.69809000  1.0 0.1424367623
N  N4  1  0.51355000  0.30191000  0.10010000  1.0 0.1424367623
N  N5  1  0.30191000  0.10010000  0.51355000  1.0 0.1424367623
N  N6  1  0.10010000  0.51355000  0.30191000  1.0 0.1424367623
N  N7  1  0.51205000  0.65259000  0.87150000  1.0 0.0907909939
N  N8  1  0.65259000  0.87150000  0.51205000  1.0 0.0907909939
N  N9  1  0.87150000  0.51205000  0.65259000  1.0 0.0907909939
N  N10  1  0.48795000  0.34741000  0.12850000  1.0 0.0907909939
N  N11  1  0.34741000  0.12850000  0.48795000  1.0 0.0907909939
N  N12  1  0.12850000  0.48795000  0.34741000  1.0 0.0907909939
O  O1  1  0.35888000  0.01262000  0.71843000  1.0 -0.4460952182
O  O2  1  0.01262000  0.71843000  0.35888000  1.0 -0.4460952182
O  O3  1  0.71843000  0.35888000  0.01262000  1.0 -0.4460952182
O  O4  1  0.64112000  0.98738000  0.28157000  1.0 -0.4460952182
O  O5  1  0.98738000  0.28157000  0.64112000  1.0 -0.4460952182
O  O6  1  0.28157000  0.64112000  0.98738000  1.0 -0.4460952182
O  O7  1  0.39641000  0.01395000  0.79576000  1.0 -0.3744822819
O  O8  1  0.01395000  0.79576000  0.39641000  1.0 -0.3744822819
O  O9  1  0.79576000  0.39641000  0.01395000  1.0 -0.3744822819
O  O10  1  0.60359000  0.98605000  0.20424000  1.0 -0.3744822819
O  O11  1  0.98605000  0.20424000  0.60359000  1.0 -0.3744822819
O  O12  1  0.20424000  0.60359000  0.98605000  1.0 -0.3744822819
O  O13  1  0.65514000  0.84618000  0.73129000  1.0 -0.5797837902
O  O14  1  0.84618000  0.73129000  0.65514000  1.0 -0.5797837902
O  O15  1  0.73129000  0.65514000  0.84618000  1.0 -0.5797837902
O  O16  1  0.34486000  0.15382000  0.26871000  1.0 -0.5797837902
O  O17  1  0.15382000  0.26871000  0.34486000  1.0 -0.5797837902
O  O18  1  0.26871000  0.34486000  0.15382000  1.0 -0.5797837902
O  O19  1  0.67085000  0.87009000  0.80900000  1.0 -0.5739738771
O  O20  1  0.87009000  0.80900000  0.67085000  1.0 -0.5739738771
O  O21  1  0.80900000  0.67085000  0.87009000  1.0 -0.5739738771
O  O22  1  0.32915000  0.12991000  0.19100000  1.0 -0.5739738771
O  O23  1  0.12991000  0.19100000  0.32915000  1.0 -0.5739738771
O  O24  1  0.19100000  0.32915000  0.12991000  1.0 -0.5739738771
O  O25  1  0.21335000  0.19739000  0.85850000  1.0 -0.0515803077
O  O26  1  0.19739000  0.85850000  0.21335000  1.0 -0.0515803077
O  O27  1  0.85850000  0.21335000  0.19739000  1.0 -0.0515803077
O  O28  1  0.78665000  0.80261000  0.14150000  1.0 -0.0515803077
O  O29  1  0.80261000  0.14150000  0.78665000  1.0 -0.0515803077
O  O30  1  0.14150000  0.78665000  0.80261000  1.0 -0.0515803077
O  O31  1  0.28305000  0.21219000  0.72030000  1.0 -0.1862113951
O  O32  1  0.21219000  0.72030000  0.28305000  1.0 -0.1862113951
O  O33  1  0.72030000  0.28305000  0.21219000  1.0 -0.1862113951
O  O34  1  0.71695000  0.78781000  0.27970000  1.0 -0.1862113951
O  O35  1  0.78781000  0.27970000  0.71695000  1.0 -0.1862113951
O  O36  1  0.27970000  0.71695000  0.78781000  1.0 -0.1862113951
O  O37  1  0.36815000  0.40199000  0.62300000  1.0 -0.1527292856
O  O38  1  0.40199000  0.62300000  0.36815000  1.0 -0.1527292856
O  O39  1  0.62300000  0.36815000  0.40199000  1.0 -0.1527292856
O  O40  1  0.63185000  0.59801000  0.37700000  1.0 -0.1527292856
O  O41  1  0.59801000  0.37700000  0.63185000  1.0 -0.1527292856
O  O42  1  0.37700000  0.63185000  0.59801000  1.0 -0.1527292856
O  O43  1  0.50665000  0.30699000  0.59330000  1.0 -0.2867878208
O  O44  1  0.30699000  0.59330000  0.50665000  1.0 -0.2867878208
O  O45  1  0.59330000  0.50665000  0.30699000  1.0 -0.2867878208
O  O46  1  0.49335000  0.69301000  0.40670000  1.0 -0.2867878208
O  O47  1  0.69301000  0.40670000  0.49335000  1.0 -0.2867878208
O  O48  1  0.40670000  0.49335000  0.69301000  1.0 -0.2867878208
O  O49  1  0.60575000  0.71539000  0.78430000  1.0 -0.3036027579
O  O50  1  0.71539000  0.78430000  0.60575000  1.0 -0.3036027579
O  O51  1  0.78430000  0.60575000  0.71539000  1.0 -0.3036027579
O  O52  1  0.39425000  0.28461000  0.21570000  1.0 -0.3036027579
O  O53  1  0.28461000  0.21570000  0.39425000  1.0 -0.3036027579
O  O54  1  0.21570000  0.39425000  0.28461000  1.0 -0.3036027579
O  O55  1  0.50000000  0.50000000  0.50000000  1.0 -0.4942912389
O  O56  1  0.23905000  0.17709000  0.86210000  1.0 -0.0416718022
O  O57  1  0.17709000  0.86210000  0.23905000  1.0 -0.0416718022
O  O58  1  0.86210000  0.23905000  0.17709000  1.0 -0.0416718022
O  O59  1  0.76095000  0.82291000  0.13790000  1.0 -0.0416718022
O  O60  1  0.82291000  0.13790000  0.76095000  1.0 -0.0416718022
O  O61  1  0.13790000  0.76095000  0.82291000  1.0 -0.0416718022
O  O62  1  0.28895000  0.20799000  0.72100000  1.0 -0.2014076192
O  O63  1  0.20799000  0.72100000  0.28895000  1.0 -0.2014076192
O  O64  1  0.72100000  0.28895000  0.20799000  1.0 -0.2014076192
O  O65  1  0.71105000  0.79201000  0.27900000  1.0 -0.2014076192
O  O66  1  0.79201000  0.27900000  0.71105000  1.0 -0.2014076192
O  O67  1  0.27900000  0.71105000  0.79201000  1.0 -0.2014076192
O  O68  1  0.41605000  0.37389000  0.56780000  1.0 -0.1359418783
O  O69  1  0.37389000  0.56780000  0.41605000  1.0 -0.1359418783
O  O70  1  0.56780000  0.41605000  0.37389000  1.0 -0.1359418783
O  O71  1  0.58395000  0.62611000  0.43220000  1.0 -0.1359418783
O  O72  1  0.62611000  0.43220000  0.58395000  1.0 -0.1359418783
O  O73  1  0.43220000  0.58395000  0.62611000  1.0 -0.1359418783
O  O74  1  0.45855000  0.32159000  0.67060000  1.0 -0.1154271045
O  O75  1  0.32159000  0.67060000  0.45855000  1.0 -0.1154271045
O  O76  1  0.67060000  0.45855000  0.32159000  1.0 -0.1154271045
O  O77  1  0.54145000  0.67841000  0.32940000  1.0 -0.1154271045
O  O78  1  0.67841000  0.32940000  0.54145000  1.0 -0.1154271045
O  O79  1  0.32940000  0.54145000  0.67841000  1.0 -0.1154271045
O  O80  1  0.19125000  0.21329000  0.84730000  1.0 -0.0416718022
O  O81  1  0.21329000  0.84730000  0.19125000  1.0 -0.0416718022
O  O82  1  0.84730000  0.19125000  0.21329000  1.0 -0.0416718022
O  O83  1  0.80875000  0.78671000  0.15270000  1.0 -0.0416718022
O  O84  1  0.78671000  0.15270000  0.80875000  1.0 -0.0416718022
O  O85  1  0.15270000  0.80875000  0.78671000  1.0 -0.0416718022
O  O86  1  0.31235000  0.19289000  0.73370000  1.0 0.0089854213
O  O87  1  0.19289000  0.73370000  0.31235000  1.0 0.0089854213
O  O88  1  0.73370000  0.31235000  0.19289000  1.0 0.0089854213
O  O89  1  0.68765000  0.80711000  0.26630000  1.0 0.0089854213
O  O90  1  0.80711000  0.26630000  0.68765000  1.0 0.0089854213
O  O91  1  0.26630000  0.68765000  0.80711000  1.0 0.0089854213
O  O92  1  0.35005000  0.42139000  0.62710000  1.0 -0.3105478216
O  O93  1  0.42139000  0.62710000  0.35005000  1.0 -0.3105478216
O  O94  1  0.62710000  0.35005000  0.42139000  1.0 -0.3105478216
O  O95  1  0.64995000  0.57861000  0.37290000  1.0 -0.3105478216
O  O96  1  0.57861000  0.37290000  0.64995000  1.0 -0.3105478216
O  O97  1  0.37290000  0.64995000  0.57861000  1.0 -0.3105478216
O  O98  1  0.44595000  0.33479000  0.69190000  1.0 -0.2014076192
O  O99  1  0.33479000  0.69190000  0.44595000  1.0 -0.2014076192
O  O100  1  0.69190000  0.44595000  0.33479000  1.0 -0.2014076192
O  O101  1  0.55405000  0.66521000  0.30810000  1.0 -0.2014076192
O  O102  1  0.66521000  0.30810000  0.55405000  1.0 -0.2014076192
O  O103  1  0.30810000  0.55405000  0.66521000  1.0 -0.2014076192
