# DDEC6 charges by PACMAN v1.1 (https://github.com/mtap-research/PACMAN-charge/)
data_OKAYAD_ASR_pacman
_symmetry_space_group_name_H-M   'P 1'
_cell_length_a   24.93720000
_cell_length_b   24.93720000
_cell_length_c   13.71440000
_cell_angle_alpha   90.00000000
_cell_angle_beta   90.00000000
_cell_angle_gamma   90.00000000
_symmetry_Int_Tables_number   1
_chemical_formula_structural   Eu3H116(C99O8)2
_chemical_formula_sum   'Eu6 H232 C396 O32'
_cell_volume   8528.49087140
_cell_formula_units_Z   2
loop_
 _symmetry_equiv_pos_site_id
 _symmetry_equiv_pos_as_xyz
  1  'x, y, z'
loop_
 _atom_site_type_symbol
 _atom_site_label
 _atom_site_symmetry_multiplicity
 _atom_site_fract_x
 _atom_site_fract_y
 _atom_site_fract_z
 _atom_site_occupancy
 _atom_site_charge
Eu  Eu1  1  0.50000000  0.50000000  0.70301000  1.0 2.184381144
Eu  Eu2  1  0.50000000  0.50000000  0.29699000  1.0 2.1855942177
Eu  Eu3  1  0.42388000  0.42388000  0.50000000  1.0 2.1309018301
Eu  Eu4  1  0.57612000  0.57612000  0.50000000  1.0 2.1309018301
Eu  Eu5  1  0.42388000  0.57612000  0.50000000  1.0 2.1309018301
Eu  Eu6  1  0.57612000  0.42388000  0.50000000  1.0 2.1309018301
H  H1  1  0.04185000  0.35694000  0.49815000  1.0 0.1615126597
H  H2  1  0.08191000  0.37466000  0.41287000  1.0 0.1218483587
H  H3  1  0.05017000  0.31905000  0.40520000  1.0 0.1218483587
H  H4  1  0.96791000  0.46133000  0.42362000  1.0 0.0909637174
H  H5  1  0.09536000  0.53171000  0.27801000  1.0 0.136318857
H  H6  1  0.35406000  0.49620000  0.19358000  1.0 0.1454687135
H  H7  1  0.27475000  0.50143000  0.09969000  1.0 0.1615126597
H  H8  1  0.25321000  0.41865000  0.42848000  1.0 0.136318857
H  H9  1  0.19143000  0.37068000  0.33122000  1.0 0.1101112571
H  H10  1  0.11467000  0.37077000  0.23100000  1.0 0.1045164334
H  H11  1  0.18417000  0.47180000  0.07821000  1.0 0.1101112571
H  H12  1  0.22376000  0.30944000  0.23394000  1.0 0.136318857
H  H13  1  0.14221000  0.31899000  0.15040000  1.0 0.1218483587
H  H14  1  0.31748000  0.34156000  0.26337000  1.0 0.0909637174
H  H15  1  0.95815000  0.64306000  0.49815000  1.0 0.1615126597
H  H16  1  0.91809000  0.62534000  0.41287000  1.0 0.1218483587
H  H17  1  0.94983000  0.68095000  0.40520000  1.0 0.1218483587
H  H18  1  0.03209000  0.53867000  0.42362000  1.0 0.0909637174
H  H19  1  0.90464000  0.46829000  0.27801000  1.0 0.136318857
H  H20  1  0.64594000  0.50380000  0.19358000  1.0 0.1454687135
H  H21  1  0.72525000  0.49857000  0.09969000  1.0 0.1615126597
H  H22  1  0.74679000  0.58135000  0.42848000  1.0 0.136318857
H  H23  1  0.80857000  0.62932000  0.33122000  1.0 0.1101112571
H  H24  1  0.88533000  0.62923000  0.23100000  1.0 0.1045164334
H  H25  1  0.81583000  0.52820000  0.07821000  1.0 0.1101112571
H  H26  1  0.77624000  0.69056000  0.23394000  1.0 0.136318857
H  H27  1  0.85779000  0.68101000  0.15040000  1.0 0.1218483587
H  H28  1  0.68252000  0.65844000  0.26337000  1.0 0.0909637174
H  H29  1  0.35694000  0.95815000  0.49815000  1.0 0.1655326332
H  H30  1  0.37466000  0.91809000  0.41287000  1.0 0.1218483587
H  H31  1  0.31905000  0.94983000  0.40520000  1.0 0.1218483587
H  H32  1  0.46133000  0.03209000  0.42362000  1.0 0.0909637174
H  H33  1  0.53171000  0.90464000  0.27801000  1.0 0.136318857
H  H34  1  0.49620000  0.64594000  0.19358000  1.0 0.1454687135
H  H35  1  0.50143000  0.72525000  0.09969000  1.0 0.1615126597
H  H36  1  0.41865000  0.74679000  0.42848000  1.0 0.136318857
H  H37  1  0.37068000  0.80857000  0.33122000  1.0 0.1101112571
H  H38  1  0.37077000  0.88533000  0.23100000  1.0 0.1101112571
H  H39  1  0.47180000  0.81583000  0.07821000  1.0 0.1101112571
H  H40  1  0.30944000  0.77624000  0.23394000  1.0 0.136318857
H  H41  1  0.31899000  0.85779000  0.15040000  1.0 0.1218483587
H  H42  1  0.34156000  0.68252000  0.26337000  1.0 0.0909637174
H  H43  1  0.64306000  0.04185000  0.49815000  1.0 0.1615126597
H  H44  1  0.62534000  0.08191000  0.41287000  1.0 0.1218483587
H  H45  1  0.68095000  0.05017000  0.40520000  1.0 0.1218483587
H  H46  1  0.53867000  0.96791000  0.42362000  1.0 0.0909637174
H  H47  1  0.46829000  0.09536000  0.27801000  1.0 0.136318857
H  H48  1  0.50380000  0.35406000  0.19358000  1.0 0.1454687135
H  H49  1  0.49857000  0.27475000  0.09969000  1.0 0.1615126597
H  H50  1  0.58135000  0.25321000  0.42848000  1.0 0.136318857
H  H51  1  0.62932000  0.19143000  0.33122000  1.0 0.1101112571
H  H52  1  0.62923000  0.11467000  0.23100000  1.0 0.1045164334
H  H53  1  0.52820000  0.18417000  0.07821000  1.0 0.1101112571
H  H54  1  0.69056000  0.22376000  0.23394000  1.0 0.136318857
H  H55  1  0.68101000  0.14221000  0.15040000  1.0 0.1218483587
H  H56  1  0.65844000  0.31748000  0.26337000  1.0 0.0909637174
H  H57  1  0.04185000  0.64306000  0.50185000  1.0 0.1655326332
H  H58  1  0.08191000  0.62534000  0.58713000  1.0 0.1218483587
H  H59  1  0.05017000  0.68095000  0.59480000  1.0 0.1218483587
H  H60  1  0.96791000  0.53867000  0.57638000  1.0 0.0909637174
H  H61  1  0.09536000  0.46829000  0.72199000  1.0 0.136318857
H  H62  1  0.35406000  0.50380000  0.80642000  1.0 0.1454687135
H  H63  1  0.27475000  0.49857000  0.90031000  1.0 0.1615126597
H  H64  1  0.25321000  0.58135000  0.57152000  1.0 0.136318857
H  H65  1  0.19143000  0.62932000  0.66878000  1.0 0.1101112571
H  H66  1  0.11467000  0.62923000  0.76900000  1.0 0.1101112571
H  H67  1  0.18417000  0.52820000  0.92179000  1.0 0.1101112571
H  H68  1  0.22376000  0.69056000  0.76606000  1.0 0.136318857
H  H69  1  0.14221000  0.68101000  0.84960000  1.0 0.1218483587
H  H70  1  0.31748000  0.65844000  0.73663000  1.0 0.0909637174
H  H71  1  0.95815000  0.35694000  0.50185000  1.0 0.1615126597
H  H72  1  0.91809000  0.37466000  0.58713000  1.0 0.1218483587
H  H73  1  0.94983000  0.31905000  0.59480000  1.0 0.1218483587
H  H74  1  0.03209000  0.46133000  0.57638000  1.0 0.0909637174
H  H75  1  0.90464000  0.53171000  0.72199000  1.0 0.136318857
H  H76  1  0.64594000  0.49620000  0.80642000  1.0 0.1454687135
H  H77  1  0.72525000  0.50143000  0.90031000  1.0 0.1615126597
H  H78  1  0.74679000  0.41865000  0.57152000  1.0 0.136318857
H  H79  1  0.80857000  0.37068000  0.66878000  1.0 0.1101112571
H  H80  1  0.88533000  0.37077000  0.76900000  1.0 0.1045164334
H  H81  1  0.81583000  0.47180000  0.92179000  1.0 0.1101112571
H  H82  1  0.77624000  0.30944000  0.76606000  1.0 0.136318857
H  H83  1  0.85779000  0.31899000  0.84960000  1.0 0.1218483587
H  H84  1  0.68252000  0.34156000  0.73663000  1.0 0.0909637174
H  H85  1  0.35694000  0.04185000  0.50185000  1.0 0.1615126597
H  H86  1  0.37466000  0.08191000  0.58713000  1.0 0.1218483587
H  H87  1  0.31905000  0.05017000  0.59480000  1.0 0.1218483587
H  H88  1  0.46133000  0.96791000  0.57638000  1.0 0.0909637174
H  H89  1  0.53171000  0.09536000  0.72199000  1.0 0.136318857
H  H90  1  0.49620000  0.35406000  0.80642000  1.0 0.1454687135
H  H91  1  0.50143000  0.27475000  0.90031000  1.0 0.1615126597
H  H92  1  0.41865000  0.25321000  0.57152000  1.0 0.136318857
H  H93  1  0.37068000  0.19143000  0.66878000  1.0 0.1101112571
H  H94  1  0.37077000  0.11467000  0.76900000  1.0 0.1045164334
H  H95  1  0.47180000  0.18417000  0.92179000  1.0 0.1101112571
H  H96  1  0.30944000  0.22376000  0.76606000  1.0 0.136318857
H  H97  1  0.31899000  0.14221000  0.84960000  1.0 0.1218483587
H  H98  1  0.34156000  0.31748000  0.73663000  1.0 0.0909637174
H  H99  1  0.64306000  0.95815000  0.50185000  1.0 0.1655326332
H  H100  1  0.62534000  0.91809000  0.58713000  1.0 0.1218483587
H  H101  1  0.68095000  0.94983000  0.59480000  1.0 0.1218483587
H  H102  1  0.53867000  0.03209000  0.57638000  1.0 0.0909637174
H  H103  1  0.46829000  0.90464000  0.72199000  1.0 0.136318857
H  H104  1  0.50380000  0.64594000  0.80642000  1.0 0.1454687135
H  H105  1  0.49857000  0.72525000  0.90031000  1.0 0.1615126597
H  H106  1  0.58135000  0.74679000  0.57152000  1.0 0.136318857
H  H107  1  0.62932000  0.80857000  0.66878000  1.0 0.1101112571
H  H108  1  0.62923000  0.88533000  0.76900000  1.0 0.1101112571
H  H109  1  0.52820000  0.81583000  0.92179000  1.0 0.1101112571
H  H110  1  0.69056000  0.77624000  0.76606000  1.0 0.136318857
H  H111  1  0.68101000  0.85779000  0.84960000  1.0 0.1218483587
H  H112  1  0.65844000  0.68252000  0.73663000  1.0 0.0909637174
H  H113  1  0.95815000  0.64306000  0.50185000  1.0 0.1655326332
H  H114  1  0.91809000  0.62534000  0.58713000  1.0 0.1218483587
H  H115  1  0.94983000  0.68095000  0.59480000  1.0 0.1218483587
H  H116  1  0.03209000  0.53867000  0.57638000  1.0 0.0909637174
H  H117  1  0.90464000  0.46829000  0.72199000  1.0 0.136318857
H  H118  1  0.64594000  0.50380000  0.80642000  1.0 0.1454687135
H  H119  1  0.72525000  0.49857000  0.90031000  1.0 0.1615126597
H  H120  1  0.74679000  0.58135000  0.57152000  1.0 0.136318857
H  H121  1  0.80857000  0.62932000  0.66878000  1.0 0.1101112571
H  H122  1  0.88533000  0.62923000  0.76900000  1.0 0.1045164334
H  H123  1  0.81583000  0.52820000  0.92179000  1.0 0.1101112571
H  H124  1  0.77624000  0.69056000  0.76606000  1.0 0.136318857
H  H125  1  0.85779000  0.68101000  0.84960000  1.0 0.1218483587
H  H126  1  0.68252000  0.65844000  0.73663000  1.0 0.0909637174
H  H127  1  0.04185000  0.35694000  0.50185000  1.0 0.1655326332
H  H128  1  0.08191000  0.37466000  0.58713000  1.0 0.1218483587
H  H129  1  0.05017000  0.31905000  0.59480000  1.0 0.1218483587
H  H130  1  0.96791000  0.46133000  0.57638000  1.0 0.0909637174
H  H131  1  0.09536000  0.53171000  0.72199000  1.0 0.136318857
H  H132  1  0.35406000  0.49620000  0.80642000  1.0 0.1454687135
H  H133  1  0.27475000  0.50143000  0.90031000  1.0 0.1615126597
H  H134  1  0.25321000  0.41865000  0.57152000  1.0 0.136318857
H  H135  1  0.19143000  0.37068000  0.66878000  1.0 0.1101112571
H  H136  1  0.11467000  0.37077000  0.76900000  1.0 0.1101112571
H  H137  1  0.18417000  0.47180000  0.92179000  1.0 0.1101112571
H  H138  1  0.22376000  0.30944000  0.76606000  1.0 0.136318857
H  H139  1  0.14221000  0.31899000  0.84960000  1.0 0.1218483587
H  H140  1  0.31748000  0.34156000  0.73663000  1.0 0.0909637174
H  H141  1  0.64306000  0.04185000  0.50185000  1.0 0.1615126597
H  H142  1  0.62534000  0.08191000  0.58713000  1.0 0.1218483587
H  H143  1  0.68095000  0.05017000  0.59480000  1.0 0.1218483587
H  H144  1  0.53867000  0.96791000  0.57638000  1.0 0.0909637174
H  H145  1  0.46829000  0.09536000  0.72199000  1.0 0.136318857
H  H146  1  0.50380000  0.35406000  0.80642000  1.0 0.1454687135
H  H147  1  0.49857000  0.27475000  0.90031000  1.0 0.1615126597
H  H148  1  0.58135000  0.25321000  0.57152000  1.0 0.136318857
H  H149  1  0.62932000  0.19143000  0.66878000  1.0 0.1101112571
H  H150  1  0.62923000  0.11467000  0.76900000  1.0 0.1045164334
H  H151  1  0.52820000  0.18417000  0.92179000  1.0 0.1101112571
H  H152  1  0.69056000  0.22376000  0.76606000  1.0 0.136318857
H  H153  1  0.68101000  0.14221000  0.84960000  1.0 0.1218483587
H  H154  1  0.65844000  0.31748000  0.73663000  1.0 0.0909637174
H  H155  1  0.35694000  0.95815000  0.50185000  1.0 0.1655326332
H  H156  1  0.37466000  0.91809000  0.58713000  1.0 0.1218483587
H  H157  1  0.31905000  0.94983000  0.59480000  1.0 0.1218483587
H  H158  1  0.46133000  0.03209000  0.57638000  1.0 0.0909637174
H  H159  1  0.53171000  0.90464000  0.72199000  1.0 0.136318857
H  H160  1  0.49620000  0.64594000  0.80642000  1.0 0.1454687135
H  H161  1  0.50143000  0.72525000  0.90031000  1.0 0.1615126597
H  H162  1  0.41865000  0.74679000  0.57152000  1.0 0.136318857
H  H163  1  0.37068000  0.80857000  0.66878000  1.0 0.1101112571
H  H164  1  0.37077000  0.88533000  0.76900000  1.0 0.1101112571
H  H165  1  0.47180000  0.81583000  0.92179000  1.0 0.1101112571
H  H166  1  0.30944000  0.77624000  0.76606000  1.0 0.136318857
H  H167  1  0.31899000  0.85779000  0.84960000  1.0 0.1218483587
H  H168  1  0.34156000  0.68252000  0.73663000  1.0 0.0909637174
H  H169  1  0.95815000  0.35694000  0.49815000  1.0 0.1615126597
H  H170  1  0.91809000  0.37466000  0.41287000  1.0 0.1218483587
H  H171  1  0.94983000  0.31905000  0.40520000  1.0 0.1218483587
H  H172  1  0.03209000  0.46133000  0.42362000  1.0 0.0909637174
H  H173  1  0.90464000  0.53171000  0.27801000  1.0 0.136318857
H  H174  1  0.64594000  0.49620000  0.19358000  1.0 0.1454687135
H  H175  1  0.72525000  0.50143000  0.09969000  1.0 0.1615126597
H  H176  1  0.74679000  0.41865000  0.42848000  1.0 0.136318857
H  H177  1  0.80857000  0.37068000  0.33122000  1.0 0.1101112571
H  H178  1  0.88533000  0.37077000  0.23100000  1.0 0.1045164334
H  H179  1  0.81583000  0.47180000  0.07821000  1.0 0.1101112571
H  H180  1  0.77624000  0.30944000  0.23394000  1.0 0.136318857
H  H181  1  0.85779000  0.31899000  0.15040000  1.0 0.1218483587
H  H182  1  0.68252000  0.34156000  0.26337000  1.0 0.0909637174
H  H183  1  0.04185000  0.64306000  0.49815000  1.0 0.1615126597
H  H184  1  0.08191000  0.62534000  0.41287000  1.0 0.1218483587
H  H185  1  0.05017000  0.68095000  0.40520000  1.0 0.1218483587
H  H186  1  0.96791000  0.53867000  0.42362000  1.0 0.0909637174
H  H187  1  0.09536000  0.46829000  0.27801000  1.0 0.136318857
H  H188  1  0.35406000  0.50380000  0.19358000  1.0 0.1454687135
H  H189  1  0.27475000  0.49857000  0.09969000  1.0 0.1615126597
H  H190  1  0.25321000  0.58135000  0.42848000  1.0 0.136318857
H  H191  1  0.19143000  0.62932000  0.33122000  1.0 0.1101112571
H  H192  1  0.11467000  0.62923000  0.23100000  1.0 0.1045164334
H  H193  1  0.18417000  0.52820000  0.07821000  1.0 0.1101112571
H  H194  1  0.22376000  0.69056000  0.23394000  1.0 0.136318857
H  H195  1  0.14221000  0.68101000  0.15040000  1.0 0.1218483587
H  H196  1  0.31748000  0.65844000  0.26337000  1.0 0.0909637174
H  H197  1  0.64306000  0.95815000  0.49815000  1.0 0.1655326332
H  H198  1  0.62534000  0.91809000  0.41287000  1.0 0.1218483587
H  H199  1  0.68095000  0.94983000  0.40520000  1.0 0.1218483587
H  H200  1  0.53867000  0.03209000  0.42362000  1.0 0.0909637174
H  H201  1  0.46829000  0.90464000  0.27801000  1.0 0.136318857
H  H202  1  0.50380000  0.64594000  0.19358000  1.0 0.1454687135
H  H203  1  0.49857000  0.72525000  0.09969000  1.0 0.1615126597
H  H204  1  0.58135000  0.74679000  0.42848000  1.0 0.136318857
H  H205  1  0.62932000  0.80857000  0.33122000  1.0 0.1101112571
H  H206  1  0.62923000  0.88533000  0.23100000  1.0 0.1101112571
H  H207  1  0.52820000  0.81583000  0.07821000  1.0 0.1101112571
H  H208  1  0.69056000  0.77624000  0.23394000  1.0 0.136318857
H  H209  1  0.68101000  0.85779000  0.15040000  1.0 0.1218483587
H  H210  1  0.65844000  0.68252000  0.26337000  1.0 0.0909637174
H  H211  1  0.35694000  0.04185000  0.49815000  1.0 0.1615126597
H  H212  1  0.37466000  0.08191000  0.41287000  1.0 0.1218483587
H  H213  1  0.31905000  0.05017000  0.40520000  1.0 0.1218483587
H  H214  1  0.46133000  0.96791000  0.42362000  1.0 0.0909637174
H  H215  1  0.53171000  0.09536000  0.27801000  1.0 0.136318857
H  H216  1  0.49620000  0.35406000  0.19358000  1.0 0.1454687135
H  H217  1  0.50143000  0.27475000  0.09969000  1.0 0.1615126597
H  H218  1  0.41865000  0.25321000  0.42848000  1.0 0.136318857
H  H219  1  0.37068000  0.19143000  0.33122000  1.0 0.1101112571
H  H220  1  0.37077000  0.11467000  0.23100000  1.0 0.1045164334
H  H221  1  0.47180000  0.18417000  0.07821000  1.0 0.1101112571
H  H222  1  0.30944000  0.22376000  0.23394000  1.0 0.136318857
H  H223  1  0.31899000  0.14221000  0.15040000  1.0 0.1218483587
H  H224  1  0.34156000  0.31748000  0.26337000  1.0 0.0909637174
H  H225  1  0.00000000  0.43063000  0.50785000  1.0 0.1218483587
H  H226  1  0.00000000  0.56937000  0.50785000  1.0 0.1218483587
H  H227  1  0.43063000  0.00000000  0.50785000  1.0 0.1218483587
H  H228  1  0.56937000  0.00000000  0.50785000  1.0 0.1218483587
H  H229  1  0.00000000  0.56937000  0.49215000  1.0 0.1218483587
H  H230  1  0.00000000  0.43063000  0.49215000  1.0 0.1218483587
H  H231  1  0.43063000  0.00000000  0.49215000  1.0 0.1218483587
H  H232  1  0.56937000  0.00000000  0.49215000  1.0 0.1218483587
C  C1  1  0.04810000  0.35630000  0.42800000  1.0 -0.407004906
C  C2  1  0.04900000  0.39150000  0.20370000  1.0 -0.0263071204
C  C3  1  0.04880000  0.40700000  0.10380000  1.0 0.036675969
C  C4  1  0.09830000  0.40810000  0.05190000  1.0 -0.0573054451
C  C5  1  0.34790000  0.41360000  0.22010000  1.0 0.0022632693
C  C6  1  0.09870000  0.45050000  0.24200000  1.0 -0.0486425144
C  C7  1  0.19060000  0.45170000  0.35550000  1.0 0.0688653883
C  C8  1  0.23770000  0.45170000  0.40850000  1.0 -0.150934551
C  C9  1  0.17290000  0.40310000  0.31800000  1.0 -0.1723246967
C  C10  1  0.12680000  0.40340000  0.25900000  1.0 -0.1723246967
C  C11  1  0.04960000  0.43630000  0.19510000  1.0 0.0100924012
C  C12  1  0.15320000  0.39790000  0.11060000  1.0 0.0688653883
C  C13  1  0.19250000  0.43830000  0.10770000  1.0 -0.2170957757
C  C14  1  0.24330000  0.43030000  0.14720000  1.0 0.0596053476
C  C15  1  0.25680000  0.38090000  0.19180000  1.0 0.0688653883
C  C16  1  0.21680000  0.34130000  0.19820000  1.0 -0.1271229071
C  C17  1  0.16690000  0.34800000  0.15300000  1.0 -0.1600518424
C  C18  1  0.30890000  0.37390000  0.23020000  1.0 -0.1370304197
C  C19  1  0.33160000  0.46580000  0.18490000  1.0 -0.0926118774
C  C20  1  0.28210000  0.47060000  0.13810000  1.0 -0.1600518424
C  C21  1  0.95190000  0.64370000  0.42800000  1.0 -0.407004906
C  C22  1  0.95100000  0.60850000  0.20370000  1.0 -0.0263071204
C  C23  1  0.95120000  0.59300000  0.10380000  1.0 0.036675969
C  C24  1  0.90170000  0.59190000  0.05190000  1.0 -0.0573054451
C  C25  1  0.65210000  0.58640000  0.22010000  1.0 0.0022632693
C  C26  1  0.90130000  0.54950000  0.24200000  1.0 -0.0486425144
C  C27  1  0.80940000  0.54830000  0.35550000  1.0 0.0688653883
C  C28  1  0.76230000  0.54830000  0.40850000  1.0 -0.150934551
C  C29  1  0.82710000  0.59690000  0.31800000  1.0 -0.1723246967
C  C30  1  0.87320000  0.59660000  0.25900000  1.0 -0.1723246967
C  C31  1  0.95040000  0.56370000  0.19510000  1.0 0.0100924012
C  C32  1  0.84680000  0.60210000  0.11060000  1.0 0.0688653883
C  C33  1  0.80750000  0.56170000  0.10770000  1.0 -0.2170957757
C  C34  1  0.75670000  0.56970000  0.14720000  1.0 0.0596053476
C  C35  1  0.74320000  0.61910000  0.19180000  1.0 0.0688653883
C  C36  1  0.78320000  0.65870000  0.19820000  1.0 -0.1271229071
C  C37  1  0.83310000  0.65200000  0.15300000  1.0 -0.1600518424
C  C38  1  0.69110000  0.62610000  0.23020000  1.0 -0.1370304197
C  C39  1  0.66840000  0.53420000  0.18490000  1.0 -0.0926118774
C  C40  1  0.71790000  0.52940000  0.13810000  1.0 -0.1600518424
C  C41  1  0.35630000  0.95190000  0.42800000  1.0 -0.407004906
C  C42  1  0.39150000  0.95100000  0.20370000  1.0 -0.0263071204
C  C43  1  0.40700000  0.95120000  0.10380000  1.0 0.036675969
C  C44  1  0.40810000  0.90170000  0.05190000  1.0 -0.0573054451
C  C45  1  0.41360000  0.65210000  0.22010000  1.0 0.0022632693
C  C46  1  0.45050000  0.90130000  0.24200000  1.0 -0.0486425144
C  C47  1  0.45170000  0.80940000  0.35550000  1.0 0.0688653883
C  C48  1  0.45170000  0.76230000  0.40850000  1.0 -0.150934551
C  C49  1  0.40310000  0.82710000  0.31800000  1.0 -0.1723246967
C  C50  1  0.40340000  0.87320000  0.25900000  1.0 -0.1723246967
C  C51  1  0.43630000  0.95040000  0.19510000  1.0 0.0100924012
C  C52  1  0.39790000  0.84680000  0.11060000  1.0 0.0688653883
C  C53  1  0.43830000  0.80750000  0.10770000  1.0 -0.2170957757
C  C54  1  0.43030000  0.75670000  0.14720000  1.0 0.0596053476
C  C55  1  0.38090000  0.74320000  0.19180000  1.0 0.0688653883
C  C56  1  0.34130000  0.78320000  0.19820000  1.0 -0.1271229071
C  C57  1  0.34800000  0.83310000  0.15300000  1.0 -0.1600518424
C  C58  1  0.37390000  0.69110000  0.23020000  1.0 -0.1370304197
C  C59  1  0.46580000  0.66840000  0.18490000  1.0 -0.0926118774
C  C60  1  0.47060000  0.71790000  0.13810000  1.0 -0.1600518424
C  C61  1  0.64370000  0.04810000  0.42800000  1.0 -0.407004906
C  C62  1  0.60850000  0.04900000  0.20370000  1.0 -0.0263071204
C  C63  1  0.59300000  0.04880000  0.10380000  1.0 0.036675969
C  C64  1  0.59190000  0.09830000  0.05190000  1.0 -0.0573054451
C  C65  1  0.58640000  0.34790000  0.22010000  1.0 0.0022632693
C  C66  1  0.54950000  0.09870000  0.24200000  1.0 -0.0486425144
C  C67  1  0.54830000  0.19060000  0.35550000  1.0 0.0688653883
C  C68  1  0.54830000  0.23770000  0.40850000  1.0 -0.150934551
C  C69  1  0.59690000  0.17290000  0.31800000  1.0 -0.1723246967
C  C70  1  0.59660000  0.12680000  0.25900000  1.0 -0.1723246967
C  C71  1  0.56370000  0.04960000  0.19510000  1.0 0.0100924012
C  C72  1  0.60210000  0.15320000  0.11060000  1.0 0.0688653883
C  C73  1  0.56170000  0.19250000  0.10770000  1.0 -0.2170957757
C  C74  1  0.56970000  0.24330000  0.14720000  1.0 0.0596053476
C  C75  1  0.61910000  0.25680000  0.19180000  1.0 0.0688653883
C  C76  1  0.65870000  0.21680000  0.19820000  1.0 -0.1271229071
C  C77  1  0.65200000  0.16690000  0.15300000  1.0 -0.1600518424
C  C78  1  0.62610000  0.30890000  0.23020000  1.0 -0.1370304197
C  C79  1  0.53420000  0.33160000  0.18490000  1.0 -0.0926118774
C  C80  1  0.52940000  0.28210000  0.13810000  1.0 -0.1600518424
C  C81  1  0.04810000  0.64370000  0.57200000  1.0 -0.407004906
C  C82  1  0.04900000  0.60850000  0.79630000  1.0 -0.0263071204
C  C83  1  0.04880000  0.59300000  0.89620000  1.0 0.036675969
C  C84  1  0.09830000  0.59190000  0.94810000  1.0 -0.0573054451
C  C85  1  0.34790000  0.58640000  0.77990000  1.0 0.0022632693
C  C86  1  0.09870000  0.54950000  0.75800000  1.0 -0.0486425144
C  C87  1  0.19060000  0.54830000  0.64450000  1.0 0.0688653883
C  C88  1  0.23770000  0.54830000  0.59150000  1.0 -0.150934551
C  C89  1  0.17290000  0.59690000  0.68200000  1.0 -0.1723246967
C  C90  1  0.12680000  0.59660000  0.74100000  1.0 -0.1723246967
C  C91  1  0.04960000  0.56370000  0.80490000  1.0 0.0100924012
C  C92  1  0.15320000  0.60210000  0.88940000  1.0 0.0688653883
C  C93  1  0.19250000  0.56170000  0.89230000  1.0 -0.2170957757
C  C94  1  0.24330000  0.56970000  0.85280000  1.0 0.0596053476
C  C95  1  0.25680000  0.61910000  0.80820000  1.0 0.0688653883
C  C96  1  0.21680000  0.65870000  0.80180000  1.0 -0.1271229071
C  C97  1  0.16690000  0.65200000  0.84700000  1.0 -0.1600518424
C  C98  1  0.30890000  0.62610000  0.76980000  1.0 -0.1370304197
C  C99  1  0.33160000  0.53420000  0.81510000  1.0 -0.0926118774
C  C100  1  0.28210000  0.52940000  0.86190000  1.0 -0.1600518424
C  C101  1  0.95190000  0.35630000  0.57200000  1.0 -0.407004906
C  C102  1  0.95100000  0.39150000  0.79630000  1.0 -0.0263071204
C  C103  1  0.95120000  0.40700000  0.89620000  1.0 0.036675969
C  C104  1  0.90170000  0.40810000  0.94810000  1.0 -0.0573054451
C  C105  1  0.65210000  0.41360000  0.77990000  1.0 0.0022632693
C  C106  1  0.90130000  0.45050000  0.75800000  1.0 -0.0486425144
C  C107  1  0.80940000  0.45170000  0.64450000  1.0 0.0688653883
C  C108  1  0.76230000  0.45170000  0.59150000  1.0 -0.150934551
C  C109  1  0.82710000  0.40310000  0.68200000  1.0 -0.1723246967
C  C110  1  0.87320000  0.40340000  0.74100000  1.0 -0.1723246967
C  C111  1  0.95040000  0.43630000  0.80490000  1.0 0.0100924012
C  C112  1  0.84680000  0.39790000  0.88940000  1.0 0.0688653883
C  C113  1  0.80750000  0.43830000  0.89230000  1.0 -0.2170957757
C  C114  1  0.75670000  0.43030000  0.85280000  1.0 0.0596053476
C  C115  1  0.74320000  0.38090000  0.80820000  1.0 0.0688653883
C  C116  1  0.78320000  0.34130000  0.80180000  1.0 -0.1271229071
C  C117  1  0.83310000  0.34800000  0.84700000  1.0 -0.1600518424
C  C118  1  0.69110000  0.37390000  0.76980000  1.0 -0.1370304197
C  C119  1  0.66840000  0.46580000  0.81510000  1.0 -0.0926118774
C  C120  1  0.71790000  0.47060000  0.86190000  1.0 -0.1600518424
C  C121  1  0.35630000  0.04810000  0.57200000  1.0 -0.407004906
C  C122  1  0.39150000  0.04900000  0.79630000  1.0 -0.0263071204
C  C123  1  0.40700000  0.04880000  0.89620000  1.0 0.036675969
C  C124  1  0.40810000  0.09830000  0.94810000  1.0 -0.0573054451
C  C125  1  0.41360000  0.34790000  0.77990000  1.0 0.0022632693
C  C126  1  0.45050000  0.09870000  0.75800000  1.0 -0.0486425144
C  C127  1  0.45170000  0.19060000  0.64450000  1.0 0.0688653883
C  C128  1  0.45170000  0.23770000  0.59150000  1.0 -0.150934551
C  C129  1  0.40310000  0.17290000  0.68200000  1.0 -0.1723246967
C  C130  1  0.40340000  0.12680000  0.74100000  1.0 -0.1723246967
C  C131  1  0.43630000  0.04960000  0.80490000  1.0 0.0100924012
C  C132  1  0.39790000  0.15320000  0.88940000  1.0 0.0688653883
C  C133  1  0.43830000  0.19250000  0.89230000  1.0 -0.2170957757
C  C134  1  0.43030000  0.24330000  0.85280000  1.0 0.0596053476
C  C135  1  0.38090000  0.25680000  0.80820000  1.0 0.0688653883
C  C136  1  0.34130000  0.21680000  0.80180000  1.0 -0.1271229071
C  C137  1  0.34800000  0.16690000  0.84700000  1.0 -0.1600518424
C  C138  1  0.37390000  0.30890000  0.76980000  1.0 -0.1370304197
C  C139  1  0.46580000  0.33160000  0.81510000  1.0 -0.0926118774
C  C140  1  0.47060000  0.28210000  0.86190000  1.0 -0.1600518424
C  C141  1  0.64370000  0.95190000  0.57200000  1.0 -0.407004906
C  C142  1  0.60850000  0.95100000  0.79630000  1.0 -0.0263071204
C  C143  1  0.59300000  0.95120000  0.89620000  1.0 0.036675969
C  C144  1  0.59190000  0.90170000  0.94810000  1.0 -0.0573054451
C  C145  1  0.58640000  0.65210000  0.77990000  1.0 0.0022632693
C  C146  1  0.54950000  0.90130000  0.75800000  1.0 -0.0486425144
C  C147  1  0.54830000  0.80940000  0.64450000  1.0 0.0688653883
C  C148  1  0.54830000  0.76230000  0.59150000  1.0 -0.150934551
C  C149  1  0.59690000  0.82710000  0.68200000  1.0 -0.1723246967
C  C150  1  0.59660000  0.87320000  0.74100000  1.0 -0.1723246967
C  C151  1  0.56370000  0.95040000  0.80490000  1.0 0.0100924012
C  C152  1  0.60210000  0.84680000  0.88940000  1.0 0.0688653883
C  C153  1  0.56170000  0.80750000  0.89230000  1.0 -0.2170957757
C  C154  1  0.56970000  0.75670000  0.85280000  1.0 0.0596053476
C  C155  1  0.61910000  0.74320000  0.80820000  1.0 0.0688653883
C  C156  1  0.65870000  0.78320000  0.80180000  1.0 -0.1271229071
C  C157  1  0.65200000  0.83310000  0.84700000  1.0 -0.1600518424
C  C158  1  0.62610000  0.69110000  0.76980000  1.0 -0.1370304197
C  C159  1  0.53420000  0.66840000  0.81510000  1.0 -0.0926118774
C  C160  1  0.52940000  0.71790000  0.86190000  1.0 -0.1600518424
C  C161  1  0.95190000  0.64370000  0.57200000  1.0 -0.407004906
C  C162  1  0.95100000  0.60850000  0.79630000  1.0 -0.0263071204
C  C163  1  0.95120000  0.59300000  0.89620000  1.0 0.036675969
C  C164  1  0.90170000  0.59190000  0.94810000  1.0 -0.0573054451
C  C165  1  0.65210000  0.58640000  0.77990000  1.0 0.0022632693
C  C166  1  0.90130000  0.54950000  0.75800000  1.0 -0.0486425144
C  C167  1  0.80940000  0.54830000  0.64450000  1.0 0.0688653883
C  C168  1  0.76230000  0.54830000  0.59150000  1.0 -0.150934551
C  C169  1  0.82710000  0.59690000  0.68200000  1.0 -0.1723246967
C  C170  1  0.87320000  0.59660000  0.74100000  1.0 -0.1723246967
C  C171  1  0.95040000  0.56370000  0.80490000  1.0 0.0100924012
C  C172  1  0.84680000  0.60210000  0.88940000  1.0 0.0688653883
C  C173  1  0.80750000  0.56170000  0.89230000  1.0 -0.2170957757
C  C174  1  0.75670000  0.56970000  0.85280000  1.0 0.0596053476
C  C175  1  0.74320000  0.61910000  0.80820000  1.0 0.0688653883
C  C176  1  0.78320000  0.65870000  0.80180000  1.0 -0.1271229071
C  C177  1  0.83310000  0.65200000  0.84700000  1.0 -0.1600518424
C  C178  1  0.69110000  0.62610000  0.76980000  1.0 -0.1370304197
C  C179  1  0.66840000  0.53420000  0.81510000  1.0 -0.0926118774
C  C180  1  0.71790000  0.52940000  0.86190000  1.0 -0.1600518424
C  C181  1  0.04810000  0.35630000  0.57200000  1.0 -0.407004906
C  C182  1  0.04900000  0.39150000  0.79630000  1.0 -0.0263071204
C  C183  1  0.04880000  0.40700000  0.89620000  1.0 0.036675969
C  C184  1  0.09830000  0.40810000  0.94810000  1.0 -0.0573054451
C  C185  1  0.34790000  0.41360000  0.77990000  1.0 0.0022632693
C  C186  1  0.09870000  0.45050000  0.75800000  1.0 -0.0486425144
C  C187  1  0.19060000  0.45170000  0.64450000  1.0 0.0688653883
C  C188  1  0.23770000  0.45170000  0.59150000  1.0 -0.150934551
C  C189  1  0.17290000  0.40310000  0.68200000  1.0 -0.1723246967
C  C190  1  0.12680000  0.40340000  0.74100000  1.0 -0.1723246967
C  C191  1  0.04960000  0.43630000  0.80490000  1.0 0.0100924012
C  C192  1  0.15320000  0.39790000  0.88940000  1.0 0.0688653883
C  C193  1  0.19250000  0.43830000  0.89230000  1.0 -0.2170957757
C  C194  1  0.24330000  0.43030000  0.85280000  1.0 0.0596053476
C  C195  1  0.25680000  0.38090000  0.80820000  1.0 0.0688653883
C  C196  1  0.21680000  0.34130000  0.80180000  1.0 -0.1271229071
C  C197  1  0.16690000  0.34800000  0.84700000  1.0 -0.1600518424
C  C198  1  0.30890000  0.37390000  0.76980000  1.0 -0.1370304197
C  C199  1  0.33160000  0.46580000  0.81510000  1.0 -0.0926118774
C  C200  1  0.28210000  0.47060000  0.86190000  1.0 -0.1600518424
C  C201  1  0.64370000  0.04810000  0.57200000  1.0 -0.407004906
C  C202  1  0.60850000  0.04900000  0.79630000  1.0 -0.0263071204
C  C203  1  0.59300000  0.04880000  0.89620000  1.0 0.036675969
C  C204  1  0.59190000  0.09830000  0.94810000  1.0 -0.0573054451
C  C205  1  0.58640000  0.34790000  0.77990000  1.0 0.0022632693
C  C206  1  0.54950000  0.09870000  0.75800000  1.0 -0.0486425144
C  C207  1  0.54830000  0.19060000  0.64450000  1.0 0.0688653883
C  C208  1  0.54830000  0.23770000  0.59150000  1.0 -0.150934551
C  C209  1  0.59690000  0.17290000  0.68200000  1.0 -0.1723246967
C  C210  1  0.59660000  0.12680000  0.74100000  1.0 -0.1723246967
C  C211  1  0.56370000  0.04960000  0.80490000  1.0 0.0100924012
C  C212  1  0.60210000  0.15320000  0.88940000  1.0 0.0688653883
C  C213  1  0.56170000  0.19250000  0.89230000  1.0 -0.2170957757
C  C214  1  0.56970000  0.24330000  0.85280000  1.0 0.0596053476
C  C215  1  0.61910000  0.25680000  0.80820000  1.0 0.0688653883
C  C216  1  0.65870000  0.21680000  0.80180000  1.0 -0.1271229071
C  C217  1  0.65200000  0.16690000  0.84700000  1.0 -0.1600518424
C  C218  1  0.62610000  0.30890000  0.76980000  1.0 -0.1370304197
C  C219  1  0.53420000  0.33160000  0.81510000  1.0 -0.0926118774
C  C220  1  0.52940000  0.28210000  0.86190000  1.0 -0.1600518424
C  C221  1  0.35630000  0.95190000  0.57200000  1.0 -0.407004906
C  C222  1  0.39150000  0.95100000  0.79630000  1.0 -0.0263071204
C  C223  1  0.40700000  0.95120000  0.89620000  1.0 0.036675969
C  C224  1  0.40810000  0.90170000  0.94810000  1.0 -0.0573054451
C  C225  1  0.41360000  0.65210000  0.77990000  1.0 0.0022632693
C  C226  1  0.45050000  0.90130000  0.75800000  1.0 -0.0486425144
C  C227  1  0.45170000  0.80940000  0.64450000  1.0 0.0688653883
C  C228  1  0.45170000  0.76230000  0.59150000  1.0 -0.150934551
C  C229  1  0.40310000  0.82710000  0.68200000  1.0 -0.1723246967
C  C230  1  0.40340000  0.87320000  0.74100000  1.0 -0.1723246967
C  C231  1  0.43630000  0.95040000  0.80490000  1.0 0.0100924012
C  C232  1  0.39790000  0.84680000  0.88940000  1.0 0.0688653883
C  C233  1  0.43830000  0.80750000  0.89230000  1.0 -0.2170957757
C  C234  1  0.43030000  0.75670000  0.85280000  1.0 0.0596053476
C  C235  1  0.38090000  0.74320000  0.80820000  1.0 0.0688653883
C  C236  1  0.34130000  0.78320000  0.80180000  1.0 -0.1271229071
C  C237  1  0.34800000  0.83310000  0.84700000  1.0 -0.1600518424
C  C238  1  0.37390000  0.69110000  0.76980000  1.0 -0.1370304197
C  C239  1  0.46580000  0.66840000  0.81510000  1.0 -0.0926118774
C  C240  1  0.47060000  0.71790000  0.86190000  1.0 -0.1600518424
C  C241  1  0.95190000  0.35630000  0.42800000  1.0 -0.407004906
C  C242  1  0.95100000  0.39150000  0.20370000  1.0 -0.0263071204
C  C243  1  0.95120000  0.40700000  0.10380000  1.0 0.036675969
C  C244  1  0.90170000  0.40810000  0.05190000  1.0 -0.0573054451
C  C245  1  0.65210000  0.41360000  0.22010000  1.0 0.0022632693
C  C246  1  0.90130000  0.45050000  0.24200000  1.0 -0.0486425144
C  C247  1  0.80940000  0.45170000  0.35550000  1.0 0.0688653883
C  C248  1  0.76230000  0.45170000  0.40850000  1.0 -0.150934551
C  C249  1  0.82710000  0.40310000  0.31800000  1.0 -0.1723246967
C  C250  1  0.87320000  0.40340000  0.25900000  1.0 -0.1723246967
C  C251  1  0.95040000  0.43630000  0.19510000  1.0 0.0100924012
C  C252  1  0.84680000  0.39790000  0.11060000  1.0 0.0688653883
C  C253  1  0.80750000  0.43830000  0.10770000  1.0 -0.2170957757
C  C254  1  0.75670000  0.43030000  0.14720000  1.0 0.0596053476
C  C255  1  0.74320000  0.38090000  0.19180000  1.0 0.0688653883
C  C256  1  0.78320000  0.34130000  0.19820000  1.0 -0.1271229071
C  C257  1  0.83310000  0.34800000  0.15300000  1.0 -0.1600518424
C  C258  1  0.69110000  0.37390000  0.23020000  1.0 -0.1370304197
C  C259  1  0.66840000  0.46580000  0.18490000  1.0 -0.0926118774
C  C260  1  0.71790000  0.47060000  0.13810000  1.0 -0.1600518424
C  C261  1  0.04810000  0.64370000  0.42800000  1.0 -0.407004906
C  C262  1  0.04900000  0.60850000  0.20370000  1.0 -0.0263071204
C  C263  1  0.04880000  0.59300000  0.10380000  1.0 0.036675969
C  C264  1  0.09830000  0.59190000  0.05190000  1.0 -0.0573054451
C  C265  1  0.34790000  0.58640000  0.22010000  1.0 0.0022632693
C  C266  1  0.09870000  0.54950000  0.24200000  1.0 -0.0486425144
C  C267  1  0.19060000  0.54830000  0.35550000  1.0 0.0688653883
C  C268  1  0.23770000  0.54830000  0.40850000  1.0 -0.150934551
C  C269  1  0.17290000  0.59690000  0.31800000  1.0 -0.1723246967
C  C270  1  0.12680000  0.59660000  0.25900000  1.0 -0.1723246967
C  C271  1  0.04960000  0.56370000  0.19510000  1.0 0.0100924012
C  C272  1  0.15320000  0.60210000  0.11060000  1.0 0.0688653883
C  C273  1  0.19250000  0.56170000  0.10770000  1.0 -0.2170957757
C  C274  1  0.24330000  0.56970000  0.14720000  1.0 0.0596053476
C  C275  1  0.25680000  0.61910000  0.19180000  1.0 0.0688653883
C  C276  1  0.21680000  0.65870000  0.19820000  1.0 -0.1271229071
C  C277  1  0.16690000  0.65200000  0.15300000  1.0 -0.1600518424
C  C278  1  0.30890000  0.62610000  0.23020000  1.0 -0.1370304197
C  C279  1  0.33160000  0.53420000  0.18490000  1.0 -0.0926118774
C  C280  1  0.28210000  0.52940000  0.13810000  1.0 -0.1600518424
C  C281  1  0.64370000  0.95190000  0.42800000  1.0 -0.407004906
C  C282  1  0.60850000  0.95100000  0.20370000  1.0 -0.0263071204
C  C283  1  0.59300000  0.95120000  0.10380000  1.0 0.036675969
C  C284  1  0.59190000  0.90170000  0.05190000  1.0 -0.0573054451
C  C285  1  0.58640000  0.65210000  0.22010000  1.0 0.0022632693
C  C286  1  0.54950000  0.90130000  0.24200000  1.0 -0.0486425144
C  C287  1  0.54830000  0.80940000  0.35550000  1.0 0.0688653883
C  C288  1  0.54830000  0.76230000  0.40850000  1.0 -0.150934551
C  C289  1  0.59690000  0.82710000  0.31800000  1.0 -0.1723246967
C  C290  1  0.59660000  0.87320000  0.25900000  1.0 -0.1723246967
C  C291  1  0.56370000  0.95040000  0.19510000  1.0 0.0100924012
C  C292  1  0.60210000  0.84680000  0.11060000  1.0 0.0688653883
C  C293  1  0.56170000  0.80750000  0.10770000  1.0 -0.2170957757
C  C294  1  0.56970000  0.75670000  0.14720000  1.0 0.0596053476
C  C295  1  0.61910000  0.74320000  0.19180000  1.0 0.0688653883
C  C296  1  0.65870000  0.78320000  0.19820000  1.0 -0.1271229071
C  C297  1  0.65200000  0.83310000  0.15300000  1.0 -0.1600518424
C  C298  1  0.62610000  0.69110000  0.23020000  1.0 -0.1370304197
C  C299  1  0.53420000  0.66840000  0.18490000  1.0 -0.0926118774
C  C300  1  0.52940000  0.71790000  0.13810000  1.0 -0.1600518424
C  C301  1  0.35630000  0.04810000  0.42800000  1.0 -0.407004906
C  C302  1  0.39150000  0.04900000  0.20370000  1.0 -0.0263071204
C  C303  1  0.40700000  0.04880000  0.10380000  1.0 0.036675969
C  C304  1  0.40810000  0.09830000  0.05190000  1.0 -0.0573054451
C  C305  1  0.41360000  0.34790000  0.22010000  1.0 0.0022632693
C  C306  1  0.45050000  0.09870000  0.24200000  1.0 -0.0486425144
C  C307  1  0.45170000  0.19060000  0.35550000  1.0 0.0688653883
C  C308  1  0.45170000  0.23770000  0.40850000  1.0 -0.150934551
C  C309  1  0.40310000  0.17290000  0.31800000  1.0 -0.1723246967
C  C310  1  0.40340000  0.12680000  0.25900000  1.0 -0.1723246967
C  C311  1  0.43630000  0.04960000  0.19510000  1.0 0.0100924012
C  C312  1  0.39790000  0.15320000  0.11060000  1.0 0.0688653883
C  C313  1  0.43830000  0.19250000  0.10770000  1.0 -0.2170957757
C  C314  1  0.43030000  0.24330000  0.14720000  1.0 0.0596053476
C  C315  1  0.38090000  0.25680000  0.19180000  1.0 0.0688653883
C  C316  1  0.34130000  0.21680000  0.19820000  1.0 -0.1271229071
C  C317  1  0.34800000  0.16690000  0.15300000  1.0 -0.1600518424
C  C318  1  0.37390000  0.30890000  0.23020000  1.0 -0.1370304197
C  C319  1  0.46580000  0.33160000  0.18490000  1.0 -0.0926118774
C  C320  1  0.47060000  0.28210000  0.13810000  1.0 -0.1600518424
C  C321  1  0.31760000  0.50000000  0.50000000  1.0 0.5191957968
C  C322  1  0.68240000  0.50000000  0.50000000  1.0 0.5191957968
C  C323  1  0.50000000  0.68240000  0.50000000  1.0 0.5191957968
C  C324  1  0.50000000  0.31760000  0.50000000  1.0 0.5191957968
C  C325  1  0.40560000  0.40560000  0.26890000  1.0 0.5191957968
C  C326  1  0.59440000  0.59440000  0.26890000  1.0 0.5191957968
C  C327  1  0.40560000  0.59440000  0.26890000  1.0 0.5191957968
C  C328  1  0.59440000  0.40560000  0.26890000  1.0 0.5191957968
C  C329  1  0.40560000  0.59440000  0.73110000  1.0 0.5191957968
C  C330  1  0.59440000  0.40560000  0.73110000  1.0 0.5191957968
C  C331  1  0.40560000  0.40560000  0.73110000  1.0 0.5191957968
C  C332  1  0.59440000  0.59440000  0.73110000  1.0 0.5191957968
C  C333  1  0.26240000  0.50000000  0.43290000  1.0 0.0596053476
C  C334  1  0.11630000  0.50000000  0.28340000  1.0 -0.1370304197
C  C335  1  0.16530000  0.50000000  0.33230000  1.0 -0.0025883363
C  C336  1  0.73760000  0.50000000  0.43290000  1.0 0.0596053476
C  C337  1  0.88370000  0.50000000  0.28340000  1.0 -0.1370304197
C  C338  1  0.83470000  0.50000000  0.33230000  1.0 -0.0025883363
C  C339  1  0.50000000  0.73760000  0.43290000  1.0 0.0596053476
C  C340  1  0.50000000  0.88370000  0.28340000  1.0 -0.1370304197
C  C341  1  0.50000000  0.83470000  0.33230000  1.0 -0.0025883363
C  C342  1  0.50000000  0.26240000  0.43290000  1.0 0.0596053476
C  C343  1  0.50000000  0.11630000  0.28340000  1.0 -0.1370304197
C  C344  1  0.50000000  0.16530000  0.33230000  1.0 -0.0025883363
C  C345  1  0.26240000  0.50000000  0.56710000  1.0 0.0596053476
C  C346  1  0.11630000  0.50000000  0.71660000  1.0 -0.1370304197
C  C347  1  0.16530000  0.50000000  0.66770000  1.0 -0.0025883363
C  C348  1  0.73760000  0.50000000  0.56710000  1.0 0.0596053476
C  C349  1  0.88370000  0.50000000  0.71660000  1.0 -0.1370304197
C  C350  1  0.83470000  0.50000000  0.66770000  1.0 -0.0025883363
C  C351  1  0.50000000  0.26240000  0.56710000  1.0 0.0596053476
C  C352  1  0.50000000  0.11630000  0.71660000  1.0 -0.1370304197
C  C353  1  0.50000000  0.16530000  0.66770000  1.0 -0.0025883363
C  C354  1  0.50000000  0.73760000  0.56710000  1.0 0.0596053476
C  C355  1  0.50000000  0.88370000  0.71660000  1.0 -0.1370304197
C  C356  1  0.50000000  0.83470000  0.66770000  1.0 -0.0025883363
C  C357  1  0.00000000  0.38600000  0.37330000  1.0 0.2156646921
C  C358  1  0.00000000  0.44020000  0.43900000  1.0 -0.304884745
C  C359  1  0.00000000  0.45040000  0.23800000  1.0 -0.0147652963
C  C360  1  0.00000000  0.39090000  0.25770000  1.0 0.0233814193
C  C361  1  0.00000000  0.40980000  0.05150000  1.0 -0.072658919
C  C362  1  0.00000000  0.61400000  0.37330000  1.0 0.2156646921
C  C363  1  0.00000000  0.55980000  0.43900000  1.0 -0.304884745
C  C364  1  0.00000000  0.54960000  0.23800000  1.0 -0.0147652963
C  C365  1  0.00000000  0.60910000  0.25770000  1.0 0.0233814193
C  C366  1  0.00000000  0.59020000  0.05150000  1.0 -0.072658919
C  C367  1  0.38600000  0.00000000  0.37330000  1.0 0.2156646921
C  C368  1  0.44020000  0.00000000  0.43900000  1.0 -0.304884745
C  C369  1  0.45040000  0.00000000  0.23800000  1.0 -0.0147652963
C  C370  1  0.39090000  0.00000000  0.25770000  1.0 0.0233814193
C  C371  1  0.40980000  0.00000000  0.05150000  1.0 -0.072658919
C  C372  1  0.61400000  0.00000000  0.37330000  1.0 0.2156646921
C  C373  1  0.55980000  0.00000000  0.43900000  1.0 -0.304884745
C  C374  1  0.54960000  0.00000000  0.23800000  1.0 -0.0147652963
C  C375  1  0.60910000  0.00000000  0.25770000  1.0 0.0233814193
C  C376  1  0.59020000  0.00000000  0.05150000  1.0 -0.072658919
C  C377  1  0.00000000  0.61400000  0.62670000  1.0 0.2156646921
C  C378  1  0.00000000  0.55980000  0.56100000  1.0 -0.304884745
C  C379  1  0.00000000  0.54960000  0.76200000  1.0 -0.0157386159
C  C380  1  0.00000000  0.60910000  0.74230000  1.0 0.0233814193
C  C381  1  0.00000000  0.59020000  0.94850000  1.0 -0.072658919
C  C382  1  0.00000000  0.38600000  0.62670000  1.0 0.2156646921
C  C383  1  0.00000000  0.44020000  0.56100000  1.0 -0.304884745
C  C384  1  0.00000000  0.45040000  0.76200000  1.0 -0.0157386159
C  C385  1  0.00000000  0.39090000  0.74230000  1.0 0.0233814193
C  C386  1  0.00000000  0.40980000  0.94850000  1.0 -0.072658919
C  C387  1  0.38600000  0.00000000  0.62670000  1.0 0.2156646921
C  C388  1  0.44020000  0.00000000  0.56100000  1.0 -0.304884745
C  C389  1  0.45040000  0.00000000  0.76200000  1.0 -0.0157386159
C  C390  1  0.39090000  0.00000000  0.74230000  1.0 0.0233814193
C  C391  1  0.40980000  0.00000000  0.94850000  1.0 -0.072658919
C  C392  1  0.61400000  0.00000000  0.62670000  1.0 0.2156646921
C  C393  1  0.55980000  0.00000000  0.56100000  1.0 -0.304884745
C  C394  1  0.54960000  0.00000000  0.76200000  1.0 -0.0157386159
C  C395  1  0.60910000  0.00000000  0.74230000  1.0 0.0233814193
C  C396  1  0.59020000  0.00000000  0.94850000  1.0 -0.072658919
O  O1  1  0.39439000  0.39439000  0.35080000  1.0 -0.5253161026
O  O2  1  0.43816000  0.43816000  0.23380000  1.0 -0.5739055706
O  O3  1  0.60561000  0.60561000  0.35080000  1.0 -0.5253161026
O  O4  1  0.56184000  0.56184000  0.23380000  1.0 -0.5739055706
O  O5  1  0.39439000  0.60561000  0.35080000  1.0 -0.5253161026
O  O6  1  0.43816000  0.56184000  0.23380000  1.0 -0.5739055706
O  O7  1  0.60561000  0.39439000  0.35080000  1.0 -0.5253161026
O  O8  1  0.56184000  0.43816000  0.23380000  1.0 -0.5739055706
O  O9  1  0.39439000  0.60561000  0.64920000  1.0 -0.524403019
O  O10  1  0.43816000  0.56184000  0.76620000  1.0 -0.5739055706
O  O11  1  0.60561000  0.39439000  0.64920000  1.0 -0.524403019
O  O12  1  0.56184000  0.43816000  0.76620000  1.0 -0.5739055706
O  O13  1  0.39439000  0.39439000  0.64920000  1.0 -0.524403019
O  O14  1  0.43816000  0.43816000  0.76620000  1.0 -0.5739055706
O  O15  1  0.60561000  0.60561000  0.64920000  1.0 -0.524403019
O  O16  1  0.56184000  0.56184000  0.76620000  1.0 -0.5739055706
O  O17  1  0.33810000  0.45550000  0.50000000  1.0 -0.5422676636
O  O18  1  0.66190000  0.54450000  0.50000000  1.0 -0.5422676636
O  O19  1  0.45550000  0.66190000  0.50000000  1.0 -0.5422676636
O  O20  1  0.54450000  0.33810000  0.50000000  1.0 -0.5422676636
O  O21  1  0.33810000  0.54450000  0.50000000  1.0 -0.5422676636
O  O22  1  0.66190000  0.45550000  0.50000000  1.0 -0.5422676636
O  O23  1  0.45550000  0.33810000  0.50000000  1.0 -0.5422676636
O  O24  1  0.54450000  0.66190000  0.50000000  1.0 -0.5422676636
O  O25  1  0.42975000  0.50000000  0.59240000  1.0 -0.9174310101
O  O26  1  0.57025000  0.50000000  0.59240000  1.0 -0.9174310101
O  O27  1  0.50000000  0.57025000  0.59240000  1.0 -0.9174310101
O  O28  1  0.50000000  0.42975000  0.59240000  1.0 -0.9174310101
O  O29  1  0.42975000  0.50000000  0.40760000  1.0 -0.9174310101
O  O30  1  0.57025000  0.50000000  0.40760000  1.0 -0.9174310101
O  O31  1  0.50000000  0.42975000  0.40760000  1.0 -0.9174310101
O  O32  1  0.50000000  0.57025000  0.40760000  1.0 -0.9174310101
