# DDEC6 charges by PACMAN v1.1 (https://github.com/mtap-research/PACMAN-charge/)
data_OKECIQ01_FSR_pacman
_symmetry_space_group_name_H-M   'P 1'
_cell_length_a   14.54420000
_cell_length_b   14.54420000
_cell_length_c   14.54420000
_cell_angle_alpha   109.47100000
_cell_angle_beta   109.47100000
_cell_angle_gamma   109.47100000
_symmetry_Int_Tables_number   1
_chemical_formula_structural   AlZn2(PO4)4
_chemical_formula_sum   'Al3 Zn6 P12 O48'
_cell_volume   2368.37883197
_cell_formula_units_Z   3
loop_
 _symmetry_equiv_pos_site_id
 _symmetry_equiv_pos_as_xyz
  1  'x, y, z'
loop_
 _atom_site_type_symbol
 _atom_site_label
 _atom_site_symmetry_multiplicity
 _atom_site_fract_x
 _atom_site_fract_y
 _atom_site_fract_z
 _atom_site_occupancy
 _atom_site_charge
Al  Al1  1  0.00000000  0.50000000  0.50000000  1.0 1.6613912332
Al  Al2  1  0.50000000  0.00000000  0.50000000  1.0 1.6613912332
Al  Al3  1  0.50000000  0.50000000  0.00000000  1.0 1.6502062428
Zn  Zn1  1  0.75000000  0.25000000  0.50000000  1.0 1.100432808
Zn  Zn2  1  0.25000000  0.75000000  0.50000000  1.0 1.100432808
Zn  Zn3  1  0.50000000  0.75000000  0.25000000  1.0 1.100432808
Zn  Zn4  1  0.50000000  0.25000000  0.75000000  1.0 1.100432808
Zn  Zn5  1  0.25000000  0.50000000  0.75000000  1.0 1.100432808
Zn  Zn6  1  0.75000000  0.50000000  0.25000000  1.0 1.100432808
P  P1  1  0.00000000  0.44191000  0.68699000  1.0 1.2966004955
P  P2  1  0.75492000  0.31301000  0.31301000  1.0 1.2932786393
P  P3  1  0.24508000  0.55809000  0.55809000  1.0 1.2932786393
P  P4  1  0.00000000  0.68699000  0.44191000  1.0 1.2966004955
P  P5  1  0.68699000  0.00000000  0.44191000  1.0 1.2932786393
P  P6  1  0.31301000  0.75492000  0.31301000  1.0 1.2932786393
P  P7  1  0.55809000  0.24508000  0.55809000  1.0 1.2932786393
P  P8  1  0.44191000  0.00000000  0.68699000  1.0 1.2932786393
P  P9  1  0.44191000  0.68699000  0.00000000  1.0 1.2966004955
P  P10  1  0.31301000  0.31301000  0.75492000  1.0 1.2932786393
P  P11  1  0.55809000  0.55809000  0.24508000  1.0 1.2932786393
P  P12  1  0.68699000  0.44191000  0.00000000  1.0 1.2966004955
O  O1  1  0.00000000  0.50412000  0.79320000  1.0 -0.4265219343
O  O2  1  0.71092000  0.20680000  0.20680000  1.0 -0.4234227278
O  O3  1  0.28908000  0.49588000  0.49588000  1.0 -0.4265219343
O  O4  1  0.00000000  0.79320000  0.50412000  1.0 -0.4234227278
O  O5  1  0.79320000  0.00000000  0.50412000  1.0 -0.4234227278
O  O6  1  0.20680000  0.71092000  0.20680000  1.0 -0.4265219343
O  O7  1  0.49588000  0.28908000  0.49588000  1.0 -0.4234227278
O  O8  1  0.50412000  0.00000000  0.79320000  1.0 -0.4234227278
O  O9  1  0.50412000  0.79320000  0.00000000  1.0 -0.4234227278
O  O10  1  0.20680000  0.20680000  0.71092000  1.0 -0.4265219343
O  O11  1  0.49588000  0.49588000  0.28908000  1.0 -0.4234227278
O  O12  1  0.79320000  0.50412000  0.00000000  1.0 -0.4265219343
O  O13  1  0.89724000  0.32185000  0.60837000  1.0 -0.5788421608
O  O14  1  0.71348000  0.28887000  0.39163000  1.0 -0.5788421608
O  O15  1  0.28652000  0.67815000  0.57539000  1.0 -0.5788421608
O  O16  1  0.10276000  0.71113000  0.42461000  1.0 -0.5788421608
O  O17  1  0.60837000  0.89724000  0.32185000  1.0 -0.5788421608
O  O18  1  0.39163000  0.71348000  0.28887000  1.0 -0.5788421608
O  O19  1  0.57539000  0.28652000  0.67815000  1.0 -0.5788421608
O  O20  1  0.42461000  0.10276000  0.71113000  1.0 -0.5788421608
O  O21  1  0.32185000  0.60837000  0.89724000  1.0 -0.5788421608
O  O22  1  0.28887000  0.39163000  0.71348000  1.0 -0.5788421608
O  O23  1  0.67815000  0.57539000  0.28652000  1.0 -0.5788421608
O  O24  1  0.71113000  0.42461000  0.10276000  1.0 -0.5788421608
O  O25  1  0.32185000  0.89724000  0.60837000  1.0 -0.5788421608
O  O26  1  0.28887000  0.71348000  0.39163000  1.0 -0.5788421608
O  O27  1  0.67815000  0.28652000  0.57539000  1.0 -0.5788421608
O  O28  1  0.71113000  0.10276000  0.42461000  1.0 -0.5788421608
O  O29  1  0.89724000  0.60837000  0.32185000  1.0 -0.5788421608
O  O30  1  0.71348000  0.39163000  0.28887000  1.0 -0.5788421608
O  O31  1  0.28652000  0.57539000  0.67815000  1.0 -0.5788421608
O  O32  1  0.10276000  0.42461000  0.71113000  1.0 -0.5788421608
O  O33  1  0.60837000  0.32185000  0.89724000  1.0 -0.5788421608
O  O34  1  0.39163000  0.28887000  0.71348000  1.0 -0.5788421608
O  O35  1  0.57539000  0.67815000  0.28652000  1.0 -0.5788421608
O  O36  1  0.42461000  0.71113000  0.10276000  1.0 -0.5788421608
O  O37  1  0.00000000  0.50687000  0.62255000  1.0 -0.6778154359
O  O38  1  0.88432000  0.37745000  0.37745000  1.0 -0.6778154359
O  O39  1  0.11568000  0.49313000  0.49313000  1.0 -0.6778154359
O  O40  1  0.00000000  0.62255000  0.50687000  1.0 -0.6778154359
O  O41  1  0.62255000  0.00000000  0.50687000  1.0 -0.6730323684
O  O42  1  0.37745000  0.88432000  0.37745000  1.0 -0.6778154359
O  O43  1  0.49313000  0.11568000  0.49313000  1.0 -0.6778154359
O  O44  1  0.50687000  0.00000000  0.62255000  1.0 -0.6778154359
O  O45  1  0.50687000  0.62255000  0.00000000  1.0 -0.6778154359
O  O46  1  0.37745000  0.37745000  0.88432000  1.0 -0.6730323684
O  O47  1  0.49313000  0.49313000  0.11568000  1.0 -0.6778154359
O  O48  1  0.62255000  0.50687000  0.00000000  1.0 -0.6730323684
