# DDEC6 charges by PACMAN v1.1 (https://github.com/mtap-research/PACMAN-charge/)
data_OKIBOC_FSR_pacman
_symmetry_space_group_name_H-M   'P 1'
_cell_length_a   21.45800000
_cell_length_b   21.45800000
_cell_length_c   34.12900000
_cell_angle_alpha   90.00000000
_cell_angle_beta   90.00000000
_cell_angle_gamma   90.00000000
_symmetry_Int_Tables_number   1
_chemical_formula_structural   Zn4H64C85O31
_chemical_formula_sum   'Zn16 H256 C340 O124'
_cell_volume   15714.55347956
_cell_formula_units_Z   4
loop_
 _symmetry_equiv_pos_site_id
 _symmetry_equiv_pos_as_xyz
  1  'x, y, z'
loop_
 _atom_site_type_symbol
 _atom_site_label
 _atom_site_symmetry_multiplicity
 _atom_site_fract_x
 _atom_site_fract_y
 _atom_site_fract_z
 _atom_site_occupancy
 _atom_site_charge
Zn  Zn1  1  0.26636000  0.16027000  0.00000000  1.0 0.6943066538
Zn  Zn2  1  0.73364000  0.83973000  0.00000000  1.0 0.6943066538
Zn  Zn3  1  0.33973000  0.76636000  0.50000000  1.0 0.6943066538
Zn  Zn4  1  0.66027000  0.23364000  0.50000000  1.0 0.6943066538
Zn  Zn5  1  0.23364000  0.66027000  0.50000000  1.0 0.6943066538
Zn  Zn6  1  0.76636000  0.33973000  0.50000000  1.0 0.6943066538
Zn  Zn7  1  0.16027000  0.26636000  0.00000000  1.0 0.6943066538
Zn  Zn8  1  0.83973000  0.73364000  0.00000000  1.0 0.6943066538
Zn  Zn9  1  0.28714000  0.28714000  0.04561000  1.0 0.6943066538
Zn  Zn10  1  0.71286000  0.71286000  0.04561000  1.0 0.6943066538
Zn  Zn11  1  0.21286000  0.78714000  0.54561000  1.0 0.6943066538
Zn  Zn12  1  0.78714000  0.21286000  0.54561000  1.0 0.6956633977
Zn  Zn13  1  0.21286000  0.78714000  0.45439000  1.0 0.6956633977
Zn  Zn14  1  0.78714000  0.21286000  0.45439000  1.0 0.6956633977
Zn  Zn15  1  0.28714000  0.28714000  0.95439000  1.0 0.6943066538
Zn  Zn16  1  0.71286000  0.71286000  0.95439000  1.0 0.6943066538
H  H1  1  0.39060000  0.20870000  0.14230000  1.0 0.0697552212
H  H2  1  0.43350000  0.14690000  0.19080000  1.0 0.0697552212
H  H3  1  0.34190000  0.00250000  0.15160000  1.0 0.0906422665
H  H4  1  0.29100000  0.06690000  0.10680000  1.0 0.0697552212
H  H5  1  0.45580000  0.08320000  0.24410000  1.0 0.0906422665
H  H6  1  0.50090000  0.06900000  0.20920000  1.0 0.1024443456
H  H7  1  0.41440000  0.40300000  0.05730000  1.0 0.115218503
H  H8  1  0.44590000  0.43590000  0.94480000  1.0 0.05550616
H  H9  1  0.39970000  0.19510000  0.13290000  1.0 0.0697552212
H  H10  1  0.45450000  0.13920000  0.18160000  1.0 0.0797662882
H  H11  1  0.37750000  0.98640000  0.14000000  1.0 0.0797662882
H  H12  1  0.32800000  0.04150000  0.09190000  1.0 0.0697552212
H  H13  1  0.46230000  0.08630000  0.23900000  1.0 0.0906422665
H  H14  1  0.51890000  0.07050000  0.21100000  1.0 0.0697552212
H  H15  1  0.60940000  0.79130000  0.14230000  1.0 0.0697552212
H  H16  1  0.56650000  0.85310000  0.19080000  1.0 0.0697552212
H  H17  1  0.65810000  0.99750000  0.15160000  1.0 0.0906422665
H  H18  1  0.70900000  0.93310000  0.10680000  1.0 0.0697552212
H  H19  1  0.54420000  0.91680000  0.24410000  1.0 0.0906422665
H  H20  1  0.49910000  0.93100000  0.20920000  1.0 0.1024443456
H  H21  1  0.58560000  0.59700000  0.05730000  1.0 0.115218503
H  H22  1  0.55410000  0.56410000  0.94480000  1.0 0.05550616
H  H23  1  0.60030000  0.80490000  0.13290000  1.0 0.0697552212
H  H24  1  0.54550000  0.86080000  0.18160000  1.0 0.0697552212
H  H25  1  0.62250000  0.01360000  0.14000000  1.0 0.0797662882
H  H26  1  0.67200000  0.95850000  0.09190000  1.0 0.0697552212
H  H27  1  0.53770000  0.91370000  0.23900000  1.0 0.0906422665
H  H28  1  0.48110000  0.92950000  0.21100000  1.0 0.0697552212
H  H29  1  0.29130000  0.89060000  0.64230000  1.0 0.0697552212
H  H30  1  0.35310000  0.93350000  0.69080000  1.0 0.0697552212
H  H31  1  0.49750000  0.84190000  0.65160000  1.0 0.0906422665
H  H32  1  0.43310000  0.79100000  0.60680000  1.0 0.0697552212
H  H33  1  0.41680000  0.95580000  0.74410000  1.0 0.0906422665
H  H34  1  0.43100000  0.00090000  0.70920000  1.0 0.1024443456
H  H35  1  0.09700000  0.91440000  0.55730000  1.0 0.115218503
H  H36  1  0.06410000  0.94590000  0.44480000  1.0 0.05550616
H  H37  1  0.30490000  0.89970000  0.63290000  1.0 0.0697552212
H  H38  1  0.36080000  0.95450000  0.68160000  1.0 0.0797662882
H  H39  1  0.51360000  0.87750000  0.64000000  1.0 0.0797662882
H  H40  1  0.45850000  0.82800000  0.59190000  1.0 0.0697552212
H  H41  1  0.41370000  0.96230000  0.73900000  1.0 0.0906422665
H  H42  1  0.42950000  0.01890000  0.71100000  1.0 0.0697552212
H  H43  1  0.70870000  0.10940000  0.64230000  1.0 0.0697552212
H  H44  1  0.64690000  0.06650000  0.69080000  1.0 0.0697552212
H  H45  1  0.50250000  0.15810000  0.65160000  1.0 0.0906422665
H  H46  1  0.56690000  0.20900000  0.60680000  1.0 0.0697552212
H  H47  1  0.58320000  0.04420000  0.74410000  1.0 0.0906422665
H  H48  1  0.56900000  0.99910000  0.70920000  1.0 0.1024443456
H  H49  1  0.90300000  0.08560000  0.55730000  1.0 0.115218503
H  H50  1  0.93590000  0.05410000  0.44480000  1.0 0.0548741794
H  H51  1  0.69510000  0.10030000  0.63290000  1.0 0.0697552212
H  H52  1  0.63920000  0.04550000  0.68160000  1.0 0.0797662882
H  H53  1  0.48640000  0.12250000  0.64000000  1.0 0.0797662882
H  H54  1  0.54150000  0.17200000  0.59190000  1.0 0.0697552212
H  H55  1  0.58630000  0.03770000  0.73900000  1.0 0.0906422665
H  H56  1  0.57050000  0.98110000  0.71100000  1.0 0.0697552212
H  H57  1  0.10940000  0.70870000  0.35770000  1.0 0.0697552212
H  H58  1  0.06650000  0.64690000  0.30920000  1.0 0.0697552212
H  H59  1  0.15810000  0.50250000  0.34840000  1.0 0.0906422665
H  H60  1  0.20900000  0.56690000  0.39320000  1.0 0.0697552212
H  H61  1  0.04420000  0.58320000  0.25590000  1.0 0.0906422665
H  H62  1  0.99910000  0.56900000  0.29080000  1.0 0.1024443456
H  H63  1  0.08560000  0.90300000  0.44270000  1.0 0.115218503
H  H64  1  0.05410000  0.93590000  0.55520000  1.0 0.05550616
H  H65  1  0.10030000  0.69510000  0.36710000  1.0 0.0697552212
H  H66  1  0.04550000  0.63920000  0.31840000  1.0 0.0697552212
H  H67  1  0.12250000  0.48640000  0.36000000  1.0 0.0797662882
H  H68  1  0.17200000  0.54150000  0.40810000  1.0 0.0697552212
H  H69  1  0.03770000  0.58630000  0.26100000  1.0 0.0906422665
H  H70  1  0.98110000  0.57050000  0.28900000  1.0 0.0697552212
H  H71  1  0.89060000  0.29130000  0.35770000  1.0 0.0697552212
H  H72  1  0.93350000  0.35310000  0.30920000  1.0 0.0697552212
H  H73  1  0.84190000  0.49750000  0.34840000  1.0 0.0906422665
H  H74  1  0.79100000  0.43310000  0.39320000  1.0 0.0697552212
H  H75  1  0.95580000  0.41680000  0.25590000  1.0 0.0906422665
H  H76  1  0.00090000  0.43100000  0.29080000  1.0 0.1024443456
H  H77  1  0.91440000  0.09700000  0.44270000  1.0 0.115218503
H  H78  1  0.94590000  0.06410000  0.55520000  1.0 0.05550616
H  H79  1  0.89970000  0.30490000  0.36710000  1.0 0.0697552212
H  H80  1  0.95450000  0.36080000  0.31840000  1.0 0.0797662882
H  H81  1  0.87750000  0.51360000  0.36000000  1.0 0.0797662882
H  H82  1  0.82800000  0.45850000  0.40810000  1.0 0.0697552212
H  H83  1  0.96230000  0.41370000  0.26100000  1.0 0.0906422665
H  H84  1  0.01890000  0.42950000  0.28900000  1.0 0.0697552212
H  H85  1  0.20870000  0.39060000  0.85770000  1.0 0.0697552212
H  H86  1  0.14690000  0.43350000  0.80920000  1.0 0.0697552212
H  H87  1  0.00250000  0.34190000  0.84840000  1.0 0.0906422665
H  H88  1  0.06690000  0.29100000  0.89320000  1.0 0.0697552212
H  H89  1  0.08320000  0.45580000  0.75590000  1.0 0.0906422665
H  H90  1  0.06900000  0.50090000  0.79080000  1.0 0.1024443456
H  H91  1  0.40300000  0.41440000  0.94270000  1.0 0.115218503
H  H92  1  0.43590000  0.44590000  0.05520000  1.0 0.05550616
H  H93  1  0.19510000  0.39970000  0.86710000  1.0 0.0697552212
H  H94  1  0.13920000  0.45450000  0.81840000  1.0 0.0797662882
H  H95  1  0.98640000  0.37750000  0.86000000  1.0 0.0797662882
H  H96  1  0.04150000  0.32800000  0.90810000  1.0 0.0697552212
H  H97  1  0.08630000  0.46230000  0.76100000  1.0 0.0906422665
H  H98  1  0.07050000  0.51890000  0.78900000  1.0 0.0697552212
H  H99  1  0.79130000  0.60940000  0.85770000  1.0 0.0697552212
H  H100  1  0.85310000  0.56650000  0.80920000  1.0 0.0697552212
H  H101  1  0.99750000  0.65810000  0.84840000  1.0 0.0906422665
H  H102  1  0.93310000  0.70900000  0.89320000  1.0 0.0697552212
H  H103  1  0.91680000  0.54420000  0.75590000  1.0 0.0906422665
H  H104  1  0.93100000  0.49910000  0.79080000  1.0 0.1024443456
H  H105  1  0.59700000  0.58560000  0.94270000  1.0 0.115218503
H  H106  1  0.56410000  0.55410000  0.05520000  1.0 0.0548741794
H  H107  1  0.80490000  0.60030000  0.86710000  1.0 0.0697552212
H  H108  1  0.86080000  0.54550000  0.81840000  1.0 0.0797662882
H  H109  1  0.01360000  0.62250000  0.86000000  1.0 0.0797662882
H  H110  1  0.95850000  0.67200000  0.90810000  1.0 0.0697552212
H  H111  1  0.91370000  0.53770000  0.76100000  1.0 0.0906422665
H  H112  1  0.92950000  0.48110000  0.78900000  1.0 0.0697552212
H  H113  1  0.60940000  0.79130000  0.85770000  1.0 0.0697552212
H  H114  1  0.56650000  0.85310000  0.80920000  1.0 0.0697552212
H  H115  1  0.65810000  0.99750000  0.84840000  1.0 0.0906422665
H  H116  1  0.70900000  0.93310000  0.89320000  1.0 0.0697552212
H  H117  1  0.54420000  0.91680000  0.75590000  1.0 0.0906422665
H  H118  1  0.49910000  0.93100000  0.79080000  1.0 0.1024443456
H  H119  1  0.58560000  0.59700000  0.94270000  1.0 0.115218503
H  H120  1  0.55410000  0.56410000  0.05520000  1.0 0.0548741794
H  H121  1  0.60030000  0.80490000  0.86710000  1.0 0.0697552212
H  H122  1  0.54550000  0.86080000  0.81840000  1.0 0.0797662882
H  H123  1  0.62250000  0.01360000  0.86000000  1.0 0.0797662882
H  H124  1  0.67200000  0.95850000  0.90810000  1.0 0.0697552212
H  H125  1  0.53770000  0.91370000  0.76100000  1.0 0.0906422665
H  H126  1  0.48110000  0.92950000  0.78900000  1.0 0.0697552212
H  H127  1  0.39060000  0.20870000  0.85770000  1.0 0.0697552212
H  H128  1  0.43350000  0.14690000  0.80920000  1.0 0.0697552212
H  H129  1  0.34190000  0.00250000  0.84840000  1.0 0.0906422665
H  H130  1  0.29100000  0.06690000  0.89320000  1.0 0.0697552212
H  H131  1  0.45580000  0.08320000  0.75590000  1.0 0.0906422665
H  H132  1  0.50090000  0.06900000  0.79080000  1.0 0.1024443456
H  H133  1  0.41440000  0.40300000  0.94270000  1.0 0.115218503
H  H134  1  0.44590000  0.43590000  0.05520000  1.0 0.0548741794
H  H135  1  0.39970000  0.19510000  0.86710000  1.0 0.0697552212
H  H136  1  0.45450000  0.13920000  0.81840000  1.0 0.0797662882
H  H137  1  0.37750000  0.98640000  0.86000000  1.0 0.0797662882
H  H138  1  0.32800000  0.04150000  0.90810000  1.0 0.0697552212
H  H139  1  0.46230000  0.08630000  0.76100000  1.0 0.0906422665
H  H140  1  0.51890000  0.07050000  0.78900000  1.0 0.0697552212
H  H141  1  0.70870000  0.10940000  0.35770000  1.0 0.0697552212
H  H142  1  0.64690000  0.06650000  0.30920000  1.0 0.0697552212
H  H143  1  0.50250000  0.15810000  0.34840000  1.0 0.0906422665
H  H144  1  0.56690000  0.20900000  0.39320000  1.0 0.0697552212
H  H145  1  0.58320000  0.04420000  0.25590000  1.0 0.0906422665
H  H146  1  0.56900000  0.99910000  0.29080000  1.0 0.1024443456
H  H147  1  0.90300000  0.08560000  0.44270000  1.0 0.115218503
H  H148  1  0.93590000  0.05410000  0.55520000  1.0 0.05550616
H  H149  1  0.69510000  0.10030000  0.36710000  1.0 0.0697552212
H  H150  1  0.63920000  0.04550000  0.31840000  1.0 0.0697552212
H  H151  1  0.48640000  0.12250000  0.36000000  1.0 0.0797662882
H  H152  1  0.54150000  0.17200000  0.40810000  1.0 0.0697552212
H  H153  1  0.58630000  0.03770000  0.26100000  1.0 0.0906422665
H  H154  1  0.57050000  0.98110000  0.28900000  1.0 0.0697552212
H  H155  1  0.29130000  0.89060000  0.35770000  1.0 0.0697552212
H  H156  1  0.35310000  0.93350000  0.30920000  1.0 0.0697552212
H  H157  1  0.49750000  0.84190000  0.34840000  1.0 0.0906422665
H  H158  1  0.43310000  0.79100000  0.39320000  1.0 0.0697552212
H  H159  1  0.41680000  0.95580000  0.25590000  1.0 0.0906422665
H  H160  1  0.43100000  0.00090000  0.29080000  1.0 0.1024443456
H  H161  1  0.09700000  0.91440000  0.44270000  1.0 0.115218503
H  H162  1  0.06410000  0.94590000  0.55520000  1.0 0.05550616
H  H163  1  0.30490000  0.89970000  0.36710000  1.0 0.0697552212
H  H164  1  0.36080000  0.95450000  0.31840000  1.0 0.0697552212
H  H165  1  0.51360000  0.87750000  0.36000000  1.0 0.0797662882
H  H166  1  0.45850000  0.82800000  0.40810000  1.0 0.0697552212
H  H167  1  0.41370000  0.96230000  0.26100000  1.0 0.0906422665
H  H168  1  0.42950000  0.01890000  0.28900000  1.0 0.0697552212
H  H169  1  0.89060000  0.29130000  0.64230000  1.0 0.0697552212
H  H170  1  0.93350000  0.35310000  0.69080000  1.0 0.0697552212
H  H171  1  0.84190000  0.49750000  0.65160000  1.0 0.0906422665
H  H172  1  0.79100000  0.43310000  0.60680000  1.0 0.0697552212
H  H173  1  0.95580000  0.41680000  0.74410000  1.0 0.0906422665
H  H174  1  0.00090000  0.43100000  0.70920000  1.0 0.1024443456
H  H175  1  0.91440000  0.09700000  0.55730000  1.0 0.115218503
H  H176  1  0.94590000  0.06410000  0.44480000  1.0 0.0548741794
H  H177  1  0.89970000  0.30490000  0.63290000  1.0 0.0697552212
H  H178  1  0.95450000  0.36080000  0.68160000  1.0 0.0797662882
H  H179  1  0.87750000  0.51360000  0.64000000  1.0 0.0797662882
H  H180  1  0.82800000  0.45850000  0.59190000  1.0 0.0697552212
H  H181  1  0.96230000  0.41370000  0.73900000  1.0 0.0906422665
H  H182  1  0.01890000  0.42950000  0.71100000  1.0 0.0797662882
H  H183  1  0.10940000  0.70870000  0.64230000  1.0 0.0697552212
H  H184  1  0.06650000  0.64690000  0.69080000  1.0 0.0697552212
H  H185  1  0.15810000  0.50250000  0.65160000  1.0 0.0906422665
H  H186  1  0.20900000  0.56690000  0.60680000  1.0 0.0697552212
H  H187  1  0.04420000  0.58320000  0.74410000  1.0 0.0906422665
H  H188  1  0.99910000  0.56900000  0.70920000  1.0 0.1024443456
H  H189  1  0.08560000  0.90300000  0.55730000  1.0 0.115218503
H  H190  1  0.05410000  0.93590000  0.44480000  1.0 0.05550616
H  H191  1  0.10030000  0.69510000  0.63290000  1.0 0.0697552212
H  H192  1  0.04550000  0.63920000  0.68160000  1.0 0.0697552212
H  H193  1  0.12250000  0.48640000  0.64000000  1.0 0.0797662882
H  H194  1  0.17200000  0.54150000  0.59190000  1.0 0.0697552212
H  H195  1  0.03770000  0.58630000  0.73900000  1.0 0.0906422665
H  H196  1  0.98110000  0.57050000  0.71100000  1.0 0.0697552212
H  H197  1  0.79130000  0.60940000  0.14230000  1.0 0.0697552212
H  H198  1  0.85310000  0.56650000  0.19080000  1.0 0.0697552212
H  H199  1  0.99750000  0.65810000  0.15160000  1.0 0.0906422665
H  H200  1  0.93310000  0.70900000  0.10680000  1.0 0.0697552212
H  H201  1  0.91680000  0.54420000  0.24410000  1.0 0.0906422665
H  H202  1  0.93100000  0.49910000  0.20920000  1.0 0.1024443456
H  H203  1  0.59700000  0.58560000  0.05730000  1.0 0.115218503
H  H204  1  0.56410000  0.55410000  0.94480000  1.0 0.05550616
H  H205  1  0.80490000  0.60030000  0.13290000  1.0 0.0697552212
H  H206  1  0.86080000  0.54550000  0.18160000  1.0 0.0697552212
H  H207  1  0.01360000  0.62250000  0.14000000  1.0 0.0797662882
H  H208  1  0.95850000  0.67200000  0.09190000  1.0 0.0697552212
H  H209  1  0.91370000  0.53770000  0.23900000  1.0 0.0906422665
H  H210  1  0.92950000  0.48110000  0.21100000  1.0 0.0697552212
H  H211  1  0.20870000  0.39060000  0.14230000  1.0 0.0697552212
H  H212  1  0.14690000  0.43350000  0.19080000  1.0 0.0697552212
H  H213  1  0.00250000  0.34190000  0.15160000  1.0 0.0906422665
H  H214  1  0.06690000  0.29100000  0.10680000  1.0 0.0697552212
H  H215  1  0.08320000  0.45580000  0.24410000  1.0 0.0906422665
H  H216  1  0.06900000  0.50090000  0.20920000  1.0 0.1024443456
H  H217  1  0.40300000  0.41440000  0.05730000  1.0 0.115218503
H  H218  1  0.43590000  0.44590000  0.94480000  1.0 0.05550616
H  H219  1  0.19510000  0.39970000  0.13290000  1.0 0.0697552212
H  H220  1  0.13920000  0.45450000  0.18160000  1.0 0.0797662882
H  H221  1  0.98640000  0.37750000  0.14000000  1.0 0.0797662882
H  H222  1  0.04150000  0.32800000  0.09190000  1.0 0.0697552212
H  H223  1  0.08630000  0.46230000  0.23900000  1.0 0.0906422665
H  H224  1  0.07050000  0.51890000  0.21100000  1.0 0.0697552212
H  H225  1  0.99760000  0.11670000  0.00000000  1.0 0.0697552212
H  H226  1  0.14700000  0.02420000  0.00000000  1.0 0.1024443456
H  H227  1  0.09280000  0.93060000  0.00000000  1.0 0.0697552212
H  H228  1  0.00240000  0.88330000  0.00000000  1.0 0.0697552212
H  H229  1  0.85300000  0.97580000  0.00000000  1.0 0.1024443456
H  H230  1  0.90720000  0.06940000  0.00000000  1.0 0.0697552212
H  H231  1  0.38330000  0.49760000  0.50000000  1.0 0.0697552212
H  H232  1  0.47580000  0.64700000  0.50000000  1.0 0.1024443456
H  H233  1  0.56940000  0.59280000  0.50000000  1.0 0.0697552212
H  H234  1  0.61670000  0.50240000  0.50000000  1.0 0.0697552212
H  H235  1  0.52420000  0.35300000  0.50000000  1.0 0.1024443456
H  H236  1  0.43060000  0.40720000  0.50000000  1.0 0.0697552212
H  H237  1  0.50240000  0.61670000  0.50000000  1.0 0.0697552212
H  H238  1  0.35300000  0.52420000  0.50000000  1.0 0.1024443456
H  H239  1  0.40720000  0.43060000  0.50000000  1.0 0.0697552212
H  H240  1  0.49760000  0.38330000  0.50000000  1.0 0.0697552212
H  H241  1  0.64700000  0.47580000  0.50000000  1.0 0.1024443456
H  H242  1  0.59280000  0.56940000  0.50000000  1.0 0.0697552212
H  H243  1  0.11670000  0.99760000  0.00000000  1.0 0.0697552212
H  H244  1  0.02420000  0.14700000  0.00000000  1.0 0.1024443456
H  H245  1  0.93060000  0.09280000  0.00000000  1.0 0.0697552212
H  H246  1  0.88330000  0.00240000  0.00000000  1.0 0.0697552212
H  H247  1  0.97580000  0.85300000  0.00000000  1.0 0.1024443456
H  H248  1  0.06940000  0.90720000  0.00000000  1.0 0.0697552212
H  H249  1  0.48730000  0.48730000  0.07270000  1.0 0.0697552212
H  H250  1  0.51270000  0.51270000  0.07270000  1.0 0.0697552212
H  H251  1  0.01270000  0.98730000  0.57270000  1.0 0.0697552212
H  H252  1  0.98730000  0.01270000  0.57270000  1.0 0.0697552212
H  H253  1  0.01270000  0.98730000  0.42730000  1.0 0.0697552212
H  H254  1  0.98730000  0.01270000  0.42730000  1.0 0.0697552212
H  H255  1  0.48730000  0.48730000  0.92730000  1.0 0.0697552212
H  H256  1  0.51270000  0.51270000  0.92730000  1.0 0.0697552212
C  C1  1  0.31130000  0.17910000  0.08280000  1.0 0.2772246223
C  C2  1  0.34160000  0.14290000  0.11570000  1.0 -0.039899513
C  C3  1  0.38080000  0.16650000  0.14300000  1.0 -0.039899513
C  C4  1  0.40700000  0.12930000  0.17230000  1.0 -0.0885035387
C  C5  1  0.39440000  0.06940000  0.17370000  1.0 0.0444634459
C  C6  1  0.35220000  0.04450000  0.14980000  1.0 -0.1135240732
C  C7  1  0.32350000  0.08300000  0.12170000  1.0 -0.1007269357
C  C8  1  0.46970000  0.05080000  0.22630000  1.0 -0.1956042223
C  C9  1  0.32980000  0.16320000  0.07500000  1.0 0.2620357513
C  C10  1  0.36140000  0.12300000  0.10530000  1.0 -0.0308108168
C  C11  1  0.39640000  0.15190000  0.13360000  1.0 -0.0715191141
C  C12  1  0.42810000  0.11910000  0.16410000  1.0 -0.1007269357
C  C13  1  0.41760000  0.05800000  0.16590000  1.0 0.0797662882
C  C14  1  0.38250000  0.02940000  0.13890000  1.0 -0.1505246078
C  C15  1  0.35370000  0.06250000  0.10940000  1.0 -0.0885035387
C  C16  1  0.48280000  0.05350000  0.22430000  1.0 -0.257242505
C  C17  1  0.68870000  0.82090000  0.08280000  1.0 0.2772246223
C  C18  1  0.65840000  0.85710000  0.11570000  1.0 -0.039899513
C  C19  1  0.61920000  0.83350000  0.14300000  1.0 -0.039899513
C  C20  1  0.59300000  0.87070000  0.17230000  1.0 -0.0885035387
C  C21  1  0.60560000  0.93060000  0.17370000  1.0 0.0444634459
C  C22  1  0.64780000  0.95550000  0.14980000  1.0 -0.1135240732
C  C23  1  0.67650000  0.91700000  0.12170000  1.0 -0.1007269357
C  C24  1  0.53030000  0.94920000  0.22630000  1.0 -0.1956042223
C  C25  1  0.67020000  0.83680000  0.07500000  1.0 0.2620357513
C  C26  1  0.63860000  0.87700000  0.10530000  1.0 -0.0308108168
C  C27  1  0.60360000  0.84810000  0.13360000  1.0 -0.0715191141
C  C28  1  0.57190000  0.88090000  0.16410000  1.0 -0.1007269357
C  C29  1  0.58240000  0.94200000  0.16590000  1.0 0.0906422665
C  C30  1  0.61750000  0.97060000  0.13890000  1.0 -0.1505246078
C  C31  1  0.64630000  0.93750000  0.10940000  1.0 -0.0885035387
C  C32  1  0.51720000  0.94650000  0.22430000  1.0 -0.257242505
C  C33  1  0.32090000  0.81130000  0.58280000  1.0 0.2772246223
C  C34  1  0.35710000  0.84160000  0.61570000  1.0 -0.039899513
C  C35  1  0.33350000  0.88080000  0.64300000  1.0 -0.039899513
C  C36  1  0.37070000  0.90700000  0.67230000  1.0 -0.0885035387
C  C37  1  0.43060000  0.89440000  0.67370000  1.0 0.0444634459
C  C38  1  0.45550000  0.85220000  0.64980000  1.0 -0.1135240732
C  C39  1  0.41700000  0.82350000  0.62170000  1.0 -0.0885035387
C  C40  1  0.44920000  0.96970000  0.72630000  1.0 -0.1956042223
C  C41  1  0.33680000  0.82980000  0.57500000  1.0 0.2620357513
C  C42  1  0.37700000  0.86140000  0.60530000  1.0 -0.0308108168
C  C43  1  0.34810000  0.89640000  0.63360000  1.0 -0.0715191141
C  C44  1  0.38090000  0.92810000  0.66410000  1.0 -0.1007269357
C  C45  1  0.44200000  0.91760000  0.66590000  1.0 0.0797662882
C  C46  1  0.47060000  0.88250000  0.63890000  1.0 -0.1505246078
C  C47  1  0.43750000  0.85370000  0.60940000  1.0 -0.0885035387
C  C48  1  0.44650000  0.98280000  0.72430000  1.0 -0.257242505
C  C49  1  0.67910000  0.18870000  0.58280000  1.0 0.2772246223
C  C50  1  0.64290000  0.15840000  0.61570000  1.0 -0.039899513
C  C51  1  0.66650000  0.11920000  0.64300000  1.0 -0.039899513
C  C52  1  0.62930000  0.09300000  0.67230000  1.0 -0.0885035387
C  C53  1  0.56940000  0.10560000  0.67370000  1.0 0.0444634459
C  C54  1  0.54450000  0.14780000  0.64980000  1.0 -0.1135240732
C  C55  1  0.58300000  0.17650000  0.62170000  1.0 -0.1007269357
C  C56  1  0.55080000  0.03030000  0.72630000  1.0 -0.1956042223
C  C57  1  0.66320000  0.17020000  0.57500000  1.0 0.2620357513
C  C58  1  0.62300000  0.13860000  0.60530000  1.0 -0.0308108168
C  C59  1  0.65190000  0.10360000  0.63360000  1.0 -0.0715191141
C  C60  1  0.61910000  0.07190000  0.66410000  1.0 -0.1007269357
C  C61  1  0.55800000  0.08240000  0.66590000  1.0 0.0906422665
C  C62  1  0.52940000  0.11750000  0.63890000  1.0 -0.1505246078
C  C63  1  0.56250000  0.14630000  0.60940000  1.0 -0.0885035387
C  C64  1  0.55350000  0.01720000  0.72430000  1.0 -0.257242505
C  C65  1  0.18870000  0.67910000  0.41720000  1.0 0.2772246223
C  C66  1  0.15840000  0.64290000  0.38430000  1.0 -0.039899513
C  C67  1  0.11920000  0.66650000  0.35700000  1.0 -0.039899513
C  C68  1  0.09300000  0.62930000  0.32770000  1.0 -0.0885035387
C  C69  1  0.10560000  0.56940000  0.32630000  1.0 0.0444634459
C  C70  1  0.14780000  0.54450000  0.35020000  1.0 -0.1135240732
C  C71  1  0.17650000  0.58300000  0.37830000  1.0 -0.1007269357
C  C72  1  0.03030000  0.55080000  0.27370000  1.0 -0.1956042223
C  C73  1  0.17020000  0.66320000  0.42500000  1.0 0.2620357513
C  C74  1  0.13860000  0.62300000  0.39470000  1.0 -0.0308108168
C  C75  1  0.10360000  0.65190000  0.36640000  1.0 -0.0715191141
C  C76  1  0.07190000  0.61910000  0.33590000  1.0 -0.1007269357
C  C77  1  0.08240000  0.55800000  0.33410000  1.0 0.0906422665
C  C78  1  0.11750000  0.52940000  0.36110000  1.0 -0.1505246078
C  C79  1  0.14630000  0.56250000  0.39060000  1.0 -0.0885035387
C  C80  1  0.01720000  0.55350000  0.27570000  1.0 -0.257242505
C  C81  1  0.81130000  0.32090000  0.41720000  1.0 0.2772246223
C  C82  1  0.84160000  0.35710000  0.38430000  1.0 -0.039899513
C  C83  1  0.88080000  0.33350000  0.35700000  1.0 -0.039899513
C  C84  1  0.90700000  0.37070000  0.32770000  1.0 -0.0885035387
C  C85  1  0.89440000  0.43060000  0.32630000  1.0 0.0444634459
C  C86  1  0.85220000  0.45550000  0.35020000  1.0 -0.1135240732
C  C87  1  0.82350000  0.41700000  0.37830000  1.0 -0.0885035387
C  C88  1  0.96970000  0.44920000  0.27370000  1.0 -0.1956042223
C  C89  1  0.82980000  0.33680000  0.42500000  1.0 0.2620357513
C  C90  1  0.86140000  0.37700000  0.39470000  1.0 -0.0308108168
C  C91  1  0.89640000  0.34810000  0.36640000  1.0 -0.0715191141
C  C92  1  0.92810000  0.38090000  0.33590000  1.0 -0.1007269357
C  C93  1  0.91760000  0.44200000  0.33410000  1.0 0.0906422665
C  C94  1  0.88250000  0.47060000  0.36110000  1.0 -0.1505246078
C  C95  1  0.85370000  0.43750000  0.39060000  1.0 -0.0885035387
C  C96  1  0.98280000  0.44650000  0.27570000  1.0 -0.257242505
C  C97  1  0.17910000  0.31130000  0.91720000  1.0 0.2772246223
C  C98  1  0.14290000  0.34160000  0.88430000  1.0 -0.039899513
C  C99  1  0.16650000  0.38080000  0.85700000  1.0 -0.039899513
C  C100  1  0.12930000  0.40700000  0.82770000  1.0 -0.0885035387
C  C101  1  0.06940000  0.39440000  0.82630000  1.0 0.0444634459
C  C102  1  0.04450000  0.35220000  0.85020000  1.0 -0.1135240732
C  C103  1  0.08300000  0.32350000  0.87830000  1.0 -0.1007269357
C  C104  1  0.05080000  0.46970000  0.77370000  1.0 -0.1956042223
C  C105  1  0.16320000  0.32980000  0.92500000  1.0 0.2620357513
C  C106  1  0.12300000  0.36140000  0.89470000  1.0 -0.0308108168
C  C107  1  0.15190000  0.39640000  0.86640000  1.0 -0.0715191141
C  C108  1  0.11910000  0.42810000  0.83590000  1.0 -0.1007269357
C  C109  1  0.05800000  0.41760000  0.83410000  1.0 0.0797662882
C  C110  1  0.02940000  0.38250000  0.86110000  1.0 -0.1505246078
C  C111  1  0.06250000  0.35370000  0.89060000  1.0 -0.0885035387
C  C112  1  0.05350000  0.48280000  0.77570000  1.0 -0.257242505
C  C113  1  0.82090000  0.68870000  0.91720000  1.0 0.2772246223
C  C114  1  0.85710000  0.65840000  0.88430000  1.0 -0.039899513
C  C115  1  0.83350000  0.61920000  0.85700000  1.0 -0.039899513
C  C116  1  0.87070000  0.59300000  0.82770000  1.0 -0.0885035387
C  C117  1  0.93060000  0.60560000  0.82630000  1.0 0.0444634459
C  C118  1  0.95550000  0.64780000  0.85020000  1.0 -0.1135240732
C  C119  1  0.91700000  0.67650000  0.87830000  1.0 -0.1007269357
C  C120  1  0.94920000  0.53030000  0.77370000  1.0 -0.1956042223
C  C121  1  0.83680000  0.67020000  0.92500000  1.0 0.2620357513
C  C122  1  0.87700000  0.63860000  0.89470000  1.0 -0.0308108168
C  C123  1  0.84810000  0.60360000  0.86640000  1.0 -0.0715191141
C  C124  1  0.88090000  0.57190000  0.83590000  1.0 -0.1007269357
C  C125  1  0.94200000  0.58240000  0.83410000  1.0 0.0906422665
C  C126  1  0.97060000  0.61750000  0.86110000  1.0 -0.1505246078
C  C127  1  0.93750000  0.64630000  0.89060000  1.0 -0.0885035387
C  C128  1  0.94650000  0.51720000  0.77570000  1.0 -0.257242505
C  C129  1  0.68870000  0.82090000  0.91720000  1.0 0.2772246223
C  C130  1  0.65840000  0.85710000  0.88430000  1.0 -0.039899513
C  C131  1  0.61920000  0.83350000  0.85700000  1.0 -0.039899513
C  C132  1  0.59300000  0.87070000  0.82770000  1.0 -0.0885035387
C  C133  1  0.60560000  0.93060000  0.82630000  1.0 0.0444634459
C  C134  1  0.64780000  0.95550000  0.85020000  1.0 -0.1135240732
C  C135  1  0.67650000  0.91700000  0.87830000  1.0 -0.1007269357
C  C136  1  0.53030000  0.94920000  0.77370000  1.0 -0.1956042223
C  C137  1  0.67020000  0.83680000  0.92500000  1.0 0.2620357513
C  C138  1  0.63860000  0.87700000  0.89470000  1.0 -0.0308108168
C  C139  1  0.60360000  0.84810000  0.86640000  1.0 -0.0715191141
C  C140  1  0.57190000  0.88090000  0.83590000  1.0 -0.1007269357
C  C141  1  0.58240000  0.94200000  0.83410000  1.0 0.0906422665
C  C142  1  0.61750000  0.97060000  0.86110000  1.0 -0.1505246078
C  C143  1  0.64630000  0.93750000  0.89060000  1.0 -0.0885035387
C  C144  1  0.51720000  0.94650000  0.77570000  1.0 -0.257242505
C  C145  1  0.31130000  0.17910000  0.91720000  1.0 0.2772246223
C  C146  1  0.34160000  0.14290000  0.88430000  1.0 -0.039899513
C  C147  1  0.38080000  0.16650000  0.85700000  1.0 -0.039899513
C  C148  1  0.40700000  0.12930000  0.82770000  1.0 -0.0885035387
C  C149  1  0.39440000  0.06940000  0.82630000  1.0 0.0444634459
C  C150  1  0.35220000  0.04450000  0.85020000  1.0 -0.1135240732
C  C151  1  0.32350000  0.08300000  0.87830000  1.0 -0.1007269357
C  C152  1  0.46970000  0.05080000  0.77370000  1.0 -0.1956042223
C  C153  1  0.32980000  0.16320000  0.92500000  1.0 0.2620357513
C  C154  1  0.36140000  0.12300000  0.89470000  1.0 -0.0308108168
C  C155  1  0.39640000  0.15190000  0.86640000  1.0 -0.0715191141
C  C156  1  0.42810000  0.11910000  0.83590000  1.0 -0.1007269357
C  C157  1  0.41760000  0.05800000  0.83410000  1.0 0.0797662882
C  C158  1  0.38250000  0.02940000  0.86110000  1.0 -0.1505246078
C  C159  1  0.35370000  0.06250000  0.89060000  1.0 -0.0885035387
C  C160  1  0.48280000  0.05350000  0.77570000  1.0 -0.257242505
C  C161  1  0.67910000  0.18870000  0.41720000  1.0 0.2772246223
C  C162  1  0.64290000  0.15840000  0.38430000  1.0 -0.039899513
C  C163  1  0.66650000  0.11920000  0.35700000  1.0 -0.039899513
C  C164  1  0.62930000  0.09300000  0.32770000  1.0 -0.0885035387
C  C165  1  0.56940000  0.10560000  0.32630000  1.0 0.0444634459
C  C166  1  0.54450000  0.14780000  0.35020000  1.0 -0.1135240732
C  C167  1  0.58300000  0.17650000  0.37830000  1.0 -0.1007269357
C  C168  1  0.55080000  0.03030000  0.27370000  1.0 -0.1956042223
C  C169  1  0.66320000  0.17020000  0.42500000  1.0 0.2620357513
C  C170  1  0.62300000  0.13860000  0.39470000  1.0 -0.0308108168
C  C171  1  0.65190000  0.10360000  0.36640000  1.0 -0.0715191141
C  C172  1  0.61910000  0.07190000  0.33590000  1.0 -0.1007269357
C  C173  1  0.55800000  0.08240000  0.33410000  1.0 0.0906422665
C  C174  1  0.52940000  0.11750000  0.36110000  1.0 -0.1505246078
C  C175  1  0.56250000  0.14630000  0.39060000  1.0 -0.0885035387
C  C176  1  0.55350000  0.01720000  0.27570000  1.0 -0.257242505
C  C177  1  0.32090000  0.81130000  0.41720000  1.0 0.2772246223
C  C178  1  0.35710000  0.84160000  0.38430000  1.0 -0.039899513
C  C179  1  0.33350000  0.88080000  0.35700000  1.0 -0.039899513
C  C180  1  0.37070000  0.90700000  0.32770000  1.0 -0.0885035387
C  C181  1  0.43060000  0.89440000  0.32630000  1.0 0.0444634459
C  C182  1  0.45550000  0.85220000  0.35020000  1.0 -0.1135240732
C  C183  1  0.41700000  0.82350000  0.37830000  1.0 -0.0885035387
C  C184  1  0.44920000  0.96970000  0.27370000  1.0 -0.1956042223
C  C185  1  0.33680000  0.82980000  0.42500000  1.0 0.2620357513
C  C186  1  0.37700000  0.86140000  0.39470000  1.0 -0.039899513
C  C187  1  0.34810000  0.89640000  0.36640000  1.0 -0.0715191141
C  C188  1  0.38090000  0.92810000  0.33590000  1.0 -0.1007269357
C  C189  1  0.44200000  0.91760000  0.33410000  1.0 0.0906422665
C  C190  1  0.47060000  0.88250000  0.36110000  1.0 -0.1505246078
C  C191  1  0.43750000  0.85370000  0.39060000  1.0 -0.0885035387
C  C192  1  0.44650000  0.98280000  0.27570000  1.0 -0.257242505
C  C193  1  0.81130000  0.32090000  0.58280000  1.0 0.2772246223
C  C194  1  0.84160000  0.35710000  0.61570000  1.0 -0.039899513
C  C195  1  0.88080000  0.33350000  0.64300000  1.0 -0.039899513
C  C196  1  0.90700000  0.37070000  0.67230000  1.0 -0.0885035387
C  C197  1  0.89440000  0.43060000  0.67370000  1.0 0.0444634459
C  C198  1  0.85220000  0.45550000  0.64980000  1.0 -0.1135240732
C  C199  1  0.82350000  0.41700000  0.62170000  1.0 -0.0885035387
C  C200  1  0.96970000  0.44920000  0.72630000  1.0 -0.1956042223
C  C201  1  0.82980000  0.33680000  0.57500000  1.0 0.2620357513
C  C202  1  0.86140000  0.37700000  0.60530000  1.0 -0.0308108168
C  C203  1  0.89640000  0.34810000  0.63360000  1.0 -0.0715191141
C  C204  1  0.92810000  0.38090000  0.66410000  1.0 -0.1007269357
C  C205  1  0.91760000  0.44200000  0.66590000  1.0 0.0906422665
C  C206  1  0.88250000  0.47060000  0.63890000  1.0 -0.1505246078
C  C207  1  0.85370000  0.43750000  0.60940000  1.0 -0.0885035387
C  C208  1  0.98280000  0.44650000  0.72430000  1.0 -0.257242505
C  C209  1  0.18870000  0.67910000  0.58280000  1.0 0.2772246223
C  C210  1  0.15840000  0.64290000  0.61570000  1.0 -0.039899513
C  C211  1  0.11920000  0.66650000  0.64300000  1.0 -0.039899513
C  C212  1  0.09300000  0.62930000  0.67230000  1.0 -0.0885035387
C  C213  1  0.10560000  0.56940000  0.67370000  1.0 0.0444634459
C  C214  1  0.14780000  0.54450000  0.64980000  1.0 -0.1135240732
C  C215  1  0.17650000  0.58300000  0.62170000  1.0 -0.1007269357
C  C216  1  0.03030000  0.55080000  0.72630000  1.0 -0.1956042223
C  C217  1  0.17020000  0.66320000  0.57500000  1.0 0.2620357513
C  C218  1  0.13860000  0.62300000  0.60530000  1.0 -0.0308108168
C  C219  1  0.10360000  0.65190000  0.63360000  1.0 -0.0715191141
C  C220  1  0.07190000  0.61910000  0.66410000  1.0 -0.1007269357
C  C221  1  0.08240000  0.55800000  0.66590000  1.0 0.0797662882
C  C222  1  0.11750000  0.52940000  0.63890000  1.0 -0.1505246078
C  C223  1  0.14630000  0.56250000  0.60940000  1.0 -0.0885035387
C  C224  1  0.01720000  0.55350000  0.72430000  1.0 -0.257242505
C  C225  1  0.82090000  0.68870000  0.08280000  1.0 0.2772246223
C  C226  1  0.85710000  0.65840000  0.11570000  1.0 -0.039899513
C  C227  1  0.83350000  0.61920000  0.14300000  1.0 -0.039899513
C  C228  1  0.87070000  0.59300000  0.17230000  1.0 -0.0885035387
C  C229  1  0.93060000  0.60560000  0.17370000  1.0 0.0444634459
C  C230  1  0.95550000  0.64780000  0.14980000  1.0 -0.1135240732
C  C231  1  0.91700000  0.67650000  0.12170000  1.0 -0.1007269357
C  C232  1  0.94920000  0.53030000  0.22630000  1.0 -0.1956042223
C  C233  1  0.83680000  0.67020000  0.07500000  1.0 0.2620357513
C  C234  1  0.87700000  0.63860000  0.10530000  1.0 -0.0308108168
C  C235  1  0.84810000  0.60360000  0.13360000  1.0 -0.0715191141
C  C236  1  0.88090000  0.57190000  0.16410000  1.0 -0.1007269357
C  C237  1  0.94200000  0.58240000  0.16590000  1.0 0.0906422665
C  C238  1  0.97060000  0.61750000  0.13890000  1.0 -0.1505246078
C  C239  1  0.93750000  0.64630000  0.10940000  1.0 -0.084625686
C  C240  1  0.94650000  0.51720000  0.22430000  1.0 -0.257242505
C  C241  1  0.17910000  0.31130000  0.08280000  1.0 0.2772246223
C  C242  1  0.14290000  0.34160000  0.11570000  1.0 -0.039899513
C  C243  1  0.16650000  0.38080000  0.14300000  1.0 -0.039899513
C  C244  1  0.12930000  0.40700000  0.17230000  1.0 -0.0885035387
C  C245  1  0.06940000  0.39440000  0.17370000  1.0 0.0444634459
C  C246  1  0.04450000  0.35220000  0.14980000  1.0 -0.1135240732
C  C247  1  0.08300000  0.32350000  0.12170000  1.0 -0.1007269357
C  C248  1  0.05080000  0.46970000  0.22630000  1.0 -0.1956042223
C  C249  1  0.16320000  0.32980000  0.07500000  1.0 0.2620357513
C  C250  1  0.12300000  0.36140000  0.10530000  1.0 -0.0308108168
C  C251  1  0.15190000  0.39640000  0.13360000  1.0 -0.0715191141
C  C252  1  0.11910000  0.42810000  0.16410000  1.0 -0.1007269357
C  C253  1  0.05800000  0.41760000  0.16590000  1.0 0.0797662882
C  C254  1  0.02940000  0.38250000  0.13890000  1.0 -0.1505246078
C  C255  1  0.06250000  0.35370000  0.10940000  1.0 -0.0885035387
C  C256  1  0.05350000  0.48280000  0.22430000  1.0 -0.257242505
C  C257  1  0.01000000  0.07690000  0.00000000  1.0 -0.0089065415
C  C258  1  0.01330000  0.97320000  0.00000000  1.0 0.0203041016
C  C259  1  0.10220000  0.02460000  0.00000000  1.0 -0.1601692958
C  C260  1  0.07210000  0.97030000  0.00000000  1.0 -0.0308108168
C  C261  1  0.99000000  0.92310000  0.00000000  1.0 -0.001407512
C  C262  1  0.98670000  0.02680000  0.00000000  1.0 0.0203041016
C  C263  1  0.89780000  0.97540000  0.00000000  1.0 -0.1505246078
C  C264  1  0.92790000  0.02970000  0.00000000  1.0 -0.0308108168
C  C265  1  0.42310000  0.51000000  0.50000000  1.0 -0.0089065415
C  C266  1  0.52680000  0.51330000  0.50000000  1.0 0.0203041016
C  C267  1  0.47540000  0.60220000  0.50000000  1.0 -0.1601692958
C  C268  1  0.52970000  0.57210000  0.50000000  1.0 -0.0308108168
C  C269  1  0.57690000  0.49000000  0.50000000  1.0 -0.001407512
C  C270  1  0.47320000  0.48670000  0.50000000  1.0 0.0203041016
C  C271  1  0.52460000  0.39780000  0.50000000  1.0 -0.1601692958
C  C272  1  0.47030000  0.42790000  0.50000000  1.0 -0.0243105967
C  C273  1  0.49000000  0.57690000  0.50000000  1.0 -0.001407512
C  C274  1  0.48670000  0.47320000  0.50000000  1.0 0.0203041016
C  C275  1  0.39780000  0.52460000  0.50000000  1.0 -0.1601692958
C  C276  1  0.42790000  0.47030000  0.50000000  1.0 -0.0243105967
C  C277  1  0.51000000  0.42310000  0.50000000  1.0 -0.0089065415
C  C278  1  0.51330000  0.52680000  0.50000000  1.0 0.0203041016
C  C279  1  0.60220000  0.47540000  0.50000000  1.0 -0.1601692958
C  C280  1  0.57210000  0.52970000  0.50000000  1.0 -0.0308108168
C  C281  1  0.07690000  0.01000000  0.00000000  1.0 -0.0089065415
C  C282  1  0.97320000  0.01330000  0.00000000  1.0 0.0203041016
C  C283  1  0.02460000  0.10220000  0.00000000  1.0 -0.1601692958
C  C284  1  0.97030000  0.07210000  0.00000000  1.0 -0.0308108168
C  C285  1  0.92310000  0.99000000  0.00000000  1.0 -0.001407512
C  C286  1  0.02680000  0.98670000  0.00000000  1.0 0.0203041016
C  C287  1  0.97540000  0.89780000  0.00000000  1.0 -0.1505246078
C  C288  1  0.02970000  0.92790000  0.00000000  1.0 -0.0308108168
C  C289  1  0.50000000  0.00000000  0.25000000  1.0 0.2149329833
C  C290  1  0.50000000  0.00000000  0.75000000  1.0 0.2154200427
C  C291  1  0.00000000  0.50000000  0.25000000  1.0 0.2149329833
C  C292  1  0.00000000  0.50000000  0.75000000  1.0 0.2149329833
C  C293  1  0.43640000  0.43640000  0.03710000  1.0 -0.167008216
C  C294  1  0.47800000  0.47800000  0.04580000  1.0 -0.049161079
C  C295  1  0.50670000  0.50670000  0.01810000  1.0 -0.0089065415
C  C296  1  0.45300000  0.45300000  0.97160000  1.0 -0.049161079
C  C297  1  0.56360000  0.56360000  0.03710000  1.0 -0.1601692958
C  C298  1  0.52200000  0.52200000  0.04580000  1.0 -0.049161079
C  C299  1  0.49330000  0.49330000  0.01810000  1.0 -0.0089065415
C  C300  1  0.54700000  0.54700000  0.97160000  1.0 -0.039899513
C  C301  1  0.06360000  0.93640000  0.53710000  1.0 -0.1601692958
C  C302  1  0.02200000  0.97800000  0.54580000  1.0 -0.049161079
C  C303  1  0.99330000  0.00670000  0.51810000  1.0 -0.0089065415
C  C304  1  0.04700000  0.95300000  0.47160000  1.0 -0.039899513
C  C305  1  0.93640000  0.06360000  0.53710000  1.0 -0.1601692958
C  C306  1  0.97800000  0.02200000  0.54580000  1.0 -0.049161079
C  C307  1  0.00670000  0.99330000  0.51810000  1.0 -0.0089065415
C  C308  1  0.95300000  0.04700000  0.47160000  1.0 -0.039899513
C  C309  1  0.06360000  0.93640000  0.46290000  1.0 -0.1601692958
C  C310  1  0.02200000  0.97800000  0.45420000  1.0 -0.049161079
C  C311  1  0.99330000  0.00670000  0.48190000  1.0 -0.0089065415
C  C312  1  0.04700000  0.95300000  0.52840000  1.0 -0.039899513
C  C313  1  0.93640000  0.06360000  0.46290000  1.0 -0.1601692958
C  C314  1  0.97800000  0.02200000  0.45420000  1.0 -0.049161079
C  C315  1  0.00670000  0.99330000  0.48190000  1.0 -0.0089065415
C  C316  1  0.95300000  0.04700000  0.52840000  1.0 -0.039899513
C  C317  1  0.43640000  0.43640000  0.96290000  1.0 -0.167008216
C  C318  1  0.47800000  0.47800000  0.95420000  1.0 -0.049161079
C  C319  1  0.50670000  0.50670000  0.98190000  1.0 -0.0089065415
C  C320  1  0.45300000  0.45300000  0.02840000  1.0 -0.049161079
C  C321  1  0.56360000  0.56360000  0.96290000  1.0 -0.1601692958
C  C322  1  0.52200000  0.52200000  0.95420000  1.0 -0.049161079
C  C323  1  0.49330000  0.49330000  0.98190000  1.0 -0.0089065415
C  C324  1  0.54700000  0.54700000  0.02840000  1.0 -0.039899513
C  C325  1  0.13310000  0.13310000  0.00000000  1.0 0.4375304283
C  C326  1  0.07810000  0.07810000  0.00000000  1.0 -0.1263626092
C  C327  1  0.36780000  0.36780000  0.00000000  1.0 0.4375304283
C  C328  1  0.42060000  0.42060000  0.00000000  1.0 -0.0308108168
C  C329  1  0.86690000  0.86690000  0.00000000  1.0 0.4375304283
C  C330  1  0.92190000  0.92190000  0.00000000  1.0 -0.1263626092
C  C331  1  0.63220000  0.63220000  0.00000000  1.0 0.4375304283
C  C332  1  0.57940000  0.57940000  0.00000000  1.0 -0.0308108168
C  C333  1  0.36690000  0.63310000  0.50000000  1.0 0.4343027524
C  C334  1  0.42190000  0.57810000  0.50000000  1.0 -0.1263626092
C  C335  1  0.13220000  0.86780000  0.50000000  1.0 0.4375304283
C  C336  1  0.07940000  0.92060000  0.50000000  1.0 -0.0308108168
C  C337  1  0.63310000  0.36690000  0.50000000  1.0 0.4343027524
C  C338  1  0.57810000  0.42190000  0.50000000  1.0 -0.1263626092
C  C339  1  0.86780000  0.13220000  0.50000000  1.0 0.4375304283
C  C340  1  0.92060000  0.07940000  0.50000000  1.0 -0.0308108168
O  O1  1  0.28170000  0.14690000  0.05900000  1.0 -0.167008216
O  O2  1  0.32370000  0.23520000  0.08060000  1.0 -0.2783418023
O  O3  1  0.41670000  0.03120000  0.20230000  1.0 0.0017192433
O  O4  1  0.30820000  0.13500000  0.04590000  1.0 -0.2076362292
O  O5  1  0.33700000  0.22030000  0.07850000  1.0 -0.186466197
O  O6  1  0.43970000  0.02360000  0.19650000  1.0 0.0017192433
O  O7  1  0.71830000  0.85310000  0.05900000  1.0 -0.167008216
O  O8  1  0.67630000  0.76480000  0.08060000  1.0 -0.2783418023
O  O9  1  0.58330000  0.96880000  0.20230000  1.0 0.0017192433
O  O10  1  0.69180000  0.86500000  0.04590000  1.0 -0.2076362292
O  O11  1  0.66300000  0.77970000  0.07850000  1.0 -0.186466197
O  O12  1  0.56030000  0.97640000  0.19650000  1.0 0.0017192433
O  O13  1  0.35310000  0.78170000  0.55900000  1.0 -0.167008216
O  O14  1  0.26480000  0.82370000  0.58060000  1.0 -0.2783418023
O  O15  1  0.46880000  0.91670000  0.70230000  1.0 0.0017192433
O  O16  1  0.36500000  0.80820000  0.54590000  1.0 -0.2076362292
O  O17  1  0.27970000  0.83700000  0.57850000  1.0 -0.186466197
O  O18  1  0.47640000  0.93970000  0.69650000  1.0 0.0017192433
O  O19  1  0.64690000  0.21830000  0.55900000  1.0 -0.167008216
O  O20  1  0.73520000  0.17630000  0.58060000  1.0 -0.2783418023
O  O21  1  0.53120000  0.08330000  0.70230000  1.0 0.0017192433
O  O22  1  0.63500000  0.19180000  0.54590000  1.0 -0.2076362292
O  O23  1  0.72030000  0.16300000  0.57850000  1.0 -0.186466197
O  O24  1  0.52360000  0.06030000  0.69650000  1.0 0.0017192433
O  O25  1  0.21830000  0.64690000  0.44100000  1.0 -0.167008216
O  O26  1  0.17630000  0.73520000  0.41940000  1.0 -0.2783418023
O  O27  1  0.08330000  0.53120000  0.29770000  1.0 0.0017192433
O  O28  1  0.19180000  0.63500000  0.45410000  1.0 -0.2076362292
O  O29  1  0.16300000  0.72030000  0.42150000  1.0 -0.186466197
O  O30  1  0.06030000  0.52360000  0.30350000  1.0 0.0017192433
O  O31  1  0.78170000  0.35310000  0.44100000  1.0 -0.167008216
O  O32  1  0.82370000  0.26480000  0.41940000  1.0 -0.2783418023
O  O33  1  0.91670000  0.46880000  0.29770000  1.0 0.0017192433
O  O34  1  0.80820000  0.36500000  0.45410000  1.0 -0.2076362292
O  O35  1  0.83700000  0.27970000  0.42150000  1.0 -0.186466197
O  O36  1  0.93970000  0.47640000  0.30350000  1.0 0.0017192433
O  O37  1  0.14690000  0.28170000  0.94100000  1.0 -0.167008216
O  O38  1  0.23520000  0.32370000  0.91940000  1.0 -0.2783418023
O  O39  1  0.03120000  0.41670000  0.79770000  1.0 0.0017192433
O  O40  1  0.13500000  0.30820000  0.95410000  1.0 -0.2076362292
O  O41  1  0.22030000  0.33700000  0.92150000  1.0 -0.186466197
O  O42  1  0.02360000  0.43970000  0.80350000  1.0 0.0017192433
O  O43  1  0.85310000  0.71830000  0.94100000  1.0 -0.167008216
O  O44  1  0.76480000  0.67630000  0.91940000  1.0 -0.2783418023
O  O45  1  0.96880000  0.58330000  0.79770000  1.0 0.0017192433
O  O46  1  0.86500000  0.69180000  0.95410000  1.0 -0.2076362292
O  O47  1  0.77970000  0.66300000  0.92150000  1.0 -0.186466197
O  O48  1  0.97640000  0.56030000  0.80350000  1.0 0.0017192433
O  O49  1  0.71830000  0.85310000  0.94100000  1.0 -0.167008216
O  O50  1  0.67630000  0.76480000  0.91940000  1.0 -0.2783418023
O  O51  1  0.58330000  0.96880000  0.79770000  1.0 0.0017192433
O  O52  1  0.69180000  0.86500000  0.95410000  1.0 -0.2076362292
O  O53  1  0.66300000  0.77970000  0.92150000  1.0 -0.186466197
O  O54  1  0.56030000  0.97640000  0.80350000  1.0 0.0017192433
O  O55  1  0.28170000  0.14690000  0.94100000  1.0 -0.167008216
O  O56  1  0.32370000  0.23520000  0.91940000  1.0 -0.2783418023
O  O57  1  0.41670000  0.03120000  0.79770000  1.0 0.0017192433
O  O58  1  0.30820000  0.13500000  0.95410000  1.0 -0.2076362292
O  O59  1  0.33700000  0.22030000  0.92150000  1.0 -0.186466197
O  O60  1  0.43970000  0.02360000  0.80350000  1.0 0.0017192433
O  O61  1  0.64690000  0.21830000  0.44100000  1.0 -0.167008216
O  O62  1  0.73520000  0.17630000  0.41940000  1.0 -0.2783418023
O  O63  1  0.53120000  0.08330000  0.29770000  1.0 0.0017192433
O  O64  1  0.63500000  0.19180000  0.45410000  1.0 -0.2076362292
O  O65  1  0.72030000  0.16300000  0.42150000  1.0 -0.186466197
O  O66  1  0.52360000  0.06030000  0.30350000  1.0 0.0017192433
O  O67  1  0.35310000  0.78170000  0.44100000  1.0 -0.167008216
O  O68  1  0.26480000  0.82370000  0.41940000  1.0 -0.2783418023
O  O69  1  0.46880000  0.91670000  0.29770000  1.0 0.0017192433
O  O70  1  0.36500000  0.80820000  0.45410000  1.0 -0.2076362292
O  O71  1  0.27970000  0.83700000  0.42150000  1.0 -0.186466197
O  O72  1  0.47640000  0.93970000  0.30350000  1.0 0.0017192433
O  O73  1  0.78170000  0.35310000  0.55900000  1.0 -0.167008216
O  O74  1  0.82370000  0.26480000  0.58060000  1.0 -0.2783418023
O  O75  1  0.91670000  0.46880000  0.70230000  1.0 0.0017192433
O  O76  1  0.80820000  0.36500000  0.54590000  1.0 -0.2076362292
O  O77  1  0.83700000  0.27970000  0.57850000  1.0 -0.186466197
O  O78  1  0.93970000  0.47640000  0.69650000  1.0 0.0017192433
O  O79  1  0.21830000  0.64690000  0.55900000  1.0 -0.167008216
O  O80  1  0.17630000  0.73520000  0.58060000  1.0 -0.2783418023
O  O81  1  0.08330000  0.53120000  0.70230000  1.0 0.0017192433
O  O82  1  0.19180000  0.63500000  0.54590000  1.0 -0.2076362292
O  O83  1  0.16300000  0.72030000  0.57850000  1.0 -0.186466197
O  O84  1  0.06030000  0.52360000  0.69650000  1.0 0.0017192433
O  O85  1  0.85310000  0.71830000  0.05900000  1.0 -0.167008216
O  O86  1  0.76480000  0.67630000  0.08060000  1.0 -0.2783418023
O  O87  1  0.96880000  0.58330000  0.20230000  1.0 0.0017192433
O  O88  1  0.86500000  0.69180000  0.04590000  1.0 -0.2076362292
O  O89  1  0.77970000  0.66300000  0.07850000  1.0 -0.186466197
O  O90  1  0.97640000  0.56030000  0.19650000  1.0 0.0017192433
O  O91  1  0.14690000  0.28170000  0.05900000  1.0 -0.167008216
O  O92  1  0.23520000  0.32370000  0.08060000  1.0 -0.2783418023
O  O93  1  0.03120000  0.41670000  0.20230000  1.0 0.0017192433
O  O94  1  0.13500000  0.30820000  0.04590000  1.0 -0.2076362292
O  O95  1  0.22030000  0.33700000  0.07850000  1.0 -0.186466197
O  O96  1  0.02360000  0.43970000  0.19650000  1.0 0.0017192433
O  O97  1  0.31310000  0.06060000  0.00000000  1.0 0.0906422665
O  O98  1  0.18530000  0.11351000  0.00000000  1.0 -0.4102993184
O  O99  1  0.68690000  0.93940000  0.00000000  1.0 0.0906422665
O  O100  1  0.81470000  0.88649000  0.00000000  1.0 -0.4102993184
O  O101  1  0.43940000  0.81310000  0.50000000  1.0 0.0797662882
O  O102  1  0.38649000  0.68530000  0.50000000  1.0 -0.4102993184
O  O103  1  0.56060000  0.18690000  0.50000000  1.0 0.0906422665
O  O104  1  0.61351000  0.31470000  0.50000000  1.0 -0.4102993184
O  O105  1  0.18690000  0.56060000  0.50000000  1.0 0.0797662882
O  O106  1  0.31470000  0.61351000  0.50000000  1.0 -0.4102993184
O  O107  1  0.81310000  0.43940000  0.50000000  1.0 0.0906422665
O  O108  1  0.68530000  0.38649000  0.50000000  1.0 -0.4102993184
O  O109  1  0.06060000  0.31310000  0.00000000  1.0 0.0797662882
O  O110  1  0.11351000  0.18530000  0.00000000  1.0 -0.4102993184
O  O111  1  0.93940000  0.68690000  0.00000000  1.0 0.0906422665
O  O112  1  0.88649000  0.81470000  0.00000000  1.0 -0.4102993184
O  O113  1  0.35077000  0.35077000  0.03203000  1.0 -0.4102993184
O  O114  1  0.64923000  0.64923000  0.03203000  1.0 -0.4102993184
O  O115  1  0.14923000  0.85077000  0.53203000  1.0 -0.4102993184
O  O116  1  0.85077000  0.14923000  0.53203000  1.0 -0.4102993184
O  O117  1  0.14923000  0.85077000  0.46797000  1.0 -0.4102993184
O  O118  1  0.85077000  0.14923000  0.46797000  1.0 -0.4102993184
O  O119  1  0.35077000  0.35077000  0.96797000  1.0 -0.4102993184
O  O120  1  0.64923000  0.64923000  0.96797000  1.0 -0.4102993184
O  O121  1  0.24970000  0.24970000  0.00000000  1.0 -0.7160838195
O  O122  1  0.75030000  0.75030000  0.00000000  1.0 -0.7138588576
O  O123  1  0.25030000  0.74970000  0.50000000  1.0 -0.7138588576
O  O124  1  0.74970000  0.25030000  0.50000000  1.0 -0.7138588576
