# DDEC6 charges by PACMAN v1.1 (https://github.com/mtap-research/PACMAN-charge/)
data_OKICET_ASR_pacman
_symmetry_space_group_name_H-M   'P 1'
_cell_length_a   19.79650000
_cell_length_b   19.79650000
_cell_length_c   44.63700000
_cell_angle_alpha   90.00000000
_cell_angle_beta   90.00000000
_cell_angle_gamma   99.80670000
_symmetry_Int_Tables_number   1
_chemical_formula_structural   Zr12H86C110O49
_chemical_formula_sum   'Zr24 H172 C220 O98'
_cell_volume   17237.69097939
_cell_formula_units_Z   2
loop_
 _symmetry_equiv_pos_site_id
 _symmetry_equiv_pos_as_xyz
  1  'x, y, z'
loop_
 _atom_site_type_symbol
 _atom_site_label
 _atom_site_symmetry_multiplicity
 _atom_site_fract_x
 _atom_site_fract_y
 _atom_site_fract_z
 _atom_site_occupancy
 _atom_site_charge
Zr  Zr1  1  0.62568000  0.41634000  0.61737000  1.0 2.4300428247
Zr  Zr2  1  0.78623000  0.42597000  0.65161000  1.0 2.391267917
Zr  Zr3  1  0.68362000  0.26542000  0.63933000  1.0 2.4022897696
Zr  Zr4  1  0.54987000  0.32441000  0.67875000  1.0 2.3607278878
Zr  Zr5  1  0.65486000  0.48078000  0.69094000  1.0 2.322710297
Zr  Zr6  1  0.71162000  0.32552000  0.71190000  1.0 2.4977461313
Zr  Zr7  1  0.37432000  0.58366000  0.11737000  1.0 2.4300428247
Zr  Zr8  1  0.21377000  0.57403000  0.15161000  1.0 2.391267917
Zr  Zr9  1  0.31638000  0.73458000  0.13933000  1.0 2.4022897696
Zr  Zr10  1  0.45013000  0.67559000  0.17875000  1.0 2.3607278878
Zr  Zr11  1  0.34514000  0.51922000  0.19094000  1.0 2.3298630928
Zr  Zr12  1  0.28838000  0.67448000  0.21190000  1.0 2.4977461313
Zr  Zr13  1  0.58366000  0.37432000  0.88263000  1.0 2.4300428247
Zr  Zr14  1  0.57403000  0.21377000  0.84839000  1.0 2.391267917
Zr  Zr15  1  0.73458000  0.31638000  0.86067000  1.0 2.4022897696
Zr  Zr16  1  0.67559000  0.45013000  0.82125000  1.0 2.3607278878
Zr  Zr17  1  0.51922000  0.34514000  0.80906000  1.0 2.3298630928
Zr  Zr18  1  0.67448000  0.28838000  0.78810000  1.0 2.4977461313
Zr  Zr19  1  0.41634000  0.62568000  0.38263000  1.0 2.4300428247
Zr  Zr20  1  0.42597000  0.78623000  0.34839000  1.0 2.391267917
Zr  Zr21  1  0.26542000  0.68362000  0.36067000  1.0 2.4022897696
Zr  Zr22  1  0.32441000  0.54987000  0.32125000  1.0 2.3549757217
Zr  Zr23  1  0.48078000  0.65486000  0.30906000  1.0 2.322710297
Zr  Zr24  1  0.32552000  0.71162000  0.28810000  1.0 2.4977461313
H  H1  1  0.46637000  0.46497000  0.71586000  1.0 0.1006576654
H  H2  1  0.71784000  0.57574000  0.55046000  1.0 0.1006576654
H  H3  1  0.89724000  0.55524000  0.58847000  1.0 0.1177461323
H  H4  1  0.77422000  0.66230000  0.51998000  1.0 0.1006576654
H  H5  1  0.95361000  0.64181000  0.55799000  1.0 0.1096592613
H  H6  1  0.86879000  0.18359000  0.59756000  1.0 0.1096592613
H  H7  1  0.96266000  0.37952000  0.60480000  1.0 0.1096592613
H  H8  1  0.96566000  0.15570000  0.57470000  1.0 0.1096592613
H  H9  1  0.05952000  0.35164000  0.58195000  1.0 0.1096592613
H  H10  1  0.97698000  0.66860000  0.50091000  1.0 0.1096592613
H  H11  1  0.14712000  0.29488000  0.59046000  1.0 0.1096592613
H  H12  1  0.86716000  0.83294000  0.57099000  1.0 0.0794075978
H  H13  1  0.83118000  0.75534000  0.57194000  1.0 0.0794075978
H  H14  1  0.99555000  0.19423000  0.51768000  1.0 0.1096592613
H  H15  1  0.00087000  0.12273000  0.53288000  1.0 0.1006576654
H  H16  1  0.01500000  0.88346000  0.45001000  1.0 0.1302224723
H  H17  1  0.04692000  0.92202000  0.47893000  1.0 0.1177461323
H  H18  1  0.13313000  0.82467000  0.49453000  1.0 0.1177461323
H  H19  1  0.01407000  0.68213000  0.44496000  1.0 0.1096592613
H  H20  1  0.76144000  0.83672000  0.59601000  1.0 0.090719711
H  H21  1  0.74718000  0.85948000  0.56285000  1.0 0.1006576654
H  H22  1  0.03618000  0.09856000  0.48508000  1.0 0.1096592613
H  H23  1  0.06537000  0.17585000  0.47838000  1.0 0.1006576654
H  H24  1  0.22889000  0.80453000  0.46828000  1.0 0.1006576654
H  H25  1  0.10982000  0.66200000  0.41871000  1.0 0.1006576654
H  H26  1  0.31219000  0.31837000  0.54266000  1.0 0.090719711
H  H27  1  0.25206000  0.24846000  0.62460000  1.0 0.1096592613
H  H28  1  0.69117000  0.78073000  0.52845000  1.0 0.1006576654
H  H29  1  0.64278000  0.80686000  0.55263000  1.0 0.0794075978
H  H30  1  0.30032000  0.11158000  0.53296000  1.0 0.090719711
H  H31  1  0.31837000  0.16603000  0.55835000  1.0 0.0794075978
H  H32  1  0.42099000  0.35939000  0.56113000  1.0 0.090719711
H  H33  1  0.36086000  0.28948000  0.64307000  1.0 0.1302224723
H  H34  1  0.62499000  0.67941000  0.56717000  1.0 0.1096592613
H  H35  1  0.57564000  0.70546000  0.54395000  1.0 0.0794075978
H  H36  1  0.42070000  0.20926000  0.53765000  1.0 0.090719711
H  H37  1  0.41156000  0.14000000  0.51987000  1.0 0.090719711
H  H38  1  0.56184000  0.66040000  0.49969000  1.0 0.1006576654
H  H39  1  0.55119000  0.59945000  0.52357000  1.0 0.090719711
H  H40  1  0.43245000  0.28249000  0.46445000  1.0 0.1096592613
H  H41  1  0.48470000  0.27132000  0.48949000  1.0 0.0794075978
H  H42  1  0.40681000  0.32345000  0.51870000  1.0 0.1006576654
H  H43  1  0.47522000  0.35912000  0.50591000  1.0 0.090719711
H  H44  1  0.53363000  0.53503000  0.21586000  1.0 0.090719711
H  H45  1  0.28216000  0.42426000  0.05046000  1.0 0.1006576654
H  H46  1  0.10276000  0.44476000  0.08847000  1.0 0.1177461323
H  H47  1  0.22578000  0.33770000  0.01998000  1.0 0.1006576654
H  H48  1  0.04639000  0.35819000  0.05799000  1.0 0.1096592613
H  H49  1  0.13121000  0.81641000  0.09756000  1.0 0.1096592613
H  H50  1  0.03734000  0.62048000  0.10480000  1.0 0.1096592613
H  H51  1  0.03434000  0.84430000  0.07470000  1.0 0.1096592613
H  H52  1  0.94048000  0.64836000  0.08195000  1.0 0.1096592613
H  H53  1  0.02302000  0.33140000  0.00091000  1.0 0.1096592613
H  H54  1  0.85288000  0.70512000  0.09046000  1.0 0.1096592613
H  H55  1  0.13284000  0.16706000  0.07099000  1.0 0.0794075978
H  H56  1  0.16882000  0.24466000  0.07194000  1.0 0.0794075978
H  H57  1  0.00445000  0.80577000  0.01768000  1.0 0.1096592613
H  H58  1  0.99913000  0.87727000  0.03288000  1.0 0.1006576654
H  H59  1  0.98500000  0.11654000  0.95001000  1.0 0.1302224723
H  H60  1  0.95308000  0.07798000  0.97893000  1.0 0.1177461323
H  H61  1  0.86687000  0.17533000  0.99453000  1.0 0.1177461323
H  H62  1  0.98593000  0.31787000  0.94496000  1.0 0.1096592613
H  H63  1  0.23856000  0.16328000  0.09601000  1.0 0.090719711
H  H64  1  0.25282000  0.14052000  0.06285000  1.0 0.1006576654
H  H65  1  0.96382000  0.90144000  0.98508000  1.0 0.1096592613
H  H66  1  0.93463000  0.82415000  0.97838000  1.0 0.1006576654
H  H67  1  0.77111000  0.19547000  0.96828000  1.0 0.1006576654
H  H68  1  0.89018000  0.33800000  0.91871000  1.0 0.1006576654
H  H69  1  0.68781000  0.68163000  0.04266000  1.0 0.090719711
H  H70  1  0.74794000  0.75154000  0.12460000  1.0 0.1096592613
H  H71  1  0.30883000  0.21927000  0.02845000  1.0 0.1006576654
H  H72  1  0.35722000  0.19314000  0.05263000  1.0 0.0794075978
H  H73  1  0.69968000  0.88842000  0.03296000  1.0 0.090719711
H  H74  1  0.68163000  0.83397000  0.05835000  1.0 0.0794075978
H  H75  1  0.57901000  0.64061000  0.06113000  1.0 0.090719711
H  H76  1  0.63914000  0.71052000  0.14307000  1.0 0.1302224723
H  H77  1  0.37501000  0.32059000  0.06717000  1.0 0.1096592613
H  H78  1  0.42436000  0.29454000  0.04395000  1.0 0.0794075978
H  H79  1  0.57930000  0.79074000  0.03765000  1.0 0.090719711
H  H80  1  0.58844000  0.86000000  0.01987000  1.0 0.090719711
H  H81  1  0.43816000  0.33960000  0.99969000  1.0 0.1006576654
H  H82  1  0.44881000  0.40055000  0.02357000  1.0 0.090719711
H  H83  1  0.56755000  0.71751000  0.96445000  1.0 0.1096592613
H  H84  1  0.51529000  0.72868000  0.98949000  1.0 0.0730227514
H  H85  1  0.59319000  0.67655000  0.01870000  1.0 0.1006576654
H  H86  1  0.52478000  0.64088000  0.00591000  1.0 0.1006576654
H  H87  1  0.53503000  0.53363000  0.78414000  1.0 0.090719711
H  H88  1  0.42426000  0.28216000  0.94954000  1.0 0.1006576654
H  H89  1  0.44476000  0.10276000  0.91153000  1.0 0.1177461323
H  H90  1  0.33770000  0.22578000  0.98002000  1.0 0.1006576654
H  H91  1  0.35819000  0.04639000  0.94201000  1.0 0.1096592613
H  H92  1  0.81641000  0.13121000  0.90244000  1.0 0.1096592613
H  H93  1  0.62048000  0.03734000  0.89520000  1.0 0.1096592613
H  H94  1  0.84430000  0.03434000  0.92530000  1.0 0.1096592613
H  H95  1  0.64836000  0.94048000  0.91805000  1.0 0.1096592613
H  H96  1  0.33140000  0.02302000  0.99909000  1.0 0.1096592613
H  H97  1  0.70512000  0.85288000  0.90954000  1.0 0.1096592613
H  H98  1  0.16706000  0.13284000  0.92901000  1.0 0.0794075978
H  H99  1  0.24466000  0.16882000  0.92806000  1.0 0.0794075978
H  H100  1  0.80577000  0.00445000  0.98232000  1.0 0.1096592613
H  H101  1  0.87727000  0.99913000  0.96712000  1.0 0.1006576654
H  H102  1  0.11654000  0.98500000  0.04999000  1.0 0.1302224723
H  H103  1  0.07798000  0.95308000  0.02107000  1.0 0.1177461323
H  H104  1  0.17533000  0.86687000  0.00547000  1.0 0.1177461323
H  H105  1  0.31787000  0.98593000  0.05504000  1.0 0.1096592613
H  H106  1  0.16328000  0.23856000  0.90399000  1.0 0.090719711
H  H107  1  0.14052000  0.25282000  0.93715000  1.0 0.1006576654
H  H108  1  0.90144000  0.96382000  0.01492000  1.0 0.1096592613
H  H109  1  0.82415000  0.93463000  0.02162000  1.0 0.1006576654
H  H110  1  0.19547000  0.77111000  0.03172000  1.0 0.1006576654
H  H111  1  0.33800000  0.89018000  0.08129000  1.0 0.1006576654
H  H112  1  0.68163000  0.68781000  0.95734000  1.0 0.090719711
H  H113  1  0.75154000  0.74794000  0.87540000  1.0 0.1096592613
H  H114  1  0.21927000  0.30883000  0.97155000  1.0 0.1006576654
H  H115  1  0.19314000  0.35722000  0.94737000  1.0 0.0794075978
H  H116  1  0.88842000  0.69968000  0.96704000  1.0 0.090719711
H  H117  1  0.83397000  0.68163000  0.94165000  1.0 0.0794075978
H  H118  1  0.64061000  0.57901000  0.93887000  1.0 0.090719711
H  H119  1  0.71052000  0.63914000  0.85693000  1.0 0.1302224723
H  H120  1  0.32059000  0.37501000  0.93283000  1.0 0.1096592613
H  H121  1  0.29454000  0.42436000  0.95605000  1.0 0.0794075978
H  H122  1  0.79074000  0.57930000  0.96235000  1.0 0.090719711
H  H123  1  0.86000000  0.58844000  0.98013000  1.0 0.090719711
H  H124  1  0.33960000  0.43816000  0.00031000  1.0 0.1006576654
H  H125  1  0.40055000  0.44881000  0.97643000  1.0 0.090719711
H  H126  1  0.71751000  0.56755000  0.03555000  1.0 0.1096592613
H  H127  1  0.72867000  0.51529000  0.01051000  1.0 0.0794075978
H  H128  1  0.67655000  0.59319000  0.98130000  1.0 0.1006576654
H  H129  1  0.64088000  0.52478000  0.99409000  1.0 0.090719711
H  H130  1  0.46497000  0.46637000  0.28414000  1.0 0.090719711
H  H131  1  0.57574000  0.71784000  0.44954000  1.0 0.1006576654
H  H132  1  0.55524000  0.89724000  0.41153000  1.0 0.1177461323
H  H133  1  0.66230000  0.77422000  0.48002000  1.0 0.1006576654
H  H134  1  0.64181000  0.95361000  0.44201000  1.0 0.1096592613
H  H135  1  0.18359000  0.86879000  0.40244000  1.0 0.1096592613
H  H136  1  0.37952000  0.96266000  0.39520000  1.0 0.1096592613
H  H137  1  0.15570000  0.96566000  0.42530000  1.0 0.1096592613
H  H138  1  0.35164000  0.05952000  0.41805000  1.0 0.1096592613
H  H139  1  0.66860000  0.97698000  0.49909000  1.0 0.1096592613
H  H140  1  0.29488000  0.14712000  0.40954000  1.0 0.1096592613
H  H141  1  0.83294000  0.86716000  0.42901000  1.0 0.0794075978
H  H142  1  0.75534000  0.83118000  0.42806000  1.0 0.0794075978
H  H143  1  0.19423000  0.99555000  0.48232000  1.0 0.1096592613
H  H144  1  0.12273000  0.00087000  0.46712000  1.0 0.1006576654
H  H145  1  0.88346000  0.01500000  0.54999000  1.0 0.1302224723
H  H146  1  0.92202000  0.04692000  0.52107000  1.0 0.1177461323
H  H147  1  0.82467000  0.13313000  0.50547000  1.0 0.1177461323
H  H148  1  0.68213000  0.01407000  0.55504000  1.0 0.1096592613
H  H149  1  0.83672000  0.76144000  0.40399000  1.0 0.090719711
H  H150  1  0.85948000  0.74718000  0.43715000  1.0 0.1006576654
H  H151  1  0.09856000  0.03618000  0.51492000  1.0 0.1096592613
H  H152  1  0.17585000  0.06537000  0.52162000  1.0 0.1006576654
H  H153  1  0.80453000  0.22889000  0.53172000  1.0 0.1006576654
H  H154  1  0.66200000  0.10982000  0.58129000  1.0 0.1006576654
H  H155  1  0.31837000  0.31219000  0.45734000  1.0 0.090719711
H  H156  1  0.24846000  0.25206000  0.37540000  1.0 0.1096592613
H  H157  1  0.78073000  0.69117000  0.47155000  1.0 0.1006576654
H  H158  1  0.80686000  0.64278000  0.44737000  1.0 0.0794075978
H  H159  1  0.11158000  0.30032000  0.46704000  1.0 0.090719711
H  H160  1  0.16603000  0.31837000  0.44165000  1.0 0.0794075978
H  H161  1  0.35939000  0.42099000  0.43887000  1.0 0.090719711
H  H162  1  0.28948000  0.36086000  0.35693000  1.0 0.1302224723
H  H163  1  0.67941000  0.62499000  0.43283000  1.0 0.1096592613
H  H164  1  0.70546000  0.57564000  0.45605000  1.0 0.0794075978
H  H165  1  0.20926000  0.42070000  0.46235000  1.0 0.090719711
H  H166  1  0.14000000  0.41156000  0.48013000  1.0 0.090719711
H  H167  1  0.66040000  0.56184000  0.50031000  1.0 0.1006576654
H  H168  1  0.59945000  0.55119000  0.47643000  1.0 0.090719711
H  H169  1  0.28249000  0.43245000  0.53555000  1.0 0.1096592613
H  H170  1  0.27132000  0.48470000  0.51051000  1.0 0.0730227514
H  H171  1  0.32345000  0.40681000  0.48130000  1.0 0.1006576654
H  H172  1  0.35912000  0.47522000  0.49409000  1.0 0.090719711
C  C1  1  0.76360000  0.50220000  0.59190000  1.0 0.6207148051
C  C2  1  0.80190000  0.55690000  0.57250000  1.0 -0.0494732497
C  C3  1  0.84440000  0.30280000  0.61690000  1.0 0.6207148051
C  C4  1  0.50390000  0.44390000  0.71180000  1.0 0.4541694438
C  C5  1  0.76510000  0.58890000  0.55200000  1.0 -0.0998112232
C  C6  1  0.87250000  0.57670000  0.57470000  1.0 -0.1069547788
C  C7  1  0.90610000  0.28430000  0.60340000  1.0 -0.0696078783
C  C8  1  0.79890000  0.64090000  0.53370000  1.0 -0.1775480402
C  C9  1  0.90640000  0.62860000  0.55650000  1.0 -0.1775480402
C  C10  1  0.90700000  0.21720000  0.59440000  1.0 -0.0813457408
C  C11  1  0.96330000  0.33470000  0.59880000  1.0 -0.0910076459
C  C12  1  0.86950000  0.66070000  0.53600000  1.0 0.0794075978
C  C13  1  0.96500000  0.20060000  0.58070000  1.0 -0.1706383793
C  C14  1  0.02130000  0.31790000  0.58510000  1.0 -0.1775480402
C  C15  1  0.90390000  0.71890000  0.51700000  1.0 -0.029117968
C  C16  1  0.02210000  0.25090000  0.57610000  1.0 0.0730227514
C  C17  1  0.96340000  0.71120000  0.50180000  1.0 -0.210901578
C  C18  1  0.88370000  0.78270000  0.51830000  1.0 0.1466605989
C  C19  1  0.08500000  0.23560000  0.56130000  1.0 0.0090691498
C  C20  1  0.00240000  0.76740000  0.48770000  1.0 -0.0095387373
C  C21  1  0.92280000  0.83880000  0.50430000  1.0 -0.0494732497
C  C22  1  0.08450000  0.19190000  0.53700000  1.0 0.0013598585
C  C23  1  0.14680000  0.26560000  0.57420000  1.0 -0.1971444758
C  C24  1  0.98220000  0.83120000  0.48900000  1.0 0.0418896861
C  C25  1  0.06420000  0.75540000  0.47230000  1.0 0.0730227514
C  C26  1  0.82750000  0.80050000  0.56450000  1.0 -0.0644258569
C  C27  1  0.14590000  0.17790000  0.52540000  1.0 -0.1069547788
C  C28  1  0.02580000  0.16180000  0.52210000  1.0 -0.210901578
C  C29  1  0.20830000  0.25170000  0.56260000  1.0 -0.0379236778
C  C30  1  0.00560000  0.89540000  0.47050000  1.0 -0.2667254592
C  C31  1  0.12850000  0.79210000  0.47930000  1.0 -0.1706383793
C  C32  1  0.05710000  0.70670000  0.44960000  1.0 -0.1775480402
C  C33  1  0.94620000  0.93680000  0.47140000  1.0 -0.151367196
C  C34  1  0.75940000  0.82300000  0.57510000  1.0 -0.0813457408
C  C35  1  0.20770000  0.20790000  0.53830000  1.0 0.1671599364
C  C36  1  0.06280000  0.14000000  0.49340000  1.0 -0.2337891209
C  C37  1  0.27130000  0.27930000  0.58180000  1.0 0.090719711
C  C38  1  0.18580000  0.78000000  0.46360000  1.0 -0.0998112232
C  C39  1  0.11440000  0.69460000  0.43390000  1.0 -0.0910076459
C  C40  1  0.32200000  0.31260000  0.56280000  1.0 -0.192389452
C  C41  1  0.28590000  0.27070000  0.61190000  1.0 -0.1706383793
C  C42  1  0.17890000  0.73130000  0.44090000  1.0 -0.0494732497
C  C43  1  0.66800000  0.77060000  0.54750000  1.0 -0.0696078783
C  C44  1  0.31570000  0.15990000  0.53680000  1.0 -0.029117968
C  C45  1  0.38710000  0.33710000  0.57380000  1.0 -0.1069547788
C  C46  1  0.35110000  0.29530000  0.62290000  1.0 -0.1222993304
C  C47  1  0.24240000  0.71780000  0.42650000  1.0 0.5876743113
C  C48  1  0.62280000  0.70040000  0.54760000  1.0 -0.0998112232
C  C49  1  0.39210000  0.18110000  0.52320000  1.0 -0.0696078783
C  C50  1  0.40170000  0.32850000  0.60390000  1.0 -0.0696078783
C  C51  1  0.47190000  0.34450000  0.61520000  1.0 0.6299243306
C  C52  1  0.58380000  0.62780000  0.51070000  1.0 -0.0998112232
C  C53  1  0.43790000  0.27790000  0.48590000  1.0 -0.0910076459
C  C54  1  0.42810000  0.34210000  0.50020000  1.0 -0.1222993304
C  C55  1  0.23640000  0.49780000  0.09190000  1.0 0.6207148051
C  C56  1  0.19810000  0.44310000  0.07250000  1.0 -0.0494732497
C  C57  1  0.15560000  0.69720000  0.11690000  1.0 0.6207148051
C  C58  1  0.49610000  0.55610000  0.21180000  1.0 0.4674572861
C  C59  1  0.23490000  0.41110000  0.05200000  1.0 -0.0998112232
C  C60  1  0.12750000  0.42330000  0.07470000  1.0 -0.1069547788
C  C61  1  0.09390000  0.71570000  0.10340000  1.0 -0.0696078783
C  C62  1  0.20110000  0.35910000  0.03370000  1.0 -0.1775480402
C  C63  1  0.09360000  0.37140000  0.05650000  1.0 -0.1775480402
C  C64  1  0.09300000  0.78280000  0.09440000  1.0 -0.0813457408
C  C65  1  0.03670000  0.66530000  0.09880000  1.0 -0.0910076459
C  C66  1  0.13050000  0.33930000  0.03600000  1.0 0.0794075978
C  C67  1  0.03500000  0.79940000  0.08070000  1.0 -0.1706383793
C  C68  1  0.97870000  0.68210000  0.08510000  1.0 -0.1775480402
C  C69  1  0.09610000  0.28110000  0.01700000  1.0 -0.029117968
C  C70  1  0.97790000  0.74910000  0.07610000  1.0 0.0730227514
C  C71  1  0.03660000  0.28880000  0.00180000  1.0 -0.210901578
C  C72  1  0.11630000  0.21730000  0.01830000  1.0 0.1466605989
C  C73  1  0.91500000  0.76440000  0.06130000  1.0 0.0090691498
C  C74  1  0.99760000  0.23260000  0.98770000  1.0 -0.0095387373
C  C75  1  0.07720000  0.16120000  0.00430000  1.0 -0.0494732497
C  C76  1  0.91550000  0.80810000  0.03700000  1.0 0.0013598585
C  C77  1  0.85320000  0.73440000  0.07420000  1.0 -0.1971444758
C  C78  1  0.01780000  0.16880000  0.98900000  1.0 0.0418896861
C  C79  1  0.93580000  0.24460000  0.97230000  1.0 0.0730227514
C  C80  1  0.17250000  0.19950000  0.06450000  1.0 -0.0644258569
C  C81  1  0.85410000  0.82210000  0.02540000  1.0 -0.1069547788
C  C82  1  0.97420000  0.83820000  0.02210000  1.0 -0.210901578
C  C83  1  0.79170000  0.74830000  0.06260000  1.0 -0.0379236778
C  C84  1  0.99440000  0.10460000  0.97050000  1.0 -0.2667254592
C  C85  1  0.87150000  0.20790000  0.97930000  1.0 -0.1706383793
C  C86  1  0.94290000  0.29330000  0.94960000  1.0 -0.1706383793
C  C87  1  0.05380000  0.06320000  0.97140000  1.0 -0.1573571587
C  C88  1  0.24060000  0.17700000  0.07510000  1.0 -0.0813457408
C  C89  1  0.79230000  0.79210000  0.03830000  1.0 0.1671599364
C  C90  1  0.93720000  0.86000000  0.99340000  1.0 -0.2337891209
C  C91  1  0.72870000  0.72070000  0.08180000  1.0 0.090719711
C  C92  1  0.81420000  0.22000000  0.96360000  1.0 -0.0998112232
C  C93  1  0.88560000  0.30540000  0.93390000  1.0 -0.0910076459
C  C94  1  0.67800000  0.68740000  0.06280000  1.0 -0.192389452
C  C95  1  0.71410000  0.72930000  0.11190000  1.0 -0.1706383793
C  C96  1  0.82110000  0.26870000  0.94090000  1.0 -0.0494732497
C  C97  1  0.33200000  0.22940000  0.04750000  1.0 -0.0696078783
C  C98  1  0.68430000  0.84010000  0.03680000  1.0 -0.029117968
C  C99  1  0.61290000  0.66290000  0.07380000  1.0 -0.0998112232
C  C100  1  0.64890000  0.70470000  0.12290000  1.0 -0.1222993304
C  C101  1  0.75760000  0.28220000  0.92650000  1.0 0.5876743113
C  C102  1  0.37720000  0.29960000  0.04760000  1.0 -0.0998112232
C  C103  1  0.60790000  0.81890000  0.02320000  1.0 -0.0696078783
C  C104  1  0.59830000  0.67150000  0.10390000  1.0 -0.0696078783
C  C105  1  0.52810000  0.65550000  0.11520000  1.0 0.6299243306
C  C106  1  0.41620000  0.37220000  0.01070000  1.0 -0.0998112232
C  C107  1  0.56210000  0.72210000  0.98590000  1.0 -0.0910076459
C  C108  1  0.57190000  0.65790000  0.00020000  1.0 -0.1222993304
C  C109  1  0.49780000  0.23640000  0.90810000  1.0 0.6207148051
C  C110  1  0.44310000  0.19810000  0.92750000  1.0 -0.0494732497
C  C111  1  0.69720000  0.15560000  0.88310000  1.0 0.6207148051
C  C112  1  0.55610000  0.49610000  0.78820000  1.0 0.4674572861
C  C113  1  0.41110000  0.23490000  0.94800000  1.0 -0.0998112232
C  C114  1  0.42330000  0.12750000  0.92530000  1.0 -0.1069547788
C  C115  1  0.71570000  0.09390000  0.89660000  1.0 -0.0696078783
C  C116  1  0.35910000  0.20110000  0.96630000  1.0 -0.1775480402
C  C117  1  0.37140000  0.09360000  0.94350000  1.0 -0.1775480402
C  C118  1  0.78280000  0.09300000  0.90560000  1.0 -0.0813457408
C  C119  1  0.66530000  0.03670000  0.90120000  1.0 -0.0910076459
C  C120  1  0.33930000  0.13050000  0.96400000  1.0 0.0794075978
C  C121  1  0.79940000  0.03500000  0.91930000  1.0 -0.1706383793
C  C122  1  0.68210000  0.97870000  0.91490000  1.0 -0.1775480402
C  C123  1  0.28110000  0.09610000  0.98300000  1.0 -0.029117968
C  C124  1  0.74910000  0.97790000  0.92390000  1.0 0.0730227514
C  C125  1  0.28880000  0.03660000  0.99820000  1.0 -0.210901578
C  C126  1  0.21730000  0.11630000  0.98170000  1.0 0.1466605989
C  C127  1  0.76440000  0.91500000  0.93870000  1.0 0.0090691498
C  C128  1  0.23260000  0.99760000  0.01230000  1.0 -0.0095387373
C  C129  1  0.16120000  0.07720000  0.99570000  1.0 -0.0494732497
C  C130  1  0.80810000  0.91550000  0.96300000  1.0 0.0013598585
C  C131  1  0.73440000  0.85320000  0.92580000  1.0 -0.1971444758
C  C132  1  0.16880000  0.01780000  0.01100000  1.0 0.0418896861
C  C133  1  0.24460000  0.93580000  0.02770000  1.0 0.0730227514
C  C134  1  0.19950000  0.17250000  0.93550000  1.0 -0.0696078783
C  C135  1  0.82210000  0.85410000  0.97460000  1.0 -0.1069547788
C  C136  1  0.83820000  0.97420000  0.97790000  1.0 -0.210901578
C  C137  1  0.74830000  0.79170000  0.93740000  1.0 -0.0379236778
C  C138  1  0.10460000  0.99440000  0.02950000  1.0 -0.2667254592
C  C139  1  0.20790000  0.87150000  0.02070000  1.0 -0.1706383793
C  C140  1  0.29330000  0.94290000  0.05040000  1.0 -0.1775480402
C  C141  1  0.06320000  0.05380000  0.02860000  1.0 -0.151367196
C  C142  1  0.17700000  0.24060000  0.92490000  1.0 -0.0813457408
C  C143  1  0.79210000  0.79230000  0.96170000  1.0 0.1671599364
C  C144  1  0.86000000  0.93720000  0.00660000  1.0 -0.2337891209
C  C145  1  0.72070000  0.72870000  0.91820000  1.0 0.090719711
C  C146  1  0.22000000  0.81420000  0.03640000  1.0 -0.0998112232
C  C147  1  0.30540000  0.88560000  0.06610000  1.0 -0.0910076459
C  C148  1  0.68740000  0.67800000  0.93720000  1.0 -0.192389452
C  C149  1  0.72930000  0.71410000  0.88810000  1.0 -0.1706383793
C  C150  1  0.26870000  0.82110000  0.05910000  1.0 -0.0494732497
C  C151  1  0.22940000  0.33200000  0.95250000  1.0 -0.0696078783
C  C152  1  0.84010000  0.68430000  0.96320000  1.0 -0.029117968
C  C153  1  0.66290000  0.61290000  0.92620000  1.0 -0.1069547788
C  C154  1  0.70470000  0.64890000  0.87710000  1.0 -0.1222993304
C  C155  1  0.28220000  0.75760000  0.07350000  1.0 0.5876743113
C  C156  1  0.29960000  0.37720000  0.95240000  1.0 -0.0998112232
C  C157  1  0.81890000  0.60790000  0.97680000  1.0 -0.0696078783
C  C158  1  0.67150000  0.59830000  0.89610000  1.0 -0.0696078783
C  C159  1  0.65550000  0.52810000  0.88480000  1.0 0.6299243306
C  C160  1  0.37220000  0.41620000  0.98930000  1.0 -0.0998112232
C  C161  1  0.72210000  0.56210000  0.01410000  1.0 -0.0910076459
C  C162  1  0.65790000  0.57190000  0.99980000  1.0 -0.1222993304
C  C163  1  0.50220000  0.76360000  0.40810000  1.0 0.6299243306
C  C164  1  0.55690000  0.80190000  0.42750000  1.0 -0.0494732497
C  C165  1  0.30280000  0.84440000  0.38310000  1.0 0.6207148051
C  C166  1  0.44390000  0.50390000  0.28820000  1.0 0.459854356
C  C167  1  0.58890000  0.76510000  0.44800000  1.0 -0.0998112232
C  C168  1  0.57670000  0.87250000  0.42530000  1.0 -0.1069547788
C  C169  1  0.28430000  0.90610000  0.39660000  1.0 -0.0696078783
C  C170  1  0.64090000  0.79890000  0.46630000  1.0 -0.1775480402
C  C171  1  0.62860000  0.90640000  0.44350000  1.0 -0.1775480402
C  C172  1  0.21720000  0.90700000  0.40560000  1.0 -0.0813457408
C  C173  1  0.33470000  0.96330000  0.40120000  1.0 -0.0910076459
C  C174  1  0.66070000  0.86950000  0.46400000  1.0 0.0794075978
C  C175  1  0.20060000  0.96500000  0.41930000  1.0 -0.1706383793
C  C176  1  0.31790000  0.02130000  0.41490000  1.0 -0.1775480402
C  C177  1  0.71890000  0.90390000  0.48300000  1.0 -0.029117968
C  C178  1  0.25090000  0.02210000  0.42390000  1.0 0.0730227514
C  C179  1  0.71120000  0.96340000  0.49820000  1.0 -0.210901578
C  C180  1  0.78270000  0.88370000  0.48170000  1.0 0.1466605989
C  C181  1  0.23560000  0.08500000  0.43870000  1.0 0.0090691498
C  C182  1  0.76740000  0.00240000  0.51230000  1.0 -0.0095387373
C  C183  1  0.83880000  0.92280000  0.49570000  1.0 -0.0494732497
C  C184  1  0.19190000  0.08450000  0.46300000  1.0 0.0013598585
C  C185  1  0.26560000  0.14680000  0.42580000  1.0 -0.1971444758
C  C186  1  0.83120000  0.98220000  0.51100000  1.0 0.0418896861
C  C187  1  0.75540000  0.06420000  0.52770000  1.0 0.0730227514
C  C188  1  0.80050000  0.82750000  0.43550000  1.0 -0.0644258569
C  C189  1  0.17790000  0.14590000  0.47460000  1.0 -0.1069547788
C  C190  1  0.16180000  0.02580000  0.47790000  1.0 -0.210901578
C  C191  1  0.25170000  0.20830000  0.43740000  1.0 -0.0379236778
C  C192  1  0.89540000  0.00560000  0.52950000  1.0 -0.2667254592
C  C193  1  0.79210000  0.12850000  0.52070000  1.0 -0.1706383793
C  C194  1  0.70670000  0.05710000  0.55040000  1.0 -0.1706383793
C  C195  1  0.93680000  0.94620000  0.52860000  1.0 -0.151367196
C  C196  1  0.82300000  0.75940000  0.42490000  1.0 -0.0813457408
C  C197  1  0.20790000  0.20770000  0.46170000  1.0 0.1671599364
C  C198  1  0.14000000  0.06280000  0.50660000  1.0 -0.2337891209
C  C199  1  0.27930000  0.27130000  0.41820000  1.0 0.090719711
C  C200  1  0.78000000  0.18580000  0.53640000  1.0 -0.0998112232
C  C201  1  0.69460000  0.11440000  0.56610000  1.0 -0.0910076459
C  C202  1  0.31260000  0.32200000  0.43720000  1.0 -0.192389452
C  C203  1  0.27070000  0.28590000  0.38810000  1.0 -0.1706383793
C  C204  1  0.73130000  0.17890000  0.55910000  1.0 -0.0494732497
C  C205  1  0.77060000  0.66800000  0.45250000  1.0 -0.0696078783
C  C206  1  0.15990000  0.31570000  0.46320000  1.0 -0.029117968
C  C207  1  0.33710000  0.38710000  0.42620000  1.0 -0.1069547788
C  C208  1  0.29530000  0.35110000  0.37710000  1.0 -0.1222993304
C  C209  1  0.71780000  0.24240000  0.57350000  1.0 0.5876743113
C  C210  1  0.70040000  0.62280000  0.45240000  1.0 -0.0998112232
C  C211  1  0.18110000  0.39210000  0.47680000  1.0 -0.0696078783
C  C212  1  0.32850000  0.40170000  0.39610000  1.0 -0.0696078783
C  C213  1  0.34450000  0.47190000  0.38480000  1.0 0.6299243306
C  C214  1  0.62780000  0.58380000  0.48930000  1.0 -0.0998112232
C  C215  1  0.27790000  0.43790000  0.51410000  1.0 -0.0910076459
C  C216  1  0.34210000  0.42810000  0.49980000  1.0 -0.1222993304
C  C217  1  0.91030000  0.91030000  0.50000000  1.0 0.0730227514
C  C218  1  0.08970000  0.08970000  0.00000000  1.0 0.0730227514
C  C219  1  0.12860000  0.12860000  0.50000000  1.0 0.1096592613
C  C220  1  0.87140000  0.87140000  0.00000000  1.0 0.1096592613
O  O1  1  0.71530000  0.36230000  0.61350000  1.0 -1.119147786
O  O2  1  0.57020000  0.42760000  0.65790000  1.0 -1.2228828852
O  O3  1  0.69290000  0.46190000  0.65200000  1.0 -1.2075031385
O  O4  1  0.69960000  0.48280000  0.58820000  1.0 -0.6305418141
O  O5  1  0.60240000  0.31980000  0.63968000  1.0 -1.1803574746
O  O6  1  0.51800000  0.38820000  0.60360000  1.0 -0.6194527084
O  O7  1  0.80760000  0.48160000  0.60930000  1.0 -0.6194527084
O  O8  1  0.85110000  0.36630000  0.62590000  1.0 -0.6194527084
O  O9  1  0.74890000  0.33070000  0.66540000  1.0 -1.2006748105
O  O10  1  0.75220000  0.43420000  0.70040000  1.0 -1.2286771322
O  O11  1  0.79200000  0.26060000  0.61920000  1.0 -0.5600230182
O  O12  1  0.63430000  0.25750000  0.68690000  1.0 -1.2006748105
O  O13  1  0.67620000  0.22880000  0.59530000  1.0 -0.6465324695
O  O14  1  0.63170000  0.37450000  0.70580000  1.0 -1.1422066475
O  O15  1  0.48020000  0.38360000  0.70490000  1.0 -0.5824893499
O  O16  1  0.46760000  0.33580000  0.64390000  1.0 -0.6004861678
O  O17  1  0.55670000  0.48950000  0.71580000  1.0 -0.6194527084
O  O18  1  0.73190000  0.36250000  0.75360000  1.0 -1.1036215211
O  O19  1  0.82130000  0.80030000  0.53200000  1.0 -0.3053594987
O  O20  1  0.71380000  0.75880000  0.57040000  1.0 -0.1573571587
O  O21  1  0.26730000  0.19510000  0.52610000  1.0 -0.220435367
O  O22  1  0.30240000  0.75720000  0.43530000  1.0 -0.5024635801
O  O23  1  0.64420000  0.65820000  0.52560000  1.0 -0.1706383793
O  O24  1  0.39290000  0.21790000  0.49560000  1.0 -0.210901578
O  O25  1  0.28470000  0.63770000  0.11350000  1.0 -1.119147786
O  O26  1  0.42980000  0.57240000  0.15790000  1.0 -1.2228828852
O  O27  1  0.30710000  0.53810000  0.15200000  1.0 -1.2075031385
O  O28  1  0.30040000  0.51720000  0.08820000  1.0 -0.6305418141
O  O29  1  0.39760000  0.68020000  0.13968000  1.0 -1.1869829679
O  O30  1  0.48200000  0.61180000  0.10360000  1.0 -0.6194527084
O  O31  1  0.19240000  0.51840000  0.10930000  1.0 -0.6194527084
O  O32  1  0.14890000  0.63370000  0.12590000  1.0 -0.6145471121
O  O33  1  0.25110000  0.66930000  0.16540000  1.0 -1.2075031385
O  O34  1  0.24780000  0.56580000  0.20040000  1.0 -1.2286771322
O  O35  1  0.20800000  0.73940000  0.11920000  1.0 -0.5600230182
O  O36  1  0.36570000  0.74250000  0.18690000  1.0 -1.2006748105
O  O37  1  0.32380000  0.77120000  0.09530000  1.0 -0.6465324695
O  O38  1  0.36830000  0.62550000  0.20580000  1.0 -1.1475883509
O  O39  1  0.51980000  0.61640000  0.20490000  1.0 -0.5879182999
O  O40  1  0.53240000  0.66420000  0.14390000  1.0 -0.6004861678
O  O41  1  0.44330000  0.51050000  0.21580000  1.0 -0.6305418141
O  O42  1  0.26810000  0.63750000  0.25360000  1.0 -1.0948335911
O  O43  1  0.17870000  0.19970000  0.03200000  1.0 -0.3053594987
O  O44  1  0.28620000  0.24120000  0.07040000  1.0 -0.1573571587
O  O45  1  0.73270000  0.80490000  0.02610000  1.0 -0.220435367
O  O46  1  0.69760000  0.24280000  0.93530000  1.0 -0.5024635801
O  O47  1  0.35580000  0.34180000  0.02560000  1.0 -0.1706383793
O  O48  1  0.60710000  0.78210000  0.99560000  1.0 -0.210901578
O  O49  1  0.63770000  0.28470000  0.88650000  1.0 -1.119147786
O  O50  1  0.57240000  0.42980000  0.84210000  1.0 -1.2286771322
O  O51  1  0.53810000  0.30710000  0.84800000  1.0 -1.2075031385
O  O52  1  0.51720000  0.30040000  0.91180000  1.0 -0.6305418141
O  O53  1  0.68020000  0.39760000  0.86032000  1.0 -1.1803574746
O  O54  1  0.61180000  0.48200000  0.89640000  1.0 -0.6194527084
O  O55  1  0.51840000  0.19240000  0.89070000  1.0 -0.6194527084
O  O56  1  0.63370000  0.14890000  0.87410000  1.0 -0.6194527084
O  O57  1  0.66930000  0.25110000  0.83460000  1.0 -1.2006748105
O  O58  1  0.56580000  0.24780000  0.79960000  1.0 -1.2286771322
O  O59  1  0.73940000  0.20800000  0.88080000  1.0 -0.5600230182
O  O60  1  0.74250000  0.36570000  0.81310000  1.0 -1.2006748105
O  O61  1  0.77120000  0.32380000  0.90470000  1.0 -0.6465324695
O  O62  1  0.62550000  0.36830000  0.79420000  1.0 -1.1422066475
O  O63  1  0.61640000  0.51980000  0.79510000  1.0 -0.5879182999
O  O64  1  0.66420000  0.53240000  0.85610000  1.0 -0.6004861678
O  O65  1  0.51050000  0.44330000  0.78420000  1.0 -0.6305418141
O  O66  1  0.63750000  0.26810000  0.74640000  1.0 -1.1036215211
O  O67  1  0.19970000  0.17870000  0.96800000  1.0 -0.3053594987
O  O68  1  0.24120000  0.28620000  0.92960000  1.0 -0.1573571587
O  O69  1  0.80490000  0.73270000  0.97390000  1.0 -0.220435367
O  O70  1  0.24280000  0.69760000  0.06470000  1.0 -0.5024635801
O  O71  1  0.34180000  0.35580000  0.97440000  1.0 -0.1706383793
O  O72  1  0.78210000  0.60710000  0.00440000  1.0 -0.210901578
O  O73  1  0.36230000  0.71530000  0.38650000  1.0 -1.119147786
O  O74  1  0.42760000  0.57020000  0.34210000  1.0 -1.2228828852
O  O75  1  0.46190000  0.69290000  0.34800000  1.0 -1.2075031385
O  O76  1  0.48280000  0.69960000  0.41180000  1.0 -0.6305418141
O  O77  1  0.31980000  0.60240000  0.36032000  1.0 -1.1803574746
O  O78  1  0.38820000  0.51800000  0.39640000  1.0 -0.6194527084
O  O79  1  0.48160000  0.80760000  0.39070000  1.0 -0.6194527084
O  O80  1  0.36630000  0.85110000  0.37410000  1.0 -0.6194527084
O  O81  1  0.33070000  0.74890000  0.33460000  1.0 -1.2006748105
O  O82  1  0.43420000  0.75220000  0.29960000  1.0 -1.2286771322
O  O83  1  0.26060000  0.79200000  0.38080000  1.0 -0.5600230182
O  O84  1  0.25750000  0.63430000  0.31310000  1.0 -1.2075031385
O  O85  1  0.22880000  0.67620000  0.40470000  1.0 -0.6465324695
O  O86  1  0.37450000  0.63170000  0.29420000  1.0 -1.1422066475
O  O87  1  0.38360000  0.48020000  0.29510000  1.0 -0.5879182999
O  O88  1  0.33580000  0.46760000  0.35610000  1.0 -0.6004861678
O  O89  1  0.48950000  0.55670000  0.28420000  1.0 -0.6305418141
O  O90  1  0.36250000  0.73190000  0.24640000  1.0 -1.1080074097
O  O91  1  0.80030000  0.82130000  0.46800000  1.0 -0.3053594987
O  O92  1  0.75880000  0.71380000  0.42960000  1.0 -0.1573571587
O  O93  1  0.19510000  0.26730000  0.47390000  1.0 -0.220435367
O  O94  1  0.75720000  0.30240000  0.56470000  1.0 -0.5024635801
O  O95  1  0.65820000  0.64420000  0.47440000  1.0 -0.1706383793
O  O96  1  0.21790000  0.39290000  0.50440000  1.0 -0.210901578
O  O97  1  0.40400000  0.40400000  0.50000000  1.0 -0.151367196
O  O98  1  0.59600000  0.59600000  0.00000000  1.0 -0.151367196
