# DDEC6 charges by PACMAN v1.1 (https://github.com/mtap-research/PACMAN-charge/)
data_OKICOD_ASR_pacman
_symmetry_space_group_name_H-M   'P 1'
_cell_length_a   19.24000000
_cell_length_b   19.24000000
_cell_length_c   64.58500000
_cell_angle_alpha   90.00000000
_cell_angle_beta   90.00000000
_cell_angle_gamma   98.21620000
_symmetry_Int_Tables_number   1
_chemical_formula_structural   Zr12H230C277O90
_chemical_formula_sum   'Zr24 H460 C554 O180'
_cell_volume   23662.52614975
_cell_formula_units_Z   2
loop_
 _symmetry_equiv_pos_site_id
 _symmetry_equiv_pos_as_xyz
  1  'x, y, z'
loop_
 _atom_site_type_symbol
 _atom_site_label
 _atom_site_symmetry_multiplicity
 _atom_site_fract_x
 _atom_site_fract_y
 _atom_site_fract_z
 _atom_site_occupancy
 _atom_site_charge
Zr  Zr1  1  0.09732000  0.45802000  0.11537000  1.0 2.3780050435
Zr  Zr2  1  0.17480000  0.55730000  0.15654000  1.0 2.3716543275
Zr  Zr3  1  0.24099000  0.40597000  0.14084000  1.0 2.417241748
Zr  Zr4  1  0.25900000  0.47230000  0.08984000  1.0 2.479958232
Zr  Zr5  1  0.33797000  0.57191000  0.13132000  1.0 2.3780050435
Zr  Zr6  1  0.19197000  0.62481000  0.10600000  1.0 2.417241748
Zr  Zr7  1  0.90268000  0.54198000  0.61537000  1.0 2.3780050435
Zr  Zr8  1  0.82520000  0.44270000  0.65654000  1.0 2.3716543275
Zr  Zr9  1  0.75901000  0.59403000  0.64084000  1.0 2.417241748
Zr  Zr10  1  0.74100000  0.52770000  0.58984000  1.0 2.479958232
Zr  Zr11  1  0.66203000  0.42809000  0.63132000  1.0 2.3716543275
Zr  Zr12  1  0.80803000  0.37519000  0.60600000  1.0 2.417241748
Zr  Zr13  1  0.54198000  0.90268000  0.38463000  1.0 2.3780050435
Zr  Zr14  1  0.44270000  0.82520000  0.34346000  1.0 2.3716543275
Zr  Zr15  1  0.59403000  0.75901000  0.35916000  1.0 2.417241748
Zr  Zr16  1  0.52770000  0.74100000  0.41016000  1.0 2.479958232
Zr  Zr17  1  0.42809000  0.66203000  0.36868000  1.0 2.3780050435
Zr  Zr18  1  0.37519000  0.80803000  0.39400000  1.0 2.417241748
Zr  Zr19  1  0.45802000  0.09732000  0.88463000  1.0 2.3780050435
Zr  Zr20  1  0.55730000  0.17480000  0.84346000  1.0 2.3716543275
Zr  Zr21  1  0.40597000  0.24099000  0.85916000  1.0 2.417241748
Zr  Zr22  1  0.47230000  0.25900000  0.91016000  1.0 2.479958232
Zr  Zr23  1  0.57191000  0.33797000  0.86868000  1.0 2.3716543275
Zr  Zr24  1  0.62481000  0.19197000  0.89400000  1.0 2.417241748
H  H1  1  0.89076000  0.42502000  0.14518000  1.0 0.129606423
H  H2  1  0.79111000  0.38657000  0.16455000  1.0 0.1195648152
H  H3  1  0.88606000  0.47548000  0.21537000  1.0 0.1195648152
H  H4  1  0.98571000  0.51393000  0.19601000  1.0 0.129606423
H  H5  1  0.89819000  0.69755000  0.01567000  1.0 0.1195648152
H  H6  1  0.89115000  0.77307000  0.02419000  1.0 0.1099914486
H  H7  1  0.89340000  0.15148000  0.14434000  1.0 0.1195648152
H  H8  1  0.95560000  0.25848000  0.13435000  1.0 0.129606423
H  H9  1  0.13674000  0.18754000  0.14801000  1.0 0.1195648152
H  H10  1  0.07454000  0.08054000  0.15800000  1.0 0.1195648152
H  H11  1  0.51558000  0.30756000  0.19274000  1.0 0.1195648152
H  H12  1  0.98637000  0.86679000  0.12507000  1.0 0.1195648152
H  H13  1  0.06173000  0.78595000  0.11785000  1.0 0.1195648152
H  H14  1  0.05561000  0.72711000  0.17760000  1.0 0.129606423
H  H15  1  0.98027000  0.80795000  0.18482000  1.0 0.1195648152
H  H16  1  0.87626000  0.92746000  0.21990000  1.0 0.1099914486
H  H17  1  0.86786000  0.00570000  0.22550000  1.0 0.10027958
H  H18  1  0.42424000  0.32976000  0.17272000  1.0 0.1195648152
H  H19  1  0.90519000  0.50973000  0.08410000  1.0 0.129606423
H  H20  1  0.81240000  0.54376000  0.06557000  1.0 0.1195648152
H  H21  1  0.92417000  0.73421000  0.05644000  1.0 0.1195648152
H  H22  1  0.01695000  0.70019000  0.07497000  1.0 0.129606423
H  H23  1  0.72542000  0.61864000  0.06832000  1.0 0.1099914486
H  H24  1  0.79738000  0.90128000  0.24523000  1.0 0.1195648152
H  H25  1  0.76819000  0.97337000  0.24300000  1.0 0.1195648152
H  H26  1  0.84335000  0.71495000  0.98662000  1.0 0.10027958
H  H27  1  0.86614000  0.79502000  0.99177000  1.0 0.1099914486
H  H28  1  0.69801000  0.43979000  0.18262000  1.0 0.1099914486
H  H29  1  0.72627000  0.79943000  0.25943000  1.0 0.1195648152
H  H30  1  0.86009000  0.01363000  0.96706000  1.0 0.1099914486
H  H31  1  0.83470000  0.97968000  0.98856000  1.0 0.10027958
H  H32  1  0.00294000  0.97810000  0.14406000  1.0 0.1099914486
H  H33  1  0.54918000  0.59198000  0.03176000  1.0 0.1099914486
H  H34  1  0.44903000  0.54627000  0.04995000  1.0 0.1195648152
H  H35  1  0.53690000  0.62804000  0.10262000  1.0 0.129606423
H  H36  1  0.63705000  0.67377000  0.08444000  1.0 0.1099914486
H  H37  1  0.68834000  0.77914000  0.29358000  1.0 0.129606423
H  H38  1  0.76426000  0.24386000  0.94585000  1.0 0.1195648152
H  H39  1  0.86090000  0.23266000  0.96642000  1.0 0.1195648152
H  H40  1  0.75617000  0.05789000  0.99195000  1.0 0.1195648152
H  H41  1  0.65954000  0.06910000  0.97138000  1.0 0.1099914486
H  H42  1  0.88366000  0.10866000  0.19545000  1.0 0.1195648152
H  H43  1  0.83671000  0.11855000  0.17588000  1.0 0.1099914486
H  H44  1  0.85928000  0.37336000  0.23526000  1.0 0.1099914486
H  H45  1  0.83600000  0.29692000  0.22647000  1.0 0.1099914486
H  H46  1  0.84728000  0.77792000  0.15916000  1.0 0.0903936835
H  H47  1  0.78466000  0.82202000  0.16102000  1.0 0.0903936835
H  H48  1  0.16847000  0.32163000  0.04065000  1.0 0.10027958
H  H49  1  0.11606000  0.23786000  0.01751000  1.0 0.1099914486
H  H50  1  0.92819000  0.24841000  0.04357000  1.0 0.1195648152
H  H51  1  0.98061000  0.33219000  0.06670000  1.0 0.129606423
H  H52  1  0.56897000  0.81035000  0.21619000  1.0 0.1099914486
H  H53  1  0.74256000  0.75252000  0.19071000  1.0 0.1099914486
H  H54  1  0.73881000  0.70771000  0.17043000  1.0 0.10027958
H  H55  1  0.78145000  0.06331000  0.20934000  1.0 0.1099914486
H  H56  1  0.74724000  0.04330000  0.18761000  1.0 0.1099914486
H  H57  1  0.64816000  0.20612000  0.23563000  1.0 0.1099914486
H  H58  1  0.72611000  0.19363000  0.23994000  1.0 0.1099914486
H  H59  1  0.50659000  0.85297000  0.27995000  1.0 0.129606423
H  H60  1  0.53360000  0.82116000  0.99953000  1.0 0.129606423
H  H61  1  0.54790000  0.88558000  0.24786000  1.0 0.1195648152
H  H62  1  0.91986000  0.90800000  0.98160000  1.0 0.10027958
H  H63  1  0.96468000  0.96596000  0.96794000  1.0 0.0903936835
H  H64  1  0.60245000  0.80225000  0.02963000  1.0 0.10027958
H  H65  1  0.54615000  0.73713000  0.03516000  1.0 0.1099914486
H  H66  1  0.52500000  0.70720000  0.14115000  1.0 0.1195648152
H  H67  1  0.40253000  0.83201000  0.16889000  1.0 0.1099914486
H  H68  1  0.49641000  0.87947000  0.18942000  1.0 0.1195648152
H  H69  1  0.61888000  0.75466000  0.16168000  1.0 0.1099914486
H  H70  1  0.51065000  0.53779000  0.17222000  1.0 0.1195648152
H  H71  1  0.60971000  0.51107000  0.19101000  1.0 0.0903936835
H  H72  1  0.90432000  0.22948000  0.00635000  1.0 0.1195648152
H  H73  1  0.65701000  0.97877000  0.15452000  1.0 0.0903936835
H  H74  1  0.62686000  0.90100000  0.14799000  1.0 0.10027958
H  H75  1  0.70338000  0.96818000  0.12095000  1.0 0.0903936835
H  H76  1  0.76681000  0.96089000  0.13578000  1.0 0.10027958
H  H77  1  0.54958000  0.68518000  0.98299000  1.0 0.1195648152
H  H78  1  0.48962000  0.71726000  0.97129000  1.0 0.10027958
H  H79  1  0.88362000  0.70608000  0.10460000  1.0 0.0903936835
H  H80  1  0.80878000  0.66286000  0.10722000  1.0 0.10027958
H  H81  1  0.87977000  0.60649000  0.12865000  1.0 0.10027958
H  H82  1  0.91534000  0.67844000  0.13840000  1.0 0.10027958
H  H83  1  0.73562000  0.76896000  0.10514000  1.0 0.1099914486
H  H84  1  0.80593000  0.78453000  0.09244000  1.0 0.0903936835
H  H85  1  0.83143000  0.88233000  0.11981000  1.0 0.1099914486
H  H86  1  0.79156000  0.89646000  0.09917000  1.0 0.0817681496
H  H87  1  0.40755000  0.62569000  0.98369000  1.0 0.10027958
H  H88  1  0.46298000  0.59792000  0.96936000  1.0 0.10027958
H  H89  1  0.44047000  0.48741000  0.98124000  1.0 0.0903936835
H  H90  1  0.40315000  0.48575000  0.00274000  1.0 0.0817681496
H  H91  1  0.48633000  0.31243000  0.26543000  1.0 0.10027958
H  H92  1  0.45322000  0.28290000  0.24489000  1.0 0.1195648152
H  H93  1  0.01987000  0.06633000  0.05090000  1.0 0.0817681496
H  H94  1  0.06991000  0.13889000  0.05210000  1.0 0.10027958
H  H95  1  0.51318000  0.39359000  0.22903000  1.0 0.0903936835
H  H96  1  0.55846000  0.39946000  0.24936000  1.0 0.0505617918
H  H97  1  0.13135000  0.03987000  0.06554000  1.0 0.10027958
H  H98  1  0.12901000  0.01029000  0.04252000  1.0 0.10027958
H  H99  1  0.29326000  0.17862000  0.04111000  1.0 0.10027958
H  H100  1  0.32364000  0.14932000  0.02093000  1.0 0.10027958
H  H101  1  0.20696000  0.07432000  0.01735000  1.0 0.1099914486
H  H102  1  0.25485000  0.05221000  0.03545000  1.0 0.0903936835
H  H103  1  0.32802000  0.64384000  0.19274000  1.0 0.0903936835
H  H104  1  0.84674000  0.57276000  0.16159000  1.0 0.0903936835
H  H105  1  0.88262000  0.64572000  0.16941000  1.0 0.1099914486
H  H106  1  0.74340000  0.59974000  0.17994000  1.0 0.0903936835
H  H107  1  0.80678000  0.58083000  0.19363000  1.0 0.10027958
H  H108  1  0.32826000  0.28442000  0.01620000  1.0 0.0817681496
H  H109  1  0.25284000  0.30674000  0.01850000  1.0 0.1099914486
H  H110  1  0.43381000  0.36859000  0.28639000  1.0 0.0817681496
H  H111  1  0.35378000  0.37184000  0.28561000  1.0 0.10027958
H  H112  1  0.36801000  0.47563000  0.28699000  1.0 0.1099914486
H  H113  1  0.44420000  0.47110000  0.29236000  1.0 0.1099914486
H  H114  1  0.52009000  0.56197000  0.25885000  1.0 0.1099914486
H  H115  1  0.47325000  0.62285000  0.25589000  1.0 0.1099914486
H  H116  1  0.10924000  0.57498000  0.64518000  1.0 0.129606423
H  H117  1  0.20889000  0.61343000  0.66455000  1.0 0.1195648152
H  H118  1  0.11394000  0.52452000  0.71537000  1.0 0.1195648152
H  H119  1  0.01429000  0.48607000  0.69601000  1.0 0.129606423
H  H120  1  0.10181000  0.30245000  0.51567000  1.0 0.1195648152
H  H121  1  0.10885000  0.22693000  0.52419000  1.0 0.1099914486
H  H122  1  0.10660000  0.84852000  0.64434000  1.0 0.1195648152
H  H123  1  0.04440000  0.74152000  0.63435000  1.0 0.129606423
H  H124  1  0.86326000  0.81246000  0.64801000  1.0 0.1195648152
H  H125  1  0.92546000  0.91946000  0.65800000  1.0 0.1195648152
H  H126  1  0.48442000  0.69244000  0.69274000  1.0 0.1195648152
H  H127  1  0.01363000  0.13321000  0.62507000  1.0 0.1195648152
H  H128  1  0.93827000  0.21405000  0.61785000  1.0 0.1195648152
H  H129  1  0.94439000  0.27289000  0.67760000  1.0 0.129606423
H  H130  1  0.01973000  0.19205000  0.68482000  1.0 0.1195648152
H  H131  1  0.12374000  0.07254000  0.71990000  1.0 0.1099914486
H  H132  1  0.13214000  0.99430000  0.72550000  1.0 0.1099914486
H  H133  1  0.57576000  0.67024000  0.67272000  1.0 0.129606423
H  H134  1  0.09481000  0.49027000  0.58410000  1.0 0.129606423
H  H135  1  0.18760000  0.45624000  0.56557000  1.0 0.1195648152
H  H136  1  0.07583000  0.26579000  0.55644000  1.0 0.1195648152
H  H137  1  0.98305000  0.29981000  0.57497000  1.0 0.129606423
H  H138  1  0.27458000  0.38136000  0.56832000  1.0 0.1099914486
H  H139  1  0.20262000  0.09872000  0.74523000  1.0 0.1195648152
H  H140  1  0.23181000  0.02663000  0.74300000  1.0 0.1099914486
H  H141  1  0.15665000  0.28505000  0.48662000  1.0 0.10027958
H  H142  1  0.13386000  0.20498000  0.49177000  1.0 0.1099914486
H  H143  1  0.30199000  0.56021000  0.68262000  1.0 0.1099914486
H  H144  1  0.27373000  0.20057000  0.75943000  1.0 0.1195648152
H  H145  1  0.13991000  0.98637000  0.46706000  1.0 0.1099914486
H  H146  1  0.16530000  0.02032000  0.48856000  1.0 0.10027958
H  H147  1  0.99706000  0.02190000  0.64406000  1.0 0.1099914486
H  H148  1  0.45082000  0.40802000  0.53176000  1.0 0.1099914486
H  H149  1  0.55097000  0.45373000  0.54995000  1.0 0.1195648152
H  H150  1  0.46310000  0.37196000  0.60262000  1.0 0.129606423
H  H151  1  0.36295000  0.32623000  0.58444000  1.0 0.1099914486
H  H152  1  0.31166000  0.22086000  0.79358000  1.0 0.129606423
H  H153  1  0.23575000  0.75614000  0.44585000  1.0 0.1195648152
H  H154  1  0.13910000  0.76734000  0.46642000  1.0 0.1195648152
H  H155  1  0.24383000  0.94211000  0.49195000  1.0 0.1195648152
H  H156  1  0.34046000  0.93090000  0.47138000  1.0 0.1099914486
H  H157  1  0.11634000  0.89134000  0.69545000  1.0 0.1195648152
H  H158  1  0.16329000  0.88145000  0.67588000  1.0 0.1099914486
H  H159  1  0.14072000  0.62664000  0.73526000  1.0 0.1099914486
H  H160  1  0.16400000  0.70308000  0.72647000  1.0 0.1099914486
H  H161  1  0.15272000  0.22208000  0.65916000  1.0 0.0903936835
H  H162  1  0.21534000  0.17798000  0.66102000  1.0 0.0903936835
H  H163  1  0.83153000  0.67837000  0.54065000  1.0 0.10027958
H  H164  1  0.88394000  0.76214000  0.51751000  1.0 0.1099914486
H  H165  1  0.07180000  0.75158000  0.54357000  1.0 0.1195648152
H  H166  1  0.01939000  0.66781000  0.56670000  1.0 0.129606423
H  H167  1  0.43103000  0.18965000  0.71619000  1.0 0.1099914486
H  H168  1  0.25744000  0.24748000  0.69071000  1.0 0.10027958
H  H169  1  0.26119000  0.29229000  0.67043000  1.0 0.10027958
H  H170  1  0.21855000  0.93669000  0.70934000  1.0 0.1099914486
H  H171  1  0.25276000  0.95670000  0.68761000  1.0 0.1099914486
H  H172  1  0.35184000  0.79388000  0.73563000  1.0 0.1099914486
H  H173  1  0.27389000  0.80637000  0.73994000  1.0 0.1099914486
H  H174  1  0.49341000  0.14703000  0.77995000  1.0 0.129606423
H  H175  1  0.46640000  0.17884000  0.49953000  1.0 0.129606423
H  H176  1  0.45210000  0.11442000  0.74786000  1.0 0.1195648152
H  H177  1  0.08014000  0.09200000  0.48160000  1.0 0.10027958
H  H178  1  0.03532000  0.03404000  0.46794000  1.0 0.0903936835
H  H179  1  0.39755000  0.19775000  0.52963000  1.0 0.10027958
H  H180  1  0.45385000  0.26287000  0.53516000  1.0 0.1099914486
H  H181  1  0.47500000  0.29280000  0.64115000  1.0 0.1195648152
H  H182  1  0.59747000  0.16799000  0.66889000  1.0 0.1099914486
H  H183  1  0.50359000  0.12053000  0.68942000  1.0 0.1195648152
H  H184  1  0.38112000  0.24534000  0.66168000  1.0 0.1099914486
H  H185  1  0.48935000  0.46221000  0.67222000  1.0 0.1195648152
H  H186  1  0.39029000  0.48893000  0.69101000  1.0 0.0903936835
H  H187  1  0.09568000  0.77052000  0.50635000  1.0 0.1195648152
H  H188  1  0.34299000  0.02123000  0.65452000  1.0 0.0903936835
H  H189  1  0.37314000  0.09900000  0.64799000  1.0 0.10027958
H  H190  1  0.29662000  0.03182000  0.62095000  1.0 0.0903936835
H  H191  1  0.23319000  0.03911000  0.63578000  1.0 0.10027958
H  H192  1  0.45042000  0.31482000  0.48299000  1.0 0.1195648152
H  H193  1  0.51038000  0.28274000  0.47129000  1.0 0.10027958
H  H194  1  0.11638000  0.29392000  0.60460000  1.0 0.0903936835
H  H195  1  0.19122000  0.33714000  0.60722000  1.0 0.10027958
H  H196  1  0.12023000  0.39351000  0.62865000  1.0 0.10027958
H  H197  1  0.08466000  0.32156000  0.63840000  1.0 0.1099914486
H  H198  1  0.26438000  0.23104000  0.60514000  1.0 0.1099914486
H  H199  1  0.19408000  0.21546000  0.59244000  1.0 0.0903936835
H  H200  1  0.16857000  0.11767000  0.61981000  1.0 0.1099914486
H  H201  1  0.20844000  0.10354000  0.59917000  1.0 0.0817681496
H  H202  1  0.59245000  0.37431000  0.48369000  1.0 0.10027958
H  H203  1  0.53702000  0.40208000  0.46936000  1.0 0.10027958
H  H204  1  0.55953000  0.51259000  0.48124000  1.0 0.0903936835
H  H205  1  0.59685000  0.51425000  0.50274000  1.0 0.0817681496
H  H206  1  0.51367000  0.68757000  0.76543000  1.0 0.10027958
H  H207  1  0.54678000  0.71710000  0.74489000  1.0 0.1195648152
H  H208  1  0.98013000  0.93367000  0.55090000  1.0 0.0817681496
H  H209  1  0.93009000  0.86111000  0.55210000  1.0 0.10027958
H  H210  1  0.48683000  0.60640000  0.72903000  1.0 0.0903936835
H  H211  1  0.44154000  0.60054000  0.74936000  1.0 0.0505617918
H  H212  1  0.86865000  0.96013000  0.56554000  1.0 0.10027958
H  H213  1  0.87099000  0.98971000  0.54252000  1.0 0.10027958
H  H214  1  0.70674000  0.82138000  0.54111000  1.0 0.10027958
H  H215  1  0.67636000  0.85069000  0.52093000  1.0 0.10027958
H  H216  1  0.79304000  0.92568000  0.51735000  1.0 0.1099914486
H  H217  1  0.74515000  0.94779000  0.53545000  1.0 0.0903936835
H  H218  1  0.67198000  0.35616000  0.69274000  1.0 0.0903936835
H  H219  1  0.15326000  0.42724000  0.66159000  1.0 0.0903936835
H  H220  1  0.11738000  0.35428000  0.66941000  1.0 0.1099914486
H  H221  1  0.25660000  0.40026000  0.67994000  1.0 0.0903936835
H  H222  1  0.19323000  0.41918000  0.69363000  1.0 0.10027958
H  H223  1  0.67174000  0.71558000  0.51620000  1.0 0.0817681496
H  H224  1  0.74716000  0.69326000  0.51850000  1.0 0.1099914486
H  H225  1  0.56619000  0.63141000  0.78639000  1.0 0.0817681496
H  H226  1  0.64622000  0.62816000  0.78561000  1.0 0.10027958
H  H227  1  0.63199000  0.52437000  0.78699000  1.0 0.1099914486
H  H228  1  0.55580000  0.52890000  0.79236000  1.0 0.1099914486
H  H229  1  0.47991000  0.43803000  0.75885000  1.0 0.1099914486
H  H230  1  0.52675000  0.37715000  0.75589000  1.0 0.1099914486
H  H231  1  0.57498000  0.10924000  0.35482000  1.0 0.129606423
H  H232  1  0.61343000  0.20889000  0.33545000  1.0 0.1195648152
H  H233  1  0.52452000  0.11394000  0.28463000  1.0 0.1195648152
H  H234  1  0.48607000  0.01429000  0.30399000  1.0 0.129606423
H  H235  1  0.30245000  0.10181000  0.48433000  1.0 0.1195648152
H  H236  1  0.22693000  0.10885000  0.47581000  1.0 0.1099914486
H  H237  1  0.84852000  0.10660000  0.35566000  1.0 0.1195648152
H  H238  1  0.74152000  0.04440000  0.36565000  1.0 0.129606423
H  H239  1  0.81246000  0.86326000  0.35199000  1.0 0.1195648152
H  H240  1  0.91946000  0.92546000  0.34200000  1.0 0.1195648152
H  H241  1  0.69244000  0.48442000  0.30726000  1.0 0.1195648152
H  H242  1  0.13321000  0.01363000  0.37493000  1.0 0.1195648152
H  H243  1  0.21405000  0.93827000  0.38215000  1.0 0.1195648152
H  H244  1  0.27289000  0.94439000  0.32240000  1.0 0.129606423
H  H245  1  0.19205000  0.01973000  0.31518000  1.0 0.1195648152
H  H246  1  0.07254000  0.12374000  0.28010000  1.0 0.1099914486
H  H247  1  0.99430000  0.13214000  0.27450000  1.0 0.10027958
H  H248  1  0.67024000  0.57576000  0.32728000  1.0 0.1195648152
H  H249  1  0.49027000  0.09481000  0.41590000  1.0 0.129606423
H  H250  1  0.45624000  0.18760000  0.43443000  1.0 0.1195648152
H  H251  1  0.26579000  0.07583000  0.44356000  1.0 0.1195648152
H  H252  1  0.29981000  0.98305000  0.42503000  1.0 0.129606423
H  H253  1  0.38136000  0.27458000  0.43168000  1.0 0.1099914486
H  H254  1  0.09872000  0.20262000  0.25477000  1.0 0.1195648152
H  H255  1  0.02663000  0.23181000  0.25700000  1.0 0.1195648152
H  H256  1  0.28505000  0.15665000  0.51338000  1.0 0.10027958
H  H257  1  0.20498000  0.13386000  0.50823000  1.0 0.1099914486
H  H258  1  0.56021000  0.30199000  0.31738000  1.0 0.1099914486
H  H259  1  0.20057000  0.27373000  0.24057000  1.0 0.1195648152
H  H260  1  0.98637000  0.13991000  0.53294000  1.0 0.1099914486
H  H261  1  0.02032000  0.16530000  0.51144000  1.0 0.10027958
H  H262  1  0.02190000  0.99706000  0.35594000  1.0 0.1099914486
H  H263  1  0.40802000  0.45082000  0.46824000  1.0 0.1099914486
H  H264  1  0.45373000  0.55097000  0.45005000  1.0 0.1195648152
H  H265  1  0.37196000  0.46310000  0.39738000  1.0 0.129606423
H  H266  1  0.32623000  0.36295000  0.41556000  1.0 0.1099914486
H  H267  1  0.22087000  0.31166000  0.20642000  1.0 0.129606423
H  H268  1  0.75614000  0.23575000  0.55415000  1.0 0.1195648152
H  H269  1  0.76734000  0.13910000  0.53358000  1.0 0.1195648152
H  H270  1  0.94211000  0.24383000  0.50805000  1.0 0.1195648152
H  H271  1  0.93090000  0.34046000  0.52862000  1.0 0.1099914486
H  H272  1  0.89134000  0.11634000  0.30455000  1.0 0.1195648152
H  H273  1  0.88145000  0.16329000  0.32412000  1.0 0.1099914486
H  H274  1  0.62664000  0.14072000  0.26474000  1.0 0.1099914486
H  H275  1  0.70308000  0.16400000  0.27353000  1.0 0.1099914486
H  H276  1  0.22208000  0.15272000  0.34084000  1.0 0.0903936835
H  H277  1  0.17798000  0.21534000  0.33898000  1.0 0.0903936835
H  H278  1  0.67837000  0.83153000  0.45935000  1.0 0.10027958
H  H279  1  0.76214000  0.88394000  0.48249000  1.0 0.1099914486
H  H280  1  0.75158000  0.07180000  0.45643000  1.0 0.1195648152
H  H281  1  0.66781000  0.01939000  0.43330000  1.0 0.129606423
H  H282  1  0.18965000  0.43103000  0.28381000  1.0 0.1099914486
H  H283  1  0.24748000  0.25744000  0.30929000  1.0 0.1099914486
H  H284  1  0.29229000  0.26119000  0.32957000  1.0 0.0903936835
H  H285  1  0.93669000  0.21855000  0.29066000  1.0 0.1099914486
H  H286  1  0.95670000  0.25276000  0.31239000  1.0 0.1099914486
H  H287  1  0.79388000  0.35184000  0.26437000  1.0 0.1099914486
H  H288  1  0.80637000  0.27389000  0.26006000  1.0 0.1099914486
H  H289  1  0.14703000  0.49341000  0.22005000  1.0 0.129606423
H  H290  1  0.17884000  0.46640000  0.50047000  1.0 0.129606423
H  H291  1  0.11442000  0.45210000  0.25214000  1.0 0.1195648152
H  H292  1  0.09200000  0.08014000  0.51840000  1.0 0.10027958
H  H293  1  0.03404000  0.03532000  0.53206000  1.0 0.0903936835
H  H294  1  0.19775000  0.39755000  0.47037000  1.0 0.10027958
H  H295  1  0.26287000  0.45385000  0.46484000  1.0 0.1099914486
H  H296  1  0.29280000  0.47500000  0.35885000  1.0 0.1195648152
H  H297  1  0.16799000  0.59747000  0.33111000  1.0 0.1099914486
H  H298  1  0.12053000  0.50359000  0.31058000  1.0 0.1195648152
H  H299  1  0.24534000  0.38112000  0.33832000  1.0 0.1099914486
H  H300  1  0.46221000  0.48935000  0.32778000  1.0 0.1195648152
H  H301  1  0.48893000  0.39029000  0.30899000  1.0 0.0903936835
H  H302  1  0.77052000  0.09568000  0.49365000  1.0 0.1195648152
H  H303  1  0.02123000  0.34299000  0.34548000  1.0 0.0903936835
H  H304  1  0.09900000  0.37314000  0.35201000  1.0 0.10027958
H  H305  1  0.03182000  0.29662000  0.37905000  1.0 0.0903936835
H  H306  1  0.03911000  0.23319000  0.36422000  1.0 0.10027958
H  H307  1  0.31482000  0.45042000  0.51701000  1.0 0.1195648152
H  H308  1  0.28274000  0.51038000  0.52871000  1.0 0.10027958
H  H309  1  0.29392000  0.11638000  0.39540000  1.0 0.0903936835
H  H310  1  0.33714000  0.19122000  0.39278000  1.0 0.10027958
H  H311  1  0.39351000  0.12023000  0.37135000  1.0 0.10027958
H  H312  1  0.32156000  0.08466000  0.36160000  1.0 0.10027958
H  H313  1  0.23104000  0.26438000  0.39486000  1.0 0.1099914486
H  H314  1  0.21547000  0.19407000  0.40756000  1.0 0.0903936835
H  H315  1  0.11767000  0.16857000  0.38019000  1.0 0.1099914486
H  H316  1  0.10354000  0.20844000  0.40083000  1.0 0.0817681496
H  H317  1  0.37431000  0.59245000  0.51631000  1.0 0.10027958
H  H318  1  0.40208000  0.53702000  0.53064000  1.0 0.10027958
H  H319  1  0.51259000  0.55953000  0.51876000  1.0 0.0903936835
H  H320  1  0.51425000  0.59685000  0.49726000  1.0 0.0817681496
H  H321  1  0.68757000  0.51367000  0.23457000  1.0 0.10027958
H  H322  1  0.71710000  0.54678000  0.25511000  1.0 0.1195648152
H  H323  1  0.93367000  0.98013000  0.44910000  1.0 0.0817681496
H  H324  1  0.86111000  0.93009000  0.44790000  1.0 0.10027958
H  H325  1  0.60641000  0.48682000  0.27097000  1.0 0.0903936835
H  H326  1  0.60054000  0.44154000  0.25064000  1.0 0.0505617918
H  H327  1  0.96013000  0.86865000  0.43446000  1.0 0.10027958
H  H328  1  0.98971000  0.87099000  0.45748000  1.0 0.10027958
H  H329  1  0.82138000  0.70674000  0.45889000  1.0 0.10027958
H  H330  1  0.85069000  0.67636000  0.47907000  1.0 0.10027958
H  H331  1  0.92568000  0.79304000  0.48265000  1.0 0.1099914486
H  H332  1  0.94779000  0.74515000  0.46455000  1.0 0.0903936835
H  H333  1  0.35616000  0.67198000  0.30726000  1.0 0.0903936835
H  H334  1  0.42724000  0.15326000  0.33841000  1.0 0.0903936835
H  H335  1  0.35428000  0.11738000  0.33059000  1.0 0.1099914486
H  H336  1  0.40026000  0.25660000  0.32006000  1.0 0.0903936835
H  H337  1  0.41918000  0.19323000  0.30637000  1.0 0.10027958
H  H338  1  0.71558000  0.67174000  0.48380000  1.0 0.0817681496
H  H339  1  0.69326000  0.74716000  0.48150000  1.0 0.1099914486
H  H340  1  0.63141000  0.56619000  0.21361000  1.0 0.0817681496
H  H341  1  0.62816000  0.64622000  0.21439000  1.0 0.10027958
H  H342  1  0.52437000  0.63199000  0.21301000  1.0 0.1099914486
H  H343  1  0.52890000  0.55580000  0.20764000  1.0 0.1099914486
H  H344  1  0.43803000  0.47991000  0.24115000  1.0 0.1099914486
H  H345  1  0.37715000  0.52675000  0.24411000  1.0 0.1099914486
H  H346  1  0.42502000  0.89076000  0.85482000  1.0 0.129606423
H  H347  1  0.38657000  0.79111000  0.83545000  1.0 0.1195648152
H  H348  1  0.47548000  0.88606000  0.78463000  1.0 0.1195648152
H  H349  1  0.51393000  0.98571000  0.80399000  1.0 0.129606423
H  H350  1  0.69755000  0.89819000  0.98433000  1.0 0.1195648152
H  H351  1  0.77307000  0.89115000  0.97581000  1.0 0.1099914486
H  H352  1  0.15148000  0.89340000  0.85566000  1.0 0.1195648152
H  H353  1  0.25848000  0.95560000  0.86565000  1.0 0.129606423
H  H354  1  0.18754000  0.13674000  0.85199000  1.0 0.1195648152
H  H355  1  0.08054000  0.07454000  0.84200000  1.0 0.1195648152
H  H356  1  0.30756000  0.51558000  0.80726000  1.0 0.1195648152
H  H357  1  0.86679000  0.98637000  0.87493000  1.0 0.1195648152
H  H358  1  0.78595000  0.06173000  0.88215000  1.0 0.1195648152
H  H359  1  0.72711000  0.05561000  0.82240000  1.0 0.129606423
H  H360  1  0.80795000  0.98027000  0.81518000  1.0 0.1195648152
H  H361  1  0.92746000  0.87626000  0.78010000  1.0 0.1099914486
H  H362  1  0.00570000  0.86786000  0.77450000  1.0 0.10027958
H  H363  1  0.32976000  0.42424000  0.82728000  1.0 0.1195648152
H  H364  1  0.50973000  0.90519000  0.91590000  1.0 0.129606423
H  H365  1  0.54376000  0.81240000  0.93443000  1.0 0.1195648152
H  H366  1  0.73421000  0.92417000  0.94356000  1.0 0.1195648152
H  H367  1  0.70019000  0.01695000  0.92503000  1.0 0.129606423
H  H368  1  0.61864000  0.72542000  0.93168000  1.0 0.1099914486
H  H369  1  0.90128000  0.79738000  0.75477000  1.0 0.1195648152
H  H370  1  0.97337000  0.76819000  0.75700000  1.0 0.1195648152
H  H371  1  0.71495000  0.84335000  0.01338000  1.0 0.10027958
H  H372  1  0.79502000  0.86614000  0.00823000  1.0 0.1099914486
H  H373  1  0.43979000  0.69801000  0.81738000  1.0 0.1099914486
H  H374  1  0.79943000  0.72627000  0.74057000  1.0 0.1195648152
H  H375  1  0.01363000  0.86009000  0.03294000  1.0 0.1099914486
H  H376  1  0.97968000  0.83470000  0.01144000  1.0 0.10027958
H  H377  1  0.97810000  0.00294000  0.85594000  1.0 0.1099914486
H  H378  1  0.59198000  0.54918000  0.96824000  1.0 0.1099914486
H  H379  1  0.54627000  0.44903000  0.95005000  1.0 0.1195648152
H  H380  1  0.62804000  0.53690000  0.89738000  1.0 0.129606423
H  H381  1  0.67377000  0.63705000  0.91556000  1.0 0.1099914486
H  H382  1  0.77914000  0.68834000  0.70642000  1.0 0.129606423
H  H383  1  0.24387000  0.76426000  0.05415000  1.0 0.1195648152
H  H384  1  0.23266000  0.86090000  0.03358000  1.0 0.1195648152
H  H385  1  0.05789000  0.75617000  0.00805000  1.0 0.1195648152
H  H386  1  0.06910000  0.65954000  0.02862000  1.0 0.1099914486
H  H387  1  0.10866000  0.88366000  0.80455000  1.0 0.1195648152
H  H388  1  0.11855000  0.83671000  0.82412000  1.0 0.1099914486
H  H389  1  0.37336000  0.85928000  0.76474000  1.0 0.1099914486
H  H390  1  0.29692000  0.83600000  0.77353000  1.0 0.1099914486
H  H391  1  0.77792000  0.84728000  0.84084000  1.0 0.0903936835
H  H392  1  0.82202000  0.78466000  0.83898000  1.0 0.0903936835
H  H393  1  0.32163000  0.16847000  0.95935000  1.0 0.10027958
H  H394  1  0.23786000  0.11606000  0.98249000  1.0 0.1099914486
H  H395  1  0.24842000  0.92819000  0.95643000  1.0 0.1195648152
H  H396  1  0.33219000  0.98061000  0.93330000  1.0 0.129606423
H  H397  1  0.81035000  0.56897000  0.78381000  1.0 0.1099914486
H  H398  1  0.75252000  0.74256000  0.80929000  1.0 0.1099914486
H  H399  1  0.70771000  0.73881000  0.82957000  1.0 0.0903936835
H  H400  1  0.06331000  0.78145000  0.79066000  1.0 0.1099914486
H  H401  1  0.04330000  0.74724000  0.81239000  1.0 0.1099914486
H  H402  1  0.20612000  0.64816000  0.76437000  1.0 0.1099914486
H  H403  1  0.19363000  0.72611000  0.76006000  1.0 0.1099914486
H  H404  1  0.85297000  0.50659000  0.72005000  1.0 0.129606423
H  H405  1  0.82116000  0.53360000  0.00047000  1.0 0.129606423
H  H406  1  0.88558000  0.54790000  0.75214000  1.0 0.1195648152
H  H407  1  0.90800000  0.91986000  0.01840000  1.0 0.10027958
H  H408  1  0.96596000  0.96468000  0.03206000  1.0 0.0903936835
H  H409  1  0.80225000  0.60245000  0.97037000  1.0 0.10027958
H  H410  1  0.73713000  0.54615000  0.96484000  1.0 0.1099914486
H  H411  1  0.70720000  0.52500000  0.85885000  1.0 0.1195648152
H  H412  1  0.83201000  0.40253000  0.83111000  1.0 0.1099914486
H  H413  1  0.87947000  0.49641000  0.81058000  1.0 0.1195648152
H  H414  1  0.75466000  0.61888000  0.83832000  1.0 0.1099914486
H  H415  1  0.53779000  0.51065000  0.82778000  1.0 0.1195648152
H  H416  1  0.51107000  0.60971000  0.80899000  1.0 0.0903936835
H  H417  1  0.22948000  0.90432000  0.99365000  1.0 0.1195648152
H  H418  1  0.97877000  0.65701000  0.84548000  1.0 0.0903936835
H  H419  1  0.90100000  0.62686000  0.85201000  1.0 0.10027958
H  H420  1  0.96818000  0.70338000  0.87905000  1.0 0.0903936835
H  H421  1  0.96089000  0.76681000  0.86422000  1.0 0.10027958
H  H422  1  0.68518000  0.54958000  0.01701000  1.0 0.1195648152
H  H423  1  0.71726000  0.48962000  0.02871000  1.0 0.10027958
H  H424  1  0.70608000  0.88362000  0.89540000  1.0 0.0903936835
H  H425  1  0.66286000  0.80878000  0.89278000  1.0 0.10027958
H  H426  1  0.60649000  0.87977000  0.87135000  1.0 0.10027958
H  H427  1  0.67844000  0.91534000  0.86160000  1.0 0.10027958
H  H428  1  0.76896000  0.73562000  0.89486000  1.0 0.1099914486
H  H429  1  0.78454000  0.80593000  0.90756000  1.0 0.0903936835
H  H430  1  0.88233000  0.83143000  0.88019000  1.0 0.1099914486
H  H431  1  0.89646000  0.79156000  0.90083000  1.0 0.0817681496
H  H432  1  0.62569000  0.40755000  0.01631000  1.0 0.10027958
H  H433  1  0.59792000  0.46298000  0.03064000  1.0 0.10027958
H  H434  1  0.48741000  0.44047000  0.01876000  1.0 0.0903936835
H  H435  1  0.48575000  0.40315000  0.99726000  1.0 0.0817681496
H  H436  1  0.31243000  0.48633000  0.73457000  1.0 0.10027958
H  H437  1  0.28290000  0.45322000  0.75511000  1.0 0.1195648152
H  H438  1  0.06633000  0.01987000  0.94910000  1.0 0.0817681496
H  H439  1  0.13889000  0.06991000  0.94790000  1.0 0.10027958
H  H440  1  0.39360000  0.51318000  0.77097000  1.0 0.0903936835
H  H441  1  0.39946000  0.55846000  0.75064000  1.0 0.0505617918
H  H442  1  0.03987000  0.13135000  0.93446000  1.0 0.10027958
H  H443  1  0.01029000  0.12901000  0.95748000  1.0 0.10027958
H  H444  1  0.17862000  0.29326000  0.95889000  1.0 0.10027958
H  H445  1  0.14932000  0.32364000  0.97907000  1.0 0.10027958
H  H446  1  0.07432000  0.20696000  0.98265000  1.0 0.1099914486
H  H447  1  0.05221000  0.25485000  0.96455000  1.0 0.0903936835
H  H448  1  0.64384000  0.32802000  0.80726000  1.0 0.0903936835
H  H449  1  0.57276000  0.84674000  0.83841000  1.0 0.0903936835
H  H450  1  0.64572000  0.88262000  0.83059000  1.0 0.1099914486
H  H451  1  0.59974000  0.74340000  0.82006000  1.0 0.0903936835
H  H452  1  0.58083000  0.80678000  0.80637000  1.0 0.10027958
H  H453  1  0.28442000  0.32826000  0.98380000  1.0 0.0817681496
H  H454  1  0.30674000  0.25284000  0.98150000  1.0 0.1099914486
H  H455  1  0.36859000  0.43381000  0.71361000  1.0 0.0817681496
H  H456  1  0.37184000  0.35378000  0.71439000  1.0 0.10027958
H  H457  1  0.47563000  0.36801000  0.71301000  1.0 0.1099914486
H  H458  1  0.47110000  0.44420000  0.70764000  1.0 0.1099914486
H  H459  1  0.56197000  0.52009000  0.74115000  1.0 0.1099914486
H  H460  1  0.62285000  0.47325000  0.74411000  1.0 0.1099914486
C  C1  1  0.39709000  0.45411000  0.15763000  1.0 0.6206751603
C  C2  1  0.09214000  0.30294000  0.13504000  1.0 0.6431610245
C  C3  1  0.11534000  0.69928000  0.14190000  1.0 0.6278513032
C  C4  1  0.88981000  0.43513000  0.15925000  1.0 -0.0995077675
C  C5  1  0.83011000  0.41209000  0.17085000  1.0 -0.1678637322
C  C6  1  0.82870000  0.42722000  0.19188000  1.0 0.0817681496
C  C7  1  0.88701000  0.46537000  0.20131000  1.0 -0.1788697789
C  C8  1  0.94671000  0.48841000  0.18970000  1.0 -0.0905979066
C  C9  1  0.94811000  0.47329000  0.16867000  1.0 -0.0390384652
C  C10  1  0.86650000  0.73210000  0.01727000  1.0 -0.2282754485
C  C11  1  0.97780000  0.10540000  0.15216000  1.0 0.0903936835
C  C12  1  0.94217000  0.15871000  0.14508000  1.0 -0.1678637322
C  C13  1  0.97944000  0.22282000  0.13909000  1.0 -0.0905979066
C  C14  1  0.05234000  0.23362000  0.14019000  1.0 -0.05029658
C  C15  1  0.08797000  0.18031000  0.14727000  1.0 -0.0803475648
C  C16  1  0.05070000  0.11620000  0.15326000  1.0 -0.1598261176
C  C17  1  0.51560000  0.35320000  0.18797000  1.0 -0.1488000699
C  C18  1  0.56700000  0.80060000  0.31269000  1.0 0.6206751603
C  C19  1  0.41930000  0.55210000  0.09157000  1.0 0.6206751603
C  C20  1  0.00025000  0.83879000  0.13560000  1.0 -0.1788697789
C  C21  1  0.04540000  0.79036000  0.13128000  1.0 -0.0905979066
C  C22  1  0.06614000  0.74852000  0.14701000  1.0 -0.0692255091
C  C23  1  0.04173000  0.75511000  0.16707000  1.0 -0.0905979066
C  C24  1  0.99660000  0.80354000  0.17140000  1.0 -0.1678637322
C  C25  1  0.97585000  0.84539000  0.15566000  1.0 0.10027958
C  C26  1  0.84322000  0.96098000  0.22083000  1.0 -0.2183225504
C  C27  1  0.45979000  0.36581000  0.17623000  1.0 -0.0995077675
C  C28  1  0.97026000  0.60158000  0.08137000  1.0 -0.0692255091
C  C29  1  0.90900000  0.55472000  0.07856000  1.0 -0.0803475648
C  C30  1  0.85340000  0.57510000  0.06745000  1.0 -0.1788697789
C  C31  1  0.85908000  0.64236000  0.05916000  1.0 0.0903936835
C  C32  1  0.92036000  0.68922000  0.06198000  1.0 -0.1788697789
C  C33  1  0.97595000  0.66883000  0.07309000  1.0 -0.0803475648
C  C34  1  0.64215000  0.15925000  0.94271000  1.0 0.5628427673
C  C35  1  0.11266000  0.38234000  0.07209000  1.0 0.6431610245
C  C36  1  0.01294000  0.49410000  0.15580000  1.0 0.6206751603
C  C37  1  0.67783000  0.69893000  0.02761000  1.0 0.1493912875
C  C38  1  0.74406000  0.71958000  0.01920000  1.0 -0.0803475648
C  C39  1  0.80331000  0.70241000  0.02919000  1.0 0.0382654137
C  C40  1  0.79632000  0.66460000  0.04759000  1.0 -0.0084878284
C  C41  1  0.73009000  0.64395000  0.05601000  1.0 -0.2183225504
C  C42  1  0.67085000  0.66111000  0.04602000  1.0 -0.0390384652
C  C43  1  0.64040000  0.84860000  0.25033000  1.0 0.0903936835
C  C44  1  0.78290000  0.93450000  0.23539000  1.0 -0.2099241036
C  C45  1  0.80501000  0.96927000  0.19846000  1.0 0.129606423
C  C46  1  0.83950000  0.75150000  0.99670000  1.0 -0.2183225504
C  C47  1  0.69764000  0.41380000  0.19477000  1.0 -0.2099241036
C  C48  1  0.76052000  0.40114000  0.20360000  1.0 -0.0084878284
C  C49  1  0.75996000  0.36230000  0.22176000  1.0 0.0505617918
C  C50  1  0.69650000  0.33612000  0.23110000  1.0 -0.0803475648
C  C51  1  0.63362000  0.34878000  0.22228000  1.0 0.1640876117
C  C52  1  0.63419000  0.38763000  0.20411000  1.0 -0.05029658
C  C53  1  0.68420000  0.81260000  0.26399000  1.0 -0.1788697789
C  C54  1  0.02735000  0.58005000  0.09325000  1.0 0.6206751603
C  C55  1  0.00100000  0.11100000  0.01534000  1.0 0.129606423
C  C56  1  0.87470000  0.00330000  0.98096000  1.0 -0.2099241036
C  C57  1  0.85560000  0.96300000  0.18160000  1.0 -0.0803475648
C  C58  1  0.88413000  0.02849000  0.17401000  1.0 0.0382654137
C  C59  1  0.93934000  0.03416000  0.15994000  1.0 -0.0084878284
C  C60  1  0.96600000  0.97432000  0.15347000  1.0 -0.2099241036
C  C61  1  0.93747000  0.90883000  0.16106000  1.0 -0.0289155827
C  C62  1  0.88227000  0.90317000  0.17513000  1.0 0.1493912875
C  C63  1  0.96710000  0.05850000  0.00254000  1.0 -0.06073027
C  C64  1  0.54673000  0.59921000  0.04597000  1.0 -0.1678637322
C  C65  1  0.48672000  0.57182000  0.05686000  1.0 -0.1088194748
C  C66  1  0.48304000  0.58262000  0.07809000  1.0 -0.0173874308
C  C67  1  0.53936000  0.62082000  0.08842000  1.0 -0.0995077675
C  C68  1  0.59937000  0.64821000  0.07753000  1.0 -0.1788697789
C  C69  1  0.60305000  0.63741000  0.05630000  1.0 0.0903936835
C  C70  1  0.66010000  0.79890000  0.28421000  1.0 -0.0905979066
C  C71  1  0.70232000  0.15760000  0.95658000  1.0 -0.05029658
C  C72  1  0.76264000  0.20660000  0.95509000  1.0 -0.0803475648
C  C73  1  0.82054000  0.19988000  0.96741000  1.0 -0.1678637322
C  C74  1  0.81812000  0.14416000  0.98122000  1.0 0.0903936835
C  C75  1  0.75779000  0.09517000  0.98271000  1.0 -0.1598261176
C  C76  1  0.69989000  0.10189000  0.97039000  1.0 -0.0905979066
C  C77  1  0.57346000  0.40354000  0.19349000  1.0 0.0903936835
C  C78  1  0.85131000  0.08449000  0.18543000  1.0 -0.2005797368
C  C79  1  0.81999000  0.33619000  0.23354000  1.0 -0.2005797368
C  C80  1  0.81510000  0.79550000  0.16877000  1.0 -0.05029658
C  C81  1  0.59300000  0.81480000  0.29086000  1.0 -0.0289155827
C  C82  1  0.07974000  0.33522000  0.05597000  1.0 -0.06073027
C  C83  1  0.12032000  0.30696000  0.04123000  1.0 -0.0995077675
C  C84  1  0.08891000  0.25677000  0.02737000  1.0 -0.1788697789
C  C85  1  0.01693000  0.23483000  0.02825000  1.0 0.0903936835
C  C86  1  0.97635000  0.26309000  0.04298000  1.0 -0.1678637322
C  C87  1  0.00776000  0.31328000  0.05684000  1.0 -0.0803475648
C  C88  1  0.90870000  0.07090000  0.99231000  1.0 0.0317411381
C  C89  1  0.69028000  0.89038000  0.18621000  1.0 0.1493912875
C  C90  1  0.62656000  0.85134000  0.19176000  1.0 -0.05029658
C  C91  1  0.61160000  0.83648000  0.21248000  1.0 -0.2005797368
C  C92  1  0.66036000  0.86064000  0.22765000  1.0 -0.0020881746
C  C93  1  0.72407000  0.89969000  0.22211000  1.0 0.0505617918
C  C94  1  0.73903000  0.91455000  0.20139000  1.0 -0.0803475648
C  C95  1  0.77080000  0.73340000  0.18030000  1.0 -0.0390384652
C  C96  1  0.78920000  0.04300000  0.19593000  1.0 -0.2282754485
C  C97  1  0.98090000  0.17590000  0.01581000  1.0 -0.0390384652
C  C98  1  0.68647000  0.21353000  0.24550000  1.0 -0.2183225504
C  C99  1  0.55150000  0.84510000  0.27621000  1.0 -0.0905979066
C  C100  1  0.52960000  0.77800000  0.00623000  1.0 -0.0692255091
C  C101  1  0.57540000  0.86320000  0.25681000  1.0 -0.1678637322
C  C102  1  0.88240000  0.13120000  0.99329000  1.0 -0.0084878284
C  C103  1  0.93750000  0.95770000  0.98058000  1.0 -0.2183225504
C  C104  1  0.57510000  0.76010000  0.02414000  1.0 -0.06073027
C  C105  1  0.51927000  0.74173000  0.15083000  1.0 -0.1088194748
C  C106  1  0.45446000  0.76490000  0.15299000  1.0 -0.0020881746
C  C107  1  0.44589000  0.81651000  0.16745000  1.0 -0.0905979066
C  C108  1  0.50214000  0.84494000  0.17975000  1.0 -0.1678637322
C  C109  1  0.56695000  0.82177000  0.17759000  1.0 0.0817681496
C  C110  1  0.57548000  0.77012000  0.16312000  1.0 -0.1788697789
C  C111  1  0.45775000  0.43555000  0.16956000  1.0 -0.0390384652
C  C112  1  0.51380000  0.49160000  0.17585000  1.0 -0.1088194748
C  C113  1  0.57310000  0.47610000  0.18747000  1.0 -0.2183225504
C  C114  1  0.92050000  0.18630000  0.00544000  1.0 -0.2183225504
C  C115  1  0.39450000  0.73550000  0.13799000  1.0 0.5854954976
C  C116  1  0.66940000  0.93340000  0.15067000  1.0 -0.0390384652
C  C117  1  0.72030000  0.93930000  0.13161000  1.0 -0.06073027
C  C118  1  0.50000000  0.68960000  0.98315000  1.0 -0.0803475648
C  C119  1  0.84540000  0.69380000  0.11432000  1.0 -0.0995077675
C  C120  1  0.87230000  0.65350000  0.13260000  1.0 -0.0390384652
C  C121  1  0.78460000  0.78980000  0.10580000  1.0 -0.0084878284
C  C122  1  0.79010000  0.86730000  0.11147000  1.0 -0.0995077675
C  C123  1  0.45650000  0.61910000  0.98272000  1.0 -0.0692255091
C  C124  1  0.44810000  0.49750000  0.99580000  1.0 -0.0692255091
C  C125  1  0.46570000  0.32610000  0.25260000  1.0 -0.1088194748
C  C126  1  0.06360000  0.09240000  0.04595000  1.0 -0.0289155827
C  C127  1  0.53030000  0.36690000  0.24018000  1.0 -0.0390384652
C  C128  1  0.12870000  0.05190000  0.05100000  1.0 -0.06073027
C  C129  1  0.28080000  0.15920000  0.02750000  1.0 -0.0692255091
C  C130  1  0.23050000  0.08930000  0.03020000  1.0 -0.05029658
C  C131  1  0.30870000  0.63090000  0.17987000  1.0 0.5013765651
C  C132  1  0.83790000  0.61970000  0.16518000  1.0 -0.1371258092
C  C133  1  0.79260000  0.61300000  0.18340000  1.0 -0.06073027
C  C134  1  0.27970000  0.27430000  0.01174000  1.0 -0.06073027
C  C135  1  0.39760000  0.38640000  0.27830000  1.0 -0.05029658
C  C136  1  0.41280000  0.47120000  0.28060000  1.0 -0.1161441099
C  C137  1  0.47250000  0.57290000  0.25820000  1.0 -0.06073027
C  C138  1  0.60291000  0.54589000  0.65763000  1.0 0.6206751603
C  C139  1  0.90786000  0.69706000  0.63504000  1.0 0.6431610245
C  C140  1  0.88466000  0.30072000  0.64190000  1.0 0.6278513032
C  C141  1  0.11019000  0.56487000  0.65925000  1.0 -0.0995077675
C  C142  1  0.16989000  0.58791000  0.67085000  1.0 -0.1678637322
C  C143  1  0.17130000  0.57278000  0.69188000  1.0 0.0817681496
C  C144  1  0.11299000  0.53463000  0.70131000  1.0 -0.1788697789
C  C145  1  0.05329000  0.51159000  0.68970000  1.0 -0.0905979066
C  C146  1  0.05189000  0.52671000  0.66867000  1.0 -0.0390384652
C  C147  1  0.13350000  0.26790000  0.51727000  1.0 -0.2282754485
C  C148  1  0.02220000  0.89460000  0.65216000  1.0 0.0903936835
C  C149  1  0.05783000  0.84129000  0.64508000  1.0 -0.1678637322
C  C150  1  0.02056000  0.77718000  0.63909000  1.0 -0.0905979066
C  C151  1  0.94766000  0.76638000  0.64019000  1.0 -0.05029658
C  C152  1  0.91203000  0.81969000  0.64727000  1.0 -0.0803475648
C  C153  1  0.94930000  0.88380000  0.65326000  1.0 -0.1598261176
C  C154  1  0.48440000  0.64680000  0.68797000  1.0 -0.1488000699
C  C155  1  0.43300000  0.19940000  0.81269000  1.0 0.6206751603
C  C156  1  0.58070000  0.44790000  0.59157000  1.0 0.6206751603
C  C157  1  0.99975000  0.16121000  0.63560000  1.0 -0.1788697789
C  C158  1  0.95460000  0.20964000  0.63128000  1.0 -0.0905979066
C  C159  1  0.93386000  0.25148000  0.64701000  1.0 -0.0692255091
C  C160  1  0.95827000  0.24489000  0.66707000  1.0 -0.0905979066
C  C161  1  0.00340000  0.19646000  0.67140000  1.0 -0.1678637322
C  C162  1  0.02415000  0.15461000  0.65566000  1.0 0.10027958
C  C163  1  0.15678000  0.03902000  0.72083000  1.0 -0.2183225504
C  C164  1  0.54021000  0.63419000  0.67623000  1.0 -0.0995077675
C  C165  1  0.02974000  0.39842000  0.58137000  1.0 -0.06073027
C  C166  1  0.09100000  0.44528000  0.57856000  1.0 -0.0803475648
C  C167  1  0.14660000  0.42490000  0.56745000  1.0 -0.1788697789
C  C168  1  0.14092000  0.35764000  0.55916000  1.0 0.0903936835
C  C169  1  0.07964000  0.31078000  0.56198000  1.0 -0.1788697789
C  C170  1  0.02405000  0.33117000  0.57309000  1.0 -0.0803475648
C  C171  1  0.35785000  0.84075000  0.44271000  1.0 0.5628427673
C  C172  1  0.88734000  0.61766000  0.57209000  1.0 0.6431610245
C  C173  1  0.98706000  0.50590000  0.65580000  1.0 0.6206751603
C  C174  1  0.32217000  0.30107000  0.52761000  1.0 0.1493912875
C  C175  1  0.25594000  0.28042000  0.51920000  1.0 -0.0803475648
C  C176  1  0.19669000  0.29759000  0.52919000  1.0 0.0382654137
C  C177  1  0.20368000  0.33540000  0.54759000  1.0 -0.0084878284
C  C178  1  0.26991000  0.35605000  0.55601000  1.0 -0.2183225504
C  C179  1  0.32915000  0.33889000  0.54602000  1.0 -0.0390384652
C  C180  1  0.35960000  0.15140000  0.75033000  1.0 0.0903936835
C  C181  1  0.21710000  0.06550000  0.73539000  1.0 -0.2099241036
C  C182  1  0.19499000  0.03073000  0.69846000  1.0 0.129606423
C  C183  1  0.16050000  0.24850000  0.49670000  1.0 -0.2183225504
C  C184  1  0.30236000  0.58620000  0.69477000  1.0 -0.2099241036
C  C185  1  0.23948000  0.59886000  0.70360000  1.0 -0.0084878284
C  C186  1  0.24004000  0.63770000  0.72176000  1.0 0.0505617918
C  C187  1  0.30350000  0.66388000  0.73110000  1.0 -0.0803475648
C  C188  1  0.36638000  0.65122000  0.72228000  1.0 0.1640876117
C  C189  1  0.36581000  0.61237000  0.70411000  1.0 -0.05029658
C  C190  1  0.31580000  0.18740000  0.76399000  1.0 -0.1788697789
C  C191  1  0.97265000  0.41995000  0.59325000  1.0 0.6206751603
C  C192  1  0.99900000  0.88900000  0.51534000  1.0 0.129606423
C  C193  1  0.12530000  0.99670000  0.48096000  1.0 -0.2099241036
C  C194  1  0.14440000  0.03700000  0.68160000  1.0 -0.0803475648
C  C195  1  0.11587000  0.97151000  0.67401000  1.0 0.0382654137
C  C196  1  0.06066000  0.96584000  0.65994000  1.0 -0.0084878284
C  C197  1  0.03400000  0.02568000  0.65347000  1.0 -0.2005797368
C  C198  1  0.06253000  0.09117000  0.66106000  1.0 -0.0289155827
C  C199  1  0.11773000  0.09683000  0.67513000  1.0 0.1493912875
C  C200  1  0.03290000  0.94150000  0.50254000  1.0 -0.06073027
C  C201  1  0.45327000  0.40079000  0.54597000  1.0 -0.1678637322
C  C202  1  0.51328000  0.42818000  0.55686000  1.0 -0.1088194748
C  C203  1  0.51696000  0.41738000  0.57809000  1.0 -0.0173874308
C  C204  1  0.46064000  0.37918000  0.58842000  1.0 -0.0995077675
C  C205  1  0.40063000  0.35179000  0.57753000  1.0 -0.1788697789
C  C206  1  0.39695000  0.36259000  0.55630000  1.0 0.0903936835
C  C207  1  0.33990000  0.20110000  0.78421000  1.0 -0.0905979066
C  C208  1  0.29768000  0.84240000  0.45658000  1.0 -0.05029658
C  C209  1  0.23736000  0.79340000  0.45509000  1.0 -0.0803475648
C  C210  1  0.17946000  0.80012000  0.46741000  1.0 -0.1678637322
C  C211  1  0.18188000  0.85584000  0.48122000  1.0 0.0903936835
C  C212  1  0.24221000  0.90483000  0.48271000  1.0 -0.1598261176
C  C213  1  0.30011000  0.89811000  0.47039000  1.0 -0.0905979066
C  C214  1  0.42654000  0.59646000  0.69349000  1.0 0.10027958
C  C215  1  0.14869000  0.91551000  0.68543000  1.0 -0.2005797368
C  C216  1  0.18001000  0.66381000  0.73354000  1.0 -0.2099241036
C  C217  1  0.18490000  0.20450000  0.66877000  1.0 -0.05029658
C  C218  1  0.40700000  0.18520000  0.79086000  1.0 -0.0289155827
C  C219  1  0.92026000  0.66478000  0.55597000  1.0 -0.06073027
C  C220  1  0.87968000  0.69304000  0.54123000  1.0 -0.0995077675
C  C221  1  0.91109000  0.74323000  0.52737000  1.0 -0.1788697789
C  C222  1  0.98307000  0.76517000  0.52825000  1.0 0.0903936835
C  C223  1  0.02365000  0.73691000  0.54298000  1.0 -0.1678637322
C  C224  1  0.99224000  0.68672000  0.55684000  1.0 -0.0803475648
C  C225  1  0.09130000  0.92910000  0.49231000  1.0 0.0317411381
C  C226  1  0.30972000  0.10962000  0.68621000  1.0 0.1493912875
C  C227  1  0.37344000  0.14866000  0.69176000  1.0 -0.05029658
C  C228  1  0.38840000  0.16352000  0.71248000  1.0 -0.2005797368
C  C229  1  0.33964000  0.13936000  0.72765000  1.0 -0.0084878284
C  C230  1  0.27593000  0.10031000  0.72211000  1.0 0.0505617918
C  C231  1  0.26097000  0.08545000  0.70139000  1.0 -0.0803475648
C  C232  1  0.22920000  0.26660000  0.68030000  1.0 -0.0390384652
C  C233  1  0.21080000  0.95700000  0.69593000  1.0 -0.2282754485
C  C234  1  0.01910000  0.82410000  0.51581000  1.0 -0.0390384652
C  C235  1  0.31353000  0.78647000  0.74550000  1.0 -0.2183225504
C  C236  1  0.44850000  0.15490000  0.77621000  1.0 -0.0905979066
C  C237  1  0.47040000  0.22200000  0.50623000  1.0 -0.0692255091
C  C238  1  0.42460000  0.13680000  0.75681000  1.0 -0.1678637322
C  C239  1  0.11760000  0.86880000  0.49329000  1.0 -0.0084878284
C  C240  1  0.06250000  0.04230000  0.48058000  1.0 -0.2183225504
C  C241  1  0.42490000  0.23990000  0.52414000  1.0 -0.06073027
C  C242  1  0.48073000  0.25827000  0.65083000  1.0 -0.1088194748
C  C243  1  0.54554000  0.23510000  0.65299000  1.0 -0.0020881746
C  C244  1  0.55411000  0.18349000  0.66745000  1.0 -0.0905979066
C  C245  1  0.49786000  0.15506000  0.67975000  1.0 -0.1678637322
C  C246  1  0.43305000  0.17823000  0.67759000  1.0 0.0817681496
C  C247  1  0.42452000  0.22988000  0.66312000  1.0 -0.1788697789
C  C248  1  0.54225000  0.56445000  0.66956000  1.0 -0.0390384652
C  C249  1  0.48620000  0.50840000  0.67585000  1.0 -0.1088194748
C  C250  1  0.42690000  0.52390000  0.68747000  1.0 -0.2183225504
C  C251  1  0.07950000  0.81370000  0.50544000  1.0 -0.2183225504
C  C252  1  0.60550000  0.26450000  0.63799000  1.0 0.5854954976
C  C253  1  0.33060000  0.06660000  0.65067000  1.0 -0.0390384652
C  C254  1  0.27970000  0.06070000  0.63161000  1.0 -0.06073027
C  C255  1  0.50000000  0.31040000  0.48315000  1.0 -0.0803475648
C  C256  1  0.15460000  0.30620000  0.61432000  1.0 -0.0995077675
C  C257  1  0.12770000  0.34650000  0.63260000  1.0 -0.0390384652
C  C258  1  0.21540000  0.21020000  0.60580000  1.0 -0.0084878284
C  C259  1  0.20990000  0.13270000  0.61147000  1.0 -0.0995077675
C  C260  1  0.54350000  0.38090000  0.48272000  1.0 -0.0692255091
C  C261  1  0.55190000  0.50250000  0.49580000  1.0 -0.0692255091
C  C262  1  0.53430000  0.67390000  0.75260000  1.0 -0.1088194748
C  C263  1  0.93640000  0.90760000  0.54595000  1.0 -0.0289155827
C  C264  1  0.46970000  0.63310000  0.74018000  1.0 -0.0390384652
C  C265  1  0.87130000  0.94810000  0.55100000  1.0 -0.06073027
C  C266  1  0.71920000  0.84080000  0.52750000  1.0 -0.0692255091
C  C267  1  0.76950000  0.91070000  0.53020000  1.0 -0.05029658
C  C268  1  0.69130000  0.36910000  0.67987000  1.0 0.5013765651
C  C269  1  0.16210000  0.38030000  0.66518000  1.0 -0.1371258092
C  C270  1  0.20740000  0.38700000  0.68340000  1.0 -0.06073027
C  C271  1  0.72030000  0.72570000  0.51174000  1.0 -0.06073027
C  C272  1  0.60240000  0.61360000  0.77830000  1.0 -0.05029658
C  C273  1  0.58720000  0.52880000  0.78060000  1.0 -0.1088194748
C  C274  1  0.52750000  0.42710000  0.75820000  1.0 -0.06073027
C  C275  1  0.54589000  0.60291000  0.34237000  1.0 0.6206751603
C  C276  1  0.69706000  0.90786000  0.36496000  1.0 0.6431610245
C  C277  1  0.30072000  0.88466000  0.35810000  1.0 0.6278513032
C  C278  1  0.56487000  0.11019000  0.34075000  1.0 -0.0995077675
C  C279  1  0.58791000  0.16989000  0.32915000  1.0 -0.1678637322
C  C280  1  0.57278000  0.17130000  0.30812000  1.0 0.0817681496
C  C281  1  0.53463000  0.11299000  0.29869000  1.0 -0.1788697789
C  C282  1  0.51159000  0.05329000  0.31030000  1.0 -0.0905979066
C  C283  1  0.52671000  0.05189000  0.33133000  1.0 -0.0390384652
C  C284  1  0.26790000  0.13350000  0.48273000  1.0 -0.2282754485
C  C285  1  0.89460000  0.02220000  0.34784000  1.0 0.0903936835
C  C286  1  0.84129000  0.05783000  0.35492000  1.0 -0.1678637322
C  C287  1  0.77718000  0.02056000  0.36091000  1.0 -0.0905979066
C  C288  1  0.76638000  0.94766000  0.35981000  1.0 -0.05029658
C  C289  1  0.81969000  0.91203000  0.35273000  1.0 -0.0803475648
C  C290  1  0.88380000  0.94930000  0.34674000  1.0 -0.1598261176
C  C291  1  0.64680000  0.48440000  0.31203000  1.0 -0.1488000699
C  C292  1  0.19940000  0.43300000  0.18731000  1.0 0.6206751603
C  C293  1  0.44790000  0.58070000  0.40843000  1.0 0.6206751603
C  C294  1  0.16121000  0.99975000  0.36440000  1.0 -0.1788697789
C  C295  1  0.20964000  0.95460000  0.36872000  1.0 -0.0905979066
C  C296  1  0.25148000  0.93386000  0.35299000  1.0 -0.0692255091
C  C297  1  0.24489000  0.95827000  0.33293000  1.0 -0.0905979066
C  C298  1  0.19646000  0.00340000  0.32860000  1.0 -0.1678637322
C  C299  1  0.15461000  0.02415000  0.34434000  1.0 0.10027958
C  C300  1  0.03902000  0.15678000  0.27917000  1.0 -0.2183225504
C  C301  1  0.63419000  0.54021000  0.32377000  1.0 -0.0995077675
C  C302  1  0.39842000  0.02974000  0.41863000  1.0 -0.0692255091
C  C303  1  0.44528000  0.09100000  0.42144000  1.0 -0.0803475648
C  C304  1  0.42490000  0.14660000  0.43255000  1.0 -0.1788697789
C  C305  1  0.35764000  0.14092000  0.44084000  1.0 0.0903936835
C  C306  1  0.31078000  0.07964000  0.43802000  1.0 -0.1788697789
C  C307  1  0.33117000  0.02405000  0.42691000  1.0 -0.0803475648
C  C308  1  0.84075000  0.35785000  0.55729000  1.0 0.5628427673
C  C309  1  0.61766000  0.88734000  0.42791000  1.0 0.6431610245
C  C310  1  0.50590000  0.98706000  0.34420000  1.0 0.6206751603
C  C311  1  0.30107000  0.32217000  0.47239000  1.0 0.1493912875
C  C312  1  0.28042000  0.25594000  0.48080000  1.0 -0.0803475648
C  C313  1  0.29759000  0.19669000  0.47081000  1.0 0.0382654137
C  C314  1  0.33540000  0.20368000  0.45241000  1.0 -0.0084878284
C  C315  1  0.35605000  0.26991000  0.44399000  1.0 -0.2183225504
C  C316  1  0.33889000  0.32915000  0.45398000  1.0 -0.0390384652
C  C317  1  0.15140000  0.35960000  0.24967000  1.0 0.0903936835
C  C318  1  0.06550000  0.21710000  0.26461000  1.0 -0.2099241036
C  C319  1  0.03073000  0.19499000  0.30154000  1.0 0.129606423
C  C320  1  0.24850000  0.16050000  0.50330000  1.0 -0.2183225504
C  C321  1  0.58620000  0.30236000  0.30523000  1.0 -0.2099241036
C  C322  1  0.59886000  0.23948000  0.29640000  1.0 -0.0084878284
C  C323  1  0.63770000  0.24004000  0.27824000  1.0 0.0505617918
C  C324  1  0.66388000  0.30350000  0.26890000  1.0 -0.0803475648
C  C325  1  0.65122000  0.36638000  0.27772000  1.0 0.1640876117
C  C326  1  0.61237000  0.36581000  0.29589000  1.0 -0.05029658
C  C327  1  0.18740000  0.31580000  0.23601000  1.0 -0.1788697789
C  C328  1  0.41995000  0.97265000  0.40675000  1.0 0.6206751603
C  C329  1  0.88900000  0.99900000  0.48466000  1.0 0.129606423
C  C330  1  0.99670000  0.12530000  0.51904000  1.0 -0.2099241036
C  C331  1  0.03700000  0.14440000  0.31840000  1.0 -0.0803475648
C  C332  1  0.97151000  0.11587000  0.32599000  1.0 0.0382654137
C  C333  1  0.96584000  0.06066000  0.34006000  1.0 -0.0084878284
C  C334  1  0.02568000  0.03400000  0.34653000  1.0 -0.2099241036
C  C335  1  0.09117000  0.06253000  0.33894000  1.0 -0.0289155827
C  C336  1  0.09683000  0.11773000  0.32487000  1.0 0.1493912875
C  C337  1  0.94150000  0.03290000  0.49746000  1.0 -0.06073027
C  C338  1  0.40079000  0.45327000  0.45403000  1.0 -0.1678637322
C  C339  1  0.42818000  0.51328000  0.44314000  1.0 -0.1088194748
C  C340  1  0.41738000  0.51696000  0.42191000  1.0 -0.0173874308
C  C341  1  0.37918000  0.46064000  0.41158000  1.0 -0.0995077675
C  C342  1  0.35179000  0.40063000  0.42247000  1.0 -0.1788697789
C  C343  1  0.36259000  0.39695000  0.44370000  1.0 0.0903936835
C  C344  1  0.20110000  0.33990000  0.21579000  1.0 -0.0905979066
C  C345  1  0.84240000  0.29768000  0.54342000  1.0 -0.05029658
C  C346  1  0.79340000  0.23736000  0.54491000  1.0 -0.0803475648
C  C347  1  0.80012000  0.17946000  0.53259000  1.0 -0.1678637322
C  C348  1  0.85584000  0.18188000  0.51878000  1.0 0.0903936835
C  C349  1  0.90483000  0.24221000  0.51729000  1.0 -0.1598261176
C  C350  1  0.89811000  0.30011000  0.52961000  1.0 -0.0905979066
C  C351  1  0.59646000  0.42654000  0.30651000  1.0 0.10027958
C  C352  1  0.91551000  0.14869000  0.31457000  1.0 -0.2005797368
C  C353  1  0.66381000  0.18001000  0.26646000  1.0 -0.2005797368
C  C354  1  0.20450000  0.18490000  0.33123000  1.0 -0.05029658
C  C355  1  0.18520000  0.40700000  0.20914000  1.0 -0.0289155827
C  C356  1  0.66478000  0.92026000  0.44403000  1.0 -0.06073027
C  C357  1  0.69304000  0.87968000  0.45877000  1.0 -0.0995077675
C  C358  1  0.74323000  0.91109000  0.47263000  1.0 -0.1788697789
C  C359  1  0.76517000  0.98307000  0.47175000  1.0 0.0903936835
C  C360  1  0.73691000  0.02365000  0.45702000  1.0 -0.1678637322
C  C361  1  0.68672000  0.99224000  0.44316000  1.0 -0.0803475648
C  C362  1  0.92910000  0.09130000  0.50769000  1.0 0.0317411381
C  C363  1  0.10962000  0.30972000  0.31379000  1.0 0.1493912875
C  C364  1  0.14866000  0.37344000  0.30824000  1.0 -0.05029658
C  C365  1  0.16352000  0.38840000  0.28752000  1.0 -0.2005797368
C  C366  1  0.13936000  0.33964000  0.27235000  1.0 -0.0084878284
C  C367  1  0.10031000  0.27593000  0.27789000  1.0 0.0505617918
C  C368  1  0.08545000  0.26097000  0.29861000  1.0 -0.0803475648
C  C369  1  0.26660000  0.22920000  0.31970000  1.0 -0.0390384652
C  C370  1  0.95700000  0.21080000  0.30407000  1.0 -0.2282754485
C  C371  1  0.82410000  0.01910000  0.48419000  1.0 -0.0390384652
C  C372  1  0.78647000  0.31353000  0.25450000  1.0 -0.2099241036
C  C373  1  0.15490000  0.44850000  0.22379000  1.0 -0.0905979066
C  C374  1  0.22200000  0.47040000  0.49377000  1.0 -0.0692255091
C  C375  1  0.13680000  0.42460000  0.24319000  1.0 -0.1678637322
C  C376  1  0.86880000  0.11760000  0.50671000  1.0 -0.0084878284
C  C377  1  0.04230000  0.06250000  0.51942000  1.0 -0.2183225504
C  C378  1  0.23990000  0.42490000  0.47586000  1.0 -0.06073027
C  C379  1  0.25827000  0.48073000  0.34917000  1.0 -0.1088194748
C  C380  1  0.23510000  0.54554000  0.34701000  1.0 -0.0020881746
C  C381  1  0.18349000  0.55411000  0.33255000  1.0 -0.0905979066
C  C382  1  0.15506000  0.49786000  0.32025000  1.0 -0.1678637322
C  C383  1  0.17823000  0.43305000  0.32241000  1.0 0.0817681496
C  C384  1  0.22988000  0.42452000  0.33688000  1.0 -0.1788697789
C  C385  1  0.56445000  0.54225000  0.33044000  1.0 -0.0390384652
C  C386  1  0.50840000  0.48620000  0.32415000  1.0 -0.1088194748
C  C387  1  0.52390000  0.42690000  0.31253000  1.0 -0.2183225504
C  C388  1  0.81370000  0.07950000  0.49456000  1.0 -0.2183225504
C  C389  1  0.26450000  0.60550000  0.36201000  1.0 0.5854954976
C  C390  1  0.06660000  0.33060000  0.34933000  1.0 -0.0390384652
C  C391  1  0.06070000  0.27970000  0.36839000  1.0 -0.06073027
C  C392  1  0.31040000  0.50000000  0.51685000  1.0 -0.0803475648
C  C393  1  0.30620000  0.15460000  0.38568000  1.0 -0.0995077675
C  C394  1  0.34650000  0.12770000  0.36740000  1.0 -0.0390384652
C  C395  1  0.21020000  0.21540000  0.39420000  1.0 -0.0084878284
C  C396  1  0.13270000  0.20990000  0.38853000  1.0 -0.0995077675
C  C397  1  0.38090000  0.54350000  0.51728000  1.0 -0.0692255091
C  C398  1  0.50250000  0.55190000  0.50420000  1.0 -0.0692255091
C  C399  1  0.67390000  0.53430000  0.24740000  1.0 -0.1088194748
C  C400  1  0.90760000  0.93640000  0.45405000  1.0 -0.0173874308
C  C401  1  0.63310000  0.46970000  0.25982000  1.0 -0.0390384652
C  C402  1  0.94810000  0.87130000  0.44900000  1.0 -0.06073027
C  C403  1  0.84080000  0.71920000  0.47250000  1.0 -0.0692255091
C  C404  1  0.91070000  0.76950000  0.46980000  1.0 -0.05029658
C  C405  1  0.36910000  0.69130000  0.32013000  1.0 0.5013765651
C  C406  1  0.38030000  0.16210000  0.33482000  1.0 -0.1371258092
C  C407  1  0.38700000  0.20740000  0.31660000  1.0 -0.06073027
C  C408  1  0.72570000  0.72030000  0.48826000  1.0 -0.06073027
C  C409  1  0.61360000  0.60240000  0.22170000  1.0 -0.05029658
C  C410  1  0.52880000  0.58720000  0.21940000  1.0 -0.1088194748
C  C411  1  0.42710000  0.52750000  0.24180000  1.0 -0.06073027
C  C412  1  0.45411000  0.39709000  0.84237000  1.0 0.6206751603
C  C413  1  0.30294000  0.09214000  0.86496000  1.0 0.6431610245
C  C414  1  0.69928000  0.11534000  0.85810000  1.0 0.6278513032
C  C415  1  0.43513000  0.88981000  0.84075000  1.0 -0.0995077675
C  C416  1  0.41209000  0.83011000  0.82915000  1.0 -0.1678637322
C  C417  1  0.42722000  0.82870000  0.80812000  1.0 0.0817681496
C  C418  1  0.46537000  0.88701000  0.79869000  1.0 -0.1788697789
C  C419  1  0.48841000  0.94671000  0.81030000  1.0 -0.0905979066
C  C420  1  0.47329000  0.94811000  0.83133000  1.0 -0.0390384652
C  C421  1  0.73210000  0.86650000  0.98273000  1.0 -0.2282754485
C  C422  1  0.10540000  0.97780000  0.84784000  1.0 0.0903936835
C  C423  1  0.15871000  0.94217000  0.85492000  1.0 -0.1678637322
C  C424  1  0.22282000  0.97944000  0.86091000  1.0 -0.0905979066
C  C425  1  0.23362000  0.05234000  0.85981000  1.0 -0.05029658
C  C426  1  0.18031000  0.08797000  0.85273000  1.0 -0.0803475648
C  C427  1  0.11620000  0.05070000  0.84674000  1.0 -0.1598261176
C  C428  1  0.35320000  0.51560000  0.81203000  1.0 -0.1488000699
C  C429  1  0.80060000  0.56700000  0.68731000  1.0 0.6206751603
C  C430  1  0.55210000  0.41930000  0.90843000  1.0 0.6206751603
C  C431  1  0.83879000  0.00025000  0.86440000  1.0 -0.1788697789
C  C432  1  0.79036000  0.04540000  0.86872000  1.0 -0.0905979066
C  C433  1  0.74852000  0.06614000  0.85299000  1.0 -0.0692255091
C  C434  1  0.75511000  0.04173000  0.83293000  1.0 -0.0905979066
C  C435  1  0.80354000  0.99660000  0.82860000  1.0 -0.1678637322
C  C436  1  0.84539000  0.97585000  0.84434000  1.0 0.10027958
C  C437  1  0.96098000  0.84322000  0.77917000  1.0 -0.2183225504
C  C438  1  0.36581000  0.45979000  0.82377000  1.0 -0.0995077675
C  C439  1  0.60158000  0.97026000  0.91863000  1.0 -0.06073027
C  C440  1  0.55472000  0.90900000  0.92144000  1.0 -0.0803475648
C  C441  1  0.57510000  0.85340000  0.93255000  1.0 -0.1788697789
C  C442  1  0.64236000  0.85908000  0.94084000  1.0 0.0903936835
C  C443  1  0.68922000  0.92036000  0.93802000  1.0 -0.1788697789
C  C444  1  0.66883000  0.97595000  0.92691000  1.0 -0.0803475648
C  C445  1  0.15925000  0.64215000  0.05729000  1.0 0.5628427673
C  C446  1  0.38234000  0.11266000  0.92791000  1.0 0.6431610245
C  C447  1  0.49410000  0.01294000  0.84420000  1.0 0.6206751603
C  C448  1  0.69893000  0.67783000  0.97239000  1.0 0.1493912875
C  C449  1  0.71958000  0.74406000  0.98080000  1.0 -0.0803475648
C  C450  1  0.70241000  0.80331000  0.97081000  1.0 0.0382654137
C  C451  1  0.66460000  0.79632000  0.95241000  1.0 -0.0084878284
C  C452  1  0.64395000  0.73009000  0.94399000  1.0 -0.2183225504
C  C453  1  0.66111000  0.67085000  0.95398000  1.0 -0.0390384652
C  C454  1  0.84860000  0.64040000  0.74967000  1.0 0.0903936835
C  C455  1  0.93450000  0.78290000  0.76461000  1.0 -0.2099241036
C  C456  1  0.96927000  0.80501000  0.80154000  1.0 0.129606423
C  C457  1  0.75150000  0.83950000  0.00330000  1.0 -0.2183225504
C  C458  1  0.41380000  0.69764000  0.80523000  1.0 -0.2099241036
C  C459  1  0.40114000  0.76052000  0.79640000  1.0 -0.0084878284
C  C460  1  0.36230000  0.75996000  0.77824000  1.0 0.0505617918
C  C461  1  0.33612000  0.69650000  0.76890000  1.0 -0.0803475648
C  C462  1  0.34878000  0.63362000  0.77772000  1.0 0.1640876117
C  C463  1  0.38763000  0.63419000  0.79589000  1.0 -0.05029658
C  C464  1  0.81260000  0.68420000  0.73601000  1.0 -0.1788697789
C  C465  1  0.58005000  0.02735000  0.90675000  1.0 0.6206751603
C  C466  1  0.11100000  0.00100000  0.98466000  1.0 0.129606423
C  C467  1  0.00330000  0.87470000  0.01904000  1.0 -0.2099241036
C  C468  1  0.96300000  0.85560000  0.81840000  1.0 -0.0803475648
C  C469  1  0.02849000  0.88413000  0.82599000  1.0 0.0382654137
C  C470  1  0.03416000  0.93934000  0.84006000  1.0 -0.0084878284
C  C471  1  0.97432000  0.96600000  0.84653000  1.0 -0.2005797368
C  C472  1  0.90883000  0.93747000  0.83894000  1.0 -0.0289155827
C  C473  1  0.90317000  0.88227000  0.82487000  1.0 0.1493912875
C  C474  1  0.05850000  0.96710000  0.99746000  1.0 -0.06073027
C  C475  1  0.59921000  0.54673000  0.95403000  1.0 -0.1678637322
C  C476  1  0.57182000  0.48672000  0.94314000  1.0 -0.1088194748
C  C477  1  0.58262000  0.48304000  0.92191000  1.0 -0.0173874308
C  C478  1  0.62082000  0.53936000  0.91158000  1.0 -0.0995077675
C  C479  1  0.64821000  0.59937000  0.92247000  1.0 -0.1788697789
C  C480  1  0.63741000  0.60305000  0.94370000  1.0 0.0903936835
C  C481  1  0.79890000  0.66010000  0.71579000  1.0 -0.0905979066
C  C482  1  0.15760000  0.70232000  0.04342000  1.0 -0.05029658
C  C483  1  0.20660000  0.76264000  0.04491000  1.0 -0.0803475648
C  C484  1  0.19988000  0.82054000  0.03259000  1.0 -0.1678637322
C  C485  1  0.14416000  0.81812000  0.01878000  1.0 0.0903936835
C  C486  1  0.09517000  0.75779000  0.01729000  1.0 -0.1678637322
C  C487  1  0.10189000  0.69989000  0.02961000  1.0 -0.0905979066
C  C488  1  0.40354000  0.57346000  0.80651000  1.0 0.0903936835
C  C489  1  0.08449000  0.85131000  0.81457000  1.0 -0.2005797368
C  C490  1  0.33619000  0.81999000  0.76646000  1.0 -0.2099241036
C  C491  1  0.79550000  0.81510000  0.83123000  1.0 -0.05029658
C  C492  1  0.81480000  0.59300000  0.70914000  1.0 -0.0289155827
C  C493  1  0.33522000  0.07974000  0.94403000  1.0 -0.06073027
C  C494  1  0.30696000  0.12032000  0.95877000  1.0 -0.0995077675
C  C495  1  0.25677000  0.08891000  0.97263000  1.0 -0.1788697789
C  C496  1  0.23483000  0.01693000  0.97175000  1.0 0.0903936835
C  C497  1  0.26309000  0.97635000  0.95702000  1.0 -0.1678637322
C  C498  1  0.31328000  0.00776000  0.94316000  1.0 -0.0803475648
C  C499  1  0.07090000  0.90870000  0.00769000  1.0 0.0317411381
C  C500  1  0.89038000  0.69028000  0.81379000  1.0 0.1493912875
C  C501  1  0.85134000  0.62656000  0.80824000  1.0 -0.05029658
C  C502  1  0.83648000  0.61160000  0.78752000  1.0 -0.2005797368
C  C503  1  0.86064000  0.66036000  0.77235000  1.0 -0.0084878284
C  C504  1  0.89969000  0.72407000  0.77789000  1.0 0.0505617918
C  C505  1  0.91455000  0.73903000  0.79861000  1.0 -0.0803475648
C  C506  1  0.73340000  0.77080000  0.81970000  1.0 -0.0390384652
C  C507  1  0.04300000  0.78920000  0.80407000  1.0 -0.2282754485
C  C508  1  0.17590000  0.98090000  0.98419000  1.0 -0.0390384652
C  C509  1  0.21353000  0.68647000  0.75450000  1.0 -0.2099241036
C  C510  1  0.84510000  0.55150000  0.72379000  1.0 -0.0905979066
C  C511  1  0.77800000  0.52960000  0.99377000  1.0 -0.0692255091
C  C512  1  0.86320000  0.57540000  0.74319000  1.0 -0.1678637322
C  C513  1  0.13120000  0.88240000  0.00671000  1.0 -0.0084878284
C  C514  1  0.95770000  0.93750000  0.01942000  1.0 -0.2183225504
C  C515  1  0.76010000  0.57510000  0.97586000  1.0 -0.06073027
C  C516  1  0.74173000  0.51927000  0.84917000  1.0 -0.1088194748
C  C517  1  0.76490000  0.45446000  0.84701000  1.0 -0.0020881746
C  C518  1  0.81651000  0.44589000  0.83255000  1.0 -0.0905979066
C  C519  1  0.84494000  0.50214000  0.82025000  1.0 -0.1678637322
C  C520  1  0.82177000  0.56695000  0.82241000  1.0 0.0817681496
C  C521  1  0.77012000  0.57548000  0.83688000  1.0 -0.1788697789
C  C522  1  0.43555000  0.45775000  0.83044000  1.0 -0.0390384652
C  C523  1  0.49160000  0.51380000  0.82415000  1.0 -0.1088194748
C  C524  1  0.47610000  0.57310000  0.81253000  1.0 -0.2183225504
C  C525  1  0.18630000  0.92050000  0.99456000  1.0 -0.2183225504
C  C526  1  0.73550000  0.39450000  0.86201000  1.0 0.5854954976
C  C527  1  0.93340000  0.66940000  0.84933000  1.0 -0.05029658
C  C528  1  0.93930000  0.72030000  0.86839000  1.0 -0.06073027
C  C529  1  0.68960000  0.50000000  0.01685000  1.0 -0.0803475648
C  C530  1  0.69380000  0.84540000  0.88568000  1.0 -0.0995077675
C  C531  1  0.65350000  0.87230000  0.86740000  1.0 -0.0390384652
C  C532  1  0.78980000  0.78460000  0.89420000  1.0 -0.0084878284
C  C533  1  0.86730000  0.79010000  0.88853000  1.0 -0.0995077675
C  C534  1  0.61910000  0.45650000  0.01728000  1.0 -0.0692255091
C  C535  1  0.49750000  0.44810000  0.00420000  1.0 -0.0692255091
C  C536  1  0.32610000  0.46570000  0.74740000  1.0 -0.1088194748
C  C537  1  0.09240000  0.06360000  0.95405000  1.0 -0.0289155827
C  C538  1  0.36690000  0.53030000  0.75982000  1.0 -0.0390384652
C  C539  1  0.05190000  0.12870000  0.94900000  1.0 -0.06073027
C  C540  1  0.15920000  0.28080000  0.97250000  1.0 -0.0692255091
C  C541  1  0.08930000  0.23050000  0.96980000  1.0 -0.05029658
C  C542  1  0.63090000  0.30870000  0.82013000  1.0 0.5013765651
C  C543  1  0.61970000  0.83790000  0.83482000  1.0 -0.1371258092
C  C544  1  0.61300000  0.79260000  0.81660000  1.0 -0.06073027
C  C545  1  0.27430000  0.27970000  0.98826000  1.0 -0.06073027
C  C546  1  0.38640000  0.39760000  0.72170000  1.0 -0.05029658
C  C547  1  0.47120000  0.41280000  0.71940000  1.0 -0.1161441099
C  C548  1  0.57290000  0.47250000  0.74180000  1.0 -0.06073027
C  C549  1  0.76070000  0.76070000  0.00000000  1.0 0.1493912875
C  C550  1  0.23930000  0.23930000  0.50000000  1.0 0.1493912875
C  C551  1  0.70720000  0.29280000  0.25000000  1.0 0.1423786539
C  C552  1  0.29280000  0.70720000  0.75000000  1.0 0.1423786539
C  C553  1  0.98330000  0.98330000  0.00000000  1.0 0.1493912875
C  C554  1  0.01670000  0.01670000  0.50000000  1.0 0.1493912875
O  O1  1  0.16195000  0.52255000  0.08986000  1.0 -1.1196437917
O  O2  1  0.19310000  0.42298000  0.11262000  1.0 -1.1513109447
O  O3  1  0.25125000  0.63411000  0.13692000  1.0 -1.0615465683
O  O4  1  0.02220000  0.51772000  0.09899000  1.0 -0.5593807738
O  O5  1  0.14035000  0.44539000  0.14725000  1.0 -1.0874156794
O  O6  1  0.06324000  0.53258000  0.16451000  1.0 -0.5692576162
O  O7  1  0.40633000  0.51401000  0.14883000  1.0 -0.5692576162
O  O8  1  0.13716000  0.55526000  0.12680000  1.0 -1.1021875184
O  O9  1  0.34399000  0.40961000  0.15652000  1.0 -0.5817371171
O  O10  1  0.08012000  0.62520000  0.09536000  1.0 -0.5692576162
O  O11  1  0.50647000  0.81745000  0.31537000  1.0 -0.5817371171
O  O12  1  0.60942000  0.77912000  0.32454000  1.0 -0.5593807738
O  O13  1  0.05935000  0.34619000  0.12479000  1.0 -0.5995385092
O  O14  1  0.37204000  0.51160000  0.08145000  1.0 -0.6296972972
O  O15  1  0.27894000  0.57264000  0.10428000  1.0 -1.1513109447
O  O16  1  0.58550000  0.12504000  0.94545000  1.0 -0.4302178067
O  O17  1  0.23697000  0.62203000  0.17925000  1.0 -0.5918613799
O  O18  1  0.65528000  0.20122000  0.92604000  1.0 -0.6832312387
O  O19  1  0.01344000  0.47210000  0.13792000  1.0 -0.5513281864
O  O20  1  0.32132000  0.46016000  0.11750000  1.0 -1.162887637
O  O21  1  0.42066000  0.56580000  0.10964000  1.0 -0.5316529465
O  O22  1  0.14543000  0.70241000  0.12466000  1.0 -0.5817371171
O  O23  1  0.18082000  0.40318000  0.07053000  1.0 -0.6545084458
O  O24  1  0.07575000  0.40051000  0.08654000  1.0 -0.5593807738
O  O25  1  0.12860000  0.65728000  0.15689000  1.0 -0.5995385092
O  O26  1  0.57376000  0.31716000  0.23162000  1.0 -0.2005797368
O  O27  1  0.06461000  0.09615000  0.02483000  1.0 -0.2567504984
O  O28  1  0.85297000  0.83869000  0.18379000  1.0 -0.2183225504
O  O29  1  0.71160000  0.90692000  0.16615000  1.0 -0.2422362757
O  O30  1  0.61967000  0.71459000  0.01612000  1.0 -0.2765460205
O  O31  1  0.48200000  0.72080000  0.00157000  1.0 -0.0803475648
O  O32  1  0.15784000  0.31410000  0.14046000  1.0 -0.6296972972
O  O33  1  0.39298000  0.67562000  0.12854000  1.0 -0.6296972972
O  O34  1  0.33830000  0.76350000  0.13976000  1.0 -0.4798218351
O  O35  1  0.72300000  0.87020000  0.12378000  1.0 -0.2005797368
O  O36  1  0.80850000  0.68610000  0.18988000  1.0 -0.1598261176
O  O37  1  0.81760000  0.75800000  0.12036000  1.0 -0.1678637322
O  O38  1  0.81680000  0.65260000  0.14593000  1.0 -0.1788697789
O  O39  1  0.26144000  0.51184000  0.14848000  1.0 -1.1347624701
O  O40  1  0.46980000  0.57200000  0.99804000  1.0 -0.1912033289
O  O41  1  0.25340000  0.20840000  0.01610000  1.0 -0.1488000699
O  O42  1  0.35711000  0.62389000  0.16461000  1.0 -0.5817371171
O  O43  1  0.18370000  0.10990000  0.04485000  1.0 -0.1912033289
O  O44  1  0.39240000  0.34720000  0.25950000  1.0 -0.1912033289
O  O45  1  0.43200000  0.54840000  0.27600000  1.0 -0.1678637322
O  O46  1  0.83805000  0.47745000  0.58986000  1.0 -1.1196437917
O  O47  1  0.80690000  0.57702000  0.61262000  1.0 -1.1513109447
O  O48  1  0.74875000  0.36589000  0.63692000  1.0 -1.0615465683
O  O49  1  0.97780000  0.48228000  0.59899000  1.0 -0.5593807738
O  O50  1  0.85965000  0.55461000  0.64725000  1.0 -1.0874156794
O  O51  1  0.93676000  0.46742000  0.66451000  1.0 -0.5692576162
O  O52  1  0.59367000  0.48599000  0.64883000  1.0 -0.5692576162
O  O53  1  0.86284000  0.44474000  0.62680000  1.0 -1.1021875184
O  O54  1  0.65601000  0.59039000  0.65652000  1.0 -0.5817371171
O  O55  1  0.91988000  0.37480000  0.59536000  1.0 -0.5692576162
O  O56  1  0.49353000  0.18255000  0.81537000  1.0 -0.5817371171
O  O57  1  0.39058000  0.22088000  0.82454000  1.0 -0.5513281864
O  O58  1  0.94065000  0.65381000  0.62479000  1.0 -0.5995385092
O  O59  1  0.62796000  0.48840000  0.58145000  1.0 -0.6296972972
O  O60  1  0.72106000  0.42736000  0.60428000  1.0 -1.1406614524
O  O61  1  0.41450000  0.87496000  0.44545000  1.0 -0.4302178067
O  O62  1  0.76303000  0.37797000  0.67925000  1.0 -0.5918613799
O  O63  1  0.34472000  0.79878000  0.42604000  1.0 -0.6832312387
O  O64  1  0.98656000  0.52790000  0.63792000  1.0 -0.5513281864
O  O65  1  0.67868000  0.53984000  0.61750000  1.0 -1.162887637
O  O66  1  0.57934000  0.43420000  0.60964000  1.0 -0.5316529465
O  O67  1  0.85457000  0.29759000  0.62466000  1.0 -0.5817371171
O  O68  1  0.81918000  0.59682000  0.57053000  1.0 -0.6545084458
O  O69  1  0.92425000  0.59949000  0.58654000  1.0 -0.5593807738
O  O70  1  0.87140000  0.34272000  0.65689000  1.0 -0.5918613799
O  O71  1  0.42624000  0.68284000  0.73162000  1.0 -0.2005797368
O  O72  1  0.93539000  0.90385000  0.52483000  1.0 -0.2567504984
O  O73  1  0.14703000  0.16131000  0.68379000  1.0 -0.2183225504
O  O74  1  0.28840000  0.09308000  0.66615000  1.0 -0.2422362757
O  O75  1  0.38033000  0.28541000  0.51612000  1.0 -0.2765460205
O  O76  1  0.51800000  0.27920000  0.50157000  1.0 -0.0803475648
O  O77  1  0.84216000  0.68590000  0.64046000  1.0 -0.6296972972
O  O78  1  0.60702000  0.32438000  0.62854000  1.0 -0.6296972972
O  O79  1  0.66170000  0.23650000  0.63976000  1.0 -0.4798218351
O  O80  1  0.27700000  0.12980000  0.62378000  1.0 -0.2005797368
O  O81  1  0.19150000  0.31390000  0.68988000  1.0 -0.1598261176
O  O82  1  0.18240000  0.24200000  0.62036000  1.0 -0.1678637322
O  O83  1  0.18320000  0.34740000  0.64593000  1.0 -0.1788697789
O  O84  1  0.73856000  0.48816000  0.64848000  1.0 -1.1406614524
O  O85  1  0.53020000  0.42800000  0.49804000  1.0 -0.1912033289
O  O86  1  0.74660000  0.79160000  0.51610000  1.0 -0.1488000699
O  O87  1  0.64289000  0.37611000  0.66461000  1.0 -0.5817371171
O  O88  1  0.81630000  0.89010000  0.54485000  1.0 -0.1912033289
O  O89  1  0.60760000  0.65280000  0.75950000  1.0 -0.1912033289
O  O90  1  0.56800000  0.45160000  0.77600000  1.0 -0.1678637322
O  O91  1  0.47745000  0.83805000  0.41014000  1.0 -1.1102755707
O  O92  1  0.57702000  0.80690000  0.38738000  1.0 -1.162887637
O  O93  1  0.36589000  0.74875000  0.36308000  1.0 -1.0615465683
O  O94  1  0.48228000  0.97780000  0.40101000  1.0 -0.5593807738
O  O95  1  0.55461000  0.85965000  0.35275000  1.0 -1.080627982
O  O96  1  0.46742000  0.93676000  0.33549000  1.0 -0.5692576162
O  O97  1  0.48599000  0.59367000  0.35117000  1.0 -0.5692576162
O  O98  1  0.44474000  0.86284000  0.37320000  1.0 -1.1021875184
O  O99  1  0.59039000  0.65601000  0.34348000  1.0 -0.5817371171
O  O100  1  0.37480000  0.91988000  0.40464000  1.0 -0.5692576162
O  O101  1  0.18255000  0.49353000  0.18463000  1.0 -0.5918613799
O  O102  1  0.22088000  0.39058000  0.17546000  1.0 -0.5593807738
O  O103  1  0.65381000  0.94065000  0.37521000  1.0 -0.5995385092
O  O104  1  0.48840000  0.62796000  0.41855000  1.0 -0.6296972972
O  O105  1  0.42736000  0.72106000  0.39572000  1.0 -1.1513109447
O  O106  1  0.87496000  0.41450000  0.55455000  1.0 -0.4302178067
O  O107  1  0.37797000  0.76303000  0.32075000  1.0 -0.5918613799
O  O108  1  0.79878000  0.34472000  0.57396000  1.0 -0.6832312387
O  O109  1  0.52790000  0.98656000  0.36208000  1.0 -0.5513281864
O  O110  1  0.53984000  0.67868000  0.38250000  1.0 -1.1513109447
O  O111  1  0.43420000  0.57934000  0.39036000  1.0 -0.5316529465
O  O112  1  0.29759000  0.85457000  0.37534000  1.0 -0.5817371171
O  O113  1  0.59682000  0.81918000  0.42947000  1.0 -0.6545084458
O  O114  1  0.59949000  0.92425000  0.41346000  1.0 -0.5593807738
O  O115  1  0.34272000  0.87140000  0.34311000  1.0 -0.5995385092
O  O116  1  0.68284000  0.42624000  0.26838000  1.0 -0.2005797368
O  O117  1  0.90385000  0.93539000  0.47517000  1.0 -0.2567504984
O  O118  1  0.16131000  0.14703000  0.31621000  1.0 -0.2183225504
O  O119  1  0.09308000  0.28840000  0.33385000  1.0 -0.2422362757
O  O120  1  0.28541000  0.38033000  0.48388000  1.0 -0.2765460205
O  O121  1  0.27920000  0.51800000  0.49843000  1.0 -0.0803475648
O  O122  1  0.68590000  0.84216000  0.35954000  1.0 -0.6296972972
O  O123  1  0.32438000  0.60702000  0.37146000  1.0 -0.6296972972
O  O124  1  0.23650000  0.66170000  0.36024000  1.0 -0.4798218351
O  O125  1  0.12980000  0.27700000  0.37622000  1.0 -0.2005797368
O  O126  1  0.31390000  0.19150000  0.31012000  1.0 -0.1598261176
O  O127  1  0.24200000  0.18240000  0.37964000  1.0 -0.1678637322
O  O128  1  0.34740000  0.18320000  0.35407000  1.0 -0.1788697789
O  O129  1  0.48816000  0.73856000  0.35152000  1.0 -1.1406614524
O  O130  1  0.42800000  0.53020000  0.50196000  1.0 -0.1912033289
O  O131  1  0.79160000  0.74660000  0.48390000  1.0 -0.1488000699
O  O132  1  0.37611000  0.64289000  0.33539000  1.0 -0.5817371171
O  O133  1  0.89010000  0.81630000  0.45515000  1.0 -0.1912033289
O  O134  1  0.65280000  0.60760000  0.24050000  1.0 -0.1912033289
O  O135  1  0.45160000  0.56800000  0.22400000  1.0 -0.1678637322
O  O136  1  0.52255000  0.16195000  0.91014000  1.0 -1.1196437917
O  O137  1  0.42298000  0.19310000  0.88738000  1.0 -1.1513109447
O  O138  1  0.63411000  0.25125000  0.86308000  1.0 -1.0615465683
O  O139  1  0.51772000  0.02220000  0.90101000  1.0 -0.5593807738
O  O140  1  0.44539000  0.14035000  0.85275000  1.0 -1.0874156794
O  O141  1  0.53258000  0.06324000  0.83549000  1.0 -0.5692576162
O  O142  1  0.51401000  0.40633000  0.85117000  1.0 -0.5692576162
O  O143  1  0.55526000  0.13716000  0.87320000  1.0 -1.1021875184
O  O144  1  0.40961000  0.34399000  0.84348000  1.0 -0.5817371171
O  O145  1  0.62520000  0.08012000  0.90464000  1.0 -0.5692576162
O  O146  1  0.81745000  0.50647000  0.68463000  1.0 -0.5817371171
O  O147  1  0.77912000  0.60942000  0.67546000  1.0 -0.5513281864
O  O148  1  0.34619000  0.05935000  0.87521000  1.0 -0.5995385092
O  O149  1  0.51160000  0.37204000  0.91855000  1.0 -0.6296972972
O  O150  1  0.57264000  0.27894000  0.89572000  1.0 -1.1406614524
O  O151  1  0.12504000  0.58550000  0.05455000  1.0 -0.4302178067
O  O152  1  0.62203000  0.23697000  0.82075000  1.0 -0.5918613799
O  O153  1  0.20122000  0.65528000  0.07396000  1.0 -0.6832312387
O  O154  1  0.47210000  0.01344000  0.86208000  1.0 -0.5513281864
O  O155  1  0.46016000  0.32132000  0.88250000  1.0 -1.162887637
O  O156  1  0.56580000  0.42066000  0.89036000  1.0 -0.5316529465
O  O157  1  0.70241000  0.14543000  0.87534000  1.0 -0.5817371171
O  O158  1  0.40318000  0.18082000  0.92947000  1.0 -0.6545084458
O  O159  1  0.40051000  0.07575000  0.91346000  1.0 -0.5593807738
O  O160  1  0.65728000  0.12860000  0.84311000  1.0 -0.5918613799
O  O161  1  0.31716000  0.57376000  0.76838000  1.0 -0.2099241036
O  O162  1  0.09615000  0.06461000  0.97517000  1.0 -0.2567504984
O  O163  1  0.83869000  0.85297000  0.81621000  1.0 -0.2183225504
O  O164  1  0.90692000  0.71160000  0.83385000  1.0 -0.2422362757
O  O165  1  0.71459000  0.61967000  0.98388000  1.0 -0.2765460205
O  O166  1  0.72080000  0.48200000  0.99843000  1.0 -0.0803475648
O  O167  1  0.31410000  0.15784000  0.85954000  1.0 -0.6296972972
O  O168  1  0.67562000  0.39298000  0.87146000  1.0 -0.6296972972
O  O169  1  0.76350000  0.33830000  0.86024000  1.0 -0.4798218351
O  O170  1  0.87020000  0.72300000  0.87622000  1.0 -0.2005797368
O  O171  1  0.68610000  0.80850000  0.81012000  1.0 -0.1598261176
O  O172  1  0.75800000  0.81760000  0.87964000  1.0 -0.1678637322
O  O173  1  0.65260000  0.81680000  0.85407000  1.0 -0.1788697789
O  O174  1  0.51184000  0.26144000  0.85152000  1.0 -1.1347624701
O  O175  1  0.57200000  0.46980000  0.00196000  1.0 -0.1912033289
O  O176  1  0.20840000  0.25340000  0.98390000  1.0 -0.1488000699
O  O177  1  0.62389000  0.35711000  0.83539000  1.0 -0.5817371171
O  O178  1  0.10990000  0.18370000  0.95515000  1.0 -0.1912033289
O  O179  1  0.34720000  0.39240000  0.74050000  1.0 -0.1912033289
O  O180  1  0.54840000  0.43200000  0.72400000  1.0 -0.1678637322
