# DDEC6 charges by PACMAN v1.1 (https://github.com/mtap-research/PACMAN-charge/)
data_OKICIX_ASR_pacman
_symmetry_space_group_name_H-M   'P 1'
_cell_length_a   19.81700000
_cell_length_b   19.81700000
_cell_length_c   61.87300000
_cell_angle_alpha   90.00000000
_cell_angle_beta   90.00000000
_cell_angle_gamma   99.43340000
_symmetry_Int_Tables_number   1
_chemical_formula_structural   Zr6H78C135O38
_chemical_formula_sum   'Zr24 H312 C540 O152'
_cell_volume   23969.76972941
_cell_formula_units_Z   4
loop_
 _symmetry_equiv_pos_site_id
 _symmetry_equiv_pos_as_xyz
  1  'x, y, z'
loop_
 _atom_site_type_symbol
 _atom_site_label
 _atom_site_symmetry_multiplicity
 _atom_site_fract_x
 _atom_site_fract_y
 _atom_site_fract_z
 _atom_site_occupancy
 _atom_site_charge
Zr  Zr1  1  0.89651000  0.16497000  0.63630000  1.0 2.3513467138
Zr  Zr2  1  0.85640000  0.30668000  0.60878000  1.0 2.4030866747
Zr  Zr3  1  0.99743000  0.23331000  0.59307000  1.0 2.4261588876
Zr  Zr4  1  0.02164000  0.39644000  0.61787000  1.0 2.4030866747
Zr  Zr5  1  0.06232000  0.25436000  0.64565000  1.0 2.3725997632
Zr  Zr6  1  0.92018000  0.32772000  0.66160000  1.0 2.4358528678
Zr  Zr7  1  0.10349000  0.83503000  0.13630000  1.0 2.3513467138
Zr  Zr8  1  0.14360000  0.69332000  0.10878000  1.0 2.4030866747
Zr  Zr9  1  0.00257000  0.76669000  0.09307000  1.0 2.4246850634
Zr  Zr10  1  0.97836000  0.60356000  0.11787000  1.0 2.4030866747
Zr  Zr11  1  0.93768000  0.74564000  0.14565000  1.0 2.3725997632
Zr  Zr12  1  0.07982000  0.67228000  0.16160000  1.0 2.4358528678
Zr  Zr13  1  0.83503000  0.10349000  0.86370000  1.0 2.3513467138
Zr  Zr14  1  0.69332000  0.14360000  0.89122000  1.0 2.4030866747
Zr  Zr15  1  0.76669000  0.00257000  0.90693000  1.0 2.4246850634
Zr  Zr16  1  0.60356000  0.97836000  0.88213000  1.0 2.4030866747
Zr  Zr17  1  0.74564000  0.93768000  0.85435000  1.0 2.3725997632
Zr  Zr18  1  0.67228000  0.07982000  0.83840000  1.0 2.4358528678
Zr  Zr19  1  0.16497000  0.89651000  0.36370000  1.0 2.3513467138
Zr  Zr20  1  0.30668000  0.85640000  0.39122000  1.0 2.4030866747
Zr  Zr21  1  0.23331000  0.99743000  0.40693000  1.0 2.4246850634
Zr  Zr22  1  0.39644000  0.02164000  0.38213000  1.0 2.4030866747
Zr  Zr23  1  0.25436000  0.06232000  0.35435000  1.0 2.3725997632
Zr  Zr24  1  0.32772000  0.92018000  0.33840000  1.0 2.4358528678
H  H1  1  0.88269000  0.76453000  0.57100000  1.0 0.1195487154
H  H2  1  0.16464000  0.10916000  0.57443000  1.0 0.1301387882
H  H3  1  0.25054000  0.04444000  0.56875000  1.0 0.1301387882
H  H4  1  0.32495000  0.09391000  0.62810000  1.0 0.1301387882
H  H5  1  0.23906000  0.15864000  0.63378000  1.0 0.1301387882
H  H6  1  0.23580000  0.70478000  0.52453000  1.0 0.1195487154
H  H7  1  0.43036000  0.10010000  0.60204000  1.0 0.1195487154
H  H8  1  0.30265000  0.76771000  0.45651000  1.0 0.1381534768
H  H9  1  0.31379000  0.73353000  0.49202000  1.0 0.1301387882
H  H10  1  0.26045000  0.90945000  0.51290000  1.0 0.1301387882
H  H11  1  0.24930000  0.94362000  0.47739000  1.0 0.1301387882
H  H12  1  0.82678000  0.85506000  0.58897000  1.0 0.1195487154
H  H13  1  0.86037000  0.95599000  0.60792000  1.0 0.1301387882
H  H14  1  0.94309000  0.04607000  0.55375000  1.0 0.1301387882
H  H15  1  0.90949000  0.94513000  0.53480000  1.0 0.1301387882
H  H16  1  0.13473000  0.07885000  0.67489000  1.0 0.1301387882
H  H17  1  0.16734000  0.98440000  0.69157000  1.0 0.1301387882
H  H18  1  0.97285000  0.88725000  0.68946000  1.0 0.1195487154
H  H19  1  0.94024000  0.98170000  0.67278000  1.0 0.1301387882
H  H20  1  0.58099000  0.98223000  0.61988000  1.0 0.1301387882
H  H21  1  0.53508000  0.14162000  0.58598000  1.0 0.1301387882
H  H22  1  0.64331000  0.20215000  0.59296000  1.0 0.1381534768
H  H23  1  0.68922000  0.04276000  0.62687000  1.0 0.1301387882
H  H24  1  0.97661000  0.57939000  0.58370000  1.0 0.1301387882
H  H25  1  0.78449000  0.48087000  0.57521000  1.0 0.1381534768
H  H26  1  0.75569000  0.57707000  0.55852000  1.0 0.1195487154
H  H27  1  0.94782000  0.67558000  0.56702000  1.0 0.1301387882
H  H28  1  0.52123000  0.88197000  0.60429000  1.0 0.1195487154
H  H29  1  0.55226000  0.91817000  0.58299000  1.0 0.1195487154
H  H30  1  0.97965000  0.51881000  0.69969000  1.0 0.1381534768
H  H31  1  0.01306000  0.62182000  0.71754000  1.0 0.1301387882
H  H32  1  0.09245000  0.70697000  0.66227000  1.0 0.1301387882
H  H33  1  0.05904000  0.60396000  0.64442000  1.0 0.1381534768
H  H34  1  0.47910000  0.84454000  0.56093000  1.0 0.1195487154
H  H35  1  0.48387000  0.79371000  0.58041000  1.0 0.1097060094
H  H36  1  0.04457000  0.79877000  0.68071000  1.0 0.1097060094
H  H37  1  0.63370000  0.70660000  0.51114000  1.0 0.1097060094
H  H38  1  0.65968000  0.78584000  0.51410000  1.0 0.1301387882
H  H39  1  0.40257000  0.79553000  0.61325000  1.0 0.1097060094
H  H40  1  0.32982000  0.81670000  0.60951000  1.0 0.1195487154
H  H41  1  0.27562000  0.85762000  0.73176000  1.0 0.1195487154
H  H42  1  0.28944000  0.78380000  0.73777000  1.0 0.1001292413
H  H43  1  0.61514000  0.71738000  0.47533000  1.0 0.1097060094
H  H44  1  0.59903000  0.78879000  0.48317000  1.0 0.1195487154
H  H45  1  0.37822000  0.70112000  0.59101000  1.0 0.1097060094
H  H46  1  0.30475000  0.70171000  0.60073000  1.0 0.1195487154
H  H47  1  0.67339000  0.40161000  0.62179000  1.0 0.1301387882
H  H48  1  0.75524000  0.44326000  0.68067000  1.0 0.1301387882
H  H49  1  0.67056000  0.50760000  0.68858000  1.0 0.1301387882
H  H50  1  0.58871000  0.46595000  0.62969000  1.0 0.1195487154
H  H51  1  0.33226000  0.81978000  0.77320000  1.0 0.1097060094
H  H52  1  0.35084000  0.89202000  0.76175000  1.0 0.1097060094
H  H53  1  0.32891000  0.59501000  0.56993000  1.0 0.1301387882
H  H54  1  0.27565000  0.48873000  0.58205000  1.0 0.1301387882
H  H55  1  0.09217000  0.53993000  0.56866000  1.0 0.1195487154
H  H56  1  0.14542000  0.64620000  0.55654000  1.0 0.1301387882
H  H57  1  0.23217000  0.52137000  0.63236000  1.0 0.1301387882
H  H58  1  0.33889000  0.57915000  0.64247000  1.0 0.1195487154
H  H59  1  0.37918000  0.40960000  0.67202000  1.0 0.1301387882
H  H60  1  0.27246000  0.35182000  0.66190000  1.0 0.1381534768
H  H61  1  0.48831000  0.46309000  0.64957000  1.0 0.1195487154
H  H62  1  0.71677000  0.82523000  0.79617000  1.0 0.1381534768
H  H63  1  0.62921000  0.98509000  0.77774000  1.0 0.1498059829
H  H64  1  0.60102000  0.93260000  0.74471000  1.0 0.1301387882
H  H65  1  0.68857000  0.77275000  0.76313000  1.0 0.1381534768
H  H66  1  0.51050000  0.61042000  0.71619000  1.0 0.1097060094
H  H67  1  0.58986000  0.63459000  0.71298000  1.0 0.1195487154
H  H68  1  0.57275000  0.69373000  0.74404000  1.0 0.1097060094
H  H69  1  0.49968000  0.70736000  0.73613000  1.0 0.1097060094
H  H70  1  0.37207000  0.63455000  0.69028000  1.0 0.1195487154
H  H71  1  0.37893000  0.66363000  0.66646000  1.0 0.1097060094
H  H72  1  0.68485000  0.90465000  0.72448000  1.0 0.1097060094
H  H73  1  0.60109000  0.97623000  0.68508000  1.0 0.1301387882
H  H74  1  0.65515000  0.08129000  0.67225000  1.0 0.1381534768
H  H75  1  0.83605000  0.01489000  0.67447000  1.0 0.1301387882
H  H76  1  0.78199000  0.90983000  0.68730000  1.0 0.1381534768
H  H77  1  0.43908000  0.73322000  0.70010000  1.0 0.1097060094
H  H78  1  0.46163000  0.75057000  0.67612000  1.0 0.1195487154
H  H79  1  0.11731000  0.23547000  0.07100000  1.0 0.1195487154
H  H80  1  0.83536000  0.89084000  0.07443000  1.0 0.1301387882
H  H81  1  0.74946000  0.95556000  0.06875000  1.0 0.1301387882
H  H82  1  0.67505000  0.90608000  0.12810000  1.0 0.1301387882
H  H83  1  0.76094000  0.84136000  0.13378000  1.0 0.1301387882
H  H84  1  0.76420000  0.29522000  0.02453000  1.0 0.1195487154
H  H85  1  0.56964000  0.89990000  0.10204000  1.0 0.1195487154
H  H86  1  0.69735000  0.23229000  0.95651000  1.0 0.1381534768
H  H87  1  0.68621000  0.26647000  0.99202000  1.0 0.1301387882
H  H88  1  0.73955000  0.09055000  0.01290000  1.0 0.1301387882
H  H89  1  0.75070000  0.05638000  0.97739000  1.0 0.1301387882
H  H90  1  0.17322000  0.14494000  0.08897000  1.0 0.1195487154
H  H91  1  0.13963000  0.04401000  0.10792000  1.0 0.1301387882
H  H92  1  0.05691000  0.95393000  0.05375000  1.0 0.1301387882
H  H93  1  0.09051000  0.05487000  0.03480000  1.0 0.1301387882
H  H94  1  0.86526000  0.92114000  0.17489000  1.0 0.1301387882
H  H95  1  0.83266000  0.01560000  0.19157000  1.0 0.1301387882
H  H96  1  0.02715000  0.11275000  0.18946000  1.0 0.1195487154
H  H97  1  0.05976000  0.01830000  0.17278000  1.0 0.1301387882
H  H98  1  0.41901000  0.01777000  0.11988000  1.0 0.1301387882
H  H99  1  0.46492000  0.85838000  0.08598000  1.0 0.1301387882
H  H100  1  0.35669000  0.79785000  0.09296000  1.0 0.1381534768
H  H101  1  0.31078000  0.95724000  0.12687000  1.0 0.1301387882
H  H102  1  0.02339000  0.42061000  0.08370000  1.0 0.1301387882
H  H103  1  0.21551000  0.51913000  0.07521000  1.0 0.1381534768
H  H104  1  0.24431000  0.42293000  0.05852000  1.0 0.1195487154
H  H105  1  0.05218000  0.32442000  0.06702000  1.0 0.1301387882
H  H106  1  0.47877000  0.11803000  0.10429000  1.0 0.1195487154
H  H107  1  0.44775000  0.08182000  0.08299000  1.0 0.1195487154
H  H108  1  0.02035000  0.48119000  0.19969000  1.0 0.1381534768
H  H109  1  0.98694000  0.37818000  0.21754000  1.0 0.1301387882
H  H110  1  0.90755000  0.29303000  0.16227000  1.0 0.1301387882
H  H111  1  0.94096000  0.39604000  0.14442000  1.0 0.1381534768
H  H112  1  0.52090000  0.15546000  0.06093000  1.0 0.1195487154
H  H113  1  0.51613000  0.20629000  0.08041000  1.0 0.1097060094
H  H114  1  0.95543000  0.20123000  0.18071000  1.0 0.1097060094
H  H115  1  0.36630000  0.29340000  0.01114000  1.0 0.1097060094
H  H116  1  0.34032000  0.21416000  0.01410000  1.0 0.1301387882
H  H117  1  0.59743000  0.20447000  0.11325000  1.0 0.1097060094
H  H118  1  0.67018000  0.18330000  0.10951000  1.0 0.1195487154
H  H119  1  0.72438000  0.14238000  0.23176000  1.0 0.1195487154
H  H120  1  0.71056000  0.21620000  0.23777000  1.0 0.1001292413
H  H121  1  0.38486000  0.28262000  0.97533000  1.0 0.1097060094
H  H122  1  0.40097000  0.21121000  0.98317000  1.0 0.1195487154
H  H123  1  0.62179000  0.29887000  0.09101000  1.0 0.1097060094
H  H124  1  0.69525000  0.29829000  0.10073000  1.0 0.1195487154
H  H125  1  0.32661000  0.59839000  0.12179000  1.0 0.1301387882
H  H126  1  0.24476000  0.55674000  0.18067000  1.0 0.1301387882
H  H127  1  0.32944000  0.49240000  0.18858000  1.0 0.1301387882
H  H128  1  0.41129000  0.53405000  0.12969000  1.0 0.1195487154
H  H129  1  0.66774000  0.18022000  0.27320000  1.0 0.1097060094
H  H130  1  0.64916000  0.10798000  0.26175000  1.0 0.1097060094
H  H131  1  0.67109000  0.40499000  0.06993000  1.0 0.1301387882
H  H132  1  0.72435000  0.51127000  0.08205000  1.0 0.1301387882
H  H133  1  0.90783000  0.46007000  0.06866000  1.0 0.1195487154
H  H134  1  0.85458000  0.35380000  0.05654000  1.0 0.1301387882
H  H135  1  0.76783000  0.47863000  0.13236000  1.0 0.1301387882
H  H136  1  0.66111000  0.42085000  0.14247000  1.0 0.1195487154
H  H137  1  0.62082000  0.59040000  0.17202000  1.0 0.1301387882
H  H138  1  0.72754000  0.64818000  0.16190000  1.0 0.1381534768
H  H139  1  0.51169000  0.53691000  0.14957000  1.0 0.1195487154
H  H140  1  0.28323000  0.17477000  0.29617000  1.0 0.1381534768
H  H141  1  0.37079000  0.01491000  0.27774000  1.0 0.1498059829
H  H142  1  0.39898000  0.06740000  0.24471000  1.0 0.1301387882
H  H143  1  0.31143000  0.22725000  0.26313000  1.0 0.1381534768
H  H144  1  0.48950000  0.38958000  0.21619000  1.0 0.1097060094
H  H145  1  0.41014000  0.36540000  0.21298000  1.0 0.1195487154
H  H146  1  0.42725000  0.30627000  0.24404000  1.0 0.1097060094
H  H147  1  0.50032000  0.29264000  0.23613000  1.0 0.1097060094
H  H148  1  0.62793000  0.36545000  0.19028000  1.0 0.1195487154
H  H149  1  0.62107000  0.33637000  0.16646000  1.0 0.1097060094
H  H150  1  0.31515000  0.09535000  0.22448000  1.0 0.1097060094
H  H151  1  0.39891000  0.02377000  0.18508000  1.0 0.1301387882
H  H152  1  0.34485000  0.91871000  0.17225000  1.0 0.1381534768
H  H153  1  0.16395000  0.98511000  0.17447000  1.0 0.1301387882
H  H154  1  0.21801000  0.09017000  0.18730000  1.0 0.1381534768
H  H155  1  0.56092000  0.26678000  0.20010000  1.0 0.1001292413
H  H156  1  0.53837000  0.24943000  0.17612000  1.0 0.1195487154
H  H157  1  0.23547000  0.11731000  0.92900000  1.0 0.1195487154
H  H158  1  0.89084000  0.83536000  0.92557000  1.0 0.1301387882
H  H159  1  0.95556000  0.74946000  0.93125000  1.0 0.1301387882
H  H160  1  0.90609000  0.67505000  0.87190000  1.0 0.1301387882
H  H161  1  0.84136000  0.76094000  0.86622000  1.0 0.1301387882
H  H162  1  0.29522000  0.76420000  0.97547000  1.0 0.1195487154
H  H163  1  0.89990000  0.56964000  0.89796000  1.0 0.1195487154
H  H164  1  0.23229000  0.69735000  0.04349000  1.0 0.1381534768
H  H165  1  0.26647000  0.68621000  0.00798000  1.0 0.1195487154
H  H166  1  0.09055000  0.73955000  0.98710000  1.0 0.1301387882
H  H167  1  0.05638000  0.75070000  0.02261000  1.0 0.1301387882
H  H168  1  0.14494000  0.17322000  0.91103000  1.0 0.1195487154
H  H169  1  0.04401000  0.13963000  0.89208000  1.0 0.1301387882
H  H170  1  0.95393000  0.05691000  0.94625000  1.0 0.1301387882
H  H171  1  0.05487000  0.09051000  0.96520000  1.0 0.1301387882
H  H172  1  0.92114000  0.86526000  0.82511000  1.0 0.1301387882
H  H173  1  0.01560000  0.83266000  0.80843000  1.0 0.1301387882
H  H174  1  0.11275000  0.02715000  0.81054000  1.0 0.1195487154
H  H175  1  0.01830000  0.05976000  0.82722000  1.0 0.1301387882
H  H176  1  0.01777000  0.41901000  0.88012000  1.0 0.1301387882
H  H177  1  0.85838000  0.46492000  0.91402000  1.0 0.1301387882
H  H178  1  0.79785000  0.35669000  0.90704000  1.0 0.1381534768
H  H179  1  0.95724000  0.31078000  0.87313000  1.0 0.1301387882
H  H180  1  0.42061000  0.02339000  0.91630000  1.0 0.1301387882
H  H181  1  0.51913000  0.21551000  0.92479000  1.0 0.1381534768
H  H182  1  0.42293000  0.24431000  0.94148000  1.0 0.1195487154
H  H183  1  0.32442000  0.05218000  0.93298000  1.0 0.1301387882
H  H184  1  0.11803000  0.47877000  0.89571000  1.0 0.1195487154
H  H185  1  0.08182000  0.44775000  0.91701000  1.0 0.1195487154
H  H186  1  0.48119000  0.02035000  0.80031000  1.0 0.1381534768
H  H187  1  0.37818000  0.98694000  0.78246000  1.0 0.1301387882
H  H188  1  0.29303000  0.90755000  0.83773000  1.0 0.1301387882
H  H189  1  0.39604000  0.94096000  0.85558000  1.0 0.1381534768
H  H190  1  0.15546000  0.52090000  0.93907000  1.0 0.1195487154
H  H191  1  0.20629000  0.51613000  0.91959000  1.0 0.1097060094
H  H192  1  0.20123000  0.95543000  0.81929000  1.0 0.1097060094
H  H193  1  0.29340000  0.36630000  0.98886000  1.0 0.1097060094
H  H194  1  0.21416000  0.34032000  0.98590000  1.0 0.1301387882
H  H195  1  0.20447000  0.59743000  0.88675000  1.0 0.1097060094
H  H196  1  0.18330000  0.67018000  0.89049000  1.0 0.1195487154
H  H197  1  0.14238000  0.72438000  0.76824000  1.0 0.1195487154
H  H198  1  0.21620000  0.71056000  0.76223000  1.0 0.1001292413
H  H199  1  0.28262000  0.38486000  0.02467000  1.0 0.1097060094
H  H200  1  0.21121000  0.40097000  0.01683000  1.0 0.1195487154
H  H201  1  0.29888000  0.62179000  0.90899000  1.0 0.1097060094
H  H202  1  0.29829000  0.69525000  0.89927000  1.0 0.1195487154
H  H203  1  0.59839000  0.32661000  0.87821000  1.0 0.1301387882
H  H204  1  0.55674000  0.24476000  0.81933000  1.0 0.1301387882
H  H205  1  0.49240000  0.32944000  0.81142000  1.0 0.1301387882
H  H206  1  0.53405000  0.41129000  0.87031000  1.0 0.1195487154
H  H207  1  0.18022000  0.66774000  0.72680000  1.0 0.1097060094
H  H208  1  0.10798000  0.64916000  0.73825000  1.0 0.1097060094
H  H209  1  0.40499000  0.67109000  0.93007000  1.0 0.1301387882
H  H210  1  0.51127000  0.72435000  0.91795000  1.0 0.1301387882
H  H211  1  0.46007000  0.90783000  0.93134000  1.0 0.1195487154
H  H212  1  0.35380000  0.85458000  0.94346000  1.0 0.1301387882
H  H213  1  0.47863000  0.76783000  0.86764000  1.0 0.1301387882
H  H214  1  0.42085000  0.66111000  0.85753000  1.0 0.1195487154
H  H215  1  0.59040000  0.62082000  0.82798000  1.0 0.1301387882
H  H216  1  0.64818000  0.72754000  0.83810000  1.0 0.1381534768
H  H217  1  0.53691000  0.51169000  0.85043000  1.0 0.1195487154
H  H218  1  0.17477000  0.28323000  0.70383000  1.0 0.1381534768
H  H219  1  0.01491000  0.37079000  0.72226000  1.0 0.1498059829
H  H220  1  0.06740000  0.39898000  0.75529000  1.0 0.1301387882
H  H221  1  0.22725000  0.31143000  0.73687000  1.0 0.1381534768
H  H222  1  0.38958000  0.48950000  0.78381000  1.0 0.1097060094
H  H223  1  0.36540000  0.41014000  0.78702000  1.0 0.1195487154
H  H224  1  0.30627000  0.42725000  0.75596000  1.0 0.1097060094
H  H225  1  0.29264000  0.50032000  0.76387000  1.0 0.1097060094
H  H226  1  0.36545000  0.62793000  0.80972000  1.0 0.1195487154
H  H227  1  0.33637000  0.62107000  0.83354000  1.0 0.1097060094
H  H228  1  0.09535000  0.31515000  0.77552000  1.0 0.1097060094
H  H229  1  0.02377000  0.39891000  0.81492000  1.0 0.1301387882
H  H230  1  0.91871000  0.34485000  0.82775000  1.0 0.1381534768
H  H231  1  0.98511000  0.16395000  0.82553000  1.0 0.1301387882
H  H232  1  0.09017000  0.21801000  0.81270000  1.0 0.1381534768
H  H233  1  0.26678000  0.56092000  0.79990000  1.0 0.1001292413
H  H234  1  0.24943000  0.53837000  0.82388000  1.0 0.1195487154
H  H235  1  0.76453000  0.88269000  0.42900000  1.0 0.1195487154
H  H236  1  0.10916000  0.16464000  0.42557000  1.0 0.1301387882
H  H237  1  0.04444000  0.25054000  0.43125000  1.0 0.1301387882
H  H238  1  0.09391000  0.32495000  0.37190000  1.0 0.1301387882
H  H239  1  0.15864000  0.23906000  0.36622000  1.0 0.1301387882
H  H240  1  0.70478000  0.23580000  0.47547000  1.0 0.1195487154
H  H241  1  0.10010000  0.43036000  0.39796000  1.0 0.1195487154
H  H242  1  0.76771000  0.30265000  0.54349000  1.0 0.1381534768
H  H243  1  0.73353000  0.31379000  0.50798000  1.0 0.1301387882
H  H244  1  0.90945000  0.26045000  0.48710000  1.0 0.1301387882
H  H245  1  0.94363000  0.24930000  0.52261000  1.0 0.1301387882
H  H246  1  0.85506000  0.82678000  0.41103000  1.0 0.1195487154
H  H247  1  0.95599000  0.86037000  0.39208000  1.0 0.1301387882
H  H248  1  0.04607000  0.94309000  0.44625000  1.0 0.1301387882
H  H249  1  0.94513000  0.90949000  0.46520000  1.0 0.1301387882
H  H250  1  0.07885000  0.13473000  0.32511000  1.0 0.1301387882
H  H251  1  0.98440000  0.16734000  0.30843000  1.0 0.1301387882
H  H252  1  0.88725000  0.97285000  0.31054000  1.0 0.1195487154
H  H253  1  0.98170000  0.94024000  0.32722000  1.0 0.1301387882
H  H254  1  0.98223000  0.58099000  0.38012000  1.0 0.1301387882
H  H255  1  0.14162000  0.53508000  0.41402000  1.0 0.1301387882
H  H256  1  0.20215000  0.64331000  0.40704000  1.0 0.1381534768
H  H257  1  0.04276000  0.68922000  0.37313000  1.0 0.1301387882
H  H258  1  0.57939000  0.97661000  0.41630000  1.0 0.1301387882
H  H259  1  0.48087000  0.78449000  0.42479000  1.0 0.1381534768
H  H260  1  0.57707000  0.75569000  0.44148000  1.0 0.1195487154
H  H261  1  0.67558000  0.94782000  0.43298000  1.0 0.1301387882
H  H262  1  0.88197000  0.52123000  0.39571000  1.0 0.1195487154
H  H263  1  0.91817000  0.55226000  0.41701000  1.0 0.1195487154
H  H264  1  0.51881000  0.97965000  0.30031000  1.0 0.1381534768
H  H265  1  0.62182000  0.01306000  0.28246000  1.0 0.1301387882
H  H266  1  0.70697000  0.09245000  0.33773000  1.0 0.1301387882
H  H267  1  0.60396000  0.05904000  0.35558000  1.0 0.1381534768
H  H268  1  0.84454000  0.47910000  0.43907000  1.0 0.1195487154
H  H269  1  0.79371000  0.48387000  0.41959000  1.0 0.1097060094
H  H270  1  0.79877000  0.04457000  0.31929000  1.0 0.1097060094
H  H271  1  0.70660000  0.63370000  0.48886000  1.0 0.1097060094
H  H272  1  0.78584000  0.65968000  0.48590000  1.0 0.1301387882
H  H273  1  0.79553000  0.40257000  0.38675000  1.0 0.1097060094
H  H274  1  0.81670000  0.32982000  0.39049000  1.0 0.1195487154
H  H275  1  0.85762000  0.27562000  0.26824000  1.0 0.1195487154
H  H276  1  0.78380000  0.28944000  0.26223000  1.0 0.1001292413
H  H277  1  0.71738000  0.61514000  0.52467000  1.0 0.1097060094
H  H278  1  0.78879000  0.59903000  0.51683000  1.0 0.1195487154
H  H279  1  0.70112000  0.37822000  0.40899000  1.0 0.1097060094
H  H280  1  0.70171000  0.30475000  0.39927000  1.0 0.1195487154
H  H281  1  0.40161000  0.67339000  0.37821000  1.0 0.1301387882
H  H282  1  0.44326000  0.75524000  0.31933000  1.0 0.1301387882
H  H283  1  0.50760000  0.67056000  0.31142000  1.0 0.1301387882
H  H284  1  0.46595000  0.58871000  0.37031000  1.0 0.1195487154
H  H285  1  0.81978000  0.33226000  0.22680000  1.0 0.1097060094
H  H286  1  0.89202000  0.35084000  0.23825000  1.0 0.1097060094
H  H287  1  0.59501000  0.32891000  0.43007000  1.0 0.1301387882
H  H288  1  0.48873000  0.27565000  0.41795000  1.0 0.1301387882
H  H289  1  0.53993000  0.09217000  0.43134000  1.0 0.1195487154
H  H290  1  0.64620000  0.14542000  0.44346000  1.0 0.1301387882
H  H291  1  0.52137000  0.23217000  0.36764000  1.0 0.1301387882
H  H292  1  0.57915000  0.33889000  0.35753000  1.0 0.1195487154
H  H293  1  0.40960000  0.37918000  0.32798000  1.0 0.1301387882
H  H294  1  0.35182000  0.27246000  0.33810000  1.0 0.1381534768
H  H295  1  0.46309000  0.48831000  0.35043000  1.0 0.1195487154
H  H296  1  0.82523000  0.71677000  0.20383000  1.0 0.1381534768
H  H297  1  0.98509000  0.62921000  0.22226000  1.0 0.1498059829
H  H298  1  0.93260000  0.60102000  0.25529000  1.0 0.1301387882
H  H299  1  0.77275000  0.68857000  0.23687000  1.0 0.1381534768
H  H300  1  0.61042000  0.51050000  0.28381000  1.0 0.1097060094
H  H301  1  0.63459000  0.58985000  0.28702000  1.0 0.1195487154
H  H302  1  0.69373000  0.57275000  0.25596000  1.0 0.1097060094
H  H303  1  0.70736000  0.49968000  0.26387000  1.0 0.1097060094
H  H304  1  0.63455000  0.37207000  0.30972000  1.0 0.1195487154
H  H305  1  0.66363000  0.37893000  0.33354000  1.0 0.1097060094
H  H306  1  0.90465000  0.68485000  0.27552000  1.0 0.1097060094
H  H307  1  0.97623000  0.60109000  0.31492000  1.0 0.1301387882
H  H308  1  0.08129000  0.65515000  0.32775000  1.0 0.1381534768
H  H309  1  0.01489000  0.83605000  0.32553000  1.0 0.1301387882
H  H310  1  0.90983000  0.78199000  0.31270000  1.0 0.1381534768
H  H311  1  0.73322000  0.43908000  0.29990000  1.0 0.1001292413
H  H312  1  0.75057000  0.46163000  0.32388000  1.0 0.1195487154
C  C1  1  0.83367000  0.69905000  0.54887000  1.0 0.0094906118
C  C2  1  0.85730000  0.76216000  0.55830000  1.0 -0.1795623076
C  C3  1  0.84297000  0.82171000  0.54876000  1.0 -0.0209324261
C  C4  1  0.80503000  0.81817000  0.52978000  1.0 0.2135002029
C  C5  1  0.78140000  0.75506000  0.52035000  1.0 -0.059756327
C  C6  1  0.79572000  0.69550000  0.52989000  1.0 0.0425093074
C  C7  1  0.19334000  0.14032000  0.60466000  1.0 -0.070735354
C  C8  1  0.19677000  0.10611000  0.58518000  1.0 -0.070735354
C  C9  1  0.24824000  0.06732000  0.58178000  1.0 -0.1203229476
C  C10  1  0.29627000  0.06275000  0.59786000  1.0 0.1195487154
C  C11  1  0.29283000  0.09697000  0.61734000  1.0 -0.1512774698
C  C12  1  0.24135000  0.13575000  0.62074000  1.0 -0.070735354
C  C13  1  0.34643000  0.80891000  0.56471000  1.0 -0.0504241594
C  C14  1  0.33622000  0.83590000  0.54446000  1.0 0.2200744748
C  C15  1  0.29478000  0.79688000  0.52941000  1.0 -0.0209324261
C  C16  1  0.26353000  0.73089000  0.53460000  1.0 -0.1795623076
C  C17  1  0.27373000  0.70389000  0.55485000  1.0 0.0094906118
C  C18  1  0.31518000  0.74290000  0.56991000  1.0 0.0425093074
C  C19  1  0.13870000  0.17910000  0.60840000  1.0 0.640488945
C  C20  1  0.26320000  0.87840000  0.43997000  1.0 0.6560748642
C  C21  1  0.47573000  0.01697000  0.59739000  1.0 0.0094906118
C  C22  1  0.46319000  0.94801000  0.59194000  1.0 0.0425093074
C  C23  1  0.39687000  0.91603000  0.58747000  1.0 -0.059756327
C  C24  1  0.34310000  0.95300000  0.58846000  1.0 0.2200744748
C  C25  1  0.35565000  0.02197000  0.59392000  1.0 -0.0282812308
C  C26  1  0.42197000  0.05395000  0.59838000  1.0 -0.1795623076
C  C27  1  0.39510000  0.84090000  0.58255000  1.0 0.1650678193
C  C28  1  0.27488000  0.85906000  0.46343000  1.0 -0.0209324261
C  C29  1  0.29419000  0.79613000  0.46781000  1.0 -0.0919487583
C  C30  1  0.30087000  0.77565000  0.48909000  1.0 -0.1418132705
C  C31  1  0.28822000  0.81810000  0.50598000  1.0 0.1097060094
C  C32  1  0.26890000  0.88104000  0.50160000  1.0 -0.1072474222
C  C33  1  0.26222000  0.90152000  0.48032000  1.0 -0.0980793505
C  C34  1  0.86481000  0.89009000  0.56001000  1.0 0.1301387882
C  C35  1  0.85009000  0.89335000  0.58191000  1.0 -0.1512774698
C  C36  1  0.87022000  0.95382000  0.59326000  1.0 -0.059756327
C  C37  1  0.90507000  0.01103000  0.58271000  1.0 -0.0919487583
C  C38  1  0.91978000  0.00778000  0.56081000  1.0 -0.059756327
C  C39  1  0.89965000  0.94731000  0.54945000  1.0 -0.1203229476
C  C40  1  0.03426000  0.03964000  0.67218000  1.0 -0.0504241594
C  C41  1  0.10229000  0.04045000  0.67781000  1.0 -0.0791726645
C  C42  1  0.12182000  0.98386000  0.68780000  1.0 -0.1203229476
C  C43  1  0.07333000  0.92645000  0.69216000  1.0 0.1195487154
C  C44  1  0.00529000  0.92565000  0.68654000  1.0 -0.1512774698
C  C45  1  0.98576000  0.98224000  0.67654000  1.0 -0.0919487583
C  C46  1  0.59348000  0.02630000  0.61448000  1.0 -0.1512774698
C  C47  1  0.54730000  0.05592000  0.60224000  1.0 0.1001292413
C  C48  1  0.56598000  0.12180000  0.59417000  1.0 -0.1512774698
C  C49  1  0.63082000  0.15808000  0.59836000  1.0 -0.0791726645
C  C50  1  0.67700000  0.12846000  0.61061000  1.0 -0.0282812308
C  C51  1  0.65833000  0.06257000  0.61867000  1.0 -0.070735354
C  C52  1  0.93234000  0.57892000  0.57866000  1.0 -0.0791726645
C  C53  1  0.88341000  0.52059000  0.58111000  1.0 -0.0421666286
C  C54  1  0.81722000  0.51990000  0.57357000  1.0 -0.070735354
C  C55  1  0.79997000  0.57753000  0.56357000  1.0 -0.1512774698
C  C56  1  0.84890000  0.63586000  0.56112000  1.0 0.1001292413
C  C57  1  0.91508000  0.63656000  0.56866000  1.0 -0.1512774698
C  C58  1  0.51013000  0.89787000  0.59011000  1.0 -0.1914590125
C  C59  1  0.01603000  0.55117000  0.67028000  1.0 -0.0791726645
C  C60  1  0.00226000  0.55652000  0.69219000  1.0 -0.059756327
C  C61  1  0.02228000  0.61824000  0.70288000  1.0 -0.1512774698
C  C62  1  0.05607000  0.67461000  0.69167000  1.0 0.1097060094
C  C63  1  0.06984000  0.66926000  0.66977000  1.0 -0.1557176585
C  C64  1  0.04982000  0.60754000  0.65907000  1.0 -0.059756327
C  C65  1  0.47109000  0.83711000  0.57628000  1.0 -0.1979480448
C  C66  1  0.00765000  0.09675000  0.66207000  1.0 0.6227611725
C  C67  1  0.74775000  0.16625000  0.61428000  1.0 0.640488945
C  C68  1  0.08176000  0.74158000  0.70350000  1.0 -0.0028840121
C  C69  1  0.11951000  0.74523000  0.72252000  1.0 0.0425093074
C  C70  1  0.14533000  0.80853000  0.73148000  1.0 -0.0504241594
C  C71  1  0.13340000  0.86818000  0.72142000  1.0 0.2200744748
C  C72  1  0.09564000  0.86452000  0.70240000  1.0 -0.0209324261
C  C73  1  0.06982000  0.80122000  0.69344000  1.0 -0.1795623076
C  C74  1  0.66050000  0.74690000  0.50465000  1.0 -0.1979480448
C  C75  1  0.99750000  0.48510000  0.66060000  1.0 0.6318236192
C  C76  1  0.36690000  0.79810000  0.60270000  1.0 -0.1979480448
C  C77  1  0.27160000  0.82340000  0.74310000  1.0 -0.1979480448
C  C78  1  0.90555000  0.45965000  0.59085000  1.0 0.640488945
C  C79  1  0.63410000  0.76010000  0.48234000  1.0 -0.1914590125
C  C80  1  0.34120000  0.72740000  0.59218000  1.0 -0.1914590125
C  C81  1  0.16980000  0.39360000  0.64341000  1.0 0.6508432229
C  C82  1  0.67280000  0.42280000  0.63517000  1.0 -0.0791726645
C  C83  1  0.72273000  0.41607000  0.65045000  1.0 -0.0504241594
C  C84  1  0.72182000  0.44778000  0.67045000  1.0 -0.0791726645
C  C85  1  0.67110000  0.48630000  0.67519000  1.0 -0.133836108
C  C86  1  0.62124000  0.49316000  0.65992000  1.0 0.1195487154
C  C87  1  0.62204000  0.46136000  0.63991000  1.0 -0.1512774698
C  C88  1  0.31410000  0.85490000  0.76519000  1.0 -0.2063416733
C  C89  1  0.24249000  0.63109000  0.56204000  1.0 0.1001292413
C  C90  1  0.28146000  0.58396000  0.56968000  1.0 -0.1512774698
C  C91  1  0.24953000  0.52027000  0.57693000  1.0 -0.0980793505
C  C92  1  0.17861000  0.50381000  0.57655000  1.0 -0.0028840121
C  C93  1  0.13961000  0.55097000  0.56891000  1.0 -0.0919487583
C  C94  1  0.17154000  0.61466000  0.56165000  1.0 -0.1512774698
C  C95  1  0.26164000  0.49896000  0.64031000  1.0 -0.070735354
C  C96  1  0.32558000  0.53358000  0.64637000  1.0 -0.1418132705
C  C97  1  0.36966000  0.50006000  0.65825000  1.0 0.1001292413
C  C98  1  0.34976000  0.43204000  0.66407000  1.0 -0.1512774698
C  C99  1  0.28580000  0.39740000  0.65801000  1.0 -0.0791726645
C  C100  1  0.24174000  0.43086000  0.64613000  1.0 -0.0209324261
C  C101  1  0.78020000  0.37920000  0.64614000  1.0 0.6508432229
C  C102  1  0.49520000  0.50420000  0.65715000  1.0 -0.1735982026
C  C103  1  0.44030000  0.53730000  0.66165000  1.0 0.0001689115
C  C104  1  0.45066000  0.59874000  0.67299000  1.0 0.0700975706
C  C105  1  0.51600000  0.62700000  0.67982000  1.0 -0.1203229476
C  C106  1  0.57100000  0.59380000  0.67532000  1.0 0.2412390554
C  C107  1  0.56063000  0.53237000  0.66399000  1.0 -0.0282812308
C  C108  1  0.69280000  0.94920000  0.81169000  1.0 0.6318236192
C  C109  1  0.53060000  0.69140000  0.69190000  1.0 0.1498059829
C  C110  1  0.69360000  0.84680000  0.78586000  1.0 -0.0919487583
C  C111  1  0.67577000  0.91037000  0.79023000  1.0 -0.0028840121
C  C112  1  0.64109000  0.94251000  0.77482000  1.0 -0.0980793505
C  C113  1  0.62420000  0.91100000  0.75502000  1.0 -0.1418132705
C  C114  1  0.64203000  0.84743000  0.75064000  1.0 0.062556648
C  C115  1  0.67668000  0.81532000  0.76606000  1.0 -0.1418132705
C  C116  1  0.92700000  0.07340000  0.59349000  1.0 0.6227611725
C  C117  1  0.54580000  0.64980000  0.71380000  1.0 -0.2220577511
C  C118  1  0.54540000  0.70220000  0.73160000  1.0 -0.1914590125
C  C119  1  0.40420000  0.65180000  0.67900000  1.0 -0.1914590125
C  C120  1  0.57300000  0.76600000  0.69512000  1.0 -0.059756327
C  C121  1  0.58030000  0.76210000  0.71741000  1.0 0.0195017376
C  C122  1  0.62230000  0.81410000  0.72841000  1.0 0.0253381742
C  C123  1  0.65690000  0.86990000  0.71712000  1.0 -0.2063416733
C  C124  1  0.64950000  0.87370000  0.69483000  1.0 -0.0504241594
C  C125  1  0.60760000  0.82180000  0.68383000  1.0 0.2412390554
C  C126  1  0.14050000  0.43310000  0.58300000  1.0 0.5998345141
C  C127  1  0.64820000  0.98400000  0.68296000  1.0 -0.1203229476
C  C128  1  0.68050000  0.04690000  0.67527000  1.0 -0.1203229476
C  C129  1  0.75090000  0.05850000  0.67209000  1.0 -0.0209324261
C  C130  1  0.78900000  0.00720000  0.67660000  1.0 -0.0980793505
C  C131  1  0.75660000  0.94420000  0.68429000  1.0 -0.1203229476
C  C132  1  0.68620000  0.93260000  0.68747000  1.0 0.0850367074
C  C133  1  0.78110000  0.12610000  0.66425000  1.0 0.5841615622
C  C134  1  0.45620000  0.71500000  0.68700000  1.0 -0.1914590125
C  C135  1  0.16633000  0.30095000  0.04887000  1.0 0.0094906118
C  C136  1  0.14270000  0.23784000  0.05830000  1.0 -0.1795623076
C  C137  1  0.15703000  0.17829000  0.04876000  1.0 -0.0209324261
C  C138  1  0.19497000  0.18183000  0.02978000  1.0 0.2135002029
C  C139  1  0.21860000  0.24494000  0.02035000  1.0 -0.059756327
C  C140  1  0.20428000  0.30450000  0.02989000  1.0 0.0425093074
C  C141  1  0.80666000  0.85968000  0.10466000  1.0 -0.070735354
C  C142  1  0.80323000  0.89389000  0.08518000  1.0 -0.070735354
C  C143  1  0.75176000  0.93268000  0.08178000  1.0 -0.1203229476
C  C144  1  0.70373000  0.93725000  0.09786000  1.0 0.1195487154
C  C145  1  0.70717000  0.90303000  0.11734000  1.0 -0.1512774698
C  C146  1  0.75865000  0.86425000  0.12074000  1.0 -0.070735354
C  C147  1  0.65357000  0.19109000  0.06471000  1.0 -0.0504241594
C  C148  1  0.66378000  0.16410000  0.04446000  1.0 0.2200744748
C  C149  1  0.70522000  0.20312000  0.02941000  1.0 -0.0209324261
C  C150  1  0.73647000  0.26911000  0.03460000  1.0 -0.1795623076
C  C151  1  0.72627000  0.29611000  0.05485000  1.0 0.0094906118
C  C152  1  0.68482000  0.25710000  0.06991000  1.0 0.0425093074
C  C153  1  0.86130000  0.82090000  0.10840000  1.0 0.640488945
C  C154  1  0.73680000  0.12160000  0.93997000  1.0 0.6560748642
C  C155  1  0.52427000  0.98303000  0.09739000  1.0 0.0094906118
C  C156  1  0.53681000  0.05199000  0.09194000  1.0 0.0425093074
C  C157  1  0.60313000  0.08397000  0.08747000  1.0 -0.059756327
C  C158  1  0.65690000  0.04700000  0.08846000  1.0 0.2200744748
C  C159  1  0.64435000  0.97803000  0.09392000  1.0 -0.0282812308
C  C160  1  0.57803000  0.94605000  0.09838000  1.0 -0.1795623076
C  C161  1  0.60490000  0.15910000  0.08255000  1.0 0.1650678193
C  C162  1  0.72512000  0.14094000  0.96343000  1.0 -0.0209324261
C  C163  1  0.70581000  0.20387000  0.96781000  1.0 -0.0919487583
C  C164  1  0.69913000  0.22435000  0.98909000  1.0 -0.1418132705
C  C165  1  0.71178000  0.18190000  0.00598000  1.0 0.1097060094
C  C166  1  0.73110000  0.11896000  0.00160000  1.0 -0.1072474222
C  C167  1  0.73778000  0.09848000  0.98032000  1.0 -0.0980793505
C  C168  1  0.13519000  0.10991000  0.06001000  1.0 0.1301387882
C  C169  1  0.14991000  0.10665000  0.08191000  1.0 -0.1512774698
C  C170  1  0.12978000  0.04618000  0.09326000  1.0 -0.059756327
C  C171  1  0.09493000  0.98897000  0.08271000  1.0 -0.0919487583
C  C172  1  0.08022000  0.99222000  0.06081000  1.0 -0.059756327
C  C173  1  0.10035000  0.05269000  0.04945000  1.0 -0.1203229476
C  C174  1  0.96574000  0.96036000  0.17218000  1.0 -0.0504241594
C  C175  1  0.89771000  0.95955000  0.17781000  1.0 -0.0791726645
C  C176  1  0.87818000  0.01614000  0.18780000  1.0 -0.1203229476
C  C177  1  0.92667000  0.07355000  0.19216000  1.0 0.1195487154
C  C178  1  0.99471000  0.07435000  0.18654000  1.0 -0.1512774698
C  C179  1  0.01424000  0.01776000  0.17654000  1.0 -0.0919487583
C  C180  1  0.40652000  0.97370000  0.11448000  1.0 -0.1418132705
C  C181  1  0.45270000  0.94408000  0.10224000  1.0 0.1001292413
C  C182  1  0.43402000  0.87820000  0.09417000  1.0 -0.1512774698
C  C183  1  0.36918000  0.84192000  0.09836000  1.0 -0.0791726645
C  C184  1  0.32300000  0.87154000  0.11061000  1.0 -0.0282812308
C  C185  1  0.34167000  0.93743000  0.11867000  1.0 -0.070735354
C  C186  1  0.06766000  0.42108000  0.07866000  1.0 -0.0791726645
C  C187  1  0.11659000  0.47941000  0.08111000  1.0 -0.0421666286
C  C188  1  0.18278000  0.48010000  0.07357000  1.0 -0.070735354
C  C189  1  0.20003000  0.42247000  0.06357000  1.0 -0.1512774698
C  C190  1  0.15110000  0.36414000  0.06112000  1.0 0.1001292413
C  C191  1  0.08492000  0.36344000  0.06866000  1.0 -0.1512774698
C  C192  1  0.48987000  0.10213000  0.09011000  1.0 -0.1914590125
C  C193  1  0.98397000  0.44883000  0.17028000  1.0 -0.0791726645
C  C194  1  0.99774000  0.44348000  0.19219000  1.0 -0.059756327
C  C195  1  0.97772000  0.38176000  0.20288000  1.0 -0.1512774698
C  C196  1  0.94393000  0.32539000  0.19167000  1.0 0.1097060094
C  C197  1  0.93016000  0.33074000  0.16977000  1.0 -0.1557176585
C  C198  1  0.95018000  0.39246000  0.15907000  1.0 -0.059756327
C  C199  1  0.52891000  0.16289000  0.07628000  1.0 -0.1979480448
C  C200  1  0.99235000  0.90325000  0.16207000  1.0 0.6227611725
C  C201  1  0.25225000  0.83375000  0.11428000  1.0 0.640488945
C  C202  1  0.91824000  0.25842000  0.20350000  1.0 0.0001689115
C  C203  1  0.88049000  0.25477000  0.22252000  1.0 0.0425093074
C  C204  1  0.85467000  0.19147000  0.23148000  1.0 -0.0421666286
C  C205  1  0.86660000  0.13182000  0.22142000  1.0 0.2200744748
C  C206  1  0.90436000  0.13548000  0.20240000  1.0 -0.0209324261
C  C207  1  0.93018000  0.19878000  0.19344000  1.0 -0.1795623076
C  C208  1  0.33950000  0.25310000  0.00465000  1.0 -0.1979480448
C  C209  1  0.00250000  0.51490000  0.16060000  1.0 0.6318236192
C  C210  1  0.63310000  0.20190000  0.10270000  1.0 -0.1979480448
C  C211  1  0.72840000  0.17660000  0.24310000  1.0 -0.1979480448
C  C212  1  0.09445000  0.54035000  0.09085000  1.0 0.640488945
C  C213  1  0.36590000  0.23990000  0.98234000  1.0 -0.1914590125
C  C214  1  0.65880000  0.27260000  0.09218000  1.0 -0.1914590125
C  C215  1  0.83020000  0.60640000  0.14341000  1.0 0.6508432229
C  C216  1  0.32720000  0.57720000  0.13517000  1.0 -0.0791726645
C  C217  1  0.27727000  0.58393000  0.15045000  1.0 -0.0504241594
C  C218  1  0.27818000  0.55222000  0.17045000  1.0 -0.0791726645
C  C219  1  0.32890000  0.51370000  0.17519000  1.0 -0.133836108
C  C220  1  0.37876000  0.50684000  0.15992000  1.0 0.1195487154
C  C221  1  0.37796000  0.53864000  0.13991000  1.0 -0.1512774698
C  C222  1  0.68590000  0.14510000  0.26519000  1.0 -0.2063416733
C  C223  1  0.75751000  0.36891000  0.06204000  1.0 0.1001292413
C  C224  1  0.71854000  0.41604000  0.06968000  1.0 -0.1512774698
C  C225  1  0.75047000  0.47973000  0.07693000  1.0 -0.0980793505
C  C226  1  0.82139000  0.49619000  0.07655000  1.0 -0.0028840121
C  C227  1  0.86039000  0.44903000  0.06891000  1.0 -0.0919487583
C  C228  1  0.82846000  0.38534000  0.06165000  1.0 -0.1512774698
C  C229  1  0.73836000  0.50104000  0.14031000  1.0 -0.070735354
C  C230  1  0.67442000  0.46642000  0.14637000  1.0 -0.1418132705
C  C231  1  0.63034000  0.49994000  0.15825000  1.0 0.1001292413
C  C232  1  0.65024000  0.56796000  0.16407000  1.0 -0.1512774698
C  C233  1  0.71420000  0.60260000  0.15801000  1.0 -0.0791726645
C  C234  1  0.75826000  0.56914000  0.14613000  1.0 -0.0209324261
C  C235  1  0.21980000  0.62080000  0.14614000  1.0 0.6508432229
C  C236  1  0.50480000  0.49580000  0.15715000  1.0 -0.1735982026
C  C237  1  0.55970000  0.46270000  0.16165000  1.0 0.0001689115
C  C238  1  0.54934000  0.40126000  0.17299000  1.0 0.0700975706
C  C239  1  0.48400000  0.37300000  0.17982000  1.0 -0.1203229476
C  C240  1  0.42900000  0.40620000  0.17532000  1.0 0.2412390554
C  C241  1  0.43937000  0.46763000  0.16399000  1.0 -0.0282812308
C  C242  1  0.30720000  0.05080000  0.31169000  1.0 0.6318236192
C  C243  1  0.46940000  0.30860000  0.19190000  1.0 0.1498059829
C  C244  1  0.30640000  0.15320000  0.28586000  1.0 -0.0919487583
C  C245  1  0.32423000  0.08963000  0.29023000  1.0 -0.0028840121
C  C246  1  0.35891000  0.05749000  0.27482000  1.0 -0.0980793505
C  C247  1  0.37580000  0.08900000  0.25502000  1.0 -0.1418132705
C  C248  1  0.35797000  0.15257000  0.25064000  1.0 0.062556648
C  C249  1  0.32332000  0.18468000  0.26606000  1.0 -0.1418132705
C  C250  1  0.07300000  0.92660000  0.09349000  1.0 0.6227611725
C  C251  1  0.45420000  0.35020000  0.21380000  1.0 -0.2220577511
C  C252  1  0.45460000  0.29780000  0.23160000  1.0 -0.1914590125
C  C253  1  0.59580000  0.34820000  0.17900000  1.0 -0.1914590125
C  C254  1  0.42700000  0.23400000  0.19512000  1.0 -0.059756327
C  C255  1  0.41970000  0.23790000  0.21741000  1.0 0.0195017376
C  C256  1  0.37770000  0.18590000  0.22841000  1.0 0.0253381742
C  C257  1  0.34310000  0.13010000  0.21712000  1.0 -0.2063416733
C  C258  1  0.35050000  0.12630000  0.19483000  1.0 -0.0504241594
C  C259  1  0.39240000  0.17820000  0.18383000  1.0 0.2412390554
C  C260  1  0.85950000  0.56690000  0.08300000  1.0 0.5998345141
C  C261  1  0.35180000  0.01600000  0.18296000  1.0 -0.1203229476
C  C262  1  0.31950000  0.95310000  0.17527000  1.0 -0.1203229476
C  C263  1  0.24910000  0.94150000  0.17209000  1.0 -0.0209324261
C  C264  1  0.21100000  0.99280000  0.17660000  1.0 -0.0980793505
C  C265  1  0.24340000  0.05580000  0.18429000  1.0 -0.1203229476
C  C266  1  0.31380000  0.06740000  0.18747000  1.0 0.0846790796
C  C267  1  0.21890000  0.87390000  0.16425000  1.0 0.5841615622
C  C268  1  0.54380000  0.28500000  0.18700000  1.0 -0.1914590125
C  C269  1  0.30095000  0.16633000  0.95113000  1.0 0.0094906118
C  C270  1  0.23784000  0.14270000  0.94170000  1.0 -0.1795623076
C  C271  1  0.17829000  0.15703000  0.95124000  1.0 -0.0209324261
C  C272  1  0.18183000  0.19497000  0.97022000  1.0 0.2135002029
C  C273  1  0.24494000  0.21860000  0.97965000  1.0 -0.059756327
C  C274  1  0.30450000  0.20428000  0.97011000  1.0 0.0425093074
C  C275  1  0.85968000  0.80666000  0.89534000  1.0 -0.070735354
C  C276  1  0.89389000  0.80323000  0.91482000  1.0 -0.070735354
C  C277  1  0.93268000  0.75176000  0.91822000  1.0 -0.1203229476
C  C278  1  0.93725000  0.70373000  0.90214000  1.0 0.1195487154
C  C279  1  0.90303000  0.70717000  0.88266000  1.0 -0.1512774698
C  C280  1  0.86425000  0.75865000  0.87926000  1.0 -0.070735354
C  C281  1  0.19109000  0.65357000  0.93529000  1.0 -0.0504241594
C  C282  1  0.16410000  0.66378000  0.95554000  1.0 0.2200744748
C  C283  1  0.20312000  0.70522000  0.97059000  1.0 -0.0209324261
C  C284  1  0.26911000  0.73647000  0.96540000  1.0 -0.1795623076
C  C285  1  0.29611000  0.72627000  0.94515000  1.0 0.0094906118
C  C286  1  0.25710000  0.68482000  0.93009000  1.0 0.0425093074
C  C287  1  0.82090000  0.86130000  0.89160000  1.0 0.640488945
C  C288  1  0.12160000  0.73680000  0.06003000  1.0 0.6560748642
C  C289  1  0.98303000  0.52427000  0.90261000  1.0 0.0094906118
C  C290  1  0.05199000  0.53681000  0.90806000  1.0 0.0425093074
C  C291  1  0.08397000  0.60313000  0.91253000  1.0 -0.059756327
C  C292  1  0.04700000  0.65690000  0.91154000  1.0 0.2200744748
C  C293  1  0.97803000  0.64435000  0.90608000  1.0 -0.0282812308
C  C294  1  0.94605000  0.57803000  0.90162000  1.0 -0.1795623076
C  C295  1  0.15910000  0.60490000  0.91745000  1.0 0.1650678193
C  C296  1  0.14094000  0.72512000  0.03657000  1.0 -0.0209324261
C  C297  1  0.20387000  0.70581000  0.03219000  1.0 -0.0919487583
C  C298  1  0.22435000  0.69913000  0.01091000  1.0 -0.1418132705
C  C299  1  0.18190000  0.71178000  0.99402000  1.0 0.1097060094
C  C300  1  0.11896000  0.73110000  0.99840000  1.0 -0.1072474222
C  C301  1  0.09848000  0.73778000  0.01968000  1.0 -0.0980793505
C  C302  1  0.10991000  0.13519000  0.93999000  1.0 0.1301387882
C  C303  1  0.10665000  0.14991000  0.91809000  1.0 -0.1512774698
C  C304  1  0.04618000  0.12978000  0.90674000  1.0 -0.059756327
C  C305  1  0.98897000  0.09493000  0.91729000  1.0 -0.0919487583
C  C306  1  0.99222000  0.08022000  0.93919000  1.0 -0.059756327
C  C307  1  0.05269000  0.10035000  0.95055000  1.0 -0.1203229476
C  C308  1  0.96036000  0.96574000  0.82782000  1.0 -0.0504241594
C  C309  1  0.95955000  0.89771000  0.82219000  1.0 -0.0791726645
C  C310  1  0.01614000  0.87818000  0.81220000  1.0 -0.1203229476
C  C311  1  0.07355000  0.92667000  0.80784000  1.0 0.1195487154
C  C312  1  0.07435000  0.99471000  0.81346000  1.0 -0.1512774698
C  C313  1  0.01776000  0.01424000  0.82346000  1.0 -0.0919487583
C  C314  1  0.97370000  0.40652000  0.88552000  1.0 -0.1418132705
C  C315  1  0.94408000  0.45270000  0.89776000  1.0 0.1001292413
C  C316  1  0.87820000  0.43402000  0.90583000  1.0 -0.1512774698
C  C317  1  0.84192000  0.36918000  0.90164000  1.0 -0.0791726645
C  C318  1  0.87154000  0.32300000  0.88939000  1.0 -0.0282812308
C  C319  1  0.93743000  0.34167000  0.88133000  1.0 -0.070735354
C  C320  1  0.42108000  0.06766000  0.92134000  1.0 -0.0791726645
C  C321  1  0.47941000  0.11659000  0.91889000  1.0 -0.0421666286
C  C322  1  0.48010000  0.18278000  0.92643000  1.0 -0.070735354
C  C323  1  0.42247000  0.20003000  0.93643000  1.0 -0.1512774698
C  C324  1  0.36414000  0.15110000  0.93888000  1.0 0.1001292413
C  C325  1  0.36344000  0.08492000  0.93134000  1.0 -0.1512774698
C  C326  1  0.10213000  0.48987000  0.90989000  1.0 -0.1914590125
C  C327  1  0.44883000  0.98397000  0.82972000  1.0 -0.0791726645
C  C328  1  0.44348000  0.99774000  0.80781000  1.0 -0.059756327
C  C329  1  0.38176000  0.97772000  0.79712000  1.0 -0.1512774698
C  C330  1  0.32539000  0.94393000  0.80833000  1.0 0.1097060094
C  C331  1  0.33074000  0.93016000  0.83023000  1.0 -0.1557176585
C  C332  1  0.39246000  0.95018000  0.84093000  1.0 -0.059756327
C  C333  1  0.16289000  0.52891000  0.92372000  1.0 -0.1979480448
C  C334  1  0.90325000  0.99235000  0.83793000  1.0 0.6227611725
C  C335  1  0.83375000  0.25225000  0.88572000  1.0 0.640488945
C  C336  1  0.25842000  0.91824000  0.79650000  1.0 -0.0028840121
C  C337  1  0.25477000  0.88049000  0.77748000  1.0 0.0425093074
C  C338  1  0.19147000  0.85467000  0.76852000  1.0 -0.0504241594
C  C339  1  0.13182000  0.86660000  0.77858000  1.0 0.2200744748
C  C340  1  0.13548000  0.90436000  0.79760000  1.0 -0.0209324261
C  C341  1  0.19878000  0.93018000  0.80656000  1.0 -0.1795623076
C  C342  1  0.25310000  0.33950000  0.99535000  1.0 -0.1979480448
C  C343  1  0.51490000  0.00250000  0.83940000  1.0 0.6318236192
C  C344  1  0.20190000  0.63310000  0.89730000  1.0 -0.1979480448
C  C345  1  0.17660000  0.72840000  0.75690000  1.0 -0.1979480448
C  C346  1  0.54035000  0.09445000  0.90915000  1.0 0.640488945
C  C347  1  0.23990000  0.36590000  0.01766000  1.0 -0.1914590125
C  C348  1  0.27260000  0.65880000  0.90782000  1.0 -0.1914590125
C  C349  1  0.60640000  0.83020000  0.85659000  1.0 0.6508432229
C  C350  1  0.57720000  0.32720000  0.86483000  1.0 -0.0791726645
C  C351  1  0.58393000  0.27727000  0.84955000  1.0 -0.0504241594
C  C352  1  0.55222000  0.27818000  0.82955000  1.0 -0.0791726645
C  C353  1  0.51370000  0.32890000  0.82481000  1.0 -0.133836108
C  C354  1  0.50684000  0.37876000  0.84008000  1.0 0.1195487154
C  C355  1  0.53864000  0.37796000  0.86009000  1.0 -0.1512774698
C  C356  1  0.14510000  0.68590000  0.73481000  1.0 -0.2063416733
C  C357  1  0.36891000  0.75751000  0.93796000  1.0 0.1001292413
C  C358  1  0.41604000  0.71854000  0.93032000  1.0 -0.1512774698
C  C359  1  0.47973000  0.75047000  0.92307000  1.0 -0.0980793505
C  C360  1  0.49619000  0.82139000  0.92345000  1.0 -0.0028840121
C  C361  1  0.44903000  0.86039000  0.93109000  1.0 -0.0919487583
C  C362  1  0.38534000  0.82846000  0.93835000  1.0 -0.1512774698
C  C363  1  0.50104000  0.73836000  0.85969000  1.0 -0.070735354
C  C364  1  0.46642000  0.67442000  0.85363000  1.0 -0.1418132705
C  C365  1  0.49994000  0.63034000  0.84175000  1.0 0.1001292413
C  C366  1  0.56796000  0.65024000  0.83593000  1.0 -0.1512774698
C  C367  1  0.60260000  0.71420000  0.84199000  1.0 -0.0791726645
C  C368  1  0.56914000  0.75826000  0.85387000  1.0 -0.0209324261
C  C369  1  0.62080000  0.21980000  0.85386000  1.0 0.6508432229
C  C370  1  0.49580000  0.50480000  0.84285000  1.0 -0.1735982026
C  C371  1  0.46270000  0.55970000  0.83835000  1.0 0.0001689115
C  C372  1  0.40126000  0.54934000  0.82701000  1.0 0.0700975706
C  C373  1  0.37300000  0.48400000  0.82018000  1.0 -0.1203229476
C  C374  1  0.40620000  0.42900000  0.82468000  1.0 0.2412390554
C  C375  1  0.46763000  0.43937000  0.83601000  1.0 -0.0282812308
C  C376  1  0.05080000  0.30720000  0.68831000  1.0 0.6318236192
C  C377  1  0.30860000  0.46940000  0.80810000  1.0 0.1498059829
C  C378  1  0.15320000  0.30640000  0.71414000  1.0 -0.0919487583
C  C379  1  0.08963000  0.32423000  0.70977000  1.0 -0.0028840121
C  C380  1  0.05749000  0.35891000  0.72518000  1.0 -0.0980793505
C  C381  1  0.08900000  0.37580000  0.74498000  1.0 -0.1418132705
C  C382  1  0.15257000  0.35797000  0.74936000  1.0 0.062556648
C  C383  1  0.18468000  0.32332000  0.73394000  1.0 -0.1418132705
C  C384  1  0.92660000  0.07300000  0.90651000  1.0 0.6227611725
C  C385  1  0.35020000  0.45420000  0.78620000  1.0 -0.2220577511
C  C386  1  0.29780000  0.45460000  0.76840000  1.0 -0.1914590125
C  C387  1  0.34820000  0.59580000  0.82100000  1.0 -0.1914590125
C  C388  1  0.23400000  0.42700000  0.80488000  1.0 -0.059756327
C  C389  1  0.23790000  0.41970000  0.78259000  1.0 0.0195017376
C  C390  1  0.18590000  0.37770000  0.77159000  1.0 0.0253381742
C  C391  1  0.13010000  0.34310000  0.78288000  1.0 -0.2063416733
C  C392  1  0.12630000  0.35050000  0.80517000  1.0 -0.0504241594
C  C393  1  0.17820000  0.39240000  0.81617000  1.0 0.2412390554
C  C394  1  0.56690000  0.85950000  0.91700000  1.0 0.5998345141
C  C395  1  0.01600000  0.35180000  0.81704000  1.0 -0.1203229476
C  C396  1  0.95310000  0.31950000  0.82473000  1.0 -0.1203229476
C  C397  1  0.94150000  0.24910000  0.82791000  1.0 -0.0209324261
C  C398  1  0.99280000  0.21100000  0.82340000  1.0 -0.0980793505
C  C399  1  0.05580000  0.24340000  0.81571000  1.0 -0.1203229476
C  C400  1  0.06740000  0.31380000  0.81253000  1.0 0.0850367074
C  C401  1  0.87390000  0.21890000  0.83575000  1.0 0.5841615622
C  C402  1  0.28500000  0.54380000  0.81300000  1.0 -0.1914590125
C  C403  1  0.69905000  0.83367000  0.45113000  1.0 0.0094906118
C  C404  1  0.76216000  0.85730000  0.44170000  1.0 -0.1795623076
C  C405  1  0.82171000  0.84297000  0.45124000  1.0 -0.0209324261
C  C406  1  0.81817000  0.80503000  0.47022000  1.0 0.2135002029
C  C407  1  0.75506000  0.78140000  0.47965000  1.0 -0.059756327
C  C408  1  0.69550000  0.79572000  0.47011000  1.0 0.0425093074
C  C409  1  0.14032000  0.19334000  0.39534000  1.0 -0.070735354
C  C410  1  0.10611000  0.19677000  0.41482000  1.0 -0.070735354
C  C411  1  0.06732000  0.24824000  0.41822000  1.0 -0.1203229476
C  C412  1  0.06275000  0.29627000  0.40214000  1.0 0.1195487154
C  C413  1  0.09697000  0.29283000  0.38266000  1.0 -0.1512774698
C  C414  1  0.13575000  0.24135000  0.37926000  1.0 -0.070735354
C  C415  1  0.80891000  0.34643000  0.43529000  1.0 -0.0504241594
C  C416  1  0.83590000  0.33622000  0.45554000  1.0 0.2200744748
C  C417  1  0.79688000  0.29478000  0.47059000  1.0 -0.0209324261
C  C418  1  0.73089000  0.26353000  0.46540000  1.0 -0.1795623076
C  C419  1  0.70389000  0.27373000  0.44515000  1.0 0.0094906118
C  C420  1  0.74290000  0.31518000  0.43009000  1.0 0.0425093074
C  C421  1  0.17910000  0.13870000  0.39160000  1.0 0.640488945
C  C422  1  0.87840000  0.26320000  0.56003000  1.0 0.6560748642
C  C423  1  0.01697000  0.47573000  0.40261000  1.0 0.0094906118
C  C424  1  0.94801000  0.46319000  0.40806000  1.0 0.0425093074
C  C425  1  0.91603000  0.39687000  0.41253000  1.0 -0.059756327
C  C426  1  0.95300000  0.34310000  0.41154000  1.0 0.2200744748
C  C427  1  0.02197000  0.35565000  0.40608000  1.0 -0.0282812308
C  C428  1  0.05395000  0.42197000  0.40162000  1.0 -0.1795623076
C  C429  1  0.84090000  0.39510000  0.41745000  1.0 0.1585389003
C  C430  1  0.85906000  0.27488000  0.53657000  1.0 -0.0209324261
C  C431  1  0.79613000  0.29419000  0.53219000  1.0 -0.0919487583
C  C432  1  0.77565000  0.30087000  0.51091000  1.0 -0.1418132705
C  C433  1  0.81810000  0.28822000  0.49402000  1.0 0.1097060094
C  C434  1  0.88104000  0.26890000  0.49840000  1.0 -0.1072474222
C  C435  1  0.90152000  0.26222000  0.51968000  1.0 -0.0980793505
C  C436  1  0.89009000  0.86481000  0.43999000  1.0 0.1301387882
C  C437  1  0.89335000  0.85009000  0.41809000  1.0 -0.1512774698
C  C438  1  0.95382000  0.87022000  0.40674000  1.0 -0.059756327
C  C439  1  0.01103000  0.90507000  0.41729000  1.0 -0.0919487583
C  C440  1  0.00778000  0.91978000  0.43919000  1.0 -0.059756327
C  C441  1  0.94731000  0.89965000  0.45055000  1.0 -0.1203229476
C  C442  1  0.03964000  0.03426000  0.32782000  1.0 -0.0504241594
C  C443  1  0.04045000  0.10229000  0.32219000  1.0 -0.0791726645
C  C444  1  0.98386000  0.12182000  0.31220000  1.0 -0.1203229476
C  C445  1  0.92645000  0.07333000  0.30784000  1.0 0.1195487154
C  C446  1  0.92565000  0.00529000  0.31346000  1.0 -0.1512774698
C  C447  1  0.98224000  0.98576000  0.32346000  1.0 -0.0919487583
C  C448  1  0.02630000  0.59348000  0.38552000  1.0 -0.1418132705
C  C449  1  0.05592000  0.54730000  0.39776000  1.0 0.1001292413
C  C450  1  0.12180000  0.56598000  0.40583000  1.0 -0.1512774698
C  C451  1  0.15808000  0.63082000  0.40164000  1.0 -0.0791726645
C  C452  1  0.12846000  0.67700000  0.38939000  1.0 -0.0282812308
C  C453  1  0.06257000  0.65833000  0.38133000  1.0 -0.070735354
C  C454  1  0.57892000  0.93234000  0.42134000  1.0 -0.0791726645
C  C455  1  0.52059000  0.88341000  0.41889000  1.0 -0.0421666286
C  C456  1  0.51990000  0.81722000  0.42643000  1.0 -0.070735354
C  C457  1  0.57753000  0.79997000  0.43643000  1.0 -0.1512774698
C  C458  1  0.63586000  0.84890000  0.43888000  1.0 0.1001292413
C  C459  1  0.63656000  0.91508000  0.43134000  1.0 -0.1512774698
C  C460  1  0.89787000  0.51013000  0.40989000  1.0 -0.1914590125
C  C461  1  0.55117000  0.01603000  0.32972000  1.0 -0.0791726645
C  C462  1  0.55652000  0.00226000  0.30781000  1.0 -0.059756327
C  C463  1  0.61824000  0.02228000  0.29712000  1.0 -0.1512774698
C  C464  1  0.67461000  0.05607000  0.30833000  1.0 0.1097060094
C  C465  1  0.66926000  0.06984000  0.33023000  1.0 -0.1512774698
C  C466  1  0.60754000  0.04982000  0.34093000  1.0 -0.059756327
C  C467  1  0.83711000  0.47109000  0.42372000  1.0 -0.1979480448
C  C468  1  0.09675000  0.00765000  0.33793000  1.0 0.6227611725
C  C469  1  0.16625000  0.74775000  0.38572000  1.0 0.640488945
C  C470  1  0.74158000  0.08176000  0.29650000  1.0 -0.0028840121
C  C471  1  0.74523000  0.11951000  0.27748000  1.0 0.0425093074
C  C472  1  0.80853000  0.14533000  0.26852000  1.0 -0.0421666286
C  C473  1  0.86818000  0.13340000  0.27858000  1.0 0.2200744748
C  C474  1  0.86452000  0.09564000  0.29760000  1.0 -0.0209324261
C  C475  1  0.80122000  0.06982000  0.30656000  1.0 -0.1795623076
C  C476  1  0.74690000  0.66050000  0.49535000  1.0 -0.1979480448
C  C477  1  0.48510000  0.99750000  0.33940000  1.0 0.6318236192
C  C478  1  0.79810000  0.36690000  0.39730000  1.0 -0.1979480448
C  C479  1  0.82340000  0.27160000  0.25690000  1.0 -0.1979480448
C  C480  1  0.45965000  0.90555000  0.40915000  1.0 0.640488945
C  C481  1  0.76010000  0.63410000  0.51766000  1.0 -0.1914590125
C  C482  1  0.72740000  0.34120000  0.40782000  1.0 -0.1914590125
C  C483  1  0.39360000  0.16980000  0.35659000  1.0 0.6508432229
C  C484  1  0.42280000  0.67280000  0.36483000  1.0 -0.0791726645
C  C485  1  0.41607000  0.72273000  0.34955000  1.0 -0.0504241594
C  C486  1  0.44778000  0.72182000  0.32955000  1.0 -0.0791726645
C  C487  1  0.48630000  0.67110000  0.32481000  1.0 -0.133836108
C  C488  1  0.49316000  0.62124000  0.34008000  1.0 0.1195487154
C  C489  1  0.46136000  0.62204000  0.36009000  1.0 -0.1512774698
C  C490  1  0.85490000  0.31410000  0.23481000  1.0 -0.2063416733
C  C491  1  0.63109000  0.24249000  0.43796000  1.0 0.1001292413
C  C492  1  0.58396000  0.28146000  0.43032000  1.0 -0.1512774698
C  C493  1  0.52027000  0.24953000  0.42307000  1.0 -0.0980793505
C  C494  1  0.50381000  0.17861000  0.42345000  1.0 -0.0028840121
C  C495  1  0.55097000  0.13961000  0.43109000  1.0 -0.0919487583
C  C496  1  0.61466000  0.17154000  0.43835000  1.0 -0.1512774698
C  C497  1  0.49896000  0.26164000  0.35969000  1.0 -0.070735354
C  C498  1  0.53358000  0.32558000  0.35363000  1.0 -0.1418132705
C  C499  1  0.50006000  0.36966000  0.34175000  1.0 0.1001292413
C  C500  1  0.43204000  0.34976000  0.33593000  1.0 -0.1512774698
C  C501  1  0.39740000  0.28580000  0.34199000  1.0 -0.0791726645
C  C502  1  0.43086000  0.24174000  0.35387000  1.0 -0.0209324261
C  C503  1  0.37920000  0.78020000  0.35386000  1.0 0.6508432229
C  C504  1  0.50420000  0.49520000  0.34285000  1.0 -0.1735982026
C  C505  1  0.53730000  0.44030000  0.33835000  1.0 0.0001689115
C  C506  1  0.59874000  0.45066000  0.32701000  1.0 0.0700975706
C  C507  1  0.62700000  0.51600000  0.32018000  1.0 -0.1203229476
C  C508  1  0.59380000  0.57100000  0.32468000  1.0 0.2412390554
C  C509  1  0.53237000  0.56063000  0.33601000  1.0 -0.0282812308
C  C510  1  0.94920000  0.69280000  0.18831000  1.0 0.6318236192
C  C511  1  0.69140000  0.53060000  0.30810000  1.0 0.1498059829
C  C512  1  0.84680000  0.69360000  0.21414000  1.0 -0.0919487583
C  C513  1  0.91037000  0.67577000  0.20977000  1.0 -0.0028840121
C  C514  1  0.94251000  0.64109000  0.22518000  1.0 -0.0980793505
C  C515  1  0.91100000  0.62420000  0.24498000  1.0 -0.1418132705
C  C516  1  0.84743000  0.64203000  0.24936000  1.0 0.062556648
C  C517  1  0.81532000  0.67668000  0.23394000  1.0 -0.1418132705
C  C518  1  0.07340000  0.92700000  0.40651000  1.0 0.6227611725
C  C519  1  0.64980000  0.54580000  0.28620000  1.0 -0.2220577511
C  C520  1  0.70220000  0.54540000  0.26840000  1.0 -0.1914590125
C  C521  1  0.65180000  0.40420000  0.32100000  1.0 -0.1914590125
C  C522  1  0.76600000  0.57300000  0.30488000  1.0 -0.059756327
C  C523  1  0.76210000  0.58030000  0.28259000  1.0 0.0195017376
C  C524  1  0.81410000  0.62230000  0.27159000  1.0 0.0253381742
C  C525  1  0.86990000  0.65690000  0.28288000  1.0 -0.2063416733
C  C526  1  0.87370000  0.64950000  0.30517000  1.0 -0.0504241594
C  C527  1  0.82180000  0.60760000  0.31617000  1.0 0.2412390554
C  C528  1  0.43310000  0.14050000  0.41700000  1.0 0.5998345141
C  C529  1  0.98400000  0.64820000  0.31704000  1.0 -0.1203229476
C  C530  1  0.04690000  0.68050000  0.32473000  1.0 -0.1203229476
C  C531  1  0.05850000  0.75090000  0.32791000  1.0 -0.0209324261
C  C532  1  0.00720000  0.78900000  0.32340000  1.0 -0.0980793505
C  C533  1  0.94420000  0.75660000  0.31571000  1.0 -0.1203229476
C  C534  1  0.93260000  0.68620000  0.31253000  1.0 0.0846790796
C  C535  1  0.12610000  0.78110000  0.33575000  1.0 0.5841615622
C  C536  1  0.71500000  0.45620000  0.31300000  1.0 -0.1914590125
C  C537  1  0.73570000  0.73570000  0.50000000  1.0 0.1766366785
C  C538  1  0.26430000  0.26430000  0.00000000  1.0 0.1766366785
C  C539  1  0.19680000  0.80320000  0.75000000  1.0 0.1585389003
C  C540  1  0.80320000  0.19680000  0.25000000  1.0 0.1585389003
O  O1  1  0.05642000  0.15194000  0.66008000  1.0 -0.618735683
O  O2  1  0.13754000  0.20450000  0.62720000  1.0 -0.5722870703
O  O3  1  0.96404000  0.12216000  0.58496000  1.0 -0.5609527305
O  O4  1  0.90224000  0.07772000  0.61383000  1.0 -0.656106251
O  O5  1  0.78715000  0.13801000  0.62508000  1.0 -0.5535253162
O  O6  1  0.24373000  0.93529000  0.43624000  1.0 -0.6106487441
O  O7  1  0.09451000  0.18523000  0.59448000  1.0 -0.5819208498
O  O8  1  0.96449000  0.46533000  0.59887000  1.0 -0.5609527305
O  O9  1  0.95401000  0.09325000  0.65438000  1.0 -0.4876106928
O  O10  1  0.28499000  0.84169000  0.42541000  1.0 -0.5819208498
O  O11  1  0.08090000  0.43110000  0.59109000  1.0 -0.6106487441
O  O12  1  0.01737000  0.48247000  0.64107000  1.0 -0.5609527305
O  O13  1  0.96047000  0.32593000  0.59866000  1.0 -1.1397995527
O  O14  1  0.85658000  0.40656000  0.59235000  1.0 -0.5915775622
O  O15  1  0.27791000  0.92107000  0.58391000  1.0 -0.4441482897
O  O16  1  0.07383000  0.30761000  0.61342000  1.0 -1.0599544819
O  O17  1  0.77726000  0.35510000  0.62453000  1.0 -0.6910512622
O  O18  1  0.95750000  0.23012000  0.66328000  1.0 -1.0778530712
O  O19  1  0.76111000  0.22907000  0.60814000  1.0 -0.5722870703
O  O20  1  0.95456000  0.43398000  0.66977000  1.0 -0.6106487441
O  O21  1  0.86625000  0.26285000  0.63888000  1.0 -1.1212190166
O  O22  1  0.12900000  0.42754000  0.63201000  1.0 -0.618735683
O  O23  1  0.79407000  0.88019000  0.51903000  1.0 -0.4802980224
O  O24  1  0.37281000  0.90021000  0.53851000  1.0 -0.4618410493
O  O25  1  0.15704000  0.33140000  0.64836000  1.0 -0.5722870703
O  O26  1  0.89000000  0.20864000  0.60275000  1.0 -1.0972814436
O  O27  1  0.16106000  0.93298000  0.73009000  1.0 -0.4802980224
O  O28  1  0.91234000  0.38432000  0.63226000  1.0 -1.0490402157
O  O29  1  0.01602000  0.33948000  0.64699000  1.0 -1.1268480713
O  O30  1  0.83940000  0.12440000  0.66278000  1.0 -0.501751783
O  O31  1  0.72250000  0.90910000  0.82173000  1.0 -0.5535253162
O  O32  1  0.82435000  0.37267000  0.66026000  1.0 -0.6106487441
O  O33  1  0.99211000  0.19929000  0.62540000  1.0 -1.1081000144
O  O34  1  0.66780000  0.00740000  0.80949000  1.0 -0.618735683
O  O35  1  0.63130000  0.62350000  0.68240000  1.0 -0.3799151893
O  O36  1  0.17493000  0.37767000  0.58742000  1.0 -0.5132900502
O  O37  1  0.62250000  0.81170000  0.66340000  1.0 -0.4232456337
O  O38  1  0.73140000  0.15540000  0.66203000  1.0 -0.3799151893
O  O39  1  0.94358000  0.84806000  0.16008000  1.0 -0.618735683
O  O40  1  0.86246000  0.79550000  0.12720000  1.0 -0.5722870703
O  O41  1  0.03596000  0.87784000  0.08496000  1.0 -0.5609527305
O  O42  1  0.09776000  0.92228000  0.11383000  1.0 -0.656106251
O  O43  1  0.21285000  0.86199000  0.12508000  1.0 -0.5535253162
O  O44  1  0.75627000  0.06471000  0.93624000  1.0 -0.6106487441
O  O45  1  0.90549000  0.81477000  0.09448000  1.0 -0.5819208498
O  O46  1  0.03551000  0.53467000  0.09887000  1.0 -0.5609527305
O  O47  1  0.04599000  0.90675000  0.15438000  1.0 -0.4876106928
O  O48  1  0.71501000  0.15831000  0.92541000  1.0 -0.5819208498
O  O49  1  0.91910000  0.56890000  0.09109000  1.0 -0.6106487441
O  O50  1  0.98263000  0.51753000  0.14107000  1.0 -0.5609527305
O  O51  1  0.03953000  0.67407000  0.09866000  1.0 -1.1397995527
O  O52  1  0.14342000  0.59344000  0.09235000  1.0 -0.5915775622
O  O53  1  0.72209000  0.07893000  0.08391000  1.0 -0.4451494987
O  O54  1  0.92617000  0.69239000  0.11342000  1.0 -1.0599544819
O  O55  1  0.22274000  0.64490000  0.12453000  1.0 -0.6910512622
O  O56  1  0.04250000  0.76988000  0.16328000  1.0 -1.0778530712
O  O57  1  0.23889000  0.77093000  0.10814000  1.0 -0.5722870703
O  O58  1  0.04544000  0.56602000  0.16977000  1.0 -0.618735683
O  O59  1  0.13375000  0.73715000  0.13888000  1.0 -1.1212190166
O  O60  1  0.87100000  0.57246000  0.13201000  1.0 -0.6106487441
O  O61  1  0.20593000  0.11981000  0.01903000  1.0 -0.4802980224
O  O62  1  0.62719000  0.09979000  0.03851000  1.0 -0.4618410493
O  O63  1  0.84296000  0.66860000  0.14836000  1.0 -0.5722870703
O  O64  1  0.11000000  0.79136000  0.10275000  1.0 -1.0972814436
O  O65  1  0.83894000  0.06702000  0.23009000  1.0 -0.4802980224
O  O66  1  0.08766000  0.61568000  0.13226000  1.0 -1.0490402157
O  O67  1  0.98398000  0.66052000  0.14699000  1.0 -1.1268480713
O  O68  1  0.16060000  0.87560000  0.16278000  1.0 -0.501751783
O  O69  1  0.27750000  0.09090000  0.32173000  1.0 -0.5535253162
O  O70  1  0.17565000  0.62733000  0.16026000  1.0 -0.6106487441
O  O71  1  0.00789000  0.80071000  0.12540000  1.0 -1.1081000144
O  O72  1  0.33220000  0.99260000  0.30949000  1.0 -0.618735683
O  O73  1  0.36870000  0.37650000  0.18240000  1.0 -0.3861241713
O  O74  1  0.82507000  0.62233000  0.08742000  1.0 -0.5132900502
O  O75  1  0.37750000  0.18830000  0.16340000  1.0 -0.4232456337
O  O76  1  0.26860000  0.84460000  0.16203000  1.0 -0.3799151893
O  O77  1  0.84806000  0.94358000  0.83992000  1.0 -0.618735683
O  O78  1  0.79550000  0.86246000  0.87280000  1.0 -0.5722870703
O  O79  1  0.87784000  0.03596000  0.91504000  1.0 -0.5609527305
O  O80  1  0.92228000  0.09776000  0.88617000  1.0 -0.656106251
O  O81  1  0.86199000  0.21285000  0.87492000  1.0 -0.5535253162
O  O82  1  0.06471000  0.75627000  0.06376000  1.0 -0.6106487441
O  O83  1  0.81477000  0.90549000  0.90552000  1.0 -0.5819208498
O  O84  1  0.53467000  0.03551000  0.90113000  1.0 -0.5609527305
O  O85  1  0.90675000  0.04599000  0.84562000  1.0 -0.4876106928
O  O86  1  0.15831000  0.71501000  0.07459000  1.0 -0.5819208498
O  O87  1  0.56890000  0.91910000  0.90891000  1.0 -0.6106487441
O  O88  1  0.51753000  0.98263000  0.85893000  1.0 -0.5609527305
O  O89  1  0.67407000  0.03953000  0.90134000  1.0 -1.1397995527
O  O90  1  0.59344000  0.14342000  0.90765000  1.0 -0.5915775622
O  O91  1  0.07893000  0.72209000  0.91609000  1.0 -0.4441482897
O  O92  1  0.69239000  0.92617000  0.88658000  1.0 -1.0599544819
O  O93  1  0.64490000  0.22274000  0.87547000  1.0 -0.6910512622
O  O94  1  0.76988000  0.04250000  0.83672000  1.0 -1.0778530712
O  O95  1  0.77093000  0.23889000  0.89186000  1.0 -0.5722870703
O  O96  1  0.56602000  0.04544000  0.83023000  1.0 -0.6106487441
O  O97  1  0.73715000  0.13375000  0.86112000  1.0 -1.1268480713
O  O98  1  0.57246000  0.87100000  0.86799000  1.0 -0.618735683
O  O99  1  0.11981000  0.20593000  0.98097000  1.0 -0.4802980224
O  O100  1  0.09979000  0.62719000  0.96149000  1.0 -0.4618410493
O  O101  1  0.66860000  0.84296000  0.85164000  1.0 -0.5722870703
O  O102  1  0.79136000  0.11000000  0.89725000  1.0 -1.0972814436
O  O103  1  0.06702000  0.83894000  0.76991000  1.0 -0.4802980224
O  O104  1  0.61568000  0.08766000  0.86774000  1.0 -1.0490402157
O  O105  1  0.66052000  0.98398000  0.85301000  1.0 -1.1268480713
O  O106  1  0.87560000  0.16060000  0.83722000  1.0 -0.501751783
O  O107  1  0.09090000  0.27750000  0.67827000  1.0 -0.5535253162
O  O108  1  0.62733000  0.17565000  0.83974000  1.0 -0.6106487441
O  O109  1  0.80071000  0.00789000  0.87460000  1.0 -1.1081000144
O  O110  1  0.99260000  0.33220000  0.69051000  1.0 -0.618735683
O  O111  1  0.37650000  0.36870000  0.81760000  1.0 -0.3861241713
O  O112  1  0.62233000  0.82507000  0.91258000  1.0 -0.5132900502
O  O113  1  0.18830000  0.37750000  0.83660000  1.0 -0.4232456337
O  O114  1  0.84460000  0.26860000  0.83797000  1.0 -0.3799151893
O  O115  1  0.15194000  0.05642000  0.33992000  1.0 -0.618735683
O  O116  1  0.20450000  0.13754000  0.37280000  1.0 -0.5722870703
O  O117  1  0.12216000  0.96404000  0.41504000  1.0 -0.5609527305
O  O118  1  0.07772000  0.90224000  0.38617000  1.0 -0.656106251
O  O119  1  0.13801000  0.78715000  0.37492000  1.0 -0.5535253162
O  O120  1  0.93529000  0.24373000  0.56376000  1.0 -0.6106487441
O  O121  1  0.18523000  0.09451000  0.40552000  1.0 -0.5819208498
O  O122  1  0.46533000  0.96449000  0.40113000  1.0 -0.5609527305
O  O123  1  0.09325000  0.95401000  0.34562000  1.0 -0.4876106928
O  O124  1  0.84169000  0.28499000  0.57459000  1.0 -0.5819208498
O  O125  1  0.43110000  0.08090000  0.40891000  1.0 -0.6106487441
O  O126  1  0.48247000  0.01737000  0.35893000  1.0 -0.5609527305
O  O127  1  0.32593000  0.96047000  0.40134000  1.0 -1.1397995527
O  O128  1  0.40656000  0.85658000  0.40765000  1.0 -0.5915775622
O  O129  1  0.92107000  0.27791000  0.41609000  1.0 -0.4451494987
O  O130  1  0.30761000  0.07383000  0.38658000  1.0 -1.0599544819
O  O131  1  0.35510000  0.77726000  0.37547000  1.0 -0.6910512622
O  O132  1  0.23012000  0.95750000  0.33672000  1.0 -1.0778530712
O  O133  1  0.22907000  0.76111000  0.39186000  1.0 -0.5722870703
O  O134  1  0.43398000  0.95456000  0.33023000  1.0 -0.6106487441
O  O135  1  0.26285000  0.86625000  0.36112000  1.0 -1.1212190166
O  O136  1  0.42754000  0.12900000  0.36799000  1.0 -0.6106487441
O  O137  1  0.88019000  0.79407000  0.48097000  1.0 -0.4802980224
O  O138  1  0.90021000  0.37281000  0.46149000  1.0 -0.4618410493
O  O139  1  0.33140000  0.15704000  0.35164000  1.0 -0.5722870703
O  O140  1  0.20864000  0.89000000  0.39725000  1.0 -1.0972814436
O  O141  1  0.93298000  0.16106000  0.26991000  1.0 -0.4802980224
O  O142  1  0.38432000  0.91234000  0.36774000  1.0 -1.0490402157
O  O143  1  0.33948000  0.01602000  0.35301000  1.0 -1.1268480713
O  O144  1  0.12440000  0.83940000  0.33722000  1.0 -0.501751783
O  O145  1  0.90910000  0.72250000  0.17827000  1.0 -0.5535253162
O  O146  1  0.37267000  0.82435000  0.33974000  1.0 -0.6106487441
O  O147  1  0.19929000  0.99211000  0.37460000  1.0 -1.1081000144
O  O148  1  0.00740000  0.66780000  0.19051000  1.0 -0.618735683
O  O149  1  0.62350000  0.63130000  0.31760000  1.0 -0.3861241713
O  O150  1  0.37767000  0.17493000  0.41258000  1.0 -0.5132900502
O  O151  1  0.81170000  0.62250000  0.33660000  1.0 -0.4232456337
O  O152  1  0.15540000  0.73140000  0.33797000  1.0 -0.3799151893
