# DDEC6 charges by PACMAN v1.1 (https://github.com/mtap-research/PACMAN-charge/)
data_OKIDIY_ASR_pacman
_symmetry_space_group_name_H-M   'P 1'
_cell_length_a   19.48480000
_cell_length_b   19.48480000
_cell_length_c   60.16900000
_cell_angle_alpha   90.00000000
_cell_angle_beta   90.00000000
_cell_angle_gamma   98.23480000
_symmetry_Int_Tables_number   1
_chemical_formula_structural   Zr12H228C277O90
_chemical_formula_sum   'Zr24 H456 C554 O180'
_cell_volume   22608.07710157
_cell_formula_units_Z   2
loop_
 _symmetry_equiv_pos_site_id
 _symmetry_equiv_pos_as_xyz
  1  'x, y, z'
loop_
 _atom_site_type_symbol
 _atom_site_label
 _atom_site_symmetry_multiplicity
 _atom_site_fract_x
 _atom_site_fract_y
 _atom_site_fract_z
 _atom_site_occupancy
 _atom_site_charge
Zr  Zr1  1  0.27037000  0.84655000  0.61190000  1.0 2.3894420698
Zr  Zr2  1  0.36395000  0.01345000  0.61928000  1.0 2.3353834385
Zr  Zr3  1  0.12720000  0.90270000  0.63895000  1.0 2.3561764792
Zr  Zr4  1  0.22130000  0.06832000  0.64590000  1.0 2.4091563657
Zr  Zr5  1  0.20246000  0.99364000  0.59229000  1.0 2.4784566
Zr  Zr6  1  0.28939000  0.91953000  0.66541000  1.0 2.4091563657
Zr  Zr7  1  0.72963000  0.15345000  0.11190000  1.0 2.3894420698
Zr  Zr8  1  0.63605000  0.98655000  0.11928000  1.0 2.3353834385
Zr  Zr9  1  0.87280000  0.09730000  0.13895000  1.0 2.3561764792
Zr  Zr10  1  0.77870000  0.93168000  0.14590000  1.0 2.4091563657
Zr  Zr11  1  0.79754000  0.00636000  0.09229000  1.0 2.4784566
Zr  Zr12  1  0.71061000  0.08047000  0.16541000  1.0 2.4091563657
Zr  Zr13  1  0.15345000  0.72963000  0.88810000  1.0 2.3894420698
Zr  Zr14  1  0.98655000  0.63605000  0.88072000  1.0 2.3337486818
Zr  Zr15  1  0.09730000  0.87280000  0.86105000  1.0 2.3561764792
Zr  Zr16  1  0.93168000  0.77870000  0.85410000  1.0 2.4091563657
Zr  Zr17  1  0.00636000  0.79754000  0.90771000  1.0 2.4784566
Zr  Zr18  1  0.08047000  0.71061000  0.83459000  1.0 2.4091563657
Zr  Zr19  1  0.84655000  0.27037000  0.38810000  1.0 2.3894420698
Zr  Zr20  1  0.01345000  0.36395000  0.38072000  1.0 2.3353834385
Zr  Zr21  1  0.90270000  0.12720000  0.36105000  1.0 2.3561764792
Zr  Zr22  1  0.06832000  0.22130000  0.35410000  1.0 2.4091563657
Zr  Zr23  1  0.99364000  0.20246000  0.40771000  1.0 2.4784566
Zr  Zr24  1  0.91953000  0.28939000  0.33459000  1.0 2.4091563657
H  H1  1  0.73149000  0.85189000  0.57257000  1.0 0.1109012873
H  H2  1  0.55782000  0.33246000  0.64178000  1.0 0.1189680294
H  H3  1  0.49773000  0.22953000  0.62827000  1.0 0.1189680294
H  H4  1  0.32452000  0.27158000  0.65843000  1.0 0.1284557948
H  H5  1  0.38462000  0.37452000  0.67195000  1.0 0.1189680294
H  H6  1  0.44441000  0.77195000  0.57763000  1.0 0.1189680294
H  H7  1  0.55518000  0.95978000  0.58757000  1.0 0.1284557948
H  H8  1  0.64729000  0.92561000  0.56808000  1.0 0.1109012873
H  H9  1  0.53653000  0.73777000  0.55814000  1.0 0.1189680294
H  H10  1  0.92709000  0.84887000  0.60927000  1.0 0.1284557948
H  H11  1  0.00942000  0.93280000  0.55254000  1.0 0.1284557948
H  H12  1  0.90895000  0.88883000  0.53362000  1.0 0.072035306
H  H13  1  0.82662000  0.80490000  0.59035000  1.0 0.1189680294
H  H14  1  0.76150000  0.06056000  0.68426000  1.0 0.1189680294
H  H15  1  0.65734000  0.12014000  0.66349000  1.0 0.1189680294
H  H16  1  0.55702000  0.06664000  0.64639000  1.0 0.1284557948
H  H17  1  0.49552000  0.97260000  0.70393000  1.0 0.1284557948
H  H18  1  0.59585000  0.02609000  0.72102000  1.0 0.1109012873
H  H19  1  0.39558000  0.68846000  0.62652000  1.0 0.1284557948
H  H20  1  0.46241000  0.60199000  0.63432000  1.0 0.1109012873
H  H21  1  0.46168000  0.65156000  0.69913000  1.0 0.1189680294
H  H22  1  0.39486000  0.73804000  0.69134000  1.0 0.1189680294
H  H23  1  0.56417000  0.76223000  0.51575000  1.0 0.1109012873
H  H24  1  0.57787000  0.68887000  0.52469000  1.0 0.1005337984
H  H25  1  0.95244000  0.95780000  0.68152000  1.0 0.1189680294
H  H26  1  0.85751000  0.99661000  0.69805000  1.0 0.1109012873
H  H27  1  0.94224000  0.19376000  0.68652000  1.0 0.1109012873
H  H28  1  0.03717000  0.15495000  0.66999000  1.0 0.136945574
H  H29  1  0.70997000  0.42809000  0.68686000  1.0 0.1189680294
H  H30  1  0.68630000  0.39732000  0.71030000  1.0 0.1109012873
H  H31  1  0.88643000  0.69457000  0.74998000  1.0 0.1189680294
H  H32  1  0.68078000  0.68468000  0.75868000  1.0 0.1109012873
H  H33  1  0.69989000  0.73915000  0.79287000  1.0 0.1189680294
H  H34  1  0.90555000  0.74903000  0.78416000  1.0 0.1284557948
H  H35  1  0.44105000  0.48845000  0.65407000  1.0 0.1109012873
H  H36  1  0.61569000  0.14247000  0.74093000  1.0 0.1189680294
H  H37  1  0.63053000  0.21459000  0.72852000  1.0 0.1189680294
H  H38  1  0.84815000  0.71515000  0.71350000  1.0 0.1109012873
H  H39  1  0.55415000  0.23916000  0.49947000  1.0 0.1109012873
H  H40  1  0.67037000  0.25251000  0.76233000  1.0 0.1109012873
H  H41  1  0.68765000  0.17893000  0.76932000  1.0 0.0903593851
H  H42  1  0.53398000  0.22724000  0.54563000  1.0 0.1189680294
H  H43  1  0.47986000  0.14632000  0.57061000  1.0 0.1284557948
H  H44  1  0.29883000  0.14779000  0.53875000  1.0 0.1005337984
H  H45  1  0.35294000  0.22872000  0.51376000  1.0 0.0903593851
H  H46  1  0.60408000  0.45066000  0.46551000  1.0 0.1109012873
H  H47  1  0.62854000  0.48986000  0.48762000  1.0 0.1109012873
H  H48  1  0.91163000  0.69376000  0.51997000  1.0 0.1109012873
H  H49  1  0.88532000  0.71750000  0.54314000  1.0 0.0903593851
H  H50  1  0.69848000  0.22490000  0.44185000  1.0 0.1189680294
H  H51  1  0.80772000  0.39280000  0.47020000  1.0 0.1189680294
H  H52  1  0.71212000  0.40826000  0.49162000  1.0 0.1189680294
H  H53  1  0.60288000  0.24036000  0.46327000  1.0 0.1189680294
H  H54  1  0.50607000  0.50137000  0.46353000  1.0 0.0903593851
H  H55  1  0.54911000  0.55931000  0.47848000  1.0 0.1109012873
H  H56  1  0.58646000  0.35566000  0.69863000  1.0 0.1189680294
H  H57  1  0.62207000  0.36153000  0.67506000  1.0 0.1189680294
H  H58  1  0.60703000  0.67811000  0.48892000  1.0 0.1109012873
H  H59  1  0.63291000  0.75783000  0.48639000  1.0 0.1109012873
H  H60  1  0.85360000  0.76580000  0.67458000  1.0 0.1189680294
H  H61  1  0.89948000  0.57186000  0.66931000  1.0 0.1189680294
H  H62  1  0.00205000  0.61407000  0.65123000  1.0 0.1189680294
H  H63  1  0.95617000  0.80801000  0.65650000  1.0 0.1284557948
H  H64  1  0.60686000  0.68922000  0.67088000  1.0 0.0804909313
H  H65  1  0.67563000  0.67907000  0.68357000  1.0 0.0903593851
H  H66  1  0.60671000  0.45651000  0.73677000  1.0 0.1189680294
H  H67  1  0.65178000  0.56340000  0.75345000  1.0 0.1189680294
H  H68  1  0.13534000  0.81898000  0.70402000  1.0 0.072035306
H  H69  1  0.76934000  0.57816000  0.63533000  1.0 0.1109012873
H  H70  1  0.72971000  0.62537000  0.65072000  1.0 0.0903593851
H  H71  1  0.42765000  0.46427000  0.54496000  1.0 0.0804909313
H  H72  1  0.39624000  0.40068000  0.56012000  1.0 0.1005337984
H  H73  1  0.30296000  0.46716000  0.54369000  1.0 0.0804909313
H  H74  1  0.31928000  0.43322000  0.52071000  1.0 0.0903593851
H  H75  1  0.65232000  0.74976000  0.71284000  1.0 0.1109012873
H  H76  1  0.57232000  0.73847000  0.70797000  1.0 0.1005337984
H  H77  1  0.16773000  0.16659000  0.51664000  1.0 0.1109012873
H  H78  1  0.23684000  0.21420000  0.51879000  1.0 0.1189680294
H  H79  1  0.95592000  0.89280000  0.47869000  1.0 0.0903593851
H  H80  1  0.91547000  0.86419000  0.50001000  1.0 0.0903593851
H  H81  1  0.66647000  0.48641000  0.64753000  1.0 0.1109012873
H  H82  1  0.62873000  0.55245000  0.64845000  1.0 0.0903593851
H  H83  1  0.57833000  0.87099000  0.66553000  1.0 0.1109012873
H  H84  1  0.54751000  0.79197000  0.66619000  1.0 0.1005337984
H  H85  1  0.68608000  0.70890000  0.62410000  1.0 0.0596638152
H  H86  1  0.70973000  0.78585000  0.61649000  1.0 0.0903593851
H  H87  1  0.65651000  0.85585000  0.64187000  1.0 0.1109012873
H  H88  1  0.67294000  0.78866000  0.65344000  1.0 0.1005337984
H  H89  1  0.55867000  0.53213000  0.61065000  1.0 0.1109012873
H  H90  1  0.60869000  0.55757000  0.59080000  1.0 0.1109012873
H  H91  1  0.57711000  0.63869000  0.62802000  1.0 0.1005337984
H  H92  1  0.65498000  0.65352000  0.62017000  1.0 0.0596638152
H  H93  1  0.64019000  0.76691000  0.58372000  1.0 0.0903593851
H  H94  1  0.68700000  0.70670000  0.58477000  1.0 0.0804909313
H  H95  1  0.13227000  0.34779000  0.52319000  1.0 0.1005337984
H  H96  1  0.20422000  0.34108000  0.51192000  1.0 0.1005337984
H  H97  1  0.19687000  0.39385000  0.55197000  1.0 0.1005337984
H  H98  1  0.20174000  0.31632000  0.55798000  1.0 0.1109012873
H  H99  1  0.94036000  0.83390000  0.52662000  1.0 0.0596638152
H  H100  1  0.98091000  0.79049000  0.54296000  1.0 0.1109012873
H  H101  1  0.02081000  0.97617000  0.47868000  1.0 0.1109012873
H  H102  1  0.07734000  0.99712000  0.49736000  1.0 0.1109012873
H  H103  1  0.95045000  0.77199000  0.48194000  1.0 0.1189680294
H  H104  1  0.02747000  0.80917000  0.48089000  1.0 0.1109012873
H  H105  1  0.89333000  0.29783000  0.72194000  1.0 0.072035306
H  H106  1  0.94012000  0.26118000  0.70579000  1.0 0.0804909313
H  H107  1  0.96936000  0.08942000  0.74659000  1.0 0.072035306
H  H108  1  0.98999000  0.12007000  0.72293000  1.0 0.1005337984
H  H109  1  0.09299000  0.98253000  0.74344000  1.0 0.0903593851
H  H110  1  0.03128000  0.97976000  0.72736000  1.0 0.1109012873
H  H111  1  0.00388000  0.19358000  0.76056000  1.0 0.0903593851
H  H112  1  0.08014000  0.18298000  0.75473000  1.0 0.1109012873
H  H113  1  0.01254000  0.33764000  0.73021000  1.0 0.1005337984
H  H114  1  0.97859000  0.29603000  0.75089000  1.0 0.0903593851
H  H115  1  0.26851000  0.14811000  0.07257000  1.0 0.1109012873
H  H116  1  0.44218000  0.66754000  0.14178000  1.0 0.1189680294
H  H117  1  0.50227000  0.77047000  0.12827000  1.0 0.1284557948
H  H118  1  0.67548000  0.72842000  0.15843000  1.0 0.1284557948
H  H119  1  0.61538000  0.62548000  0.17195000  1.0 0.1189680294
H  H120  1  0.55559000  0.22805000  0.07763000  1.0 0.1189680294
H  H121  1  0.44482000  0.04022000  0.08757000  1.0 0.1284557948
H  H122  1  0.35271000  0.07439000  0.06808000  1.0 0.1109012873
H  H123  1  0.46347000  0.26223000  0.05814000  1.0 0.1189680294
H  H124  1  0.07291000  0.15113000  0.10927000  1.0 0.1284557948
H  H125  1  0.99058000  0.06720000  0.05254000  1.0 0.1284557948
H  H126  1  0.09105000  0.11117000  0.03362000  1.0 0.072035306
H  H127  1  0.17338000  0.19510000  0.09035000  1.0 0.1189680294
H  H128  1  0.23850000  0.93944000  0.18426000  1.0 0.1189680294
H  H129  1  0.34266000  0.87986000  0.16349000  1.0 0.1189680294
H  H130  1  0.44298000  0.93336000  0.14639000  1.0 0.1284557948
H  H131  1  0.50448000  0.02740000  0.20393000  1.0 0.1284557948
H  H132  1  0.40415000  0.97391000  0.22102000  1.0 0.1109012873
H  H133  1  0.60442000  0.31154000  0.12652000  1.0 0.1284557948
H  H134  1  0.53759000  0.39801000  0.13432000  1.0 0.1109012873
H  H135  1  0.53832000  0.34844000  0.19913000  1.0 0.1189680294
H  H136  1  0.60514000  0.26196000  0.19134000  1.0 0.1189680294
H  H137  1  0.43583000  0.23777000  0.01575000  1.0 0.1109012873
H  H138  1  0.42213000  0.31113000  0.02469000  1.0 0.1005337984
H  H139  1  0.04756000  0.04220000  0.18152000  1.0 0.1189680294
H  H140  1  0.14249000  0.00339000  0.19805000  1.0 0.1109012873
H  H141  1  0.05776000  0.80624000  0.18652000  1.0 0.1109012873
H  H142  1  0.96283000  0.84505000  0.16999000  1.0 0.1284557948
H  H143  1  0.29003000  0.57191000  0.18686000  1.0 0.1189680294
H  H144  1  0.31370000  0.60268000  0.21030000  1.0 0.1109012873
H  H145  1  0.11357000  0.30543000  0.24998000  1.0 0.1189680294
H  H146  1  0.31922000  0.31532000  0.25868000  1.0 0.1109012873
H  H147  1  0.30011000  0.26085000  0.29287000  1.0 0.1189680294
H  H148  1  0.09445000  0.25097000  0.28416000  1.0 0.1284557948
H  H149  1  0.55895000  0.51155000  0.15407000  1.0 0.1109012873
H  H150  1  0.38431000  0.85753000  0.24093000  1.0 0.1189680294
H  H151  1  0.36947000  0.78541000  0.22852000  1.0 0.1189680294
H  H152  1  0.15185000  0.28485000  0.21350000  1.0 0.1109012873
H  H153  1  0.44584000  0.76084000  0.99947000  1.0 0.1109012873
H  H154  1  0.32963000  0.74749000  0.26233000  1.0 0.1109012873
H  H155  1  0.31235000  0.82107000  0.26932000  1.0 0.0903593851
H  H156  1  0.46602000  0.77276000  0.04563000  1.0 0.1189680294
H  H157  1  0.52014000  0.85368000  0.07061000  1.0 0.1284557948
H  H158  1  0.70117000  0.85221000  0.03875000  1.0 0.1005337984
H  H159  1  0.64706000  0.77128000  0.01376000  1.0 0.0903593851
H  H160  1  0.39592000  0.54934000  0.96551000  1.0 0.1109012873
H  H161  1  0.37146000  0.51014000  0.98762000  1.0 0.1109012873
H  H162  1  0.08837000  0.30624000  0.01997000  1.0 0.1109012873
H  H163  1  0.11468000  0.28250000  0.04314000  1.0 0.0903593851
H  H164  1  0.30152000  0.77510000  0.94185000  1.0 0.1189680294
H  H165  1  0.19228000  0.60720000  0.97020000  1.0 0.1189680294
H  H166  1  0.28788000  0.59174000  0.99162000  1.0 0.1189680294
H  H167  1  0.39712000  0.75964000  0.96327000  1.0 0.1189680294
H  H168  1  0.49393000  0.49863000  0.96353000  1.0 0.0903593851
H  H169  1  0.45089000  0.44069000  0.97848000  1.0 0.1109012873
H  H170  1  0.41354000  0.64434000  0.19863000  1.0 0.1189680294
H  H171  1  0.37793000  0.63847000  0.17506000  1.0 0.1189680294
H  H172  1  0.39297000  0.32189000  0.98892000  1.0 0.1109012873
H  H173  1  0.36709000  0.24217000  0.98639000  1.0 0.1109012873
H  H174  1  0.14640000  0.23420000  0.17458000  1.0 0.1189680294
H  H175  1  0.10052000  0.42814000  0.16931000  1.0 0.1189680294
H  H176  1  0.99795000  0.38593000  0.15123000  1.0 0.1109012873
H  H177  1  0.04383000  0.19199000  0.15650000  1.0 0.1284557948
H  H178  1  0.39314000  0.31078000  0.17088000  1.0 0.0804909313
H  H179  1  0.32437000  0.32093000  0.18357000  1.0 0.0903593851
H  H180  1  0.39329000  0.54349000  0.23677000  1.0 0.1189680294
H  H181  1  0.34822000  0.43660000  0.25345000  1.0 0.1189680294
H  H182  1  0.86466000  0.18102000  0.20402000  1.0 0.072035306
H  H183  1  0.23066000  0.42184000  0.13533000  1.0 0.1109012873
H  H184  1  0.27029000  0.37463000  0.15072000  1.0 0.0903593851
H  H185  1  0.57235000  0.53573000  0.04496000  1.0 0.0804909313
H  H186  1  0.60376000  0.59932000  0.06012000  1.0 0.1005337984
H  H187  1  0.69704000  0.53284000  0.04369000  1.0 0.0804909313
H  H188  1  0.68072000  0.56678000  0.02071000  1.0 0.0903593851
H  H189  1  0.34768000  0.25024000  0.21284000  1.0 0.1109012873
H  H190  1  0.42767000  0.26153000  0.20797000  1.0 0.1005337984
H  H191  1  0.83227000  0.83341000  0.01664000  1.0 0.1005337984
H  H192  1  0.76316000  0.78580000  0.01879000  1.0 0.1189680294
H  H193  1  0.04408000  0.10720000  0.97869000  1.0 0.0903593851
H  H194  1  0.08453000  0.13581000  0.00001000  1.0 0.0903593851
H  H195  1  0.33353000  0.51359000  0.14753000  1.0 0.1109012873
H  H196  1  0.37127000  0.44755000  0.14845000  1.0 0.0903593851
H  H197  1  0.42167000  0.12901000  0.16553000  1.0 0.1109012873
H  H198  1  0.45248000  0.20803000  0.16619000  1.0 0.1005337984
H  H199  1  0.31392000  0.29110000  0.12410000  1.0 0.0596638152
H  H200  1  0.29027000  0.21415000  0.11649000  1.0 0.0903593851
H  H201  1  0.34349000  0.14415000  0.14187000  1.0 0.1109012873
H  H202  1  0.32706000  0.21134000  0.15344000  1.0 0.1005337984
H  H203  1  0.44133000  0.46787000  0.11065000  1.0 0.1109012873
H  H204  1  0.39131000  0.44243000  0.09080000  1.0 0.1109012873
H  H205  1  0.42289000  0.36131000  0.12802000  1.0 0.1005337984
H  H206  1  0.34502000  0.34648000  0.12017000  1.0 0.0596638152
H  H207  1  0.35981000  0.23309000  0.08372000  1.0 0.0903593851
H  H208  1  0.31300000  0.29330000  0.08477000  1.0 0.0903593851
H  H209  1  0.86773000  0.65221000  0.02319000  1.0 0.1005337984
H  H210  1  0.79578000  0.65892000  0.01192000  1.0 0.1005337984
H  H211  1  0.80313000  0.60615000  0.05197000  1.0 0.1005337984
H  H212  1  0.79826000  0.68368000  0.05798000  1.0 0.1109012873
H  H213  1  0.05964000  0.16610000  0.02662000  1.0 0.0596638152
H  H214  1  0.01909000  0.20951000  0.04296000  1.0 0.1109012873
H  H215  1  0.97919000  0.02383000  0.97868000  1.0 0.1109012873
H  H216  1  0.92266000  0.00288000  0.99736000  1.0 0.1109012873
H  H217  1  0.04955000  0.22801000  0.98194000  1.0 0.1189680294
H  H218  1  0.97253000  0.19083000  0.98089000  1.0 0.1109012873
H  H219  1  0.10667000  0.70217000  0.22194000  1.0 0.072035306
H  H220  1  0.05988000  0.73882000  0.20579000  1.0 0.0804909313
H  H221  1  0.03064000  0.91058000  0.24659000  1.0 0.072035306
H  H222  1  0.01001000  0.87993000  0.22293000  1.0 0.1005337984
H  H223  1  0.90701000  0.01747000  0.24344000  1.0 0.0903593851
H  H224  1  0.96872000  0.02024000  0.22736000  1.0 0.1109012873
H  H225  1  0.99612000  0.80642000  0.26056000  1.0 0.0903593851
H  H226  1  0.91986000  0.81702000  0.25473000  1.0 0.1109012873
H  H227  1  0.98746000  0.66236000  0.23021000  1.0 0.1005337984
H  H228  1  0.02141000  0.70397000  0.25089000  1.0 0.0903593851
H  H229  1  0.14811000  0.26851000  0.92743000  1.0 0.1109012873
H  H230  1  0.66754000  0.44218000  0.85822000  1.0 0.1189680294
H  H231  1  0.77047000  0.50227000  0.87173000  1.0 0.1189680294
H  H232  1  0.72842000  0.67548000  0.84157000  1.0 0.1284557948
H  H233  1  0.62548000  0.61538000  0.82805000  1.0 0.1189680294
H  H234  1  0.22805000  0.55559000  0.92237000  1.0 0.1189680294
H  H235  1  0.04022000  0.44482000  0.91243000  1.0 0.1284557948
H  H236  1  0.07439000  0.35271000  0.93192000  1.0 0.1109012873
H  H237  1  0.26223000  0.46347000  0.94186000  1.0 0.1189680294
H  H238  1  0.15113000  0.07291000  0.89073000  1.0 0.1284557948
H  H239  1  0.06720000  0.99058000  0.94746000  1.0 0.1284557948
H  H240  1  0.11117000  0.09105000  0.96638000  1.0 0.072035306
H  H241  1  0.19510000  0.17338000  0.90965000  1.0 0.1189680294
H  H242  1  0.93944000  0.23850000  0.81574000  1.0 0.1189680294
H  H243  1  0.87986000  0.34266000  0.83651000  1.0 0.1284557948
H  H244  1  0.93336000  0.44298000  0.85361000  1.0 0.1284557948
H  H245  1  0.02740000  0.50448000  0.79607000  1.0 0.1284557948
H  H246  1  0.97391000  0.40415000  0.77898000  1.0 0.1109012873
H  H247  1  0.31154000  0.60442000  0.87348000  1.0 0.1284557948
H  H248  1  0.39801000  0.53759000  0.86568000  1.0 0.1109012873
H  H249  1  0.34844000  0.53832000  0.80087000  1.0 0.1189680294
H  H250  1  0.26196000  0.60514000  0.80866000  1.0 0.1189680294
H  H251  1  0.23777000  0.43583000  0.98425000  1.0 0.1109012873
H  H252  1  0.31113000  0.42213000  0.97531000  1.0 0.1005337984
H  H253  1  0.04220000  0.04756000  0.81848000  1.0 0.1189680294
H  H254  1  0.00339000  0.14249000  0.80195000  1.0 0.1109012873
H  H255  1  0.80624000  0.05776000  0.81348000  1.0 0.1109012873
H  H256  1  0.84505000  0.96283000  0.83001000  1.0 0.136945574
H  H257  1  0.57191000  0.29003000  0.81314000  1.0 0.1189680294
H  H258  1  0.60268000  0.31370000  0.78970000  1.0 0.1109012873
H  H259  1  0.30543000  0.11357000  0.75002000  1.0 0.1189680294
H  H260  1  0.31532000  0.31922000  0.74132000  1.0 0.1109012873
H  H261  1  0.26085000  0.30011000  0.70713000  1.0 0.1189680294
H  H262  1  0.25097000  0.09445000  0.71584000  1.0 0.1284557948
H  H263  1  0.51155000  0.55895000  0.84593000  1.0 0.1109012873
H  H264  1  0.85753000  0.38431000  0.75907000  1.0 0.1189680294
H  H265  1  0.78541000  0.36947000  0.77148000  1.0 0.1189680294
H  H266  1  0.28485000  0.15185000  0.78650000  1.0 0.1109012873
H  H267  1  0.76084000  0.44585000  0.00053000  1.0 0.1109012873
H  H268  1  0.74749000  0.32963000  0.73767000  1.0 0.1109012873
H  H269  1  0.82107000  0.31235000  0.73068000  1.0 0.0903593851
H  H270  1  0.77276000  0.46602000  0.95437000  1.0 0.1189680294
H  H271  1  0.85368000  0.52014000  0.92939000  1.0 0.1284557948
H  H272  1  0.85221000  0.70117000  0.96125000  1.0 0.1005337984
H  H273  1  0.77128000  0.64706000  0.98624000  1.0 0.0903593851
H  H274  1  0.54934000  0.39592000  0.03449000  1.0 0.1109012873
H  H275  1  0.51014000  0.37146000  0.01238000  1.0 0.1109012873
H  H276  1  0.30624000  0.08837000  0.98003000  1.0 0.1109012873
H  H277  1  0.28250000  0.11468000  0.95686000  1.0 0.0903593851
H  H278  1  0.77510000  0.30152000  0.05815000  1.0 0.1284557948
H  H279  1  0.60720000  0.19228000  0.02980000  1.0 0.1189680294
H  H280  1  0.59174000  0.28788000  0.00838000  1.0 0.1189680294
H  H281  1  0.75964000  0.39712000  0.03673000  1.0 0.1189680294
H  H282  1  0.49863000  0.49393000  0.03647000  1.0 0.0903593851
H  H283  1  0.44069000  0.45089000  0.02152000  1.0 0.1109012873
H  H284  1  0.64434000  0.41354000  0.80137000  1.0 0.1189680294
H  H285  1  0.63847000  0.37793000  0.82494000  1.0 0.1189680294
H  H286  1  0.32189000  0.39297000  0.01108000  1.0 0.1109012873
H  H287  1  0.24217000  0.36709000  0.01361000  1.0 0.1109012873
H  H288  1  0.23420000  0.14640000  0.82542000  1.0 0.1189680294
H  H289  1  0.42814000  0.10052000  0.83069000  1.0 0.1189680294
H  H290  1  0.38593000  0.99795000  0.84877000  1.0 0.1109012873
H  H291  1  0.19199000  0.04383000  0.84350000  1.0 0.1284557948
H  H292  1  0.31078000  0.39314000  0.82912000  1.0 0.0804909313
H  H293  1  0.32093000  0.32437000  0.81643000  1.0 0.0903593851
H  H294  1  0.54349000  0.39329000  0.76323000  1.0 0.1189680294
H  H295  1  0.43660000  0.34822000  0.74655000  1.0 0.1189680294
H  H296  1  0.18102000  0.86466000  0.79598000  1.0 0.072035306
H  H297  1  0.42184000  0.23066000  0.86467000  1.0 0.1109012873
H  H298  1  0.37463000  0.27029000  0.84928000  1.0 0.0903593851
H  H299  1  0.53573000  0.57235000  0.95504000  1.0 0.0804909313
H  H300  1  0.59932000  0.60376000  0.93988000  1.0 0.1005337984
H  H301  1  0.53284000  0.69704000  0.95631000  1.0 0.0804909313
H  H302  1  0.56678000  0.68072000  0.97929000  1.0 0.0903593851
H  H303  1  0.25024000  0.34768000  0.78716000  1.0 0.1109012873
H  H304  1  0.26153000  0.42768000  0.79203000  1.0 0.1005337984
H  H305  1  0.83341000  0.83227000  0.98336000  1.0 0.1005337984
H  H306  1  0.78580000  0.76316000  0.98121000  1.0 0.1189680294
H  H307  1  0.10720000  0.04408000  0.02131000  1.0 0.0903593851
H  H308  1  0.13581000  0.08453000  0.99999000  1.0 0.0903593851
H  H309  1  0.51359000  0.33353000  0.85247000  1.0 0.1109012873
H  H310  1  0.44755000  0.37127000  0.85155000  1.0 0.0804909313
H  H311  1  0.12901000  0.42167000  0.83447000  1.0 0.1109012873
H  H312  1  0.20803000  0.45249000  0.83381000  1.0 0.1005337984
H  H313  1  0.29110000  0.31392000  0.87590000  1.0 0.0596638152
H  H314  1  0.21415000  0.29027000  0.88351000  1.0 0.0903593851
H  H315  1  0.14415000  0.34349000  0.85813000  1.0 0.1109012873
H  H316  1  0.21134000  0.32706000  0.84656000  1.0 0.1005337984
H  H317  1  0.46787000  0.44133000  0.88935000  1.0 0.1109012873
H  H318  1  0.44243000  0.39131000  0.90920000  1.0 0.1109012873
H  H319  1  0.36131000  0.42289000  0.87198000  1.0 0.1005337984
H  H320  1  0.34648000  0.34502000  0.87983000  1.0 0.0596638152
H  H321  1  0.23309000  0.35981000  0.91628000  1.0 0.0903593851
H  H322  1  0.29330000  0.31300000  0.91523000  1.0 0.0804909313
H  H323  1  0.65221000  0.86773000  0.97681000  1.0 0.1005337984
H  H324  1  0.65892000  0.79578000  0.98808000  1.0 0.1005337984
H  H325  1  0.60615000  0.80313000  0.94803000  1.0 0.1005337984
H  H326  1  0.68368000  0.79826000  0.94202000  1.0 0.1109012873
H  H327  1  0.16610000  0.05964000  0.97338000  1.0 0.0596638152
H  H328  1  0.20951000  0.01909000  0.95704000  1.0 0.1109012873
H  H329  1  0.02383000  0.97919000  0.02132000  1.0 0.1109012873
H  H330  1  0.00288000  0.92266000  0.00264000  1.0 0.1109012873
H  H331  1  0.22801000  0.04955000  0.01806000  1.0 0.1189680294
H  H332  1  0.19083000  0.97253000  0.01911000  1.0 0.1109012873
H  H333  1  0.70217000  0.10667000  0.77806000  1.0 0.072035306
H  H334  1  0.73882000  0.05988000  0.79421000  1.0 0.0804909313
H  H335  1  0.91058000  0.03064000  0.75341000  1.0 0.072035306
H  H336  1  0.87993000  0.01001000  0.77707000  1.0 0.1005337984
H  H337  1  0.01747000  0.90701000  0.75656000  1.0 0.0903593851
H  H338  1  0.02024000  0.96872000  0.77264000  1.0 0.1109012873
H  H339  1  0.80642000  0.99612000  0.73944000  1.0 0.0903593851
H  H340  1  0.81702000  0.91986000  0.74527000  1.0 0.1109012873
H  H341  1  0.66236000  0.98746000  0.76979000  1.0 0.1005337984
H  H342  1  0.70397000  0.02141000  0.74911000  1.0 0.0903593851
H  H343  1  0.85189000  0.73149000  0.42743000  1.0 0.1109012873
H  H344  1  0.33246000  0.55782000  0.35822000  1.0 0.1189680294
H  H345  1  0.22953000  0.49773000  0.37173000  1.0 0.1284557948
H  H346  1  0.27158000  0.32452000  0.34157000  1.0 0.1284557948
H  H347  1  0.37452000  0.38462000  0.32805000  1.0 0.1189680294
H  H348  1  0.77195000  0.44441000  0.42237000  1.0 0.1189680294
H  H349  1  0.95978000  0.55518000  0.41243000  1.0 0.1284557948
H  H350  1  0.92561000  0.64729000  0.43192000  1.0 0.1109012873
H  H351  1  0.73777000  0.53653000  0.44186000  1.0 0.1189680294
H  H352  1  0.84887000  0.92709000  0.39073000  1.0 0.1284557948
H  H353  1  0.93280000  0.00942000  0.44746000  1.0 0.1284557948
H  H354  1  0.88883000  0.90895000  0.46638000  1.0 0.072035306
H  H355  1  0.80490000  0.82662000  0.40965000  1.0 0.1189680294
H  H356  1  0.06056000  0.76150000  0.31574000  1.0 0.1189680294
H  H357  1  0.12014000  0.65734000  0.33651000  1.0 0.1189680294
H  H358  1  0.06664000  0.55702000  0.35361000  1.0 0.1284557948
H  H359  1  0.97260000  0.49552000  0.29607000  1.0 0.1284557948
H  H360  1  0.02609000  0.59585000  0.27898000  1.0 0.1109012873
H  H361  1  0.68846000  0.39558000  0.37348000  1.0 0.1189680294
H  H362  1  0.60199000  0.46241000  0.36568000  1.0 0.1109012873
H  H363  1  0.65156000  0.46168000  0.30087000  1.0 0.1189680294
H  H364  1  0.73804000  0.39486000  0.30866000  1.0 0.1189680294
H  H365  1  0.76223000  0.56417000  0.48425000  1.0 0.1109012873
H  H366  1  0.68887000  0.57787000  0.47531000  1.0 0.1005337984
H  H367  1  0.95780000  0.95244000  0.31848000  1.0 0.1189680294
H  H368  1  0.99661000  0.85751000  0.30195000  1.0 0.1109012873
H  H369  1  0.19376000  0.94224000  0.31348000  1.0 0.1109012873
H  H370  1  0.15495000  0.03717000  0.33001000  1.0 0.1284557948
H  H371  1  0.42809000  0.70997000  0.31314000  1.0 0.1189680294
H  H372  1  0.39732000  0.68630000  0.28970000  1.0 0.1109012873
H  H373  1  0.69457000  0.88643000  0.25002000  1.0 0.1189680294
H  H374  1  0.68468000  0.68078000  0.24132000  1.0 0.1109012873
H  H375  1  0.73915000  0.69989000  0.20713000  1.0 0.1189680294
H  H376  1  0.74903000  0.90555000  0.21584000  1.0 0.1284557948
H  H377  1  0.48845000  0.44105000  0.34593000  1.0 0.1109012873
H  H378  1  0.14247000  0.61569000  0.25907000  1.0 0.1189680294
H  H379  1  0.21459000  0.63053000  0.27148000  1.0 0.1189680294
H  H380  1  0.71515000  0.84815000  0.28650000  1.0 0.1109012873
H  H381  1  0.23916000  0.55415000  0.50053000  1.0 0.1109012873
H  H382  1  0.25251000  0.67037000  0.23767000  1.0 0.1109012873
H  H383  1  0.17893000  0.68765000  0.23068000  1.0 0.0903593851
H  H384  1  0.22724000  0.53398000  0.45437000  1.0 0.1189680294
H  H385  1  0.14632000  0.47986000  0.42939000  1.0 0.1284557948
H  H386  1  0.14779000  0.29883000  0.46125000  1.0 0.1005337984
H  H387  1  0.22872000  0.35294000  0.48624000  1.0 0.0903593851
H  H388  1  0.45066000  0.60408000  0.53449000  1.0 0.1109012873
H  H389  1  0.48986000  0.62854000  0.51238000  1.0 0.1109012873
H  H390  1  0.69376000  0.91163000  0.48003000  1.0 0.1109012873
H  H391  1  0.71750000  0.88532000  0.45686000  1.0 0.0903593851
H  H392  1  0.22490000  0.69848000  0.55815000  1.0 0.1189680294
H  H393  1  0.39280000  0.80772000  0.52980000  1.0 0.1189680294
H  H394  1  0.40826000  0.71212000  0.50838000  1.0 0.1189680294
H  H395  1  0.24036000  0.60288000  0.53673000  1.0 0.1189680294
H  H396  1  0.50137000  0.50607000  0.53647000  1.0 0.0903593851
H  H397  1  0.55931000  0.54911000  0.52152000  1.0 0.1109012873
H  H398  1  0.35566000  0.58646000  0.30137000  1.0 0.1189680294
H  H399  1  0.36153000  0.62207000  0.32494000  1.0 0.1189680294
H  H400  1  0.67811000  0.60703000  0.51108000  1.0 0.1109012873
H  H401  1  0.75783000  0.63291000  0.51361000  1.0 0.1109012873
H  H402  1  0.76580000  0.85360000  0.32542000  1.0 0.1189680294
H  H403  1  0.57186000  0.89948000  0.33069000  1.0 0.1189680294
H  H404  1  0.61407000  0.00205000  0.34877000  1.0 0.1109012873
H  H405  1  0.80801000  0.95617000  0.34350000  1.0 0.1284557948
H  H406  1  0.68922000  0.60686000  0.32912000  1.0 0.0804909313
H  H407  1  0.67907000  0.67563000  0.31643000  1.0 0.0903593851
H  H408  1  0.45651000  0.60671000  0.26323000  1.0 0.1189680294
H  H409  1  0.56340000  0.65178000  0.24655000  1.0 0.1189680294
H  H410  1  0.81898000  0.13534000  0.29598000  1.0 0.072035306
H  H411  1  0.57816000  0.76934000  0.36467000  1.0 0.1109012873
H  H412  1  0.62537000  0.72971000  0.34928000  1.0 0.0903593851
H  H413  1  0.46427000  0.42765000  0.45504000  1.0 0.0804909313
H  H414  1  0.40068000  0.39624000  0.43988000  1.0 0.1005337984
H  H415  1  0.46716000  0.30296000  0.45631000  1.0 0.0804909313
H  H416  1  0.43322000  0.31928000  0.47929000  1.0 0.0903593851
H  H417  1  0.74976000  0.65232000  0.28716000  1.0 0.1109012873
H  H418  1  0.73847000  0.57232000  0.29203000  1.0 0.1005337984
H  H419  1  0.16659000  0.16773000  0.48336000  1.0 0.1005337984
H  H420  1  0.21420000  0.23684000  0.48121000  1.0 0.1189680294
H  H421  1  0.89280000  0.95592000  0.52131000  1.0 0.0903593851
H  H422  1  0.86419000  0.91547000  0.49999000  1.0 0.0903593851
H  H423  1  0.48641000  0.66647000  0.35247000  1.0 0.1109012873
H  H424  1  0.55245000  0.62873000  0.35155000  1.0 0.0903593851
H  H425  1  0.87099000  0.57833000  0.33447000  1.0 0.1109012873
H  H426  1  0.79197000  0.54751000  0.33381000  1.0 0.1005337984
H  H427  1  0.70890000  0.68608000  0.37590000  1.0 0.0596638152
H  H428  1  0.78585000  0.70973000  0.38351000  1.0 0.0903593851
H  H429  1  0.85585000  0.65651000  0.35813000  1.0 0.1109012873
H  H430  1  0.78866000  0.67294000  0.34656000  1.0 0.1005337984
H  H431  1  0.53213000  0.55867000  0.38935000  1.0 0.1109012873
H  H432  1  0.55757000  0.60869000  0.40920000  1.0 0.1109012873
H  H433  1  0.63869000  0.57711000  0.37198000  1.0 0.1005337984
H  H434  1  0.65352000  0.65498000  0.37983000  1.0 0.0596638152
H  H435  1  0.76691000  0.64019000  0.41628000  1.0 0.0903593851
H  H436  1  0.70670000  0.68700000  0.41523000  1.0 0.0804909313
H  H437  1  0.34779000  0.13227000  0.47681000  1.0 0.1005337984
H  H438  1  0.34108000  0.20422000  0.48808000  1.0 0.1005337984
H  H439  1  0.39385000  0.19687000  0.44803000  1.0 0.1005337984
H  H440  1  0.31632000  0.20174000  0.44202000  1.0 0.1109012873
H  H441  1  0.83390000  0.94036000  0.47338000  1.0 0.0596638152
H  H442  1  0.79049000  0.98091000  0.45704000  1.0 0.1109012873
H  H443  1  0.97617000  0.02081000  0.52132000  1.0 0.1109012873
H  H444  1  0.99712000  0.07734000  0.50264000  1.0 0.1109012873
H  H445  1  0.77199000  0.95045000  0.51806000  1.0 0.1189680294
H  H446  1  0.80917000  0.02747000  0.51911000  1.0 0.1109012873
H  H447  1  0.29783000  0.89333000  0.27806000  1.0 0.072035306
H  H448  1  0.26118000  0.94012000  0.29421000  1.0 0.0804909313
H  H449  1  0.08942000  0.96936000  0.25341000  1.0 0.072035306
H  H450  1  0.12007000  0.98999000  0.27707000  1.0 0.1005337984
H  H451  1  0.98253000  0.09299000  0.25656000  1.0 0.0903593851
H  H452  1  0.97976000  0.03128000  0.27264000  1.0 0.1109012873
H  H453  1  0.19358000  0.00388000  0.23944000  1.0 0.0903593851
H  H454  1  0.18298000  0.08014000  0.24527000  1.0 0.1109012873
H  H455  1  0.33764000  0.01254000  0.26979000  1.0 0.1005337984
H  H456  1  0.29603000  0.97859000  0.24911000  1.0 0.0903593851
C  C1  1  0.34300000  0.77340000  0.65340000  1.0 0.6436800878
C  C2  1  0.72900000  0.82740000  0.55925000  1.0 -0.2204999417
C  C3  1  0.66490000  0.80230000  0.55010000  1.0 0.0103504104
C  C4  1  0.66120000  0.76580000  0.53018000  1.0 0.0390965501
C  C5  1  0.72160000  0.75440000  0.51942000  1.0 -0.0907259178
C  C6  1  0.78580000  0.77960000  0.52857000  1.0 0.1638209407
C  C7  1  0.78950000  0.81610000  0.54849000  1.0 -0.041356509
C  C8  1  0.51110000  0.32030000  0.64512000  1.0 -0.178920327
C  C9  1  0.47500000  0.25860000  0.63702000  1.0 -0.0997436634
C  C10  1  0.40520000  0.24040000  0.64201000  1.0 -0.0193328438
C  C11  1  0.37130000  0.28370000  0.65510000  1.0 -0.0801987834
C  C12  1  0.40730000  0.34550000  0.66319000  1.0 -0.1619749057
C  C13  1  0.47710000  0.36370000  0.65821000  1.0 0.0804909313
C  C14  1  0.48510000  0.80270000  0.57571000  1.0 -0.0907259178
C  C15  1  0.49070000  0.86930000  0.58453000  1.0 -0.0193328438
C  C16  1  0.55150000  0.91530000  0.58167000  1.0 -0.0907259178
C  C17  1  0.60660000  0.89480000  0.56999000  1.0 -0.1692549355
C  C18  1  0.60110000  0.82830000  0.56118000  1.0 0.0804909313
C  C19  1  0.54030000  0.78230000  0.56403000  1.0 -0.150640694
C  C20  1  0.92350000  0.85690000  0.59410000  1.0 -0.0801987834
C  C21  1  0.97820000  0.89520000  0.58280000  1.0 -0.0487007037
C  C22  1  0.97280000  0.90720000  0.56010000  1.0 -0.1182722062
C  C23  1  0.91260000  0.88080000  0.54878000  1.0 -0.1901553782
C  C24  1  0.85790000  0.84250000  0.56010000  1.0 0.1005337984
C  C25  1  0.86330000  0.83050000  0.58277000  1.0 -0.178920327
C  C26  1  0.70820000  0.15420000  0.72356000  1.0 0.0390965501
C  C27  1  0.77270000  0.18430000  0.73143000  1.0 -0.0907259178
C  C28  1  0.83290000  0.16810000  0.72162000  1.0 0.1706350414
C  C29  1  0.82870000  0.12170000  0.70395000  1.0 -0.041356509
C  C30  1  0.76430000  0.09150000  0.69609000  1.0 -0.1901553782
C  C31  1  0.70400000  0.10780000  0.70589000  1.0 -0.014449189
C  C32  1  0.45150000  0.98790000  0.66160000  1.0 0.6167267497
C  C33  1  0.63660000  0.07840000  0.69390000  1.0 0.0903593851
C  C34  1  0.62490000  0.09050000  0.67160000  1.0 -0.1619749057
C  C35  1  0.56480000  0.05860000  0.66135000  1.0 -0.0907259178
C  C36  1  0.51630000  0.01430000  0.67350000  1.0 -0.059782703
C  C37  1  0.52800000  0.00220000  0.69580000  1.0 -0.0801987834
C  C38  1  0.58800000  0.03420000  0.70606000  1.0 -0.178920327
C  C39  1  0.38857000  0.72183000  0.65820000  1.0 -0.0801987834
C  C40  1  0.40880000  0.68100000  0.64107000  1.0 -0.0801987834
C  C41  1  0.44890000  0.62930000  0.64574000  1.0 -0.178920327
C  C42  1  0.46860000  0.61820000  0.66750000  1.0 0.1005337984
C  C43  1  0.44840000  0.65900000  0.68458000  1.0 -0.1619749057
C  C44  1  0.40840000  0.71080000  0.67991000  1.0 -0.0907259178
C  C45  1  0.59880000  0.73160000  0.51760000  1.0 -0.2106979705
C  C46  1  0.00420000  0.05260000  0.67412000  1.0 -0.0193328438
C  C47  1  0.95040000  0.00500000  0.68253000  1.0 -0.0997436634
C  C48  1  0.89350000  0.02830000  0.69243000  1.0 -0.1692549355
C  C49  1  0.89040000  0.09900000  0.69392000  1.0 0.0903593851
C  C50  1  0.94430000  0.14650000  0.68552000  1.0 -0.150640694
C  C51  1  0.00120000  0.12320000  0.67562000  1.0 -0.0907259178
C  C52  1  0.67250000  0.42290000  0.69760000  1.0 -0.2204999417
C  C53  1  0.84910000  0.70350000  0.75857000  1.0 -0.150640694
C  C54  1  0.78170000  0.68430000  0.75094000  1.0 0.0804909313
C  C55  1  0.72580000  0.69760000  0.76379000  1.0 -0.1692549355
C  C56  1  0.73720000  0.73020000  0.78427000  1.0 -0.0997436634
C  C57  1  0.80470000  0.74950000  0.79190000  1.0 -0.0193328438
C  C58  1  0.86050000  0.73610000  0.77906000  1.0 -0.0907259178
C  C59  1  0.50560000  0.55640000  0.67251000  1.0 -0.0487007037
C  C60  1  0.56340000  0.56240000  0.68631000  1.0 0.1706350414
C  C61  1  0.59520000  0.50460000  0.69091000  1.0 -0.0997436634
C  C62  1  0.56930000  0.44070000  0.68171000  1.0 0.0103504104
C  C63  1  0.51150000  0.43470000  0.66791000  1.0 0.0046169766
C  C64  1  0.47970000  0.49250000  0.66331000  1.0 -0.2017136045
C  C65  1  0.65610000  0.49430000  0.70490000  1.0 0.1284557948
C  C66  1  0.65140000  0.18020000  0.73680000  1.0 -0.2106979705
C  C67  1  0.81240000  0.64100000  0.69117000  1.0 -0.0279313115
C  C68  1  0.76370000  0.58230000  0.68802000  1.0 0.136945574
C  C69  1  0.71840000  0.55840000  0.70510000  1.0 -0.0709619287
C  C70  1  0.72170000  0.59330000  0.72528000  1.0 0.0390965501
C  C71  1  0.77020000  0.65200000  0.72844000  1.0 0.0103504104
C  C72  1  0.81560000  0.67580000  0.71140000  1.0 -0.2017136045
C  C73  1  0.47170000  0.36090000  0.51799000  1.0 0.1766878352
C  C74  1  0.48890000  0.29450000  0.51540000  1.0 -0.059782703
C  C75  1  0.54270000  0.28350000  0.50120000  1.0 -0.2106979705
C  C76  1  0.57940000  0.33900000  0.48976000  1.0 -0.0012132081
C  C77  1  0.56230000  0.40530000  0.49240000  1.0 0.0315697281
C  C78  1  0.50850000  0.41630000  0.50650000  1.0 -0.0907259178
C  C79  1  0.69030000  0.21230000  0.75730000  1.0 -0.2280355707
C  C80  1  0.04400000  0.91820000  0.59490000  1.0 0.6272675827
C  C81  1  0.44880000  0.23600000  0.52720000  1.0 0.1005337984
C  C82  1  0.48690000  0.21130000  0.54420000  1.0 -0.1619749057
C  C83  1  0.45440000  0.16280000  0.55920000  1.0 -0.0907259178
C  C84  1  0.38400000  0.13900000  0.55720000  1.0 -0.0279313115
C  C85  1  0.34590000  0.16370000  0.54010000  1.0 -0.1182722062
C  C86  1  0.37840000  0.21220000  0.52520000  1.0 -0.178920327
C  C87  1  0.58900000  0.46440000  0.48000000  1.0 -0.2204999417
C  C88  1  0.06520000  0.02480000  0.66200000  1.0 0.613933815
C  C89  1  0.89880000  0.73280000  0.52820000  1.0 -0.0709619287
C  C90  1  0.70120000  0.26160000  0.45183000  1.0 -0.0997436634
C  C91  1  0.76250000  0.30730000  0.45391000  1.0 -0.0193328438
C  C92  1  0.76670000  0.36230000  0.46881000  1.0 -0.0997436634
C  C93  1  0.70930000  0.37150000  0.48165000  1.0 -0.1619749057
C  C94  1  0.64800000  0.32580000  0.47957000  1.0 0.0804909313
C  C95  1  0.64390000  0.27090000  0.46470000  1.0 -0.1692549355
C  C96  1  0.53120000  0.51040000  0.47740000  1.0 -0.2415197879
C  C97  1  0.81760000  0.77560000  0.81550000  1.0 0.5995407239
C  C98  1  0.61120000  0.38760000  0.68800000  1.0 -0.2204999417
C  C99  1  0.63300000  0.71820000  0.49610000  1.0 -0.2415197879
C  C100  1  0.36740000  0.16920000  0.63590000  1.0 0.6167267497
C  C101  1  0.82740000  0.29800000  0.44020000  1.0 0.5500046944
C  C102  1  0.42850000  0.88930000  0.59690000  1.0 0.6167267497
C  C103  1  0.34550000  0.08610000  0.57290000  1.0 0.6456127003
C  C104  1  0.88340000  0.73540000  0.66990000  1.0 -0.1692549355
C  C105  1  0.86640000  0.66460000  0.67374000  1.0 0.0804909313
C  C106  1  0.91080000  0.61920000  0.66666667  1.0 -0.150640694
C  C107  1  0.97230000  0.64450000  0.65590000  1.0 -0.0907259178
C  C108  1  0.98920000  0.71520000  0.65208000  1.0 -0.0193328438
C  C109  1  0.94480000  0.76060000  0.65910000  1.0 -0.0997436634
C  C110  1  0.62700000  0.68340000  0.68540000  1.0 -0.0487007037
C  C111  1  0.63520000  0.49240000  0.72980000  1.0 -0.1692549355
C  C112  1  0.66440000  0.54980000  0.73940000  1.0 -0.1332300991
C  C113  1  0.15410000  0.84250000  0.69150000  1.0 0.5304181114
C  C114  1  0.73620000  0.57800000  0.64740000  1.0 -0.0487007037
C  C115  1  0.05580000  0.74460000  0.64050000  1.0 0.5500046944
C  C116  1  0.39660000  0.42060000  0.54530000  1.0 -0.041356509
C  C117  1  0.32070000  0.42830000  0.53670000  1.0 -0.059782703
C  C118  1  0.61780000  0.74640000  0.70110000  1.0 -0.0709619287
C  C119  1  0.19150000  0.21130000  0.51191000  1.0 -0.1182722062
C  C120  1  0.96090000  0.87190000  0.49310000  1.0 -0.0907259178
C  C121  1  0.66666667  0.53290000  0.64170000  1.0 -0.0801987834
C  C122  1  0.59020000  0.82440000  0.66666667  1.0 -0.0487007037
C  C123  1  0.67150000  0.74810000  0.61640000  1.0 -0.0997436634
C  C124  1  0.63560000  0.81100000  0.64740000  1.0 -0.0709619287
C  C125  1  0.60320000  0.55840000  0.60680000  1.0 -0.0487007037
C  C126  1  0.60800000  0.63620000  0.61550000  1.0 -0.041356509
C  C127  1  0.65120000  0.72780000  0.59230000  1.0 -0.059782703
C  C128  1  0.17490000  0.32790000  0.52470000  1.0 -0.0801987834
C  C129  1  0.21300000  0.35180000  0.54670000  1.0 -0.059782703
C  C130  1  0.95640000  0.78960000  0.52890000  1.0 -0.0997436634
C  C131  1  0.02860000  0.98100000  0.49460000  1.0 -0.0709619287
C  C132  1  0.98550000  0.80310000  0.48980000  1.0 -0.0487007037
C  C133  1  0.92670000  0.26550000  0.72120000  1.0 -0.0487007037
C  C134  1  0.00710000  0.11330000  0.73780000  1.0 -0.0709619287
C  C135  1  0.04830000  0.99830000  0.74160000  1.0 -0.0487007037
C  C136  1  0.03440000  0.18460000  0.74850000  1.0 -0.041356509
C  C137  1  0.99120000  0.29240000  0.73540000  1.0 -0.059782703
C  C138  1  0.65700000  0.22660000  0.15340000  1.0 0.6436800878
C  C139  1  0.27100000  0.17260000  0.05925000  1.0 -0.2204999417
C  C140  1  0.33510000  0.19770000  0.05010000  1.0 0.0103504104
C  C141  1  0.33880000  0.23420000  0.03018000  1.0 0.0390965501
C  C142  1  0.27840000  0.24560000  0.01942000  1.0 -0.0907259178
C  C143  1  0.21420000  0.22040000  0.02857000  1.0 0.1706350414
C  C144  1  0.21050000  0.18390000  0.04849000  1.0 -0.041356509
C  C145  1  0.48890000  0.67970000  0.14512000  1.0 -0.178920327
C  C146  1  0.52500000  0.74140000  0.13702000  1.0 -0.0997436634
C  C147  1  0.59480000  0.75960000  0.14201000  1.0 -0.0193328438
C  C148  1  0.62870000  0.71630000  0.15510000  1.0 -0.0801987834
C  C149  1  0.59270000  0.65450000  0.16319000  1.0 -0.1619749057
C  C150  1  0.52290000  0.63630000  0.15821000  1.0 0.0804909313
C  C151  1  0.51490000  0.19730000  0.07571000  1.0 -0.0907259178
C  C152  1  0.50930000  0.13070000  0.08453000  1.0 -0.0193328438
C  C153  1  0.44850000  0.08470000  0.08167000  1.0 -0.0907259178
C  C154  1  0.39340000  0.10520000  0.06999000  1.0 -0.1692549355
C  C155  1  0.39890000  0.17170000  0.06118000  1.0 0.0804909313
C  C156  1  0.45970000  0.21770000  0.06403000  1.0 -0.150640694
C  C157  1  0.07650000  0.14310000  0.09410000  1.0 -0.0801987834
C  C158  1  0.02180000  0.10480000  0.08280000  1.0 -0.0487007037
C  C159  1  0.02720000  0.09280000  0.06010000  1.0 -0.1182722062
C  C160  1  0.08740000  0.11920000  0.04878000  1.0 -0.1901553782
C  C161  1  0.14210000  0.15750000  0.06010000  1.0 0.1005337984
C  C162  1  0.13670000  0.16950000  0.08277000  1.0 -0.178920327
C  C163  1  0.29180000  0.84580000  0.22356000  1.0 0.0390965501
C  C164  1  0.22730000  0.81570000  0.23143000  1.0 -0.0907259178
C  C165  1  0.16710000  0.83190000  0.22162000  1.0 0.1706350414
C  C166  1  0.17130000  0.87830000  0.20395000  1.0 -0.041356509
C  C167  1  0.23570000  0.90850000  0.19609000  1.0 -0.1901553782
C  C168  1  0.29600000  0.89220000  0.20589000  1.0 -0.014449189
C  C169  1  0.54850000  0.01210000  0.16160000  1.0 0.6167267497
C  C170  1  0.36340000  0.92160000  0.19390000  1.0 0.0903593851
C  C171  1  0.37510000  0.90950000  0.17160000  1.0 -0.1619749057
C  C172  1  0.43520000  0.94140000  0.16135000  1.0 -0.0907259178
C  C173  1  0.48370000  0.98570000  0.17350000  1.0 -0.059782703
C  C174  1  0.47200000  0.99780000  0.19580000  1.0 -0.0801987834
C  C175  1  0.41200000  0.96580000  0.20606000  1.0 -0.178920327
C  C176  1  0.61143000  0.27817000  0.15820000  1.0 -0.0709619287
C  C177  1  0.59120000  0.31900000  0.14107000  1.0 -0.0801987834
C  C178  1  0.55110000  0.37070000  0.14574000  1.0 -0.178920327
C  C179  1  0.53140000  0.38180000  0.16750000  1.0 0.1005337984
C  C180  1  0.55160000  0.34100000  0.18458000  1.0 -0.1619749057
C  C181  1  0.59160000  0.28920000  0.17991000  1.0 -0.0997436634
C  C182  1  0.40120000  0.26840000  0.01760000  1.0 -0.2106979705
C  C183  1  0.99580000  0.94740000  0.17412000  1.0 -0.0193328438
C  C184  1  0.04960000  0.99500000  0.18253000  1.0 -0.1083693636
C  C185  1  0.10650000  0.97170000  0.19243000  1.0 -0.1692549355
C  C186  1  0.10960000  0.90100000  0.19392000  1.0 0.0903593851
C  C187  1  0.05570000  0.85350000  0.18552000  1.0 -0.150640694
C  C188  1  0.99880000  0.87680000  0.17562000  1.0 -0.0907259178
C  C189  1  0.32750000  0.57710000  0.19760000  1.0 -0.2204999417
C  C190  1  0.15090000  0.29650000  0.25857000  1.0 -0.150640694
C  C191  1  0.21830000  0.31570000  0.25094000  1.0 0.0804909313
C  C192  1  0.27420000  0.30240000  0.26379000  1.0 -0.1692549355
C  C193  1  0.26280000  0.26980000  0.28427000  1.0 -0.0997436634
C  C194  1  0.19530000  0.25050000  0.29190000  1.0 -0.0193328438
C  C195  1  0.13950000  0.26390000  0.27906000  1.0 -0.0907259178
C  C196  1  0.49440000  0.44360000  0.17251000  1.0 -0.0487007037
C  C197  1  0.43660000  0.43760000  0.18631000  1.0 0.1706350414
C  C198  1  0.40480000  0.49540000  0.19091000  1.0 -0.0997436634
C  C199  1  0.43070000  0.55930000  0.18171000  1.0 0.0103504104
C  C200  1  0.48850000  0.56530000  0.16791000  1.0 0.0046169766
C  C201  1  0.52030000  0.50750000  0.16331000  1.0 -0.2017136045
C  C202  1  0.34390000  0.50570000  0.20490000  1.0 0.1284557948
C  C203  1  0.34860000  0.81980000  0.23680000  1.0 -0.2106979705
C  C204  1  0.18760000  0.35900000  0.19117000  1.0 -0.0279313115
C  C205  1  0.23630000  0.41770000  0.18802000  1.0 0.136945574
C  C206  1  0.28160000  0.44160000  0.20510000  1.0 -0.0709619287
C  C207  1  0.27830000  0.40670000  0.22528000  1.0 0.0390965501
C  C208  1  0.22980000  0.34800000  0.22844000  1.0 0.0103504104
C  C209  1  0.18440000  0.32420000  0.21140000  1.0 -0.2017136045
C  C210  1  0.52830000  0.63910000  0.01799000  1.0 0.1766878352
C  C211  1  0.51110000  0.70550000  0.01540000  1.0 -0.059782703
C  C212  1  0.45730000  0.71650000  0.00120000  1.0 -0.2106979705
C  C213  1  0.42060000  0.66100000  0.98976000  1.0 -0.0012132081
C  C214  1  0.43770000  0.59470000  0.99240000  1.0 0.0315697281
C  C215  1  0.49150000  0.58370000  0.00650000  1.0 -0.0907259178
C  C216  1  0.30970000  0.78770000  0.25730000  1.0 -0.2280355707
C  C217  1  0.95600000  0.08180000  0.09490000  1.0 0.6272675827
C  C218  1  0.55120000  0.76400000  0.02720000  1.0 0.1005337984
C  C219  1  0.51310000  0.78870000  0.04420000  1.0 -0.1619749057
C  C220  1  0.54560000  0.83720000  0.05920000  1.0 -0.0907259178
C  C221  1  0.61600000  0.86100000  0.05720000  1.0 -0.0279313115
C  C222  1  0.65410000  0.83630000  0.04010000  1.0 -0.1182722062
C  C223  1  0.62160000  0.78780000  0.02520000  1.0 -0.178920327
C  C224  1  0.41100000  0.53560000  0.98000000  1.0 -0.2204999417
C  C225  1  0.93480000  0.97520000  0.16200000  1.0 0.613933815
C  C226  1  0.10120000  0.26720000  0.02820000  1.0 -0.0709619287
C  C227  1  0.29880000  0.73840000  0.95183000  1.0 -0.0997436634
C  C228  1  0.23750000  0.69270000  0.95391000  1.0 -0.0193328438
C  C229  1  0.23330000  0.63770000  0.96881000  1.0 -0.0997436634
C  C230  1  0.29070000  0.62850000  0.98165000  1.0 -0.1619749057
C  C231  1  0.35200000  0.67420000  0.97957000  1.0 0.0804909313
C  C232  1  0.35610000  0.72910000  0.96470000  1.0 -0.1692549355
C  C233  1  0.46880000  0.48960000  0.97740000  1.0 -0.2415197879
C  C234  1  0.18240000  0.22440000  0.31550000  1.0 0.5995407239
C  C235  1  0.38880000  0.61240000  0.18800000  1.0 -0.2204999417
C  C236  1  0.36700000  0.28180000  0.99610000  1.0 -0.2415197879
C  C237  1  0.63260000  0.83080000  0.13590000  1.0 0.6167267497
C  C238  1  0.17260000  0.70200000  0.94020000  1.0 0.5558224455
C  C239  1  0.57150000  0.11070000  0.09690000  1.0 0.6167267497
C  C240  1  0.65450000  0.91390000  0.07290000  1.0 0.6436800878
C  C241  1  0.11660000  0.26460000  0.16990000  1.0 -0.1692549355
C  C242  1  0.13360000  0.33540000  0.17374000  1.0 0.0804909313
C  C243  1  0.08920000  0.38080000  0.16667000  1.0 -0.150640694
C  C244  1  0.02770000  0.35550000  0.15590000  1.0 -0.0907259178
C  C245  1  0.01080000  0.28480000  0.15208000  1.0 -0.0193328438
C  C246  1  0.05520000  0.23940000  0.15910000  1.0 -0.0997436634
C  C247  1  0.37300000  0.31660000  0.18540000  1.0 -0.0487007037
C  C248  1  0.36480000  0.50760000  0.22980000  1.0 -0.1692549355
C  C249  1  0.33560000  0.45020000  0.23940000  1.0 -0.1332300991
C  C250  1  0.84590000  0.15750000  0.19150000  1.0 0.5304181114
C  C251  1  0.26380000  0.42200000  0.14740000  1.0 -0.0487007037
C  C252  1  0.94420000  0.25540000  0.14050000  1.0 0.5500046944
C  C253  1  0.60340000  0.57940000  0.04530000  1.0 -0.041356509
C  C254  1  0.67930000  0.57170000  0.03670000  1.0 -0.059782703
C  C255  1  0.38220000  0.25360000  0.20110000  1.0 -0.0801987834
C  C256  1  0.80850000  0.78870000  0.01191000  1.0 -0.1083693636
C  C257  1  0.03910000  0.12810000  0.99310000  1.0 -0.0907259178
C  C258  1  0.33333333  0.46710000  0.14170000  1.0 -0.0801987834
C  C259  1  0.40980000  0.17560000  0.16667000  1.0 -0.0487007037
C  C260  1  0.32850000  0.25190000  0.11640000  1.0 -0.1083693636
C  C261  1  0.36440000  0.18900000  0.14740000  1.0 -0.0709619287
C  C262  1  0.39680000  0.44160000  0.10680000  1.0 -0.0487007037
C  C263  1  0.39200000  0.36380000  0.11550000  1.0 -0.041356509
C  C264  1  0.34880000  0.27220000  0.09230000  1.0 -0.059782703
C  C265  1  0.82510000  0.67210000  0.02470000  1.0 -0.0801987834
C  C266  1  0.78700000  0.64820000  0.04670000  1.0 -0.059782703
C  C267  1  0.04360000  0.21040000  0.02890000  1.0 -0.0997436634
C  C268  1  0.97140000  0.01900000  0.99460000  1.0 -0.0709619287
C  C269  1  0.01450000  0.19690000  0.98980000  1.0 -0.0487007037
C  C270  1  0.07330000  0.73450000  0.22120000  1.0 -0.0487007037
C  C271  1  0.99290000  0.88670000  0.23780000  1.0 -0.0709619287
C  C272  1  0.95170000  0.00170000  0.24160000  1.0 -0.0487007037
C  C273  1  0.96560000  0.81540000  0.24850000  1.0 -0.041356509
C  C274  1  0.00880000  0.70760000  0.23540000  1.0 -0.059782703
C  C275  1  0.22660000  0.65700000  0.84660000  1.0 0.6436800878
C  C276  1  0.17260000  0.27100000  0.94075000  1.0 -0.2204999417
C  C277  1  0.19770000  0.33510000  0.94990000  1.0 0.0103504104
C  C278  1  0.23420000  0.33880000  0.96982000  1.0 0.0390965501
C  C279  1  0.24560000  0.27840000  0.98058000  1.0 -0.0907259178
C  C280  1  0.22040000  0.21420000  0.97143000  1.0 0.1638209407
C  C281  1  0.18390000  0.21050000  0.95151000  1.0 -0.041356509
C  C282  1  0.67970000  0.48890000  0.85488000  1.0 -0.178920327
C  C283  1  0.74140000  0.52500000  0.86298000  1.0 -0.0997436634
C  C284  1  0.75960000  0.59480000  0.85799000  1.0 -0.0193328438
C  C285  1  0.71630000  0.62870000  0.84490000  1.0 -0.0801987834
C  C286  1  0.65450000  0.59270000  0.83681000  1.0 -0.1619749057
C  C287  1  0.63630000  0.52290000  0.84179000  1.0 0.0804909313
C  C288  1  0.19730000  0.51490000  0.92429000  1.0 -0.0907259178
C  C289  1  0.13070000  0.50930000  0.91547000  1.0 -0.0193328438
C  C290  1  0.08470000  0.44850000  0.91833000  1.0 -0.0907259178
C  C291  1  0.10520000  0.39340000  0.93001000  1.0 -0.1692549355
C  C292  1  0.17170000  0.39890000  0.93882000  1.0 0.0804909313
C  C293  1  0.21770000  0.45970000  0.93597000  1.0 -0.150640694
C  C294  1  0.14310000  0.07650000  0.90590000  1.0 -0.0801987834
C  C295  1  0.10480000  0.02180000  0.91720000  1.0 -0.0487007037
C  C296  1  0.09280000  0.02720000  0.93990000  1.0 -0.1182722062
C  C297  1  0.11920000  0.08740000  0.95122000  1.0 -0.1901553782
C  C298  1  0.15750000  0.14210000  0.93990000  1.0 0.1005337984
C  C299  1  0.16950000  0.13670000  0.91723000  1.0 -0.178920327
C  C300  1  0.84580000  0.29180000  0.77644000  1.0 0.0390965501
C  C301  1  0.81570000  0.22730000  0.76857000  1.0 -0.0907259178
C  C302  1  0.83190000  0.16710000  0.77838000  1.0 0.1706350414
C  C303  1  0.87830000  0.17130000  0.79605000  1.0 -0.041356509
C  C304  1  0.90850000  0.23570000  0.80391000  1.0 -0.1901553782
C  C305  1  0.89220000  0.29600000  0.79411000  1.0 -0.014449189
C  C306  1  0.01210000  0.54850000  0.83840000  1.0 0.6167267497
C  C307  1  0.92160000  0.36340000  0.80610000  1.0 0.0903593851
C  C308  1  0.90950000  0.37510000  0.82840000  1.0 -0.1619749057
C  C309  1  0.94140000  0.43520000  0.83865000  1.0 -0.0801987834
C  C310  1  0.98570000  0.48370000  0.82650000  1.0 -0.059782703
C  C311  1  0.99780000  0.47200000  0.80420000  1.0 -0.0801987834
C  C312  1  0.96580000  0.41200000  0.79394000  1.0 -0.178920327
C  C313  1  0.27817000  0.61143000  0.84180000  1.0 -0.0801987834
C  C314  1  0.31900000  0.59120000  0.85893000  1.0 -0.0801987834
C  C315  1  0.37070000  0.55110000  0.85426000  1.0 -0.178920327
C  C316  1  0.38180000  0.53140000  0.83250000  1.0 0.1005337984
C  C317  1  0.34100000  0.55160000  0.81542000  1.0 -0.1619749057
C  C318  1  0.28920000  0.59160000  0.82009000  1.0 -0.0907259178
C  C319  1  0.26840000  0.40120000  0.98240000  1.0 -0.2106979705
C  C320  1  0.94740000  0.99580000  0.82588000  1.0 -0.0193328438
C  C321  1  0.99500000  0.04960000  0.81747000  1.0 -0.1083693636
C  C322  1  0.97170000  0.10650000  0.80757000  1.0 -0.1692549355
C  C323  1  0.90100000  0.10960000  0.80608000  1.0 0.0903593851
C  C324  1  0.85350000  0.05570000  0.81448000  1.0 -0.150640694
C  C325  1  0.87680000  0.99880000  0.82438000  1.0 -0.0907259178
C  C326  1  0.57710000  0.32750000  0.80240000  1.0 -0.2204999417
C  C327  1  0.29650000  0.15090000  0.74143000  1.0 -0.150640694
C  C328  1  0.31570000  0.21830000  0.74906000  1.0 0.0804909313
C  C329  1  0.30240000  0.27420000  0.73621000  1.0 -0.1692549355
C  C330  1  0.26980000  0.26280000  0.71573000  1.0 -0.0997436634
C  C331  1  0.25050000  0.19530000  0.70810000  1.0 -0.0193328438
C  C332  1  0.26390000  0.13950000  0.72094000  1.0 -0.0907259178
C  C333  1  0.44360000  0.49440000  0.82749000  1.0 -0.0487007037
C  C334  1  0.43760000  0.43660000  0.81369000  1.0 0.1706350414
C  C335  1  0.49540000  0.40480000  0.80909000  1.0 -0.0997436634
C  C336  1  0.55930000  0.43070000  0.81829000  1.0 0.0103504104
C  C337  1  0.56530000  0.48850000  0.83209000  1.0 0.0046169766
C  C338  1  0.50750000  0.52030000  0.83669000  1.0 -0.2017136045
C  C339  1  0.50570000  0.34390000  0.79510000  1.0 0.1284557948
C  C340  1  0.81980000  0.34860000  0.76320000  1.0 -0.2106979705
C  C341  1  0.35900000  0.18760000  0.80883000  1.0 -0.0279313115
C  C342  1  0.41770000  0.23630000  0.81198000  1.0 0.136945574
C  C343  1  0.44160000  0.28160000  0.79490000  1.0 -0.0709619287
C  C344  1  0.40670000  0.27830000  0.77472000  1.0 0.0390965501
C  C345  1  0.34800000  0.22980000  0.77156000  1.0 0.0103504104
C  C346  1  0.32420000  0.18440000  0.78860000  1.0 -0.2017136045
C  C347  1  0.63910000  0.52830000  0.98201000  1.0 0.1766878352
C  C348  1  0.70550000  0.51110000  0.98460000  1.0 -0.0487007037
C  C349  1  0.71650000  0.45730000  0.99880000  1.0 -0.2106979705
C  C350  1  0.66100000  0.42060000  0.01024000  1.0 -0.0012132081
C  C351  1  0.59470000  0.43770000  0.00760000  1.0 0.0315697281
C  C352  1  0.58370000  0.49150000  0.99350000  1.0 -0.0907259178
C  C353  1  0.78770000  0.30970000  0.74270000  1.0 -0.2280355707
C  C354  1  0.08180000  0.95600000  0.90510000  1.0 0.6272675827
C  C355  1  0.76400000  0.55120000  0.97280000  1.0 0.1005337984
C  C356  1  0.78870000  0.51310000  0.95580000  1.0 -0.1619749057
C  C357  1  0.83720000  0.54560000  0.94080000  1.0 -0.0907259178
C  C358  1  0.86100000  0.61600000  0.94280000  1.0 -0.0279313115
C  C359  1  0.83630000  0.65410000  0.95990000  1.0 -0.1182722062
C  C360  1  0.78780000  0.62160000  0.97480000  1.0 -0.178920327
C  C361  1  0.53560000  0.41100000  0.02000000  1.0 -0.2204999417
C  C362  1  0.97520000  0.93480000  0.83800000  1.0 0.613933815
C  C363  1  0.26720000  0.10120000  0.97180000  1.0 -0.0709619287
C  C364  1  0.73840000  0.29880000  0.04817000  1.0 -0.0997436634
C  C365  1  0.69270000  0.23750000  0.04609000  1.0 -0.0193328438
C  C366  1  0.63770000  0.23330000  0.03119000  1.0 -0.0997436634
C  C367  1  0.62850000  0.29070000  0.01835000  1.0 -0.1619749057
C  C368  1  0.67420000  0.35200000  0.02043000  1.0 0.0804909313
C  C369  1  0.72910000  0.35610000  0.03530000  1.0 -0.1692549355
C  C370  1  0.48960000  0.46880000  0.02260000  1.0 -0.2415197879
C  C371  1  0.22440000  0.18240000  0.68450000  1.0 0.5995407239
C  C372  1  0.61240000  0.38880000  0.81200000  1.0 -0.2204999417
C  C373  1  0.28180000  0.36700000  0.00390000  1.0 -0.2415197879
C  C374  1  0.83080000  0.63260000  0.86410000  1.0 0.6167267497
C  C375  1  0.70200000  0.17260000  0.05980000  1.0 0.5500046944
C  C376  1  0.11070000  0.57150000  0.90310000  1.0 0.6167267497
C  C377  1  0.91390000  0.65450000  0.92710000  1.0 0.6436800878
C  C378  1  0.26460000  0.11660000  0.83010000  1.0 -0.1692549355
C  C379  1  0.33540000  0.13360000  0.82626000  1.0 0.0804909313
C  C380  1  0.38080000  0.08920000  0.83333000  1.0 -0.150640694
C  C381  1  0.35550000  0.02770000  0.84410000  1.0 -0.0907259178
C  C382  1  0.28480000  0.01080000  0.84792000  1.0 -0.0193328438
C  C383  1  0.23940000  0.05520000  0.84090000  1.0 -0.0997436634
C  C384  1  0.31660000  0.37300000  0.81460000  1.0 -0.0487007037
C  C385  1  0.50760000  0.36480000  0.77020000  1.0 -0.1692549355
C  C386  1  0.45020000  0.33560000  0.76060000  1.0 -0.1332300991
C  C387  1  0.15750000  0.84590000  0.80850000  1.0 0.5304181114
C  C388  1  0.42200000  0.26380000  0.85260000  1.0 -0.0487007037
C  C389  1  0.25540000  0.94420000  0.85950000  1.0 0.5500046944
C  C390  1  0.57940000  0.60340000  0.95470000  1.0 -0.041356509
C  C391  1  0.57170000  0.67930000  0.96330000  1.0 -0.059782703
C  C392  1  0.25360000  0.38220000  0.79890000  1.0 -0.0709619287
C  C393  1  0.78870000  0.80850000  0.98809000  1.0 -0.1083693636
C  C394  1  0.12810000  0.03910000  0.00690000  1.0 -0.0907259178
C  C395  1  0.46710000  0.33333333  0.85830000  1.0 -0.0801987834
C  C396  1  0.17560000  0.40980000  0.83333000  1.0 -0.0487007037
C  C397  1  0.25190000  0.32850000  0.88360000  1.0 -0.0997436634
C  C398  1  0.18900000  0.36440000  0.85260000  1.0 -0.0709619287
C  C399  1  0.44160000  0.39680000  0.89320000  1.0 -0.0487007037
C  C400  1  0.36380000  0.39200000  0.88450000  1.0 -0.041356509
C  C401  1  0.27220000  0.34880000  0.90770000  1.0 -0.059782703
C  C402  1  0.67210000  0.82510000  0.97530000  1.0 -0.0801987834
C  C403  1  0.64820000  0.78700000  0.95330000  1.0 -0.059782703
C  C404  1  0.21040000  0.04360000  0.97110000  1.0 -0.0997436634
C  C405  1  0.01900000  0.97140000  0.00540000  1.0 -0.0709619287
C  C406  1  0.19690000  0.01450000  0.01020000  1.0 -0.0487007037
C  C407  1  0.73450000  0.07330000  0.77880000  1.0 -0.0487007037
C  C408  1  0.88670000  0.99290000  0.76220000  1.0 -0.0709619287
C  C409  1  0.00170000  0.95170000  0.75840000  1.0 -0.0487007037
C  C410  1  0.81540000  0.96560000  0.75150000  1.0 -0.041356509
C  C411  1  0.70760000  0.00880000  0.76460000  1.0 -0.059782703
C  C412  1  0.77340000  0.34300000  0.34660000  1.0 0.6436800878
C  C413  1  0.82740000  0.72900000  0.44075000  1.0 -0.2204999417
C  C414  1  0.80230000  0.66490000  0.44990000  1.0 0.0103504104
C  C415  1  0.76580000  0.66120000  0.46982000  1.0 0.0390965501
C  C416  1  0.75440000  0.72160000  0.48058000  1.0 -0.0907259178
C  C417  1  0.77960000  0.78580000  0.47143000  1.0 0.1638209407
C  C418  1  0.81610000  0.78950000  0.45151000  1.0 -0.041356509
C  C419  1  0.32030000  0.51110000  0.35488000  1.0 -0.178920327
C  C420  1  0.25860000  0.47500000  0.36298000  1.0 -0.0997436634
C  C421  1  0.24040000  0.40520000  0.35799000  1.0 -0.0193328438
C  C422  1  0.28370000  0.37130000  0.34490000  1.0 -0.0801987834
C  C423  1  0.34550000  0.40730000  0.33681000  1.0 -0.1619749057
C  C424  1  0.36370000  0.47710000  0.34179000  1.0 0.0804909313
C  C425  1  0.80270000  0.48510000  0.42429000  1.0 -0.0907259178
C  C426  1  0.86930000  0.49070000  0.41547000  1.0 -0.0193328438
C  C427  1  0.91530000  0.55150000  0.41833000  1.0 -0.0907259178
C  C428  1  0.89480000  0.60660000  0.43001000  1.0 -0.1692549355
C  C429  1  0.82830000  0.60110000  0.43882000  1.0 0.0804909313
C  C430  1  0.78230000  0.54030000  0.43597000  1.0 -0.150640694
C  C431  1  0.85690000  0.92350000  0.40590000  1.0 -0.0907259178
C  C432  1  0.89520000  0.97820000  0.41720000  1.0 -0.0487007037
C  C433  1  0.90720000  0.97280000  0.43990000  1.0 -0.1182722062
C  C434  1  0.88080000  0.91260000  0.45122000  1.0 -0.1901553782
C  C435  1  0.84250000  0.85790000  0.43990000  1.0 0.1005337984
C  C436  1  0.83050000  0.86330000  0.41723000  1.0 -0.178920327
C  C437  1  0.15420000  0.70820000  0.27644000  1.0 0.0390965501
C  C438  1  0.18430000  0.77270000  0.26857000  1.0 -0.0907259178
C  C439  1  0.16810000  0.83290000  0.27838000  1.0 0.1706350414
C  C440  1  0.12170000  0.82870000  0.29605000  1.0 -0.041356509
C  C441  1  0.09150000  0.76430000  0.30391000  1.0 -0.1901553782
C  C442  1  0.10780000  0.70400000  0.29411000  1.0 -0.014449189
C  C443  1  0.98790000  0.45150000  0.33840000  1.0 0.6167267497
C  C444  1  0.07840000  0.63660000  0.30610000  1.0 0.0903593851
C  C445  1  0.09050000  0.62490000  0.32840000  1.0 -0.1619749057
C  C446  1  0.05860000  0.56480000  0.33865000  1.0 -0.0907259178
C  C447  1  0.01430000  0.51630000  0.32650000  1.0 -0.059782703
C  C448  1  0.00220000  0.52800000  0.30420000  1.0 -0.0801987834
C  C449  1  0.03420000  0.58800000  0.29394000  1.0 -0.178920327
C  C450  1  0.72183000  0.38857000  0.34180000  1.0 -0.0709619287
C  C451  1  0.68100000  0.40880000  0.35893000  1.0 -0.0801987834
C  C452  1  0.62930000  0.44890000  0.35426000  1.0 -0.178920327
C  C453  1  0.61820000  0.46860000  0.33250000  1.0 0.1005337984
C  C454  1  0.65900000  0.44840000  0.31542000  1.0 -0.1619749057
C  C455  1  0.71080000  0.40840000  0.32009000  1.0 -0.0907259178
C  C456  1  0.73160000  0.59880000  0.48240000  1.0 -0.2106979705
C  C457  1  0.05260000  0.00420000  0.32588000  1.0 -0.0193328438
C  C458  1  0.00500000  0.95040000  0.31747000  1.0 -0.1083693636
C  C459  1  0.02830000  0.89350000  0.30757000  1.0 -0.1692549355
C  C460  1  0.09900000  0.89040000  0.30608000  1.0 0.0903593851
C  C461  1  0.14650000  0.94430000  0.31448000  1.0 -0.150640694
C  C462  1  0.12320000  0.00120000  0.32438000  1.0 -0.0907259178
C  C463  1  0.42290000  0.67250000  0.30240000  1.0 -0.2204999417
C  C464  1  0.70350000  0.84910000  0.24143000  1.0 -0.150640694
C  C465  1  0.68430000  0.78170000  0.24906000  1.0 0.0804909313
C  C466  1  0.69760000  0.72580000  0.23621000  1.0 -0.1692549355
C  C467  1  0.73020000  0.73720000  0.21573000  1.0 -0.0997436634
C  C468  1  0.74950000  0.80470000  0.20810000  1.0 -0.0193328438
C  C469  1  0.73610000  0.86050000  0.22094000  1.0 -0.0907259178
C  C470  1  0.55640000  0.50560000  0.32749000  1.0 -0.0487007037
C  C471  1  0.56240000  0.56340000  0.31369000  1.0 0.1706350414
C  C472  1  0.50460000  0.59520000  0.30909000  1.0 -0.0997436634
C  C473  1  0.44070000  0.56930000  0.31829000  1.0 0.0103504104
C  C474  1  0.43470000  0.51150000  0.33209000  1.0 0.0046169766
C  C475  1  0.49250000  0.47970000  0.33669000  1.0 -0.2017136045
C  C476  1  0.49430000  0.65610000  0.29510000  1.0 0.1284557948
C  C477  1  0.18020000  0.65140000  0.26320000  1.0 -0.2106979705
C  C478  1  0.64100000  0.81240000  0.30883000  1.0 -0.0279313115
C  C479  1  0.58230000  0.76370000  0.31198000  1.0 0.1284557948
C  C480  1  0.55840000  0.71840000  0.29490000  1.0 -0.0709619287
C  C481  1  0.59330000  0.72170000  0.27472000  1.0 0.0390965501
C  C482  1  0.65200000  0.77020000  0.27156000  1.0 0.0103504104
C  C483  1  0.67580000  0.81560000  0.28860000  1.0 -0.2017136045
C  C484  1  0.36090000  0.47170000  0.48201000  1.0 0.1766878352
C  C485  1  0.29450000  0.48890000  0.48460000  1.0 -0.059782703
C  C486  1  0.28350000  0.54270000  0.49880000  1.0 -0.2106979705
C  C487  1  0.33900000  0.57940000  0.51024000  1.0 -0.0012132081
C  C488  1  0.40530000  0.56230000  0.50760000  1.0 0.0315697281
C  C489  1  0.41630000  0.50850000  0.49350000  1.0 -0.0907259178
C  C490  1  0.21230000  0.69030000  0.24270000  1.0 -0.2280355707
C  C491  1  0.91820000  0.04400000  0.40510000  1.0 0.6272675827
C  C492  1  0.23600000  0.44880000  0.47280000  1.0 0.1005337984
C  C493  1  0.21130000  0.48690000  0.45580000  1.0 -0.1619749057
C  C494  1  0.16280000  0.45440000  0.44080000  1.0 -0.0907259178
C  C495  1  0.13900000  0.38400000  0.44280000  1.0 -0.0279313115
C  C496  1  0.16370000  0.34590000  0.45990000  1.0 -0.1182722062
C  C497  1  0.21220000  0.37840000  0.47480000  1.0 -0.178920327
C  C498  1  0.46440000  0.58900000  0.52000000  1.0 -0.2204999417
C  C499  1  0.02480000  0.06520000  0.33800000  1.0 0.613933815
C  C500  1  0.73280000  0.89880000  0.47180000  1.0 -0.0709619287
C  C501  1  0.26160000  0.70120000  0.54817000  1.0 -0.0997436634
C  C502  1  0.30730000  0.76250000  0.54609000  1.0 -0.0193328438
C  C503  1  0.36230000  0.76670000  0.53119000  1.0 -0.0997436634
C  C504  1  0.37150000  0.70930000  0.51835000  1.0 -0.1619749057
C  C505  1  0.32580000  0.64800000  0.52043000  1.0 0.0804909313
C  C506  1  0.27090000  0.64390000  0.53530000  1.0 -0.1692549355
C  C507  1  0.51040000  0.53120000  0.52260000  1.0 -0.2415197879
C  C508  1  0.77560000  0.81760000  0.18450000  1.0 0.5995407239
C  C509  1  0.38760000  0.61120000  0.31200000  1.0 -0.2204999417
C  C510  1  0.71820000  0.63300000  0.50390000  1.0 -0.2415197879
C  C511  1  0.16920000  0.36740000  0.36410000  1.0 0.6167267497
C  C512  1  0.29800000  0.82740000  0.55980000  1.0 0.5558224455
C  C513  1  0.88930000  0.42850000  0.40310000  1.0 0.6167267497
C  C514  1  0.08610000  0.34550000  0.42710000  1.0 0.6436800878
C  C515  1  0.73540000  0.88340000  0.33010000  1.0 -0.178920327
C  C516  1  0.66460000  0.86640000  0.32626000  1.0 0.0804909313
C  C517  1  0.61920000  0.91080000  0.33333333  1.0 -0.150640694
C  C518  1  0.64450000  0.97230000  0.34410000  1.0 -0.0907259178
C  C519  1  0.71520000  0.98920000  0.34792000  1.0 -0.0193328438
C  C520  1  0.76060000  0.94480000  0.34090000  1.0 -0.0997436634
C  C521  1  0.68340000  0.62700000  0.31460000  1.0 -0.0487007037
C  C522  1  0.49240000  0.63520000  0.27020000  1.0 -0.1692549355
C  C523  1  0.54980000  0.66440000  0.26060000  1.0 -0.1332300991
C  C524  1  0.84250000  0.15410000  0.30850000  1.0 0.5304181114
C  C525  1  0.57800000  0.73620000  0.35260000  1.0 -0.0487007037
C  C526  1  0.74460000  0.05580000  0.35950000  1.0 0.5500046944
C  C527  1  0.42060000  0.39660000  0.45470000  1.0 -0.041356509
C  C528  1  0.42830000  0.32070000  0.46330000  1.0 -0.059782703
C  C529  1  0.74640000  0.61780000  0.29890000  1.0 -0.0709619287
C  C530  1  0.21130000  0.19150000  0.48809000  1.0 -0.1182722062
C  C531  1  0.87190000  0.96090000  0.50690000  1.0 -0.0907259178
C  C532  1  0.53290000  0.66666667  0.35830000  1.0 -0.0801987834
C  C533  1  0.82440000  0.59020000  0.33333333  1.0 -0.0487007037
C  C534  1  0.74810000  0.67150000  0.38360000  1.0 -0.1083693636
C  C535  1  0.81100000  0.63560000  0.35260000  1.0 -0.0709619287
C  C536  1  0.55840000  0.60320000  0.39320000  1.0 -0.0487007037
C  C537  1  0.63620000  0.60800000  0.38450000  1.0 -0.041356509
C  C538  1  0.72780000  0.65120000  0.40770000  1.0 -0.059782703
C  C539  1  0.32790000  0.17490000  0.47530000  1.0 -0.0801987834
C  C540  1  0.35180000  0.21300000  0.45330000  1.0 -0.059782703
C  C541  1  0.78960000  0.95640000  0.47110000  1.0 -0.0997436634
C  C542  1  0.98100000  0.02860000  0.50540000  1.0 -0.0709619287
C  C543  1  0.80310000  0.98550000  0.51020000  1.0 -0.0487007037
C  C544  1  0.26550000  0.92670000  0.27880000  1.0 -0.0487007037
C  C545  1  0.11330000  0.00710000  0.26220000  1.0 -0.0709619287
C  C546  1  0.99830000  0.04830000  0.25840000  1.0 -0.0487007037
C  C547  1  0.18460000  0.03440000  0.25150000  1.0 -0.041356509
C  C548  1  0.29240000  0.99120000  0.26460000  1.0 -0.059782703
C  C549  1  0.76620000  0.23380000  0.75000000  1.0 0.136945574
C  C550  1  0.23380000  0.76620000  0.25000000  1.0 0.136945574
C  C551  1  0.70560000  0.70560000  0.50000000  1.0 0.1512306765
C  C552  1  0.29440000  0.29440000  0.00000000  1.0 0.1512306765
C  C553  1  0.48150000  0.48150000  0.50000000  1.0 0.1109012873
C  C554  1  0.51850000  0.51850000  0.00000000  1.0 0.1109012873
O  O1  1  0.21460000  0.84000000  0.64514000  1.0 -1.0582346484
O  O2  1  0.14000000  0.00740000  0.62227000  1.0 -1.1621230408
O  O3  1  0.29690000  0.94630000  0.59137000  1.0 -1.1023089453
O  O4  1  0.32050000  0.91950000  0.63357000  1.0 -1.1310947755
O  O5  1  0.44760000  0.00440000  0.64310000  1.0 -0.5198322326
O  O6  1  0.31690000  0.77110000  0.63390000  1.0 -0.5919594809
O  O7  1  0.09230000  0.95670000  0.58464000  1.0 -0.6190390155
O  O8  1  0.38550000  0.06750000  0.58882000  1.0 -0.6129871771
O  O9  1  0.04310000  0.90430000  0.61420000  1.0 -0.5198322326
O  O10  1  0.30230000  0.16090000  0.64261000  1.0 -0.6006504163
O  O11  1  0.07140000  0.80160000  0.63621000  1.0 -0.4679491982
O  O12  1  0.81630000  0.26290000  0.42226000  1.0 -0.6129871771
O  O13  1  0.89520000  0.19700000  0.72983000  1.0 -0.2518333957
O  O14  1  0.05450000  0.95950000  0.65777000  1.0 -0.5919594809
O  O15  1  0.40290000  0.94950000  0.67401000  1.0 -0.6385186329
O  O16  1  0.84440000  0.76020000  0.51749000  1.0 -0.2924282566
O  O17  1  0.39620000  0.12760000  0.62854000  1.0 -0.4867892131
O  O18  1  0.43450000  0.95190000  0.60384000  1.0 -0.5828464621
O  O19  1  0.20190000  0.96370000  0.65720000  1.0 -1.1310947755
O  O20  1  0.18370000  0.90010000  0.61062000  1.0 -1.1310947755
O  O21  1  0.11040000  0.85980000  0.67315000  1.0 -0.6624753937
O  O22  1  0.11730000  0.06450000  0.66242000  1.0 -0.531745547
O  O23  1  0.41250000  0.37270000  0.52820000  1.0 -0.2204999417
O  O24  1  0.77300000  0.80540000  0.82702000  1.0 -0.551906915
O  O25  1  0.26690000  0.04650000  0.61623000  1.0 -1.170076327
O  O26  1  0.32220000  0.03760000  0.65449000  1.0 -1.0582346484
O  O27  1  0.21850000  0.86090000  0.68943000  1.0 -0.5716300771
O  O28  1  0.38010000  0.84490000  0.59930000  1.0 -0.531745547
O  O29  1  0.33340000  0.82480000  0.66676000  1.0 -0.6264344379
O  O30  1  0.88000000  0.76540000  0.82180000  1.0 -0.6385186329
O  O31  1  0.88010000  0.32690000  0.44490000  1.0 -0.3836917445
O  O32  1  0.28200000  0.06120000  0.57078000  1.0 -0.6264344379
O  O33  1  0.58940000  0.62200000  0.69708000  1.0 -0.2017136045
O  O34  1  0.75730000  0.54390000  0.66630000  1.0 -0.2017136045
O  O35  1  0.09910000  0.70590000  0.63380000  1.0 -0.42637624
O  O36  1  0.62600000  0.81680000  0.68750000  1.0 -0.2204999417
O  O37  1  0.65770000  0.52990000  0.61740000  1.0 -0.1901553782
O  O38  1  0.60880000  0.77060000  0.62830000  1.0 -0.2017136045
O  O39  1  0.58800000  0.67620000  0.59720000  1.0 -0.2106979705
O  O40  1  0.16090000  0.25370000  0.52690000  1.0 -0.1619749057
O  O41  1  0.28430000  0.36430000  0.54380000  1.0 -0.178920327
O  O42  1  0.00490000  0.91850000  0.50620000  1.0 -0.1619749057
O  O43  1  0.99930000  0.77370000  0.51100000  1.0 -0.178920327
O  O44  1  0.06730000  0.07030000  0.73690000  1.0 -0.2106979705
O  O45  1  0.03850000  0.24070000  0.73250000  1.0 -0.1901553782
O  O46  1  0.78540000  0.16000000  0.14514000  1.0 -1.050909774
O  O47  1  0.86000000  0.99260000  0.12227000  1.0 -1.170076327
O  O48  1  0.70310000  0.05370000  0.09137000  1.0 -1.1023089453
O  O49  1  0.67950000  0.08050000  0.13357000  1.0 -1.1310947755
O  O50  1  0.55240000  0.99560000  0.14310000  1.0 -0.5198322326
O  O51  1  0.68310000  0.22890000  0.13390000  1.0 -0.5919594809
O  O52  1  0.90770000  0.04330000  0.08464000  1.0 -0.6190390155
O  O53  1  0.61450000  0.93250000  0.08882000  1.0 -0.6129871771
O  O54  1  0.95690000  0.09570000  0.11420000  1.0 -0.5198322326
O  O55  1  0.69770000  0.83910000  0.14261000  1.0 -0.6006504163
O  O56  1  0.92860000  0.19840000  0.13621000  1.0 -0.4679491982
O  O57  1  0.18370000  0.73710000  0.92226000  1.0 -0.6129871771
O  O58  1  0.10480000  0.80300000  0.22983000  1.0 -0.2518333957
O  O59  1  0.94550000  0.04050000  0.15777000  1.0 -0.5828464621
O  O60  1  0.59710000  0.05050000  0.17401000  1.0 -0.6385186329
O  O61  1  0.15560000  0.23980000  0.01749000  1.0 -0.2924282566
O  O62  1  0.60380000  0.87240000  0.12854000  1.0 -0.4867892131
O  O63  1  0.56550000  0.04810000  0.10384000  1.0 -0.5828464621
O  O64  1  0.79810000  0.03630000  0.15720000  1.0 -1.1310947755
O  O65  1  0.81630000  0.09990000  0.11062000  1.0 -1.1310947755
O  O66  1  0.88960000  0.14020000  0.17315000  1.0 -0.6624753937
O  O67  1  0.88270000  0.93550000  0.16242000  1.0 -0.531745547
O  O68  1  0.58750000  0.62730000  0.02820000  1.0 -0.2204999417
O  O69  1  0.22700000  0.19460000  0.32702000  1.0 -0.551906915
O  O70  1  0.73310000  0.95350000  0.11623000  1.0 -1.170076327
O  O71  1  0.67780000  0.96240000  0.15449000  1.0 -1.0445147917
O  O72  1  0.78150000  0.13910000  0.18943000  1.0 -0.5716300771
O  O73  1  0.61990000  0.15510000  0.09930000  1.0 -0.531745547
O  O74  1  0.66666667  0.17520000  0.16676000  1.0 -0.6264344379
O  O75  1  0.12000000  0.23460000  0.32180000  1.0 -0.6385186329
O  O76  1  0.11990000  0.67310000  0.94490000  1.0 -0.3880100116
O  O77  1  0.71800000  0.93880000  0.07078000  1.0 -0.6190390155
O  O78  1  0.41060000  0.37800000  0.19708000  1.0 -0.2017136045
O  O79  1  0.24270000  0.45610000  0.16630000  1.0 -0.2017136045
O  O80  1  0.90090000  0.29410000  0.13380000  1.0 -0.4248727128
O  O81  1  0.37400000  0.18320000  0.18750000  1.0 -0.2204999417
O  O82  1  0.34230000  0.47010000  0.11740000  1.0 -0.1901553782
O  O83  1  0.39120000  0.22940000  0.12830000  1.0 -0.2017136045
O  O84  1  0.41200000  0.32380000  0.09720000  1.0 -0.2106979705
O  O85  1  0.83910000  0.74630000  0.02690000  1.0 -0.1619749057
O  O86  1  0.71570000  0.63570000  0.04380000  1.0 -0.178920327
O  O87  1  0.99510000  0.08150000  0.00620000  1.0 -0.1619749057
O  O88  1  0.00070000  0.22630000  0.01100000  1.0 -0.178920327
O  O89  1  0.93270000  0.92970000  0.23690000  1.0 -0.2106979705
O  O90  1  0.96150000  0.75930000  0.23250000  1.0 -0.1901553782
O  O91  1  0.16000000  0.78540000  0.85486000  1.0 -1.0582346484
O  O92  1  0.99260000  0.86000000  0.87773000  1.0 -1.170076327
O  O93  1  0.05370000  0.70310000  0.90863000  1.0 -1.1023089453
O  O94  1  0.08050000  0.67950000  0.86643000  1.0 -1.1310947755
O  O95  1  0.99560000  0.55240000  0.85690000  1.0 -0.5198322326
O  O96  1  0.22890000  0.68310000  0.86610000  1.0 -0.5919594809
O  O97  1  0.04330000  0.90770000  0.91536000  1.0 -0.6190390155
O  O98  1  0.93250000  0.61450000  0.91118000  1.0 -0.6129871771
O  O99  1  0.09570000  0.95690000  0.88580000  1.0 -0.5198322326
O  O100  1  0.83910000  0.69770000  0.85739000  1.0 -0.6006504163
O  O101  1  0.19840000  0.92860000  0.86379000  1.0 -0.4679491982
O  O102  1  0.73710000  0.18370000  0.07774000  1.0 -0.6129871771
O  O103  1  0.80300000  0.10480000  0.77017000  1.0 -0.2518333957
O  O104  1  0.04050000  0.94550000  0.84223000  1.0 -0.5828464621
O  O105  1  0.05050000  0.59710000  0.82599000  1.0 -0.6385186329
O  O106  1  0.23980000  0.15560000  0.98251000  1.0 -0.2924282566
O  O107  1  0.87240000  0.60380000  0.87146000  1.0 -0.4867892131
O  O108  1  0.04810000  0.56550000  0.89616000  1.0 -0.5828464621
O  O109  1  0.03630000  0.79810000  0.84280000  1.0 -1.1228554413
O  O110  1  0.09990000  0.81630000  0.88938000  1.0 -1.1310947755
O  O111  1  0.14020000  0.88960000  0.82685000  1.0 -0.6624753937
O  O112  1  0.93550000  0.88270000  0.83758000  1.0 -0.531745547
O  O113  1  0.62730000  0.58750000  0.97180000  1.0 -0.2204999417
O  O114  1  0.19460000  0.22700000  0.67298000  1.0 -0.551906915
O  O115  1  0.95350000  0.73310000  0.88377000  1.0 -1.170076327
O  O116  1  0.96240000  0.67780000  0.84551000  1.0 -1.050909774
O  O117  1  0.13910000  0.78150000  0.81057000  1.0 -0.5716300771
O  O118  1  0.15510000  0.61990000  0.90070000  1.0 -0.531745547
O  O119  1  0.17520000  0.66666667  0.83324000  1.0 -0.6264344379
O  O120  1  0.23460000  0.12000000  0.67820000  1.0 -0.6385186329
O  O121  1  0.67310000  0.11990000  0.05510000  1.0 -0.3836917445
O  O122  1  0.93880000  0.71800000  0.92922000  1.0 -0.6190390155
O  O123  1  0.37800000  0.41060000  0.80292000  1.0 -0.2017136045
O  O124  1  0.45610000  0.24270000  0.83370000  1.0 -0.2017136045
O  O125  1  0.29410000  0.90090000  0.86620000  1.0 -0.42637624
O  O126  1  0.18320000  0.37400000  0.81250000  1.0 -0.2204999417
O  O127  1  0.47010000  0.34230000  0.88260000  1.0 -0.1901553782
O  O128  1  0.22940000  0.39120000  0.87170000  1.0 -0.2017136045
O  O129  1  0.32380000  0.41200000  0.90280000  1.0 -0.2106979705
O  O130  1  0.74630000  0.83910000  0.97310000  1.0 -0.1619749057
O  O131  1  0.63570000  0.71570000  0.95620000  1.0 -0.178920327
O  O132  1  0.08150000  0.99510000  0.99380000  1.0 -0.1619749057
O  O133  1  0.22630000  0.00070000  0.98900000  1.0 -0.178920327
O  O134  1  0.92970000  0.93270000  0.76310000  1.0 -0.2106979705
O  O135  1  0.75930000  0.96150000  0.76750000  1.0 -0.1901553782
O  O136  1  0.84000000  0.21460000  0.35486000  1.0 -1.0582346484
O  O137  1  0.00740000  0.14000000  0.37773000  1.0 -1.1621230408
O  O138  1  0.94630000  0.29690000  0.40863000  1.0 -1.1023089453
O  O139  1  0.91950000  0.32050000  0.36643000  1.0 -1.1310947755
O  O140  1  0.00440000  0.44760000  0.35690000  1.0 -0.5198322326
O  O141  1  0.77110000  0.31690000  0.36610000  1.0 -0.5919594809
O  O142  1  0.95670000  0.09230000  0.41536000  1.0 -0.6190390155
O  O143  1  0.06750000  0.38550000  0.41118000  1.0 -0.6129871771
O  O144  1  0.90430000  0.04310000  0.38580000  1.0 -0.5198322326
O  O145  1  0.16090000  0.30230000  0.35739000  1.0 -0.6006504163
O  O146  1  0.80160000  0.07140000  0.36379000  1.0 -0.4679491982
O  O147  1  0.26290000  0.81630000  0.57774000  1.0 -0.6129871771
O  O148  1  0.19700000  0.89520000  0.27017000  1.0 -0.2518333957
O  O149  1  0.95950000  0.05450000  0.34223000  1.0 -0.5828464621
O  O150  1  0.94950000  0.40290000  0.32599000  1.0 -0.6385186329
O  O151  1  0.76020000  0.84440000  0.48251000  1.0 -0.2924282566
O  O152  1  0.12760000  0.39620000  0.37146000  1.0 -0.4867892131
O  O153  1  0.95190000  0.43450000  0.39616000  1.0 -0.5828464621
O  O154  1  0.96370000  0.20190000  0.34280000  1.0 -1.1310947755
O  O155  1  0.90010000  0.18370000  0.38938000  1.0 -1.1310947755
O  O156  1  0.85980000  0.11040000  0.32685000  1.0 -0.6624753937
O  O157  1  0.06450000  0.11730000  0.33758000  1.0 -0.531745547
O  O158  1  0.37270000  0.41250000  0.47180000  1.0 -0.2204999417
O  O159  1  0.80540000  0.77300000  0.17298000  1.0 -0.551906915
O  O160  1  0.04650000  0.26690000  0.38377000  1.0 -1.170076327
O  O161  1  0.03760000  0.32220000  0.34551000  1.0 -1.050909774
O  O162  1  0.86090000  0.21850000  0.31057000  1.0 -0.5716300771
O  O163  1  0.84490000  0.38010000  0.40070000  1.0 -0.531745547
O  O164  1  0.82480000  0.33340000  0.33324000  1.0 -0.6264344379
O  O165  1  0.76540000  0.88000000  0.17820000  1.0 -0.6385186329
O  O166  1  0.32690000  0.88010000  0.55510000  1.0 -0.3880100116
O  O167  1  0.06120000  0.28200000  0.42922000  1.0 -0.6190390155
O  O168  1  0.62200000  0.58940000  0.30292000  1.0 -0.2017136045
O  O169  1  0.54390000  0.75730000  0.33370000  1.0 -0.2017136045
O  O170  1  0.70590000  0.09910000  0.36620000  1.0 -0.42637624
O  O171  1  0.81680000  0.62600000  0.31250000  1.0 -0.2204999417
O  O172  1  0.52990000  0.65770000  0.38260000  1.0 -0.1901553782
O  O173  1  0.77060000  0.60880000  0.37170000  1.0 -0.2017136045
O  O174  1  0.67620000  0.58800000  0.40280000  1.0 -0.2106979705
O  O175  1  0.25370000  0.16090000  0.47310000  1.0 -0.1619749057
O  O176  1  0.36430000  0.28430000  0.45620000  1.0 -0.178920327
O  O177  1  0.91850000  0.00490000  0.49380000  1.0 -0.1619749057
O  O178  1  0.77370000  0.99930000  0.48900000  1.0 -0.178920327
O  O179  1  0.07030000  0.06730000  0.26310000  1.0 -0.2106979705
O  O180  1  0.24070000  0.03850000  0.26750000  1.0 -0.1901553782
