# DDEC6 charges by PACMAN v1.1 (https://github.com/mtap-research/PACMAN-charge/)
data_OKIKOJ_FSR_pacman
_symmetry_space_group_name_H-M   'P 1'
_cell_length_a   10.52300000
_cell_length_b   11.59680000
_cell_length_c   50.29940000
_cell_angle_alpha   90.00000000
_cell_angle_beta   96.31840000
_cell_angle_gamma   90.00000000
_symmetry_Int_Tables_number   1
_chemical_formula_structural   Ag4H24C49SN8(O3F4)3
_chemical_formula_sum   'Ag16 H96 C196 S4 N32 O36 F48'
_cell_volume   6100.90759147
_cell_formula_units_Z   4
loop_
 _symmetry_equiv_pos_site_id
 _symmetry_equiv_pos_as_xyz
  1  'x, y, z'
loop_
 _atom_site_type_symbol
 _atom_site_label
 _atom_site_symmetry_multiplicity
 _atom_site_fract_x
 _atom_site_fract_y
 _atom_site_fract_z
 _atom_site_occupancy
 _atom_site_charge
Ag  Ag1  1  0.02045000  0.50536000  0.39544000  1.0 0.5224763362
Ag  Ag2  1  0.97955000  0.00536000  0.10456000  1.0 0.5224763362
Ag  Ag3  1  0.97955000  0.49464000  0.60456000  1.0 0.5224763362
Ag  Ag4  1  0.02045000  0.99464000  0.89544000  1.0 0.5224763362
Ag  Ag5  1  0.77684000  0.57147000  0.41848000  1.0 0.4604444115
Ag  Ag6  1  0.22316000  0.07147000  0.08152000  1.0 0.4604444115
Ag  Ag7  1  0.22316000  0.42853000  0.58152000  1.0 0.4604444115
Ag  Ag8  1  0.77684000  0.92853000  0.91848000  1.0 0.4604444115
Ag  Ag9  1  0.59296000  0.10366000  0.86701000  1.0 0.5501448347
Ag  Ag10  1  0.40704000  0.60366000  0.63299000  1.0 0.5501448347
Ag  Ag11  1  0.40704000  0.89634000  0.13299000  1.0 0.5501448347
Ag  Ag12  1  0.59296000  0.39634000  0.36701000  1.0 0.5501448347
Ag  Ag13  1  0.68986000  0.67727000  0.62007000  1.0 0.5501448347
Ag  Ag14  1  0.31014000  0.17727000  0.87993000  1.0 0.5501448347
Ag  Ag15  1  0.31014000  0.32273000  0.37993000  1.0 0.5501448347
Ag  Ag16  1  0.68986000  0.82273000  0.12007000  1.0 0.5501448347
H  H1  1  0.51860000  0.70130000  0.39100000  1.0 0.121833635
H  H2  1  0.48140000  0.20130000  0.10900000  1.0 0.121833635
H  H3  1  0.48140000  0.29870000  0.60900000  1.0 0.121833635
H  H4  1  0.51860000  0.79870000  0.89100000  1.0 0.121833635
H  H5  1  0.66410000  0.81600000  0.41560000  1.0 0.1303823181
H  H6  1  0.33590000  0.31600000  0.08440000  1.0 0.1303823181
H  H7  1  0.33590000  0.18400000  0.58440000  1.0 0.1303823181
H  H8  1  0.66410000  0.68400000  0.91560000  1.0 0.1303823181
H  H9  1  0.47600000  0.77500000  0.48030000  1.0 0.121833635
H  H10  1  0.52400000  0.27500000  0.01970000  1.0 0.121833635
H  H11  1  0.52400000  0.22500000  0.51970000  1.0 0.121833635
H  H12  1  0.47600000  0.72500000  0.98030000  1.0 0.121833635
H  H13  1  0.33060000  0.65830000  0.45580000  1.0 0.1119650288
H  H14  1  0.66940000  0.15830000  0.04420000  1.0 0.1119650288
H  H15  1  0.66940000  0.34170000  0.54420000  1.0 0.1119650288
H  H16  1  0.33060000  0.84170000  0.95580000  1.0 0.1119650288
H  H17  1  0.57140000  0.02230000  0.42510000  1.0 0.1303823181
H  H18  1  0.42860000  0.52230000  0.07490000  1.0 0.1303823181
H  H19  1  0.42860000  0.97770000  0.57490000  1.0 0.1303823181
H  H20  1  0.57140000  0.47770000  0.92510000  1.0 0.1303823181
H  H21  1  0.66560000  0.17410000  0.40540000  1.0 0.1303823181
H  H22  1  0.33440000  0.67410000  0.09460000  1.0 0.1303823181
H  H23  1  0.33440000  0.82590000  0.59460000  1.0 0.1303823181
H  H24  1  0.66560000  0.32590000  0.90540000  1.0 0.1303823181
H  H25  1  0.97810000  0.13870000  0.45660000  1.0 0.1119650288
H  H26  1  0.02190000  0.63870000  0.04340000  1.0 0.1119650288
H  H27  1  0.02190000  0.86130000  0.54340000  1.0 0.1119650288
H  H28  1  0.97810000  0.36130000  0.95660000  1.0 0.1119650288
H  H29  1  0.88750000  0.98330000  0.47670000  1.0 0.1303823181
H  H30  1  0.11250000  0.48330000  0.02330000  1.0 0.1303823181
H  H31  1  0.11250000  0.01670000  0.52330000  1.0 0.1303823181
H  H32  1  0.88750000  0.51670000  0.97670000  1.0 0.1303823181
H  H33  1  0.65870000  0.04100000  0.50290000  1.0 0.1303823181
H  H34  1  0.34130000  0.54100000  0.99710000  1.0 0.1303823181
H  H35  1  0.34130000  0.95900000  0.49710000  1.0 0.1303823181
H  H36  1  0.65870000  0.45900000  0.00290000  1.0 0.1303823181
H  H37  1  0.70340000  0.01540000  0.54780000  1.0 0.121833635
H  H38  1  0.29660000  0.51540000  0.95220000  1.0 0.121833635
H  H39  1  0.29660000  0.98460000  0.45220000  1.0 0.121833635
H  H40  1  0.70340000  0.48460000  0.04780000  1.0 0.121833635
H  H41  1  0.78380000  0.68310000  0.53750000  1.0 0.121833635
H  H42  1  0.21620000  0.18310000  0.96250000  1.0 0.121833635
H  H43  1  0.21620000  0.31690000  0.46250000  1.0 0.121833635
H  H44  1  0.78380000  0.81690000  0.03750000  1.0 0.121833635
H  H45  1  0.73260000  0.70740000  0.49190000  1.0 0.1303823181
H  H46  1  0.26740000  0.20740000  0.00810000  1.0 0.1303823181
H  H47  1  0.26740000  0.29260000  0.50810000  1.0 0.1303823181
H  H48  1  0.73260000  0.79260000  0.99190000  1.0 0.1303823181
H  H49  1  0.36700000  0.84570000  0.78460000  1.0 0.121833635
H  H50  1  0.63300000  0.34570000  0.71540000  1.0 0.121833635
H  H51  1  0.63300000  0.15430000  0.21540000  1.0 0.121833635
H  H52  1  0.36700000  0.65430000  0.28460000  1.0 0.121833635
H  H53  1  0.23780000  0.70180000  0.76610000  1.0 0.1303823181
H  H54  1  0.76220000  0.20180000  0.73390000  1.0 0.1303823181
H  H55  1  0.76220000  0.29820000  0.23390000  1.0 0.1303823181
H  H56  1  0.23780000  0.79820000  0.26610000  1.0 0.1303823181
H  H57  1  0.04010000  0.70120000  0.82970000  1.0 0.1303823181
H  H58  1  0.95990000  0.20120000  0.67030000  1.0 0.121833635
H  H59  1  0.95990000  0.29880000  0.17030000  1.0 0.121833635
H  H60  1  0.04010000  0.79880000  0.32970000  1.0 0.121833635
H  H61  1  0.17860000  0.83880000  0.84990000  1.0 0.121833635
H  H62  1  0.82140000  0.33880000  0.65010000  1.0 0.121833635
H  H63  1  0.82140000  0.16120000  0.15010000  1.0 0.121833635
H  H64  1  0.17860000  0.66120000  0.34990000  1.0 0.121833635
H  H65  1  0.82750000  0.49870000  0.77250000  1.0 0.1303823181
H  H66  1  0.17250000  0.99870000  0.72750000  1.0 0.1303823181
H  H67  1  0.17250000  0.50130000  0.22750000  1.0 0.1303823181
H  H68  1  0.82750000  0.00130000  0.27250000  1.0 0.1303823181
H  H69  1  0.73070000  0.36120000  0.79620000  1.0 0.1303823181
H  H70  1  0.26930000  0.86120000  0.70380000  1.0 0.1303823181
H  H71  1  0.26930000  0.63880000  0.20380000  1.0 0.1303823181
H  H72  1  0.73070000  0.13880000  0.29620000  1.0 0.1303823181
H  H73  1  0.03020000  0.35900000  0.85140000  1.0 0.1303823181
H  H74  1  0.96980000  0.85900000  0.64860000  1.0 0.1303823181
H  H75  1  0.96980000  0.64100000  0.14860000  1.0 0.1303823181
H  H76  1  0.03020000  0.14100000  0.35140000  1.0 0.1303823181
H  H77  1  0.13210000  0.49400000  0.82760000  1.0 0.1303823181
H  H78  1  0.86790000  0.99400000  0.67240000  1.0 0.1303823181
H  H79  1  0.86790000  0.50600000  0.17240000  1.0 0.1303823181
H  H80  1  0.13210000  0.00600000  0.32760000  1.0 0.1303823181
H  H81  1  0.08740000  0.45840000  0.74550000  1.0 0.1303823181
H  H82  1  0.91260000  0.95840000  0.75450000  1.0 0.1303823181
H  H83  1  0.91260000  0.54160000  0.25450000  1.0 0.1303823181
H  H84  1  0.08740000  0.04160000  0.24550000  1.0 0.1303823181
H  H85  1  0.84710000  0.76690000  0.71080000  1.0 0.1303823181
H  H86  1  0.15290000  0.26690000  0.78920000  1.0 0.1303823181
H  H87  1  0.15290000  0.23310000  0.28920000  1.0 0.1303823181
H  H88  1  0.84710000  0.73310000  0.21080000  1.0 0.1303823181
H  H89  1  0.92410000  0.75900000  0.75630000  1.0 0.1303823181
H  H90  1  0.07590000  0.25900000  0.74370000  1.0 0.1303823181
H  H91  1  0.07590000  0.24100000  0.24370000  1.0 0.1303823181
H  H92  1  0.92410000  0.74100000  0.25630000  1.0 0.1303823181
H  H93  1  0.02000000  0.46360000  0.70050000  1.0 0.121833635
H  H94  1  0.98000000  0.96360000  0.79950000  1.0 0.121833635
H  H95  1  0.98000000  0.53640000  0.29950000  1.0 0.121833635
H  H96  1  0.02000000  0.03640000  0.20050000  1.0 0.121833635
C  C1  1  0.31230000  0.59760000  0.40640000  1.0 0.3193334139
C  C2  1  0.68770000  0.09760000  0.09360000  1.0 0.3193334139
C  C3  1  0.68770000  0.40240000  0.59360000  1.0 0.3193334139
C  C4  1  0.31230000  0.90240000  0.90640000  1.0 0.3193334139
C  C5  1  0.40810000  0.67020000  0.42080000  1.0 0.0313075332
C  C6  1  0.59190000  0.17020000  0.07920000  1.0 0.0313075332
C  C7  1  0.59190000  0.32980000  0.57920000  1.0 0.0313075332
C  C8  1  0.40810000  0.82980000  0.92080000  1.0 0.0313075332
C  C9  1  0.50950000  0.71720000  0.40890000  1.0 -0.1093065457
C  C10  1  0.49050000  0.21720000  0.09110000  1.0 -0.1093065457
C  C11  1  0.49050000  0.28280000  0.59110000  1.0 -0.1093065457
C  C12  1  0.50950000  0.78280000  0.90890000  1.0 -0.1093065457
C  C13  1  0.59500000  0.78670000  0.42350000  1.0 -0.1994899546
C  C14  1  0.40500000  0.28670000  0.07650000  1.0 -0.1994899546
C  C15  1  0.40500000  0.21330000  0.57650000  1.0 -0.1994899546
C  C16  1  0.59500000  0.71330000  0.92350000  1.0 -0.1994899546
C  C17  1  0.58160000  0.81470000  0.44970000  1.0 0.203413686
C  C18  1  0.41840000  0.31470000  0.05030000  1.0 0.203413686
C  C19  1  0.41840000  0.18530000  0.55030000  1.0 0.203413686
C  C20  1  0.58160000  0.68530000  0.94970000  1.0 0.203413686
C  C21  1  0.48260000  0.76200000  0.46230000  1.0 -0.1994899546
C  C22  1  0.51740000  0.26200000  0.03770000  1.0 -0.1994899546
C  C23  1  0.51740000  0.23800000  0.53770000  1.0 -0.1994899546
C  C24  1  0.48260000  0.73800000  0.96230000  1.0 -0.1994899546
C  C25  1  0.39680000  0.69180000  0.44770000  1.0 -0.1093065457
C  C26  1  0.60320000  0.19180000  0.05230000  1.0 -0.1093065457
C  C27  1  0.60320000  0.30820000  0.55230000  1.0 -0.1093065457
C  C28  1  0.39680000  0.80820000  0.94770000  1.0 -0.1093065457
C  C29  1  0.72150000  0.98640000  0.45280000  1.0 0.1806714128
C  C30  1  0.27850000  0.48640000  0.04720000  1.0 0.1806714128
C  C31  1  0.27850000  0.01360000  0.54720000  1.0 0.1806714128
C  C32  1  0.72150000  0.51360000  0.95280000  1.0 0.1806714128
C  C33  1  0.65390000  0.04520000  0.43150000  1.0 -0.1872345821
C  C34  1  0.34610000  0.54520000  0.06850000  1.0 -0.1872345821
C  C35  1  0.34610000  0.95480000  0.56850000  1.0 -0.1872345821
C  C36  1  0.65390000  0.45480000  0.93150000  1.0 -0.1872345821
C  C37  1  0.70950000  0.13660000  0.41990000  1.0 -0.0917159037
C  C38  1  0.29050000  0.63660000  0.08010000  1.0 -0.0917159037
C  C39  1  0.29050000  0.86340000  0.58010000  1.0 -0.0917159037
C  C40  1  0.70950000  0.36340000  0.91990000  1.0 -0.0917159037
C  C41  1  0.82780000  0.17280000  0.42960000  1.0 0.0313075332
C  C42  1  0.17220000  0.67280000  0.07040000  1.0 0.0313075332
C  C43  1  0.17220000  0.82720000  0.57040000  1.0 0.0313075332
C  C44  1  0.82780000  0.32720000  0.92960000  1.0 0.0313075332
C  C45  1  0.88580000  0.27030000  0.41820000  1.0 0.3082080616
C  C46  1  0.11420000  0.77030000  0.08180000  1.0 0.3082080616
C  C47  1  0.11420000  0.72970000  0.58180000  1.0 0.3082080616
C  C48  1  0.88580000  0.22970000  0.91820000  1.0 0.3082080616
C  C49  1  0.89580000  0.11490000  0.45050000  1.0 -0.120144543
C  C50  1  0.10420000  0.61490000  0.04950000  1.0 -0.120144543
C  C51  1  0.10420000  0.88510000  0.54950000  1.0 -0.120144543
C  C52  1  0.89580000  0.38510000  0.95050000  1.0 -0.120144543
C  C53  1  0.84210000  0.02150000  0.46240000  1.0 -0.1872345821
C  C54  1  0.15790000  0.52150000  0.03760000  1.0 -0.1872345821
C  C55  1  0.15790000  0.97850000  0.53760000  1.0 -0.1872345821
C  C56  1  0.84210000  0.47850000  0.96240000  1.0 -0.1872345821
C  C57  1  0.69240000  0.87640000  0.49250000  1.0 0.1806714128
C  C58  1  0.30760000  0.37640000  0.00750000  1.0 0.1806714128
C  C59  1  0.30760000  0.12360000  0.50750000  1.0 0.1806714128
C  C60  1  0.69240000  0.62360000  0.99250000  1.0 0.1806714128
C  C61  1  0.68330000  0.96870000  0.50970000  1.0 -0.1872345821
C  C62  1  0.31670000  0.46870000  0.99030000  1.0 -0.1872345821
C  C63  1  0.31670000  0.03130000  0.49030000  1.0 -0.1803414328
C  C64  1  0.68330000  0.53130000  0.00970000  1.0 -0.1803414328
C  C65  1  0.71070000  0.95260000  0.53660000  1.0 -0.1000247623
C  C66  1  0.28930000  0.45260000  0.96340000  1.0 -0.1000247623
C  C67  1  0.28930000  0.04740000  0.46340000  1.0 -0.1000247623
C  C68  1  0.71070000  0.54740000  0.03660000  1.0 -0.1000247623
C  C69  1  0.74760000  0.85110000  0.54780000  1.0 0.0183274241
C  C70  1  0.25240000  0.35110000  0.95220000  1.0 0.0183274241
C  C71  1  0.25240000  0.14890000  0.45220000  1.0 0.0183274241
C  C72  1  0.74760000  0.64890000  0.04780000  1.0 0.0183274241
C  C73  1  0.75790000  0.75480000  0.53060000  1.0 -0.1093065457
C  C74  1  0.24210000  0.25480000  0.96940000  1.0 -0.1093065457
C  C75  1  0.24210000  0.24520000  0.46940000  1.0 -0.1093065457
C  C76  1  0.75790000  0.74520000  0.03060000  1.0 -0.1093065457
C  C77  1  0.72820000  0.77020000  0.50320000  1.0 -0.1803414328
C  C78  1  0.27180000  0.27020000  0.99680000  1.0 -0.1803414328
C  C79  1  0.27180000  0.22980000  0.49680000  1.0 -0.1803414328
C  C80  1  0.72820000  0.72980000  0.00320000  1.0 -0.1803414328
C  C81  1  0.78210000  0.83590000  0.57570000  1.0 0.2791365443
C  C82  1  0.21790000  0.33590000  0.92430000  1.0 0.2791365443
C  C83  1  0.21790000  0.16410000  0.42430000  1.0 0.2791365443
C  C84  1  0.78210000  0.66410000  0.07570000  1.0 0.2791365443
C  C85  1  0.28670000  0.85390000  0.81960000  1.0 0.0183274241
C  C86  1  0.71330000  0.35390000  0.68040000  1.0 0.0183274241
C  C87  1  0.71330000  0.14610000  0.18040000  1.0 0.0183274241
C  C88  1  0.28670000  0.64610000  0.31960000  1.0 0.0183274241
C  C89  1  0.30340000  0.81470000  0.79390000  1.0 -0.1093065457
C  C90  1  0.69660000  0.31470000  0.70610000  1.0 -0.1093065457
C  C91  1  0.69660000  0.18530000  0.20610000  1.0 -0.1093065457
C  C92  1  0.30340000  0.68530000  0.29390000  1.0 -0.1093065457
C  C93  1  0.22460000  0.73030000  0.78280000  1.0 -0.1803414328
C  C94  1  0.77540000  0.23030000  0.71720000  1.0 -0.1803414328
C  C95  1  0.77540000  0.26970000  0.21720000  1.0 -0.1803414328
C  C96  1  0.22460000  0.76970000  0.28280000  1.0 -0.1803414328
C  C97  1  0.12680000  0.68590000  0.79560000  1.0 0.1897841899
C  C98  1  0.87320000  0.18590000  0.70440000  1.0 0.1897841899
C  C99  1  0.87320000  0.31410000  0.20440000  1.0 0.1897841899
C  C100  1  0.12680000  0.81410000  0.29560000  1.0 0.1897841899
C  C101  1  0.10750000  0.72860000  0.82100000  1.0 -0.1803414328
C  C102  1  0.89250000  0.22860000  0.67900000  1.0 -0.1803414328
C  C103  1  0.89250000  0.27140000  0.17900000  1.0 -0.1803414328
C  C104  1  0.10750000  0.77140000  0.32100000  1.0 -0.1803414328
C  C105  1  0.18940000  0.81160000  0.83290000  1.0 -0.1000247623
C  C106  1  0.81060000  0.31160000  0.66710000  1.0 -0.1000247623
C  C107  1  0.81060000  0.18840000  0.16710000  1.0 -0.1000247623
C  C108  1  0.18940000  0.68840000  0.33290000  1.0 -0.1000247623
C  C109  1  0.98740000  0.51380000  0.79820000  1.0 0.1725091918
C  C110  1  0.01260000  0.01380000  0.70180000  1.0 0.1725091918
C  C111  1  0.01260000  0.48620000  0.20180000  1.0 0.1725091918
C  C112  1  0.98740000  0.98620000  0.29820000  1.0 0.1725091918
C  C113  1  0.86870000  0.47100000  0.78850000  1.0 -0.1803414328
C  C114  1  0.13130000  0.97100000  0.71150000  1.0 -0.1803414328
C  C115  1  0.13130000  0.52900000  0.21150000  1.0 -0.1803414328
C  C116  1  0.86870000  0.02900000  0.28850000  1.0 -0.1803414328
C  C117  1  0.81190000  0.38810000  0.80250000  1.0 -0.0917159037
C  C118  1  0.18810000  0.88810000  0.69750000  1.0 -0.0917159037
C  C119  1  0.18810000  0.61190000  0.19750000  1.0 -0.0917159037
C  C120  1  0.81190000  0.11190000  0.30250000  1.0 -0.0917159037
C  C121  1  0.87410000  0.34500000  0.82540000  1.0 0.0313075332
C  C122  1  0.12590000  0.84500000  0.67460000  1.0 0.0313075332
C  C123  1  0.12590000  0.65500000  0.17460000  1.0 0.0313075332
C  C124  1  0.87410000  0.15500000  0.32540000  1.0 0.0313075332
C  C125  1  0.99060000  0.38650000  0.83520000  1.0 -0.1000247623
C  C126  1  0.00940000  0.88650000  0.66480000  1.0 -0.1000247623
C  C127  1  0.00940000  0.61350000  0.16480000  1.0 -0.1000247623
C  C128  1  0.99060000  0.11350000  0.33520000  1.0 -0.1000247623
C  C129  1  0.05030000  0.46880000  0.82140000  1.0 -0.1683276504
C  C130  1  0.94970000  0.96880000  0.67860000  1.0 -0.1683276504
C  C131  1  0.94970000  0.53120000  0.17860000  1.0 -0.1683276504
C  C132  1  0.05030000  0.03120000  0.32140000  1.0 -0.1683276504
C  C133  1  0.01070000  0.60640000  0.75550000  1.0 0.1725091918
C  C134  1  0.98930000  0.10640000  0.74450000  1.0 0.1725091918
C  C135  1  0.98930000  0.39360000  0.24450000  1.0 0.1725091918
C  C136  1  0.01070000  0.89360000  0.25550000  1.0 0.1725091918
C  C137  1  0.03950000  0.52110000  0.73850000  1.0 -0.1803414328
C  C138  1  0.96050000  0.02110000  0.76150000  1.0 -0.1803414328
C  C139  1  0.96050000  0.47890000  0.26150000  1.0 -0.1803414328
C  C140  1  0.03950000  0.97890000  0.23850000  1.0 -0.1803414328
C  C141  1  0.89770000  0.70590000  0.71770000  1.0 -0.1000247623
C  C142  1  0.10230000  0.20590000  0.78230000  1.0 -0.1000247623
C  C143  1  0.10230000  0.29410000  0.28230000  1.0 -0.1000247623
C  C144  1  0.89770000  0.79410000  0.21770000  1.0 -0.1000247623
C  C145  1  0.94200000  0.69900000  0.74500000  1.0 -0.1803414328
C  C146  1  0.05800000  0.19900000  0.75500000  1.0 -0.1803414328
C  C147  1  0.05800000  0.30100000  0.25500000  1.0 -0.1803414328
C  C148  1  0.94200000  0.80100000  0.24500000  1.0 -0.1803414328
C  C149  1  0.81000000  0.25710000  0.84070000  1.0 0.3193334139
C  C150  1  0.19000000  0.75710000  0.65930000  1.0 0.3193334139
C  C151  1  0.19000000  0.74290000  0.15930000  1.0 0.3193334139
C  C152  1  0.81000000  0.24290000  0.34070000  1.0 0.3193334139
C  C153  1  0.88950000  0.62320000  0.67320000  1.0 0.2994996666
C  C154  1  0.11050000  0.12320000  0.82680000  1.0 0.2994996666
C  C155  1  0.11050000  0.37680000  0.32680000  1.0 0.2994996666
C  C156  1  0.88950000  0.87680000  0.17320000  1.0 0.2994996666
C  C157  1  0.93320000  0.61720000  0.70130000  1.0 0.0375123343
C  C158  1  0.06680000  0.11720000  0.79870000  1.0 0.0375123343
C  C159  1  0.06680000  0.38280000  0.29870000  1.0 0.0375123343
C  C160  1  0.93320000  0.88280000  0.20130000  1.0 0.0375123343
C  C161  1  0.00070000  0.52400000  0.71160000  1.0 -0.1093065457
C  C162  1  0.99930000  0.02400000  0.78840000  1.0 -0.1093065457
C  C163  1  0.99930000  0.47600000  0.28840000  1.0 -0.1093065457
C  C164  1  0.00070000  0.97600000  0.21160000  1.0 -0.1093065457
C  C165  1  0.99800000  0.62850000  0.45710000  1.0 0.3740388114
C  C166  1  0.00200000  0.12850000  0.04290000  1.0 0.3740388114
C  C167  1  0.00200000  0.37150000  0.54290000  1.0 0.3772594093
C  C168  1  0.99800000  0.87150000  0.95710000  1.0 0.3740388114
C  C169  1  0.06630000  0.66500000  0.48330000  1.0 0.5016093312
C  C170  1  0.93370000  0.16500000  0.01670000  1.0 0.5016093312
C  C171  1  0.93370000  0.33500000  0.51670000  1.0 0.5016093312
C  C172  1  0.06630000  0.83500000  0.98330000  1.0 0.5016093312
C  C173  1  0.80470000  0.62610000  0.35820000  1.0 0.330060242
C  C174  1  0.19530000  0.12610000  0.14180000  1.0 0.330060242
C  C175  1  0.19530000  0.37390000  0.64180000  1.0 0.330060242
C  C176  1  0.80470000  0.87390000  0.85820000  1.0 0.330060242
C  C177  1  0.74580000  0.67570000  0.33270000  1.0 0.4406926392
C  C178  1  0.25420000  0.17570000  0.16730000  1.0 0.4406926392
C  C179  1  0.25420000  0.32430000  0.66730000  1.0 0.4406926392
C  C180  1  0.74580000  0.82430000  0.83270000  1.0 0.4406926392
C  C181  1  0.53280000  0.38510000  0.42750000  1.0 0.409812492
C  C182  1  0.46720000  0.88510000  0.07250000  1.0 0.409812492
C  C183  1  0.46720000  0.61490000  0.57250000  1.0 0.409812492
C  C184  1  0.53280000  0.11490000  0.92750000  1.0 0.409812492
C  C185  1  0.57060000  0.39760000  0.45790000  1.0 0.5224763362
C  C186  1  0.42940000  0.89760000  0.04210000  1.0 0.5224763362
C  C187  1  0.42940000  0.60240000  0.54210000  1.0 0.5224763362
C  C188  1  0.57060000  0.10240000  0.95790000  1.0 0.5224763362
C  C189  1  0.53540000  0.00500000  0.64840000  1.0 0.409812492
C  C190  1  0.46460000  0.50500000  0.85160000  1.0 0.4155525325
C  C191  1  0.46460000  0.99500000  0.35160000  1.0 0.4155525325
C  C192  1  0.53540000  0.49500000  0.14840000  1.0 0.4155525325
C  C193  1  0.37320000  0.93990000  0.83290000  1.0 0.330060242
C  C194  1  0.62680000  0.43990000  0.66710000  1.0 0.330060242
C  C195  1  0.62680000  0.06010000  0.16710000  1.0 0.330060242
C  C196  1  0.37320000  0.56010000  0.33290000  1.0 0.330060242
S  S1  1  0.55498000  0.86540000  0.65818000  1.0 0.9784776925
S  S2  1  0.44502000  0.36540000  0.84182000  1.0 0.9784776925
S  S3  1  0.44502000  0.13460000  0.34182000  1.0 0.9784776925
S  S4  1  0.55498000  0.63460000  0.15818000  1.0 0.9784776925
N  N1  1  0.23430000  0.54640000  0.39490000  1.0 -0.3818920792
N  N2  1  0.76570000  0.04640000  0.10510000  1.0 -0.3818920792
N  N3  1  0.76570000  0.45360000  0.60510000  1.0 -0.3818920792
N  N4  1  0.23430000  0.95360000  0.89490000  1.0 -0.3818920792
N  N5  1  0.66680000  0.88900000  0.46470000  1.0 -0.1683276504
N  N6  1  0.33320000  0.38900000  0.03530000  1.0 -0.1683276504
N  N7  1  0.33320000  0.11100000  0.53530000  1.0 -0.1683276504
N  N8  1  0.66680000  0.61100000  0.96470000  1.0 -0.1683276504
N  N9  1  0.93100000  0.34890000  0.40950000  1.0 -0.3818920792
N  N10  1  0.06900000  0.84890000  0.09050000  1.0 -0.3818920792
N  N11  1  0.06900000  0.65110000  0.59050000  1.0 -0.3818920792
N  N12  1  0.93100000  0.15110000  0.90950000  1.0 -0.3818920792
N  N13  1  0.81000000  0.82640000  0.59790000  1.0 -0.3593815209
N  N14  1  0.19000000  0.32640000  0.90210000  1.0 -0.3593815209
N  N15  1  0.19000000  0.17360000  0.40210000  1.0 -0.3593815209
N  N16  1  0.81000000  0.67360000  0.09790000  1.0 -0.3593815209
N  N17  1  0.04660000  0.60090000  0.78330000  1.0 -0.1683276504
N  N18  1  0.95340000  0.10090000  0.71670000  1.0 -0.1683276504
N  N19  1  0.95340000  0.39910000  0.21670000  1.0 -0.1683276504
N  N20  1  0.04660000  0.89910000  0.28330000  1.0 -0.1683276504
N  N21  1  0.75920000  0.18900000  0.85040000  1.0 -0.3593815209
N  N22  1  0.24080000  0.68900000  0.64960000  1.0 -0.3593815209
N  N23  1  0.24080000  0.81100000  0.14960000  1.0 -0.3593815209
N  N24  1  0.75920000  0.31100000  0.35040000  1.0 -0.3593815209
N  N25  1  0.85320000  0.62750000  0.65120000  1.0 -0.3818920792
N  N26  1  0.14680000  0.12750000  0.84880000  1.0 -0.3818920792
N  N27  1  0.14680000  0.37250000  0.34880000  1.0 -0.3818920792
N  N28  1  0.85320000  0.87250000  0.15120000  1.0 -0.3818920792
N  N29  1  0.43710000  0.00190000  0.84370000  1.0 -0.3999673741
N  N30  1  0.56290000  0.50190000  0.65630000  1.0 -0.3999673741
N  N31  1  0.56290000  0.99810000  0.15630000  1.0 -0.3999673741
N  N32  1  0.43710000  0.49810000  0.34370000  1.0 -0.3999673741
O  O1  1  0.06700000  0.59540000  0.44070000  1.0 -0.4504454525
O  O2  1  0.93300000  0.09540000  0.05930000  1.0 -0.4504454525
O  O3  1  0.93300000  0.40460000  0.55930000  1.0 -0.4504454525
O  O4  1  0.06700000  0.90460000  0.94070000  1.0 -0.4504454525
O  O5  1  0.88320000  0.63660000  0.45550000  1.0 -0.4216048994
O  O6  1  0.11680000  0.13660000  0.04450000  1.0 -0.4216048994
O  O7  1  0.11680000  0.36340000  0.54450000  1.0 -0.4216048994
O  O8  1  0.88320000  0.86340000  0.95550000  1.0 -0.4216048994
O  O9  1  0.92080000  0.60910000  0.36020000  1.0 -0.4216048994
O  O10  1  0.07920000  0.10910000  0.13980000  1.0 -0.4216048994
O  O11  1  0.07920000  0.39090000  0.63980000  1.0 -0.4216048994
O  O12  1  0.92080000  0.89090000  0.86020000  1.0 -0.4216048994
O  O13  1  0.72818000  0.60280000  0.37438000  1.0 -0.4504454525
O  O14  1  0.27182000  0.10280000  0.12562000  1.0 -0.4504454525
O  O15  1  0.27182000  0.39720000  0.62562000  1.0 -0.4504454525
O  O16  1  0.72818000  0.89720000  0.87438000  1.0 -0.4504454525
O  O17  1  0.61054000  0.42580000  0.41314000  1.0 -0.4900040419
O  O18  1  0.38946000  0.92580000  0.08686000  1.0 -0.4900040419
O  O19  1  0.38946000  0.57420000  0.58686000  1.0 -0.4900040419
O  O20  1  0.61054000  0.07420000  0.91314000  1.0 -0.4900040419
O  O21  1  0.43030000  0.34380000  0.42140000  1.0 -0.4419967027
O  O22  1  0.56970000  0.84380000  0.07860000  1.0 -0.4419967027
O  O23  1  0.56970000  0.65620000  0.57860000  1.0 -0.4419967027
O  O24  1  0.43030000  0.15620000  0.92140000  1.0 -0.4419967027
O  O25  1  0.51530000  0.80330000  0.63400000  1.0 -0.5915754081
O  O26  1  0.48470000  0.30330000  0.86600000  1.0 -0.5915754081
O  O27  1  0.48470000  0.19670000  0.36600000  1.0 -0.5915754081
O  O28  1  0.51530000  0.69670000  0.13400000  1.0 -0.5915754081
O  O29  1  0.68030000  0.84720000  0.66590000  1.0 -0.5187859775
O  O30  1  0.31970000  0.34720000  0.83410000  1.0 -0.5187859775
O  O31  1  0.31970000  0.15280000  0.33410000  1.0 -0.5187859775
O  O32  1  0.68030000  0.65280000  0.16590000  1.0 -0.5187859775
O  O33  1  0.45900000  0.88100000  0.67800000  1.0 -0.5754786672
O  O34  1  0.54100000  0.38100000  0.82200000  1.0 -0.573513651
O  O35  1  0.54100000  0.11900000  0.32200000  1.0 -0.573513651
O  O36  1  0.45900000  0.61900000  0.17800000  1.0 -0.5754786672
F  F1  1  0.17200000  0.63300000  0.48890000  1.0 -0.1093065457
F  F2  1  0.82800000  0.13300000  0.01110000  1.0 -0.1093065457
F  F3  1  0.82800000  0.36700000  0.51110000  1.0 -0.1093065457
F  F4  1  0.17200000  0.86700000  0.98890000  1.0 -0.1093065457
F  F5  1  0.08180000  0.77700000  0.48280000  1.0 -0.160918297
F  F6  1  0.91820000  0.27700000  0.01720000  1.0 -0.160918297
F  F7  1  0.91820000  0.22300000  0.51720000  1.0 -0.160918297
F  F8  1  0.08180000  0.72300000  0.98280000  1.0 -0.160918297
F  F9  1  0.00820000  0.64500000  0.50430000  1.0 -0.1683276504
F  F10  1  0.99180000  0.14500000  0.99570000  1.0 -0.1683276504
F  F11  1  0.99180000  0.35500000  0.49570000  1.0 -0.1683276504
F  F12  1  0.00820000  0.85500000  0.00430000  1.0 -0.1683276504
F  F13  1  0.63540000  0.70660000  0.33080000  1.0 -0.1527572414
F  F14  1  0.36460000  0.20660000  0.16920000  1.0 -0.1527572414
F  F15  1  0.36460000  0.29340000  0.66920000  1.0 -0.1527572414
F  F16  1  0.63540000  0.79340000  0.83080000  1.0 -0.1527572414
F  F17  1  0.73380000  0.60500000  0.31480000  1.0 -0.1093065457
F  F18  1  0.26620000  0.10500000  0.18520000  1.0 -0.1093065457
F  F19  1  0.26620000  0.39500000  0.68520000  1.0 -0.1093065457
F  F20  1  0.73380000  0.89500000  0.81480000  1.0 -0.1093065457
F  F21  1  0.80630000  0.74700000  0.32150000  1.0 -0.160918297
F  F22  1  0.19370000  0.24700000  0.17850000  1.0 -0.160918297
F  F23  1  0.19370000  0.25300000  0.67850000  1.0 -0.160918297
F  F24  1  0.80630000  0.75300000  0.82150000  1.0 -0.160918297
F  F25  1  0.59290000  0.29900000  0.46900000  1.0 -0.1683276504
F  F26  1  0.40710000  0.79900000  0.03100000  1.0 -0.1683276504
F  F27  1  0.40710000  0.70100000  0.53100000  1.0 -0.1683276504
F  F28  1  0.59290000  0.20100000  0.96900000  1.0 -0.1683276504
F  F29  1  0.47720000  0.43390000  0.47090000  1.0 -0.160918297
F  F30  1  0.52280000  0.93390000  0.02910000  1.0 -0.160918297
F  F31  1  0.52280000  0.56610000  0.52910000  1.0 -0.160918297
F  F32  1  0.47720000  0.06610000  0.97090000  1.0 -0.160918297
F  F33  1  0.65750000  0.46700000  0.46470000  1.0 -0.1683276504
F  F34  1  0.34250000  0.96700000  0.03530000  1.0 -0.1683276504
F  F35  1  0.34250000  0.53300000  0.53530000  1.0 -0.1683276504
F  F36  1  0.65750000  0.03300000  0.96470000  1.0 -0.1683276504
F  F37  1  0.43280000  0.03470000  0.63780000  1.0 -0.120144543
F  F38  1  0.56720000  0.53470000  0.86220000  1.0 -0.120144543
F  F39  1  0.56720000  0.96530000  0.36220000  1.0 -0.120144543
F  F40  1  0.43280000  0.46530000  0.13780000  1.0 -0.120144543
F  F41  1  0.60870000  0.02820000  0.62770000  1.0 -0.1527572414
F  F42  1  0.39130000  0.52820000  0.87230000  1.0 -0.1527572414
F  F43  1  0.39130000  0.97180000  0.37230000  1.0 -0.1527572414
F  F44  1  0.60870000  0.47180000  0.12770000  1.0 -0.1527572414
F  F45  1  0.58950000  0.07330000  0.66550000  1.0 -0.1527572414
F  F46  1  0.41050000  0.57330000  0.83450000  1.0 -0.1527572414
F  F47  1  0.41050000  0.92670000  0.33450000  1.0 -0.1527572414
F  F48  1  0.58950000  0.42670000  0.16550000  1.0 -0.1527572414
