# DDEC6 charges by PACMAN v1.1 (https://github.com/mtap-research/PACMAN-charge/)
data_OKIKEZ_ion_pacman
_symmetry_space_group_name_H-M   'P 1'
_cell_length_a   10.06130000
_cell_length_b   11.99300000
_cell_length_c   26.35900000
_cell_angle_alpha   90.00000000
_cell_angle_beta   90.00000000
_cell_angle_gamma   90.00000000
_symmetry_Int_Tables_number   1
_chemical_formula_structural   Ag2H26C44S2N8O7F6
_chemical_formula_sum   'Ag4 H52 C88 S4 N16 O14 F12'
_cell_volume   3180.61323975
_cell_formula_units_Z   2
loop_
 _symmetry_equiv_pos_site_id
 _symmetry_equiv_pos_as_xyz
  1  'x, y, z'
loop_
 _atom_site_type_symbol
 _atom_site_label
 _atom_site_symmetry_multiplicity
 _atom_site_fract_x
 _atom_site_fract_y
 _atom_site_fract_z
 _atom_site_occupancy
 _atom_site_charge
Ag  Ag1  1  0.28749000  0.78489000  0.48724000  1.0 0.5129860135
Ag  Ag2  1  0.71251000  0.78489000  0.51276000  1.0 0.5129860135
Ag  Ag3  1  0.28749000  0.28489000  0.01276000  1.0 0.5169881674
Ag  Ag4  1  0.71251000  0.28489000  0.98724000  1.0 0.5169881674
H  H1  1  0.19030000  0.93410000  0.67380000  1.0 0.1236037468
H  H2  1  0.80970000  0.93410000  0.32620000  1.0 0.1236037468
H  H3  1  0.19030000  0.43410000  0.82620000  1.0 0.1236037468
H  H4  1  0.80970000  0.43410000  0.17380000  1.0 0.1236037468
H  H5  1  0.16800000  0.93560000  0.76080000  1.0 0.1278929586
H  H6  1  0.83200000  0.93560000  0.23920000  1.0 0.1278929586
H  H7  1  0.16800000  0.43560000  0.73920000  1.0 0.1278929586
H  H8  1  0.83200000  0.43560000  0.26080000  1.0 0.1278929586
H  H9  1  0.27650000  0.61640000  0.76740000  1.0 0.1386253106
H  H10  1  0.72350000  0.61640000  0.23260000  1.0 0.1386253106
H  H11  1  0.27650000  0.11640000  0.73260000  1.0 0.1386253106
H  H12  1  0.72350000  0.11640000  0.26740000  1.0 0.1386253106
H  H13  1  0.28710000  0.61230000  0.67930000  1.0 0.1120347174
H  H14  1  0.71290000  0.61230000  0.32070000  1.0 0.1120347174
H  H15  1  0.28710000  0.11230000  0.82070000  1.0 0.1120347174
H  H16  1  0.71290000  0.11230000  0.17930000  1.0 0.1120347174
H  H17  1  0.44890000  0.85460000  0.80160000  1.0 0.1386253106
H  H18  1  0.55110000  0.85460000  0.19840000  1.0 0.1386253106
H  H19  1  0.44890000  0.35460000  0.69840000  1.0 0.1386253106
H  H20  1  0.55110000  0.35460000  0.30160000  1.0 0.1386253106
H  H21  1  0.58500000  0.97510000  0.84330000  1.0 0.1278929586
H  H22  1  0.41500000  0.97510000  0.15670000  1.0 0.1278929586
H  H23  1  0.58500000  0.47510000  0.65670000  1.0 0.1278929586
H  H24  1  0.41500000  0.47510000  0.34330000  1.0 0.1278929586
H  H25  1  0.31010000  0.01170000  0.95290000  1.0 0.1278929586
H  H26  1  0.68990000  0.01170000  0.04710000  1.0 0.1278929586
H  H27  1  0.31010000  0.51170000  0.54710000  1.0 0.1278929586
H  H28  1  0.68990000  0.51170000  0.45290000  1.0 0.1278929586
H  H29  1  0.17340000  0.88970000  0.91040000  1.0 0.1386253106
H  H30  1  0.82660000  0.88970000  0.08960000  1.0 0.1386253106
H  H31  1  0.17340000  0.38970000  0.58960000  1.0 0.1386253106
H  H32  1  0.82660000  0.38970000  0.41040000  1.0 0.1386253106
H  H33  1  0.27040000  0.68100000  0.91190000  1.0 0.1278929586
H  H34  1  0.72960000  0.68100000  0.08810000  1.0 0.1278929586
H  H35  1  0.27040000  0.18100000  0.58810000  1.0 0.1278929586
H  H36  1  0.72960000  0.18100000  0.41190000  1.0 0.1278929586
H  H37  1  0.15450000  0.54650000  0.95440000  1.0 0.1236037468
H  H38  1  0.84550000  0.54650000  0.04560000  1.0 0.1236037468
H  H39  1  0.15450000  0.04650000  0.54560000  1.0 0.1236037468
H  H40  1  0.84550000  0.04650000  0.45440000  1.0 0.1236037468
H  H41  1  0.87770000  0.54650000  0.84420000  1.0 0.1236037468
H  H42  1  0.12230000  0.54650000  0.15580000  1.0 0.1236037468
H  H43  1  0.87770000  0.04650000  0.65580000  1.0 0.1236037468
H  H44  1  0.12230000  0.04650000  0.34420000  1.0 0.1236037468
H  H45  1  0.99430000  0.68460000  0.80280000  1.0 0.1278929586
H  H46  1  0.00570000  0.68460000  0.19720000  1.0 0.1278929586
H  H47  1  0.99430000  0.18460000  0.69720000  1.0 0.1278929586
H  H48  1  0.00570000  0.18460000  0.30280000  1.0 0.1278929586
H  H49  1  0.49610000  0.91900000  0.52680000  1.0 0.3733927997
H  H50  1  0.50390000  0.91900000  0.47320000  1.0 0.3733927997
H  H51  1  0.49610000  0.41900000  0.97320000  1.0 0.3733927997
H  H52  1  0.50390000  0.41900000  0.02680000  1.0 0.3733927997
C  C1  1  0.24210000  0.76790000  0.61359000  1.0 0.3047121259
C  C2  1  0.75790000  0.76790000  0.38641000  1.0 0.3047121259
C  C3  1  0.24210000  0.26790000  0.88641000  1.0 0.3047121259
C  C4  1  0.75790000  0.26790000  0.11359000  1.0 0.3047121259
C  C5  1  0.23740000  0.77110000  0.66842000  1.0 0.043891983
C  C6  1  0.76260000  0.77110000  0.33158000  1.0 0.043891983
C  C7  1  0.23740000  0.27110000  0.83158000  1.0 0.043891983
C  C8  1  0.76260000  0.27110000  0.16842000  1.0 0.043891983
C  C9  1  0.20480000  0.86950000  0.69240000  1.0 -0.0991401711
C  C10  1  0.79520000  0.86950000  0.30760000  1.0 -0.0991401711
C  C11  1  0.20480000  0.36950000  0.80760000  1.0 -0.0991401711
C  C12  1  0.79520000  0.36950000  0.19240000  1.0 -0.0991401711
C  C13  1  0.19410000  0.87060000  0.74440000  1.0 -0.1650459973
C  C14  1  0.80590000  0.87060000  0.25560000  1.0 -0.1650459973
C  C15  1  0.19410000  0.37060000  0.75560000  1.0 -0.1650459973
C  C16  1  0.80590000  0.37060000  0.24440000  1.0 -0.1650459973
C  C17  1  0.22160000  0.77610000  0.77251000  1.0 0.1728702279
C  C18  1  0.77840000  0.77610000  0.22749000  1.0 0.1728702279
C  C19  1  0.22160000  0.27610000  0.72749000  1.0 0.1728702279
C  C20  1  0.77840000  0.27610000  0.27251000  1.0 0.1728702279
C  C21  1  0.25710000  0.68010000  0.74860000  1.0 -0.1531620934
C  C22  1  0.74290000  0.68010000  0.25140000  1.0 -0.1588724834
C  C23  1  0.25710000  0.18010000  0.75140000  1.0 -0.1531620934
C  C24  1  0.74290000  0.18010000  0.24860000  1.0 -0.1531620934
C  C25  1  0.26410000  0.67800000  0.69580000  1.0 -0.1136826706
C  C26  1  0.73590000  0.67800000  0.30420000  1.0 -0.1136826706
C  C27  1  0.26410000  0.17800000  0.80420000  1.0 -0.1136826706
C  C28  1  0.73590000  0.17800000  0.19580000  1.0 -0.1136826706
C  C29  1  0.29940000  0.85720000  0.85184000  1.0 0.1879359575
C  C30  1  0.70060000  0.85720000  0.14816000  1.0 0.1879359575
C  C31  1  0.29940000  0.35720000  0.64816000  1.0 0.1879359575
C  C32  1  0.70060000  0.35720000  0.35184000  1.0 0.1879359575
C  C33  1  0.42150000  0.88550000  0.83225000  1.0 -0.1588724834
C  C34  1  0.57850000  0.88550000  0.16775000  1.0 -0.1588724834
C  C35  1  0.42150000  0.38550000  0.66775000  1.0 -0.1650459973
C  C36  1  0.57850000  0.38550000  0.33225000  1.0 -0.1588724834
C  C37  1  0.50220000  0.95760000  0.85680000  1.0 -0.0991401711
C  C38  1  0.49780000  0.95760000  0.14320000  1.0 -0.0991401711
C  C39  1  0.50220000  0.45760000  0.64320000  1.0 -0.0991401711
C  C40  1  0.49780000  0.45760000  0.35680000  1.0 -0.0991401711
C  C41  1  0.46150000  0.00630000  0.90274000  1.0 -0.0040335731
C  C42  1  0.53850000  0.00630000  0.09726000  1.0 -0.0040335731
C  C43  1  0.46150000  0.50630000  0.59726000  1.0 -0.0040335731
C  C44  1  0.53850000  0.50630000  0.40274000  1.0 -0.0040335731
C  C45  1  0.33800000  0.97980000  0.92254000  1.0 -0.0921037105
C  C46  1  0.66200000  0.97980000  0.07746000  1.0 -0.0921037105
C  C47  1  0.33800000  0.47980000  0.57746000  1.0 -0.0921037105
C  C48  1  0.66200000  0.47980000  0.42254000  1.0 -0.0921037105
C  C49  1  0.25680000  0.90670000  0.89730000  1.0 -0.1798654815
C  C50  1  0.74320000  0.90670000  0.10270000  1.0 -0.1798654815
C  C51  1  0.25680000  0.40670000  0.60270000  1.0 -0.1798654815
C  C52  1  0.74320000  0.40670000  0.39730000  1.0 -0.1798654815
C  C53  1  0.54970000  0.08050000  0.92940000  1.0 0.3087229113
C  C54  1  0.45030000  0.08050000  0.07060000  1.0 0.3087229113
C  C55  1  0.54970000  0.58050000  0.57060000  1.0 0.3087229113
C  C56  1  0.45030000  0.58050000  0.42940000  1.0 0.3087229113
C  C57  1  0.14430000  0.69710000  0.85303000  1.0 0.1879359575
C  C58  1  0.85570000  0.69710000  0.14697000  1.0 0.1879359575
C  C59  1  0.14430000  0.19710000  0.64697000  1.0 0.1879359575
C  C60  1  0.85570000  0.19710000  0.35303000  1.0 0.1879359575
C  C61  1  0.19110000  0.65430000  0.89840000  1.0 -0.1588724834
C  C62  1  0.80890000  0.65430000  0.10160000  1.0 -0.1588724834
C  C63  1  0.19110000  0.15430000  0.60160000  1.0 -0.1588724834
C  C64  1  0.80890000  0.15430000  0.39840000  1.0 -0.1588724834
C  C65  1  0.12260000  0.57370000  0.92367000  1.0 -0.0921037105
C  C66  1  0.87740000  0.57370000  0.07633000  1.0 -0.0921037105
C  C67  1  0.12260000  0.07370000  0.57633000  1.0 -0.0921037105
C  C68  1  0.87740000  0.07370000  0.42367000  1.0 -0.0921037105
C  C69  1  0.00490000  0.53210000  0.90349000  1.0 0.0042984447
C  C70  1  0.99510000  0.53210000  0.09651000  1.0 0.0042984447
C  C71  1  0.00490000  0.03210000  0.59651000  1.0 0.0042984447
C  C72  1  0.99510000  0.03210000  0.40349000  1.0 0.0042984447
C  C73  1  0.95640000  0.57380000  0.85790000  1.0 -0.0921037105
C  C74  1  0.04360000  0.57380000  0.14210000  1.0 -0.0921037105
C  C75  1  0.95640000  0.07380000  0.64210000  1.0 -0.0921037105
C  C76  1  0.04360000  0.07380000  0.35790000  1.0 -0.0921037105
C  C77  1  0.02650000  0.65600000  0.83326000  1.0 -0.1798654815
C  C78  1  0.97350000  0.65600000  0.16674000  1.0 -0.1798654815
C  C79  1  0.02650000  0.15600000  0.66674000  1.0 -0.1798654815
C  C80  1  0.97350000  0.15600000  0.33326000  1.0 -0.1798654815
C  C81  1  0.93030000  0.44870000  0.92970000  1.0 0.3087229113
C  C82  1  0.06970000  0.44870000  0.07030000  1.0 0.3087229113
C  C83  1  0.93030000  0.94870000  0.57030000  1.0 0.3087229113
C  C84  1  0.06970000  0.94870000  0.42970000  1.0 0.3087229113
C  C85  1  0.38880000  0.15320000  0.41490000  1.0 0.4674237537
C  C86  1  0.61120000  0.15320000  0.58510000  1.0 0.4674237537
C  C87  1  0.38880000  0.65320000  0.08510000  1.0 0.4674237537
C  C88  1  0.61120000  0.65320000  0.91490000  1.0 0.4674237537
S  S1  1  0.46436000  0.04451000  0.37763000  1.0 0.9932488593
S  S2  1  0.53564000  0.04451000  0.62237000  1.0 0.9932488593
S  S3  1  0.46436000  0.54451000  0.12237000  1.0 0.9932488593
S  S4  1  0.53564000  0.54451000  0.87763000  1.0 0.9932488593
N  N1  1  0.24520000  0.76260000  0.57103000  1.0 -0.3681466264
N  N2  1  0.75480000  0.76260000  0.42897000  1.0 -0.3681466264
N  N3  1  0.24520000  0.26260000  0.92897000  1.0 -0.3681466264
N  N4  1  0.75480000  0.26260000  0.07103000  1.0 -0.3681466264
N  N5  1  0.21570000  0.78050000  0.82668000  1.0 -0.1531620934
N  N6  1  0.78430000  0.78050000  0.17332000  1.0 -0.1531620934
N  N7  1  0.21570000  0.28050000  0.67332000  1.0 -0.1531620934
N  N8  1  0.78430000  0.28050000  0.32668000  1.0 -0.1531620934
N  N9  1  0.61710000  0.13980000  0.95040000  1.0 -0.3681466264
N  N10  1  0.38290000  0.13980000  0.04960000  1.0 -0.3681466264
N  N11  1  0.61710000  0.63980000  0.54960000  1.0 -0.3681466264
N  N12  1  0.38290000  0.63980000  0.45040000  1.0 -0.3681466264
N  N13  1  0.87310000  0.38280000  0.95086000  1.0 -0.3544503359
N  N14  1  0.12690000  0.38280000  0.04914000  1.0 -0.3551767675
N  N15  1  0.87310000  0.88280000  0.54914000  1.0 -0.3544503359
N  N16  1  0.12690000  0.88280000  0.45086000  1.0 -0.3551767675
O  O1  1  0.50000000  0.87960000  0.50000000  1.0 -0.68453764
O  O2  1  0.50000000  0.37960000  0.00000000  1.0 -0.68453764
O  O3  1  0.52970000  0.10150000  0.33793000  1.0 -0.5607536045
O  O4  1  0.35220000  0.97790000  0.36330000  1.0 -0.5677256194
O  O5  1  0.55070000  0.99390000  0.41370000  1.0 -0.5607536045
O  O6  1  0.47030000  0.10150000  0.66207000  1.0 -0.5607536045
O  O7  1  0.64780000  0.97790000  0.63670000  1.0 -0.5677256194
O  O8  1  0.44930000  0.99390000  0.58630000  1.0 -0.5607536045
O  O9  1  0.52970000  0.60150000  0.16207000  1.0 -0.5607536045
O  O10  1  0.35220000  0.47790000  0.13670000  1.0 -0.5677256194
O  O11  1  0.55070000  0.49390000  0.08630000  1.0 -0.5607536045
O  O12  1  0.47030000  0.60150000  0.83793000  1.0 -0.5607536045
O  O13  1  0.64780000  0.47790000  0.86330000  1.0 -0.5677256194
O  O14  1  0.44930000  0.49390000  0.91370000  1.0 -0.5607536045
F  F1  1  0.31830000  0.11720000  0.45310000  1.0 -0.1798654815
F  F2  1  0.30710000  0.21640000  0.38780000  1.0 -0.1798654815
F  F3  1  0.47820000  0.22550000  0.43390000  1.0 -0.1798654815
F  F4  1  0.68170000  0.11720000  0.54690000  1.0 -0.1798654815
F  F5  1  0.69290000  0.21640000  0.61220000  1.0 -0.1798654815
F  F6  1  0.52180000  0.22550000  0.56610000  1.0 -0.1798654815
F  F7  1  0.31830000  0.61720000  0.04690000  1.0 -0.1798654815
F  F8  1  0.30710000  0.71640000  0.11220000  1.0 -0.1798654815
F  F9  1  0.47820000  0.72550000  0.06610000  1.0 -0.1798654815
F  F10  1  0.68170000  0.61720000  0.95310000  1.0 -0.1798654815
F  F11  1  0.69290000  0.71640000  0.88780000  1.0 -0.1798654815
F  F12  1  0.52180000  0.72550000  0.93390000  1.0 -0.1798654815
