# DDEC6 charges by PACMAN v1.1 (https://github.com/mtap-research/PACMAN-charge/)
data_OKILEA_ASR_pacman
_symmetry_space_group_name_H-M   'P 1'
_cell_length_a   15.47770000
_cell_length_b   15.47770000
_cell_length_c   15.47770000
_cell_angle_alpha   111.04300000
_cell_angle_beta   111.04300000
_cell_angle_gamma   111.04300000
_symmetry_Int_Tables_number   1
_chemical_formula_structural   Mn3H10C22(NO2)4
_chemical_formula_sum   'Mn9 H30 C66 N12 O24'
_cell_volume   2675.34419727
_cell_formula_units_Z   3
loop_
 _symmetry_equiv_pos_site_id
 _symmetry_equiv_pos_as_xyz
  1  'x, y, z'
loop_
 _atom_site_type_symbol
 _atom_site_label
 _atom_site_symmetry_multiplicity
 _atom_site_fract_x
 _atom_site_fract_y
 _atom_site_fract_z
 _atom_site_occupancy
 _atom_site_charge
Mn  Mn1  1  0.48944000  0.21460000  0.73247000  1.0 0.8464309467
Mn  Mn2  1  0.21460000  0.73247000  0.48944000  1.0 0.8464309467
Mn  Mn3  1  0.73247000  0.48944000  0.21460000  1.0 0.8464309467
Mn  Mn4  1  0.51056000  0.78540000  0.26753000  1.0 0.8464309467
Mn  Mn5  1  0.78540000  0.26753000  0.51056000  1.0 0.8464309467
Mn  Mn6  1  0.26753000  0.51056000  0.78540000  1.0 0.8464309467
Mn  Mn7  1  0.00000000  0.00000000  0.50000000  1.0 1.028064459
Mn  Mn8  1  0.00000000  0.50000000  0.00000000  1.0 1.028064459
Mn  Mn9  1  0.50000000  0.00000000  0.00000000  1.0 1.028064459
H  H1  1  0.50530000  0.58670000  0.96470000  1.0 0.1136723043
H  H2  1  0.58670000  0.96470000  0.50530000  1.0 0.1136723043
H  H3  1  0.96470000  0.50530000  0.58670000  1.0 0.1136723043
H  H4  1  0.49470000  0.41330000  0.03530000  1.0 0.1136723043
H  H5  1  0.41330000  0.03530000  0.49470000  1.0 0.1136723043
H  H6  1  0.03530000  0.49470000  0.41330000  1.0 0.1136723043
H  H7  1  0.68440000  0.74830000  0.09320000  1.0 0.1176390741
H  H8  1  0.74830000  0.09320000  0.68440000  1.0 0.1176390741
H  H9  1  0.09320000  0.68440000  0.74830000  1.0 0.1176390741
H  H10  1  0.31560000  0.25170000  0.90680000  1.0 0.1176390741
H  H11  1  0.25170000  0.90680000  0.31560000  1.0 0.1176390741
H  H12  1  0.90680000  0.31560000  0.25170000  1.0 0.1176390741
H  H13  1  0.82230000  0.77000000  0.05930000  1.0 0.1176390741
H  H14  1  0.77000000  0.05930000  0.82230000  1.0 0.1176390741
H  H15  1  0.05930000  0.82230000  0.77000000  1.0 0.1176390741
H  H16  1  0.17770000  0.23000000  0.94070000  1.0 0.1176390741
H  H17  1  0.23000000  0.94070000  0.17770000  1.0 0.1176390741
H  H18  1  0.94070000  0.17770000  0.23000000  1.0 0.1176390741
H  H19  1  0.78460000  0.62630000  0.90350000  1.0 0.1176390741
H  H20  1  0.62630000  0.90350000  0.78460000  1.0 0.1176390741
H  H21  1  0.90350000  0.78460000  0.62630000  1.0 0.1176390741
H  H22  1  0.21540000  0.37370000  0.09650000  1.0 0.1176390741
H  H23  1  0.37370000  0.09650000  0.21540000  1.0 0.1176390741
H  H24  1  0.09650000  0.21540000  0.37370000  1.0 0.1176390741
H  H25  1  0.60550000  0.46540000  0.77370000  1.0 0.1136723043
H  H26  1  0.46540000  0.77370000  0.60550000  1.0 0.1136723043
H  H27  1  0.77370000  0.60550000  0.46540000  1.0 0.1136723043
H  H28  1  0.39450000  0.53460000  0.22630000  1.0 0.1136723043
H  H29  1  0.53460000  0.22630000  0.39450000  1.0 0.1136723043
H  H30  1  0.22630000  0.39450000  0.53460000  1.0 0.1136723043
C  C1  1  0.12862000  0.26193000  0.62254000  1.0 0.5660340929
C  C2  1  0.26193000  0.62254000  0.12862000  1.0 0.5660340929
C  C3  1  0.62254000  0.12862000  0.26193000  1.0 0.5660340929
C  C4  1  0.87138000  0.73807000  0.37746000  1.0 0.5660340929
C  C5  1  0.73807000  0.37746000  0.87138000  1.0 0.5660340929
C  C6  1  0.37746000  0.87138000  0.73807000  1.0 0.5660340929
C  C7  1  0.24433000  0.29126000  0.66722000  1.0 -0.0182011531
C  C8  1  0.29126000  0.66722000  0.24433000  1.0 -0.0182011531
C  C9  1  0.66722000  0.24433000  0.29126000  1.0 -0.0182011531
C  C10  1  0.75567000  0.70874000  0.33278000  1.0 -0.0182011531
C  C11  1  0.70874000  0.33278000  0.75567000  1.0 -0.0182011531
C  C12  1  0.33278000  0.75567000  0.70874000  1.0 -0.0182011531
C  C13  1  0.29165000  0.23079000  0.65019000  1.0 -0.0029963885
C  C14  1  0.23079000  0.65019000  0.29165000  1.0 -0.0029963885
C  C15  1  0.65019000  0.29165000  0.23079000  1.0 -0.0029963885
C  C16  1  0.70835000  0.76921000  0.34981000  1.0 -0.0029963885
C  C17  1  0.76921000  0.34981000  0.70835000  1.0 -0.0029963885
C  C18  1  0.34981000  0.70835000  0.76921000  1.0 -0.0029963885
C  C19  1  0.24670000  0.11059000  0.57741000  1.0 0.5660340929
C  C20  1  0.11059000  0.57741000  0.24670000  1.0 0.5660340929
C  C21  1  0.57741000  0.24670000  0.11059000  1.0 0.5660340929
C  C22  1  0.75330000  0.88941000  0.42259000  1.0 0.5660340929
C  C23  1  0.88941000  0.42259000  0.75330000  1.0 0.5660340929
C  C24  1  0.42259000  0.75330000  0.88941000  1.0 0.5660340929
C  C25  1  0.42393000  0.40510000  0.77353000  1.0 0.3253653838
C  C26  1  0.40510000  0.77353000  0.42393000  1.0 0.3253653838
C  C27  1  0.77353000  0.42393000  0.40510000  1.0 0.3253653838
C  C28  1  0.57607000  0.59490000  0.22647000  1.0 0.3253653838
C  C29  1  0.59490000  0.22647000  0.57607000  1.0 0.3253653838
C  C30  1  0.22647000  0.57607000  0.59490000  1.0 0.3253653838
C  C31  1  0.53689000  0.50874000  0.85582000  1.0 0.0225740668
C  C32  1  0.50874000  0.85582000  0.53689000  1.0 0.0225740668
C  C33  1  0.85582000  0.53689000  0.50874000  1.0 0.0225740668
C  C34  1  0.46311000  0.49126000  0.14418000  1.0 0.0225740668
C  C35  1  0.49126000  0.14418000  0.46311000  1.0 0.0225740668
C  C36  1  0.14418000  0.46311000  0.49126000  1.0 0.0225740668
C  C37  1  0.56101000  0.59448000  0.95188000  1.0 -0.1275790272
C  C38  1  0.59448000  0.95188000  0.56101000  1.0 -0.1275790272
C  C39  1  0.95188000  0.56101000  0.59448000  1.0 -0.1275790272
C  C40  1  0.43899000  0.40552000  0.04812000  1.0 -0.1275790272
C  C41  1  0.40552000  0.04812000  0.43899000  1.0 -0.1275790272
C  C42  1  0.04812000  0.43899000  0.40552000  1.0 -0.1275790272
C  C43  1  0.66835000  0.69168000  0.02868000  1.0 -0.0833144045
C  C44  1  0.69168000  0.02868000  0.66835000  1.0 -0.0833144045
C  C45  1  0.02868000  0.66835000  0.69168000  1.0 -0.0833144045
C  C46  1  0.33165000  0.30832000  0.97132000  1.0 -0.0833144045
C  C47  1  0.30832000  0.97132000  0.33165000  1.0 -0.0833144045
C  C48  1  0.97132000  0.33165000  0.30832000  1.0 -0.0833144045
C  C49  1  0.75128000  0.70409000  0.00903000  1.0 -0.0960112655
C  C50  1  0.70409000  0.00903000  0.75128000  1.0 -0.0960112655
C  C51  1  0.00903000  0.75128000  0.70409000  1.0 -0.0960112655
C  C52  1  0.24872000  0.29591000  0.99097000  1.0 -0.0960112655
C  C53  1  0.29591000  0.99097000  0.24872000  1.0 -0.0960112655
C  C54  1  0.99097000  0.24872000  0.29591000  1.0 -0.0960112655
C  C55  1  0.72822000  0.61897000  0.91531000  1.0 -0.0833144045
C  C56  1  0.61897000  0.91531000  0.72822000  1.0 -0.0833144045
C  C57  1  0.91531000  0.72822000  0.61897000  1.0 -0.0833144045
C  C58  1  0.27178000  0.38103000  0.08469000  1.0 -0.0833144045
C  C59  1  0.38103000  0.08469000  0.27178000  1.0 -0.0833144045
C  C60  1  0.08469000  0.27178000  0.38103000  1.0 -0.0833144045
C  C61  1  0.62088000  0.52181000  0.83787000  1.0 -0.1275790272
C  C62  1  0.52181000  0.83787000  0.62088000  1.0 -0.1275790272
C  C63  1  0.83787000  0.62088000  0.52181000  1.0 -0.1275790272
C  C64  1  0.37912000  0.47819000  0.16213000  1.0 -0.1275790272
C  C65  1  0.47819000  0.16213000  0.37912000  1.0 -0.1275790272
C  C66  1  0.16213000  0.37912000  0.47819000  1.0 -0.1275790272
N  N1  1  0.40560000  0.30388000  0.71878000  1.0 -0.380578079
N  N2  1  0.30388000  0.71878000  0.40560000  1.0 -0.380578079
N  N3  1  0.71878000  0.40560000  0.30388000  1.0 -0.380578079
N  N4  1  0.59440000  0.69612000  0.28122000  1.0 -0.380578079
N  N5  1  0.69612000  0.28122000  0.59440000  1.0 -0.380578079
N  N6  1  0.28122000  0.59440000  0.69612000  1.0 -0.380578079
N  N7  1  0.32968000  0.40230000  0.74599000  1.0 -0.380578079
N  N8  1  0.40230000  0.74599000  0.32968000  1.0 -0.380578079
N  N9  1  0.74599000  0.32968000  0.40230000  1.0 -0.380578079
N  N10  1  0.67032000  0.59770000  0.25401000  1.0 -0.380578079
N  N11  1  0.59770000  0.25401000  0.67032000  1.0 -0.380578079
N  N12  1  0.25401000  0.67032000  0.59770000  1.0 -0.380578079
O  O1  1  0.04471000  0.16448000  0.55397000  1.0 -0.5335399714
O  O2  1  0.16448000  0.55397000  0.04471000  1.0 -0.5335399714
O  O3  1  0.55397000  0.04471000  0.16448000  1.0 -0.5335399714
O  O4  1  0.95529000  0.83552000  0.44603000  1.0 -0.5335399714
O  O5  1  0.83552000  0.44603000  0.95529000  1.0 -0.5335399714
O  O6  1  0.44603000  0.95529000  0.83552000  1.0 -0.5335399714
O  O7  1  0.11965000  0.34381000  0.65817000  1.0 -0.518769096
O  O8  1  0.34381000  0.65817000  0.11965000  1.0 -0.518769096
O  O9  1  0.65817000  0.11965000  0.34381000  1.0 -0.518769096
O  O10  1  0.88035000  0.65619000  0.34183000  1.0 -0.518769096
O  O11  1  0.65619000  0.34183000  0.88035000  1.0 -0.518769096
O  O12  1  0.34183000  0.88035000  0.65619000  1.0 -0.518769096
O  O13  1  0.14540000  0.04148000  0.49921000  1.0 -0.5547000871
O  O14  1  0.04148000  0.49921000  0.14540000  1.0 -0.5547000871
O  O15  1  0.49921000  0.14540000  0.04148000  1.0 -0.5555953489
O  O16  1  0.85460000  0.95852000  0.50079000  1.0 -0.5555953489
O  O17  1  0.95852000  0.50079000  0.85460000  1.0 -0.5555953489
O  O18  1  0.50079000  0.85460000  0.95852000  1.0 -0.5555953489
O  O19  1  0.31590000  0.08428000  0.59713000  1.0 -0.5129748192
O  O20  1  0.08428000  0.59713000  0.31590000  1.0 -0.5129748192
O  O21  1  0.59713000  0.31590000  0.08428000  1.0 -0.5129748192
O  O22  1  0.68410000  0.91572000  0.40287000  1.0 -0.5129748192
O  O23  1  0.91572000  0.40287000  0.68410000  1.0 -0.5129748192
O  O24  1  0.40287000  0.68410000  0.91572000  1.0 -0.5129748192
