# DDEC6 charges by PACMAN v1.1 (https://github.com/mtap-research/PACMAN-charge/)
data_OKIPOO_ASR_pacman
_symmetry_space_group_name_H-M   'P 1'
_cell_length_a   33.54080000
_cell_length_b   33.54080000
_cell_length_c   33.54080000
_cell_angle_alpha   147.99900000
_cell_angle_beta   147.99900000
_cell_angle_gamma   45.88610000
_symmetry_Int_Tables_number   1
_chemical_formula_structural   CoH20C28N4O5
_chemical_formula_sum   'Co16 H320 C448 N64 O80'
_cell_volume   10560.68016611
_cell_formula_units_Z   16
loop_
 _symmetry_equiv_pos_site_id
 _symmetry_equiv_pos_as_xyz
  1  'x, y, z'
loop_
 _atom_site_type_symbol
 _atom_site_label
 _atom_site_symmetry_multiplicity
 _atom_site_fract_x
 _atom_site_fract_y
 _atom_site_fract_z
 _atom_site_occupancy
 _atom_site_charge
Co  Co1  1  0.65318000  0.70135000  0.23803000  1.0 0.7254948507
Co  Co2  1  0.46332000  0.41515000  0.76197000  1.0 0.7239660891
Co  Co3  1  0.45135000  0.71332000  0.54817000  1.0 0.7254948507
Co  Co4  1  0.16515000  0.90318000  0.45183000  1.0 0.7239660891
Co  Co5  1  0.15318000  0.91515000  0.95183000  1.0 0.7239660891
Co  Co6  1  0.66515000  0.21332000  0.26197000  1.0 0.7254948507
Co  Co7  1  0.96332000  0.20135000  0.04817000  1.0 0.7254948507
Co  Co8  1  0.95135000  0.40318000  0.73803000  1.0 0.7239660891
Co  Co9  1  0.59682000  0.33485000  0.54817000  1.0 0.7239660891
Co  Co10  1  0.08485000  0.03668000  0.23803000  1.0 0.7239660891
Co  Co11  1  0.78668000  0.04865000  0.45183000  1.0 0.7239660891
Co  Co12  1  0.79865000  0.84682000  0.76197000  1.0 0.7254948507
Co  Co13  1  0.09682000  0.54865000  0.26197000  1.0 0.7239660891
Co  Co14  1  0.28668000  0.83485000  0.73803000  1.0 0.7239660891
Co  Co15  1  0.29865000  0.53668000  0.95183000  1.0 0.7239660891
Co  Co16  1  0.58485000  0.34682000  0.04817000  1.0 0.7239660891
H  H1  1  0.85170000  0.55140000  0.22930000  1.0 0.1104561013
H  H2  1  0.32210000  0.62240000  0.77070000  1.0 0.1104561013
H  H3  1  0.30140000  0.57210000  0.19970000  1.0 0.1104561013
H  H4  1  0.37240000  0.10170000  0.80030000  1.0 0.1104561013
H  H5  1  0.35170000  0.12240000  0.30030000  1.0 0.1104561013
H  H6  1  0.87240000  0.07210000  0.27070000  1.0 0.1104561013
H  H7  1  0.82210000  0.05140000  0.69970000  1.0 0.1104561013
H  H8  1  0.80140000  0.60170000  0.72930000  1.0 0.1104561013
H  H9  1  0.90680000  0.43670000  0.17550000  1.0 0.1189380886
H  H10  1  0.26120000  0.73130000  0.82450000  1.0 0.1189380886
H  H11  1  0.18670000  0.51120000  0.02990000  1.0 0.1189380886
H  H12  1  0.48130000  0.15680000  0.97010000  1.0 0.1189380886
H  H13  1  0.40680000  0.23130000  0.47010000  1.0 0.1189380886
H  H14  1  0.98130000  0.01120000  0.32450000  1.0 0.1189380886
H  H15  1  0.76120000  0.93670000  0.52990000  1.0 0.1189380886
H  H16  1  0.68670000  0.65680000  0.67550000  1.0 0.1189380886
H  H17  1  0.75440000  0.34640000  0.04780000  1.0 0.1290453321
H  H18  1  0.29860000  0.70660000  0.95220000  1.0 0.1290453321
H  H19  1  0.09640000  0.54860000  0.09200000  1.0 0.1290453321
H  H20  1  0.45660000  0.00440000  0.90800000  1.0 0.1290453321
H  H21  1  0.25440000  0.20660000  0.40800000  1.0 0.1290453321
H  H22  1  0.95660000  0.04860000  0.45220000  1.0 0.1290453321
H  H23  1  0.79860000  0.84640000  0.59200000  1.0 0.1290453321
H  H24  1  0.59640000  0.50440000  0.54780000  1.0 0.1290453321
H  H25  1  0.69720000  0.45890000  0.09770000  1.0 0.1104561013
H  H26  1  0.36120000  0.59950000  0.90230000  1.0 0.1104561013
H  H27  1  0.20890000  0.61120000  0.26170000  1.0 0.1104561013
H  H28  1  0.34950000  0.94720000  0.73830000  1.0 0.1104561013
H  H29  1  0.19720000  0.09950000  0.23830000  1.0 0.1104561013
H  H30  1  0.84950000  0.11120000  0.40230000  1.0 0.1104561013
H  H31  1  0.86120000  0.95890000  0.76170000  1.0 0.1104561013
H  H32  1  0.70890000  0.44720000  0.59770000  1.0 0.1104561013
H  H33  1  0.68790000  0.75130000  0.22000000  1.0 0.1189380886
H  H34  1  0.53130000  0.46790000  0.78000000  1.0 0.1189380886
H  H35  1  0.50130000  0.78130000  0.56340000  1.0 0.1189380886
H  H36  1  0.21790000  0.93790000  0.43660000  1.0 0.1189380886
H  H37  1  0.18790000  0.96790000  0.93660000  1.0 0.1189380886
H  H38  1  0.71790000  0.28130000  0.28000000  1.0 0.1189380886
H  H39  1  0.03130000  0.25130000  0.06340000  1.0 0.1189380886
H  H40  1  0.00130000  0.43790000  0.72000000  1.0 0.1189380886
H  H41  1  0.69160000  0.82230000  0.22630000  1.0 0.1380119879
H  H42  1  0.59600000  0.46530000  0.77370000  1.0 0.1380119879
H  H43  1  0.57230000  0.84600000  0.63070000  1.0 0.1380119879
H  H44  1  0.21530000  0.94160000  0.36930000  1.0 0.1380119879
H  H45  1  0.19160000  0.96530000  0.86930000  1.0 0.1380119879
H  H46  1  0.71530000  0.34600000  0.27370000  1.0 0.1380119879
H  H47  1  0.09600000  0.32230000  0.13070000  1.0 0.1380119879
H  H48  1  0.07230000  0.44160000  0.72630000  1.0 0.1380119879
H  H49  1  0.72220000  0.85280000  0.21220000  1.0 0.1380119879
H  H50  1  0.64060000  0.51000000  0.78780000  1.0 0.1380119879
H  H51  1  0.60280000  0.89060000  0.63060000  1.0 0.1380119879
H  H52  1  0.26000000  0.97220000  0.36940000  1.0 0.1380119879
H  H53  1  0.22220000  0.01000000  0.86940000  1.0 0.1380119879
H  H54  1  0.76000000  0.39060000  0.28780000  1.0 0.1380119879
H  H55  1  0.14060000  0.35280000  0.13060000  1.0 0.1380119879
H  H56  1  0.10280000  0.47220000  0.71220000  1.0 0.1380119879
H  H57  1  0.53410000  0.66760000  0.92290000  1.0 0.1189380886
H  H58  1  0.74470000  0.61120000  0.07710000  1.0 0.1189380886
H  H59  1  0.41760000  0.99470000  0.63350000  1.0 0.1189380886
H  H60  1  0.36120000  0.78410000  0.36650000  1.0 0.1189380886
H  H61  1  0.03410000  0.11120000  0.86650000  1.0 0.1189380886
H  H62  1  0.86120000  0.49470000  0.57710000  1.0 0.1189380886
H  H63  1  0.24470000  0.16760000  0.13350000  1.0 0.1189380886
H  H64  1  0.91760000  0.28410000  0.42290000  1.0 0.1189380886
H  H65  1  0.55700000  0.70360000  0.90760000  1.0 0.1290453321
H  H66  1  0.79600000  0.64940000  0.09240000  1.0 0.1290453321
H  H67  1  0.45360000  0.04600000  0.64660000  1.0 0.1290453321
H  H68  1  0.39940000  0.80700000  0.35340000  1.0 0.1290453321
H  H69  1  0.05700000  0.14940000  0.85340000  1.0 0.1290453321
H  H70  1  0.89940000  0.54600000  0.59240000  1.0 0.1290453321
H  H71  1  0.29600000  0.20360000  0.14660000  1.0 0.1290453321
H  H72  1  0.95360000  0.30700000  0.40760000  1.0 0.1290453321
H  H73  1  0.65970000  0.70010000  0.91240000  1.0 0.1380119879
H  H74  1  0.78770000  0.74730000  0.08760000  1.0 0.1380119879
H  H75  1  0.45010000  0.03770000  0.54040000  1.0 0.1380119879
H  H76  1  0.49730000  0.90970000  0.45960000  1.0 0.1380119879
H  H77  1  0.15970000  0.24730000  0.95960000  1.0 0.1380119879
H  H78  1  0.99730000  0.53770000  0.58760000  1.0 0.1380119879
H  H79  1  0.28770000  0.20010000  0.04040000  1.0 0.1380119879
H  H80  1  0.95010000  0.40970000  0.41240000  1.0 0.1380119879
H  H81  1  0.55570000  0.87760000  0.01230000  1.0 0.1380119879
H  H82  1  0.86530000  0.54340000  0.98770000  1.0 0.1380119879
H  H83  1  0.62760000  0.11530000  0.82190000  1.0 0.1380119879
H  H84  1  0.29340000  0.80570000  0.17810000  1.0 0.1380119879
H  H85  1  0.05570000  0.04340000  0.67810000  1.0 0.1380119879
H  H86  1  0.79340000  0.61530000  0.48770000  1.0 0.1380119879
H  H87  1  0.36530000  0.37760000  0.32190000  1.0 0.1380119879
H  H88  1  0.12760000  0.30570000  0.51230000  1.0 0.1380119879
H  H89  1  0.55300000  0.73950000  0.73450000  1.0 0.1104561013
H  H90  1  0.00500000  0.81850000  0.26550000  1.0 0.1104561013
H  H91  1  0.48950000  0.25500000  0.68650000  1.0 0.1104561013
H  H92  1  0.56850000  0.80300000  0.31350000  1.0 0.1104561013
H  H93  1  0.05300000  0.31850000  0.81350000  1.0 0.1104561013
H  H94  1  0.06850000  0.75500000  0.76550000  1.0 0.1104561013
H  H95  1  0.50500000  0.23950000  0.18650000  1.0 0.1104561013
H  H96  1  0.98950000  0.30300000  0.23450000  1.0 0.1104561013
H  H97  1  0.34550000  0.79440000  0.59210000  1.0 0.1189380886
H  H98  1  0.20230000  0.75340000  0.40790000  1.0 0.1189380886
H  H99  1  0.54440000  0.45230000  0.94890000  1.0 0.1189380886
H  H100  1  0.50340000  0.59550000  0.05110000  1.0 0.1189380886
H  H101  1  0.84550000  0.25340000  0.55110000  1.0 0.1189380886
H  H102  1  0.00340000  0.95230000  0.90790000  1.0 0.1189380886
H  H103  1  0.70230000  0.29440000  0.44890000  1.0 0.1189380886
H  H104  1  0.04440000  0.09550000  0.09210000  1.0 0.1189380886
H  H105  1  0.38080000  0.82070000  0.71370000  1.0 0.1380119879
H  H106  1  0.10700000  0.66710000  0.28630000  1.0 0.1380119879
H  H107  1  0.57070000  0.35700000  0.93990000  1.0 0.1380119879
H  H108  1  0.41710000  0.63080000  0.06010000  1.0 0.1380119879
H  H109  1  0.88080000  0.16710000  0.56010000  1.0 0.1380119879
H  H110  1  0.91710000  0.85700000  0.78630000  1.0 0.1380119879
H  H111  1  0.60700000  0.32070000  0.43990000  1.0 0.1380119879
H  H112  1  0.07070000  0.13080000  0.21370000  1.0 0.1380119879
H  H113  1  0.48020000  0.87240000  0.88620000  1.0 0.1483012329
H  H114  1  0.98620000  0.59400000  0.11380000  1.0 0.1483012329
H  H115  1  0.62240000  0.23620000  0.89220000  1.0 0.1483012329
H  H116  1  0.34400000  0.73020000  0.10780000  1.0 0.1483012329
H  H117  1  0.98020000  0.09400000  0.60780000  1.0 0.1483012329
H  H118  1  0.84400000  0.73620000  0.61380000  1.0 0.1483012329
H  H119  1  0.48620000  0.37240000  0.39220000  1.0 0.1483012329
H  H120  1  0.12240000  0.23020000  0.38620000  1.0 0.1483012329
H  H121  1  0.58410000  0.69200000  0.78470000  1.0 0.1290453321
H  H122  1  0.90730000  0.79940000  0.21530000  1.0 0.1290453321
H  H123  1  0.44200000  0.15730000  0.60790000  1.0 0.1290453321
H  H124  1  0.54940000  0.83410000  0.39210000  1.0 0.1290453321
H  H125  1  0.08410000  0.29940000  0.89210000  1.0 0.1290453321
H  H126  1  0.04940000  0.65730000  0.71530000  1.0 0.1290453321
H  H127  1  0.40730000  0.19200000  0.10790000  1.0 0.1290453321
H  H128  1  0.94200000  0.33410000  0.28470000  1.0 0.1290453321
H  H129  1  0.50520000  0.63420000  0.93100000  1.0 0.1104561013
H  H130  1  0.70320000  0.57420000  0.06900000  1.0 0.1104561013
H  H131  1  0.38420000  0.95320000  0.62900000  1.0 0.1104561013
H  H132  1  0.32420000  0.75520000  0.37100000  1.0 0.1104561013
H  H133  1  0.00520000  0.07420000  0.87100000  1.0 0.1104561013
H  H134  1  0.82420000  0.45320000  0.56900000  1.0 0.1104561013
H  H135  1  0.20320000  0.13420000  0.12900000  1.0 0.1104561013
H  H136  1  0.88420000  0.25520000  0.43100000  1.0 0.1104561013
H  H137  1  0.51590000  0.62680000  0.00690000  1.0 0.0899319986
H  H138  1  0.61990000  0.50900000  0.99310000  1.0 0.0899319986
H  H139  1  0.37680000  0.86990000  0.61090000  1.0 0.0899319986
H  H140  1  0.25900000  0.76590000  0.38910000  1.0 0.0899319986
H  H141  1  0.01590000  0.00900000  0.88910000  1.0 0.0899319986
H  H142  1  0.75900000  0.36990000  0.49310000  1.0 0.0899319986
H  H143  1  0.11990000  0.12680000  0.11090000  1.0 0.0899319986
H  H144  1  0.87680000  0.26590000  0.50690000  1.0 0.0899319986
H  H145  1  0.14840000  0.19480000  0.20820000  1.0 0.1104561013
H  H146  1  0.98660000  0.94020000  0.79180000  1.0 0.1104561013
H  H147  1  0.94480000  0.23660000  0.54640000  1.0 0.1104561013
H  H148  1  0.69020000  0.39840000  0.45360000  1.0 0.1104561013
H  H149  1  0.64840000  0.44020000  0.95360000  1.0 0.1104561013
H  H150  1  0.19020000  0.73660000  0.29180000  1.0 0.1104561013
H  H151  1  0.48660000  0.69480000  0.04640000  1.0 0.1104561013
H  H152  1  0.44480000  0.89840000  0.70820000  1.0 0.1104561013
H  H153  1  0.23560000  0.20570000  0.23430000  1.0 0.1189380886
H  H154  1  0.97140000  0.00130000  0.76570000  1.0 0.1189380886
H  H155  1  0.95570000  0.22140000  0.47010000  1.0 0.1189380886
H  H156  1  0.75130000  0.48560000  0.52990000  1.0 0.1189380886
H  H157  1  0.73560000  0.50130000  0.02990000  1.0 0.1189380886
H  H158  1  0.25130000  0.72140000  0.26570000  1.0 0.1189380886
H  H159  1  0.47140000  0.70570000  0.97010000  1.0 0.1189380886
H  H160  1  0.45570000  0.98560000  0.73430000  1.0 0.1189380886
H  H161  1  0.39830000  0.12760000  0.19970000  1.0 0.1104561013
H  H162  1  0.87760000  0.17790000  0.22930000  1.0 0.1104561013
H  H163  1  0.92790000  0.19860000  0.80030000  1.0 0.1104561013
H  H164  1  0.94860000  0.64830000  0.77070000  1.0 0.1104561013
H  H165  1  0.89830000  0.69860000  0.27070000  1.0 0.1104561013
H  H166  1  0.42790000  0.62760000  0.72930000  1.0 0.1104561013
H  H167  1  0.44860000  0.67790000  0.30030000  1.0 0.1104561013
H  H168  1  0.37760000  0.14830000  0.69970000  1.0 0.1104561013
H  H169  1  0.34320000  0.01870000  0.02990000  1.0 0.1189380886
H  H170  1  0.76870000  0.23880000  0.17550000  1.0 0.1189380886
H  H171  1  0.98880000  0.31330000  0.97010000  1.0 0.1189380886
H  H172  1  0.06330000  0.59320000  0.82450000  1.0 0.1189380886
H  H173  1  0.84320000  0.81330000  0.32450000  1.0 0.1189380886
H  H174  1  0.48880000  0.51870000  0.67550000  1.0 0.1189380886
H  H175  1  0.56330000  0.73880000  0.47010000  1.0 0.1189380886
H  H176  1  0.26870000  0.09320000  0.52990000  1.0 0.1189380886
H  H177  1  0.49560000  0.04340000  0.09200000  1.0 0.1290453321
H  H178  1  0.79340000  0.20140000  0.04780000  1.0 0.1290453321
H  H179  1  0.95140000  0.40360000  0.90800000  1.0 0.1290453321
H  H180  1  0.15360000  0.74560000  0.95220000  1.0 0.1290453321
H  H181  1  0.99560000  0.90360000  0.45220000  1.0 0.1290453321
H  H182  1  0.45140000  0.54340000  0.54780000  1.0 0.1290453321
H  H183  1  0.65360000  0.70140000  0.40800000  1.0 0.1290453321
H  H184  1  0.29340000  0.24560000  0.59200000  1.0 0.1290453321
H  H185  1  0.55280000  0.15050000  0.26170000  1.0 0.1104561013
H  H186  1  0.90050000  0.13880000  0.09770000  1.0 0.1104561013
H  H187  1  0.88880000  0.29110000  0.73830000  1.0 0.1104561013
H  H188  1  0.04110000  0.80280000  0.90230000  1.0 0.1104561013
H  H189  1  0.05280000  0.79110000  0.40230000  1.0 0.1104561013
H  H190  1  0.38880000  0.65050000  0.59770000  1.0 0.1104561013
H  H191  1  0.54110000  0.63880000  0.23830000  1.0 0.1104561013
H  H192  1  0.40050000  0.30280000  0.76170000  1.0 0.1104561013
H  H193  1  0.56210000  0.28210000  0.56340000  1.0 0.1189380886
H  H194  1  0.03210000  0.96870000  0.22000000  1.0 0.1189380886
H  H195  1  0.71870000  0.99870000  0.43660000  1.0 0.1189380886
H  H196  1  0.74870000  0.81210000  0.78000000  1.0 0.1189380886
H  H197  1  0.06210000  0.49870000  0.28000000  1.0 0.1189380886
H  H198  1  0.21870000  0.78210000  0.72000000  1.0 0.1189380886
H  H199  1  0.24870000  0.46870000  0.93660000  1.0 0.1189380886
H  H200  1  0.53210000  0.31210000  0.06340000  1.0 0.1189380886
H  H201  1  0.55840000  0.28470000  0.63070000  1.0 0.1380119879
H  H202  1  0.03470000  0.90400000  0.22630000  1.0 0.1380119879
H  H203  1  0.65400000  0.92770000  0.36930000  1.0 0.1380119879
H  H204  1  0.67770000  0.80840000  0.77370000  1.0 0.1380119879
H  H205  1  0.05840000  0.42770000  0.27370000  1.0 0.1380119879
H  H206  1  0.15400000  0.78470000  0.72630000  1.0 0.1380119879
H  H207  1  0.17770000  0.40400000  0.86930000  1.0 0.1380119879
H  H208  1  0.53470000  0.30840000  0.13070000  1.0 0.1380119879
H  H209  1  0.52780000  0.24000000  0.63060000  1.0 0.1380119879
H  H210  1  0.99000000  0.85940000  0.21220000  1.0 0.1380119879
H  H211  1  0.60940000  0.89720000  0.36940000  1.0 0.1380119879
H  H212  1  0.64720000  0.77780000  0.78780000  1.0 0.1380119879
H  H213  1  0.02780000  0.39720000  0.28780000  1.0 0.1380119879
H  H214  1  0.10940000  0.74000000  0.71220000  1.0 0.1380119879
H  H215  1  0.14720000  0.35940000  0.86940000  1.0 0.1380119879
H  H216  1  0.49000000  0.27780000  0.13060000  1.0 0.1380119879
H  H217  1  0.71590000  0.13880000  0.63350000  1.0 0.1189380886
H  H218  1  0.88880000  0.75530000  0.92290000  1.0 0.1189380886
H  H219  1  0.50530000  0.08240000  0.36650000  1.0 0.1189380886
H  H220  1  0.83240000  0.96590000  0.07710000  1.0 0.1189380886
H  H221  1  0.21590000  0.58240000  0.57710000  1.0 0.1189380886
H  H222  1  0.00530000  0.63880000  0.42290000  1.0 0.1189380886
H  H223  1  0.33240000  0.25530000  0.86650000  1.0 0.1189380886
H  H224  1  0.38880000  0.46590000  0.13350000  1.0 0.1189380886
H  H225  1  0.69300000  0.10060000  0.64660000  1.0 0.1290453321
H  H226  1  0.85060000  0.70400000  0.90760000  1.0 0.1290453321
H  H227  1  0.45400000  0.04640000  0.35340000  1.0 0.1290453321
H  H228  1  0.79640000  0.94300000  0.09240000  1.0 0.1290453321
H  H229  1  0.19300000  0.54640000  0.59240000  1.0 0.1290453321
H  H230  1  0.95400000  0.60060000  0.40760000  1.0 0.1290453321
H  H231  1  0.29640000  0.20400000  0.85340000  1.0 0.1290453321
H  H232  1  0.35060000  0.44300000  0.14660000  1.0 0.1290453321
H  H233  1  0.59030000  0.00270000  0.54040000  1.0 0.1380119879
H  H234  1  0.75270000  0.71230000  0.91240000  1.0 0.1380119879
H  H235  1  0.46230000  0.04990000  0.45960000  1.0 0.1380119879
H  H236  1  0.79990000  0.84030000  0.08760000  1.0 0.1380119879
H  H237  1  0.09030000  0.54990000  0.58760000  1.0 0.1380119879
H  H238  1  0.96230000  0.50270000  0.41240000  1.0 0.1380119879
H  H239  1  0.29990000  0.21230000  0.95960000  1.0 0.1380119879
H  H240  1  0.25270000  0.34030000  0.04040000  1.0 0.1380119879
H  H241  1  0.69430000  0.20660000  0.82190000  1.0 0.1380119879
H  H242  1  0.95660000  0.63470000  0.01230000  1.0 0.1380119879
H  H243  1  0.38470000  0.87240000  0.17810000  1.0 0.1380119879
H  H244  1  0.62240000  0.94430000  0.98770000  1.0 0.1380119879
H  H245  1  0.19430000  0.37240000  0.48770000  1.0 0.1380119879
H  H246  1  0.88470000  0.70660000  0.51230000  1.0 0.1380119879
H  H247  1  0.12240000  0.13470000  0.67810000  1.0 0.1380119879
H  H248  1  0.45660000  0.44430000  0.32190000  1.0 0.1380119879
H  H249  1  0.69700000  0.93150000  0.68650000  1.0 0.1104561013
H  H250  1  0.68150000  0.49500000  0.73450000  1.0 0.1104561013
H  H251  1  0.24500000  0.01050000  0.31350000  1.0 0.1104561013
H  H252  1  0.76050000  0.94700000  0.26550000  1.0 0.1104561013
H  H253  1  0.19700000  0.51050000  0.76550000  1.0 0.1104561013
H  H254  1  0.74500000  0.43150000  0.23450000  1.0 0.1104561013
H  H255  1  0.26050000  0.99500000  0.81350000  1.0 0.1104561013
H  H256  1  0.18150000  0.44700000  0.18650000  1.0 0.1104561013
H  H257  1  0.90450000  0.99660000  0.94890000  1.0 0.1189380886
H  H258  1  0.74660000  0.29770000  0.59210000  1.0 0.1189380886
H  H259  1  0.04770000  0.95560000  0.05110000  1.0 0.1189380886
H  H260  1  0.70560000  0.15450000  0.40790000  1.0 0.1189380886
H  H261  1  0.40450000  0.45560000  0.90790000  1.0 0.1189380886
H  H262  1  0.54770000  0.49660000  0.09210000  1.0 0.1189380886
H  H263  1  0.20560000  0.79770000  0.55110000  1.0 0.1189380886
H  H264  1  0.24660000  0.65450000  0.44890000  1.0 0.1189380886
H  H265  1  0.86920000  0.08290000  0.93990000  1.0 0.1380119879
H  H266  1  0.83290000  0.39300000  0.71370000  1.0 0.1380119879
H  H267  1  0.14300000  0.92930000  0.06010000  1.0 0.1380119879
H  H268  1  0.67930000  0.11920000  0.28630000  1.0 0.1380119879
H  H269  1  0.36920000  0.42930000  0.78630000  1.0 0.1380119879
H  H270  1  0.64300000  0.58290000  0.21370000  1.0 0.1380119879
H  H271  1  0.17930000  0.89300000  0.56010000  1.0 0.1380119879
H  H272  1  0.33290000  0.61920000  0.43990000  1.0 0.1380119879
H  H273  1  0.76980000  0.15600000  0.89220000  1.0 0.1483012329
H  H274  1  0.90600000  0.51380000  0.88620000  1.0 0.1483012329
H  H275  1  0.26380000  0.87760000  0.10780000  1.0 0.1483012329
H  H276  1  0.62760000  0.01980000  0.11380000  1.0 0.1483012329
H  H277  1  0.26980000  0.37760000  0.61380000  1.0 0.1483012329
H  H278  1  0.76380000  0.65600000  0.38620000  1.0 0.1483012329
H  H279  1  0.12760000  0.01380000  0.60780000  1.0 0.1483012329
H  H280  1  0.40600000  0.51980000  0.39220000  1.0 0.1483012329
H  H281  1  0.66590000  0.95060000  0.60790000  1.0 0.1290453321
H  H282  1  0.70060000  0.59270000  0.78470000  1.0 0.1290453321
H  H283  1  0.34270000  0.05800000  0.39210000  1.0 0.1290453321
H  H284  1  0.80800000  0.91590000  0.21530000  1.0 0.1290453321
H  H285  1  0.16590000  0.55800000  0.71530000  1.0 0.1290453321
H  H286  1  0.84270000  0.45060000  0.28470000  1.0 0.1290453321
H  H287  1  0.30800000  0.09270000  0.89210000  1.0 0.1290453321
H  H288  1  0.20060000  0.41590000  0.10790000  1.0 0.1290453321
H  H289  1  0.74480000  0.17580000  0.62900000  1.0 0.1104561013
H  H290  1  0.92580000  0.79680000  0.93100000  1.0 0.1104561013
H  H291  1  0.54680000  0.11580000  0.37100000  1.0 0.1104561013
H  H292  1  0.86580000  0.99480000  0.06900000  1.0 0.1104561013
H  H293  1  0.24480000  0.61580000  0.56900000  1.0 0.1104561013
H  H294  1  0.04680000  0.67580000  0.43100000  1.0 0.1104561013
H  H295  1  0.36580000  0.29680000  0.87100000  1.0 0.1104561013
H  H296  1  0.42580000  0.49480000  0.12900000  1.0 0.1104561013
H  H297  1  0.73410000  0.24100000  0.61090000  1.0 0.0899319986
H  H298  1  0.99100000  0.88010000  0.00690000  1.0 0.0899319986
H  H299  1  0.63010000  0.12320000  0.38910000  1.0 0.0899319986
H  H300  1  0.87320000  0.98410000  0.99310000  1.0 0.0899319986
H  H301  1  0.23410000  0.62320000  0.49310000  1.0 0.0899319986
H  H302  1  0.13010000  0.74100000  0.50690000  1.0 0.0899319986
H  H303  1  0.37320000  0.38010000  0.88910000  1.0 0.0899319986
H  H304  1  0.49100000  0.48410000  0.11090000  1.0 0.0899319986
H  H305  1  0.10160000  0.80980000  0.54640000  1.0 0.1104561013
H  H306  1  0.55980000  0.51340000  0.20820000  1.0 0.1104561013
H  H307  1  0.26340000  0.55520000  0.45360000  1.0 0.1104561013
H  H308  1  0.30520000  0.35160000  0.79180000  1.0 0.1104561013
H  H309  1  0.60160000  0.05520000  0.29180000  1.0 0.1104561013
H  H310  1  0.76340000  0.30980000  0.70820000  1.0 0.1104561013
H  H311  1  0.80520000  0.01340000  0.95360000  1.0 0.1104561013
H  H312  1  0.05980000  0.85160000  0.04640000  1.0 0.1104561013
H  H313  1  0.01440000  0.74870000  0.47010000  1.0 0.1189380886
H  H314  1  0.49870000  0.52860000  0.23430000  1.0 0.1189380886
H  H315  1  0.27860000  0.54430000  0.52990000  1.0 0.1189380886
H  H316  1  0.29430000  0.26440000  0.76570000  1.0 0.1189380886
H  H317  1  0.51440000  0.04430000  0.26570000  1.0 0.1189380886
H  H318  1  0.77860000  0.24870000  0.73430000  1.0 0.1189380886
H  H319  1  0.79430000  0.02860000  0.02990000  1.0 0.1189380886
H  H320  1  0.99870000  0.76440000  0.97010000  1.0 0.1189380886
C  C1  1  0.73207000  0.58927000  0.20060000  1.0 0.5143215361
C  C2  1  0.38867000  0.53147000  0.79940000  1.0 0.5143215361
C  C3  1  0.33927000  0.63867000  0.35720000  1.0 0.5143215361
C  C4  1  0.28147000  0.98207000  0.64280000  1.0 0.5143215361
C  C5  1  0.23207000  0.03147000  0.14280000  1.0 0.5143215361
C  C6  1  0.78147000  0.13867000  0.29940000  1.0 0.5143215361
C  C7  1  0.88867000  0.08927000  0.85720000  1.0 0.5143215361
C  C8  1  0.83927000  0.48207000  0.70060000  1.0 0.5143215361
C  C9  1  0.76845000  0.51655000  0.16810000  1.0 -0.0264619224
C  C10  1  0.34845000  0.60035000  0.83190000  1.0 -0.0264619224
C  C11  1  0.26655000  0.59845000  0.24810000  1.0 -0.0264619224
C  C12  1  0.35035000  0.01845000  0.75190000  1.0 -0.0264619224
C  C13  1  0.26845000  0.10035000  0.25190000  1.0 -0.0264619224
C  C14  1  0.85035000  0.09845000  0.33190000  1.0 -0.0264619224
C  C15  1  0.84845000  0.01655000  0.74810000  1.0 -0.0264619224
C  C16  1  0.76655000  0.51845000  0.66810000  1.0 -0.0264619224
C  C17  1  0.83118000  0.50958000  0.19160000  1.0 -0.1395227124
C  C18  1  0.31798000  0.63958000  0.80840000  1.0 -0.1395227124
C  C19  1  0.25958000  0.56798000  0.17840000  1.0 -0.1395227124
C  C20  1  0.38958000  0.08118000  0.82160000  1.0 -0.1395227124
C  C21  1  0.33118000  0.13958000  0.32160000  1.0 -0.1395227124
C  C22  1  0.88958000  0.06798000  0.30840000  1.0 -0.1395227124
C  C23  1  0.81798000  0.00958000  0.67840000  1.0 -0.1395227124
C  C24  1  0.75958000  0.58118000  0.69160000  1.0 -0.1395227124
C  C25  1  0.86430000  0.44130000  0.16020000  1.0 -0.1214714395
C  C26  1  0.28110000  0.70410000  0.83980000  1.0 -0.1214714395
C  C27  1  0.19130000  0.53110000  0.07700000  1.0 -0.1214714395
C  C28  1  0.45410000  0.11430000  0.92300000  1.0 -0.1214714395
C  C29  1  0.36430000  0.20410000  0.42300000  1.0 -0.1214714395
C  C30  1  0.95410000  0.03110000  0.33980000  1.0 -0.1214714395
C  C31  1  0.78110000  0.94130000  0.57700000  1.0 -0.1214714395
C  C32  1  0.69130000  0.61430000  0.66020000  1.0 -0.1214714395
C  C33  1  0.83704000  0.38154000  0.10830000  1.0 -0.0028298587
C  C34  1  0.27324000  0.72874000  0.89170000  1.0 -0.0028298587
C  C35  1  0.13154000  0.52324000  0.04450000  1.0 -0.0028298587
C  C36  1  0.47874000  0.08704000  0.95550000  1.0 -0.0028298587
C  C37  1  0.33704000  0.22874000  0.45550000  1.0 -0.0028298587
C  C38  1  0.97874000  0.02324000  0.39170000  1.0 -0.0028298587
C  C39  1  0.77324000  0.88154000  0.54450000  1.0 -0.0028298587
C  C40  1  0.63154000  0.58704000  0.60830000  1.0 -0.0028298587
C  C41  1  0.77404000  0.38834000  0.08470000  1.0 -0.1214714395
C  C42  1  0.30364000  0.68934000  0.91530000  1.0 -0.1214714395
C  C43  1  0.13834000  0.55364000  0.11430000  1.0 -0.1214714395
C  C44  1  0.43934000  0.02404000  0.88570000  1.0 -0.1214714395
C  C45  1  0.27404000  0.18934000  0.38570000  1.0 -0.1214714395
C  C46  1  0.93934000  0.05364000  0.41530000  1.0 -0.1214714395
C  C47  1  0.80364000  0.88834000  0.61430000  1.0 -0.1214714395
C  C48  1  0.63834000  0.52404000  0.58470000  1.0 -0.1214714395
C  C49  1  0.74015000  0.45505000  0.11430000  1.0 -0.1317261539
C  C50  1  0.34075000  0.62585000  0.88570000  1.0 -0.1317261539
C  C51  1  0.20505000  0.59075000  0.21490000  1.0 -0.1317261539
C  C52  1  0.37585000  0.99015000  0.78510000  1.0 -0.1317261539
C  C53  1  0.24015000  0.12585000  0.28510000  1.0 -0.1317261539
C  C54  1  0.87585000  0.09075000  0.38570000  1.0 -0.1317261539
C  C55  1  0.84075000  0.95505000  0.71490000  1.0 -0.1317261539
C  C56  1  0.70505000  0.49015000  0.61430000  1.0 -0.1317261539
C  C57  1  0.87431000  0.30881000  0.07790000  1.0 0.5348701964
C  C58  1  0.23091000  0.79641000  0.92210000  1.0 0.5351149927
C  C59  1  0.05881000  0.48091000  0.93450000  1.0 0.5351149927
C  C60  1  0.54641000  0.12431000  0.06550000  1.0 0.5348701964
C  C61  1  0.37431000  0.29641000  0.56550000  1.0 0.5351149927
C  C62  1  0.04641000  0.98091000  0.42210000  1.0 0.5348701964
C  C63  1  0.73091000  0.80881000  0.43450000  1.0 0.5351149927
C  C64  1  0.55881000  0.62431000  0.57790000  1.0 0.5348701964
C  C65  1  0.63771000  0.72861000  0.15950000  1.0 -0.0692044103
C  C66  1  0.56911000  0.47821000  0.84050000  1.0 -0.0692044103
C  C67  1  0.47861000  0.81911000  0.59090000  1.0 -0.0692044103
C  C68  1  0.22821000  0.88771000  0.40910000  1.0 -0.0692044103
C  C69  1  0.13771000  0.97821000  0.90910000  1.0 -0.0692044103
C  C70  1  0.72821000  0.31911000  0.34050000  1.0 -0.0692044103
C  C71  1  0.06911000  0.22861000  0.09090000  1.0 -0.0692044103
C  C72  1  0.97861000  0.38771000  0.65950000  1.0 -0.0692044103
C  C73  1  0.60970000  0.74080000  0.07430000  1.0 0.099213823
C  C74  1  0.66650000  0.53540000  0.92570000  1.0 0.099213823
C  C75  1  0.49080000  0.91650000  0.63110000  1.0 0.099213823
C  C76  1  0.28540000  0.85970000  0.36890000  1.0 0.099213823
C  C77  1  0.10970000  0.03540000  0.86890000  1.0 0.099213823
C  C78  1  0.78540000  0.41650000  0.42570000  1.0 0.099213823
C  C79  1  0.16650000  0.24080000  0.13110000  1.0 0.099213823
C  C80  1  0.99080000  0.35970000  0.57430000  1.0 0.099213823
C  C81  1  0.66514000  0.79654000  0.16080000  1.0 -0.1678712889
C  C82  1  0.63574000  0.50434000  0.83920000  1.0 -0.1678712889
C  C83  1  0.54654000  0.88574000  0.63140000  1.0 -0.1678712889
C  C84  1  0.25434000  0.91514000  0.36860000  1.0 -0.1678712889
C  C85  1  0.16514000  0.00434000  0.86860000  1.0 -0.1678712889
C  C86  1  0.75434000  0.38574000  0.33920000  1.0 -0.1678712889
C  C87  1  0.13574000  0.29654000  0.13140000  1.0 -0.1678712889
C  C88  1  0.04654000  0.41514000  0.66080000  1.0 -0.1678712889
C  C89  1  0.68238000  0.81538000  0.15240000  1.0 -0.1797696146
C  C90  1  0.66298000  0.52998000  0.84760000  1.0 -0.1797696146
C  C91  1  0.56538000  0.91298000  0.63300000  1.0 -0.1797696146
C  C92  1  0.27998000  0.93238000  0.36700000  1.0 -0.1797696146
C  C93  1  0.18238000  0.02998000  0.86700000  1.0 -0.1797696146
C  C94  1  0.77998000  0.41298000  0.34760000  1.0 -0.1797696146
C  C95  1  0.16298000  0.31538000  0.13300000  1.0 -0.1797696146
C  C96  1  0.06538000  0.43238000  0.65240000  1.0 -0.1797696146
C  C97  1  0.57214000  0.70704000  0.98310000  1.0 -0.1678712889
C  C98  1  0.72394000  0.58904000  0.01690000  1.0 -0.1678712889
C  C99  1  0.45704000  0.97394000  0.63490000  1.0 -0.1678712889
C  C100  1  0.33904000  0.82214000  0.36510000  1.0 -0.1678712889
C  C101  1  0.07214000  0.08904000  0.86510000  1.0 -0.1678712889
C  C102  1  0.83904000  0.47394000  0.51690000  1.0 -0.1678712889
C  C103  1  0.22394000  0.20704000  0.13490000  1.0 -0.1678712889
C  C104  1  0.95704000  0.32214000  0.48310000  1.0 -0.1678712889
C  C105  1  0.58621000  0.72691000  0.97310000  1.0 -0.1797696146
C  C106  1  0.75381000  0.61311000  0.02690000  1.0 -0.1797696146
C  C107  1  0.47691000  0.00381000  0.64070000  1.0 -0.1678712889
C  C108  1  0.36311000  0.83621000  0.35930000  1.0 -0.1797696146
C  C109  1  0.08621000  0.11311000  0.85930000  1.0 -0.1797696146
C  C110  1  0.86311000  0.50381000  0.52690000  1.0 -0.1678712889
C  C111  1  0.25381000  0.22691000  0.14070000  1.0 -0.1797696146
C  C112  1  0.97691000  0.33621000  0.47310000  1.0 -0.1797696146
C  C113  1  0.64260000  0.78050000  0.05870000  1.0 0.2319610978
C  C114  1  0.72180000  0.58390000  0.94130000  1.0 0.2319610978
C  C115  1  0.53050000  0.97180000  0.63790000  1.0 0.2319610978
C  C116  1  0.33390000  0.89260000  0.36210000  1.0 0.2319610978
C  C117  1  0.14260000  0.08390000  0.86210000  1.0 0.2319610978
C  C118  1  0.83390000  0.47180000  0.44130000  1.0 0.2319610978
C  C119  1  0.22180000  0.28050000  0.13790000  1.0 0.2319610978
C  C120  1  0.03050000  0.39260000  0.55870000  1.0 0.2319610978
C  C121  1  0.61579000  0.79109000  0.97510000  1.0 0.2197476246
C  C122  1  0.81599000  0.64069000  0.02490000  1.0 0.2197476246
C  C123  1  0.54109000  0.06599000  0.67530000  1.0 0.2197476246
C  C124  1  0.39069000  0.86579000  0.32470000  1.0 0.2197476246
C  C125  1  0.11579000  0.14069000  0.82470000  1.0 0.2197476246
C  C126  1  0.89069000  0.56599000  0.52490000  1.0 0.2197476246
C  C127  1  0.31599000  0.29109000  0.17530000  1.0 0.2197476246
C  C128  1  0.04109000  0.36579000  0.47510000  1.0 0.2197476246
C  C129  1  0.62359000  0.73579000  0.90780000  1.0 -0.1854004075
C  C130  1  0.82799000  0.71579000  0.09220000  1.0 -0.1854004075
C  C131  1  0.48579000  0.07799000  0.61220000  1.0 -0.1854004075
C  C132  1  0.46579000  0.87359000  0.38780000  1.0 -0.1854004075
C  C133  1  0.12359000  0.21579000  0.88780000  1.0 -0.1854004075
C  C134  1  0.96579000  0.57799000  0.59220000  1.0 -0.1854004075
C  C135  1  0.32799000  0.23579000  0.11220000  1.0 -0.1854004075
C  C136  1  0.98579000  0.37359000  0.40780000  1.0 -0.1854004075
C  C137  1  0.56239000  0.84059000  0.96680000  1.0 -0.1797696146
C  C138  1  0.87379000  0.59559000  0.03320000  1.0 -0.1797696146
C  C139  1  0.59059000  0.12379000  0.77820000  1.0 -0.1797696146
C  C140  1  0.34559000  0.81239000  0.22180000  1.0 -0.1797696146
C  C141  1  0.06239000  0.09559000  0.72180000  1.0 -0.1797696146
C  C142  1  0.84559000  0.62379000  0.53320000  1.0 -0.1797696146
C  C143  1  0.37379000  0.34059000  0.27820000  1.0 -0.1797696146
C  C144  1  0.09059000  0.31239000  0.46680000  1.0 -0.1797696146
C  C145  1  0.50462000  0.75622000  0.71300000  1.0 0.1104561013
C  C146  1  0.04322000  0.79162000  0.28700000  1.0 0.1104561013
C  C147  1  0.50622000  0.29322000  0.75160000  1.0 0.1104561013
C  C148  1  0.54162000  0.75462000  0.24840000  1.0 0.1104561013
C  C149  1  0.00462000  0.29162000  0.74840000  1.0 0.1104561013
C  C150  1  0.04162000  0.79322000  0.78700000  1.0 0.1104561013
C  C151  1  0.54322000  0.25622000  0.25160000  1.0 0.1104561013
C  C152  1  0.00622000  0.25462000  0.21300000  1.0 0.1104561013
C  C153  1  0.39293000  0.78613000  0.63680000  1.0 -0.0503485349
C  C154  1  0.14933000  0.75613000  0.36320000  1.0 -0.0503485349
C  C155  1  0.53613000  0.39933000  0.89320000  1.0 -0.0503485349
C  C156  1  0.50613000  0.64293000  0.10680000  1.0 -0.0503485349
C  C157  1  0.89293000  0.25613000  0.60680000  1.0 -0.0503485349
C  C158  1  0.00613000  0.89933000  0.86320000  1.0 -0.0503485349
C  C159  1  0.64933000  0.28613000  0.39320000  1.0 -0.0503485349
C  C160  1  0.03613000  0.14293000  0.13680000  1.0 -0.0503485349
C  C161  1  0.41142000  0.80052000  0.70270000  1.0 -0.1022803087
C  C162  1  0.09782000  0.70872000  0.29730000  1.0 -0.1022803087
C  C163  1  0.55052000  0.34782000  0.88910000  1.0 -0.1022803087
C  C164  1  0.45872000  0.66142000  0.11090000  1.0 -0.1022803087
C  C165  1  0.91142000  0.20872000  0.61090000  1.0 -0.1022803087
C  C166  1  0.95872000  0.84782000  0.79730000  1.0 -0.1022803087
C  C167  1  0.59782000  0.30052000  0.38910000  1.0 -0.1022803087
C  C168  1  0.05052000  0.16142000  0.20270000  1.0 -0.1022803087
C  C169  1  0.52839000  0.78319000  0.82740000  1.0 0.1380119879
C  C170  1  0.95579000  0.70099000  0.17260000  1.0 0.1380119879
C  C171  1  0.53319000  0.20579000  0.75480000  1.0 0.1380119879
C  C172  1  0.45099000  0.77839000  0.24520000  1.0 0.1380119879
C  C173  1  0.02839000  0.20099000  0.74520000  1.0 0.1380119879
C  C174  1  0.95099000  0.70579000  0.67260000  1.0 0.1380119879
C  C175  1  0.45579000  0.28319000  0.25480000  1.0 0.1380119879
C  C176  1  0.03319000  0.27839000  0.32740000  1.0 0.1380119879
C  C177  1  0.51745000  0.83765000  0.89220000  1.0 -0.1317261539
C  C178  1  0.94545000  0.62525000  0.10780000  1.0 -0.1317261539
C  C179  1  0.58765000  0.19545000  0.82020000  1.0 -0.1317261539
C  C180  1  0.37525000  0.76745000  0.17980000  1.0 -0.1317261539
C  C181  1  0.01745000  0.12525000  0.67980000  1.0 -0.1317261539
C  C182  1  0.87525000  0.69545000  0.60780000  1.0 -0.1317261539
C  C183  1  0.44545000  0.33765000  0.32020000  1.0 -0.1317261539
C  C184  1  0.08765000  0.26745000  0.39220000  1.0 -0.1317261539
C  C185  1  0.57918000  0.73118000  0.83260000  1.0 -0.159032393
C  C186  1  0.89858000  0.74658000  0.16740000  1.0 -0.159032393
C  C187  1  0.48118000  0.14858000  0.65200000  1.0 -0.159032393
C  C188  1  0.49658000  0.82918000  0.34800000  1.0 -0.159032393
C  C189  1  0.07918000  0.24658000  0.84800000  1.0 -0.159032393
C  C190  1  0.99658000  0.64858000  0.66740000  1.0 -0.159032393
C  C191  1  0.39858000  0.23118000  0.15200000  1.0 -0.159032393
C  C192  1  0.98118000  0.32918000  0.33260000  1.0 -0.159032393
C  C193  1  0.54010000  0.66320000  0.00170000  1.0 -0.0413617527
C  C194  1  0.66150000  0.53840000  0.99830000  1.0 -0.0413617527
C  C195  1  0.41320000  0.91150000  0.62310000  1.0 -0.0413617527
C  C196  1  0.28840000  0.79010000  0.37690000  1.0 -0.0413617527
C  C197  1  0.04010000  0.03840000  0.87690000  1.0 -0.0413617527
C  C198  1  0.78840000  0.41150000  0.49830000  1.0 -0.0413617527
C  C199  1  0.16150000  0.16320000  0.12310000  1.0 -0.0413617527
C  C200  1  0.91320000  0.29010000  0.50170000  1.0 -0.0413617527
C  C201  1  0.54780000  0.65830000  0.04390000  1.0 -0.0028298587
C  C202  1  0.61440000  0.50390000  0.95610000  1.0 -0.0028298587
C  C203  1  0.40830000  0.86440000  0.61050000  1.0 -0.0028298587
C  C204  1  0.25390000  0.79780000  0.38950000  1.0 -0.0028298587
C  C205  1  0.04780000  0.00390000  0.88950000  1.0 -0.0028298587
C  C206  1  0.75390000  0.36440000  0.45610000  1.0 -0.0028298587
C  C207  1  0.11440000  0.15830000  0.11050000  1.0 -0.0028298587
C  C208  1  0.90830000  0.29780000  0.54390000  1.0 -0.0028298587
C  C209  1  0.13490000  0.20080000  0.17470000  1.0 -0.0264619224
C  C210  1  0.02610000  0.96020000  0.82530000  1.0 -0.0264619224
C  C211  1  0.95080000  0.27610000  0.56590000  1.0 -0.0247449239
C  C212  1  0.71020000  0.38490000  0.43410000  1.0 -0.0264619224
C  C213  1  0.63490000  0.46020000  0.93410000  1.0 -0.0247449239
C  C214  1  0.21020000  0.77610000  0.32530000  1.0 -0.0264619224
C  C215  1  0.52610000  0.70080000  0.06590000  1.0 -0.0264619224
C  C216  1  0.45080000  0.88490000  0.67470000  1.0 -0.0264619224
C  C217  1  0.18240000  0.20780000  0.19020000  1.0 -0.0052895106
C  C218  1  0.01760000  0.99220000  0.80980000  1.0 -0.0052895106
C  C219  1  0.95780000  0.26760000  0.52540000  1.0 -0.0028298587
C  C220  1  0.74220000  0.43240000  0.47460000  1.0 -0.0028298587
C  C221  1  0.68240000  0.49220000  0.97460000  1.0 -0.0028298587
C  C222  1  0.24220000  0.76760000  0.30980000  1.0 -0.0052895106
C  C223  1  0.51760000  0.70780000  0.02540000  1.0 -0.0028298587
C  C224  1  0.45780000  0.93240000  0.69020000  1.0 -0.0028298587
C  C225  1  0.51793000  0.21853000  0.35720000  1.0 0.5143215361
C  C226  1  0.96853000  0.11133000  0.20060000  1.0 0.5143215361
C  C227  1  0.86133000  0.16073000  0.64280000  1.0 0.5143215361
C  C228  1  0.91073000  0.76793000  0.79940000  1.0 0.5143215361
C  C229  1  0.01793000  0.66073000  0.29940000  1.0 0.5143215361
C  C230  1  0.36133000  0.71853000  0.70060000  1.0 0.5143215361
C  C231  1  0.41073000  0.61133000  0.14280000  1.0 0.5143215361
C  C232  1  0.46853000  0.26793000  0.85720000  1.0 0.5143215361
C  C233  1  0.48155000  0.14965000  0.24810000  1.0 -0.0264619224
C  C234  1  0.89965000  0.15155000  0.16810000  1.0 -0.0264619224
C  C235  1  0.90155000  0.23345000  0.75190000  1.0 -0.0264619224
C  C236  1  0.98345000  0.73155000  0.83190000  1.0 -0.0264619224
C  C237  1  0.98155000  0.73345000  0.33190000  1.0 -0.0264619224
C  C238  1  0.40155000  0.64965000  0.66810000  1.0 -0.0264619224
C  C239  1  0.48345000  0.65155000  0.25190000  1.0 -0.0264619224
C  C240  1  0.39965000  0.23155000  0.74810000  1.0 -0.0264619224
C  C241  1  0.41882000  0.11042000  0.17840000  1.0 -0.1395227124
C  C242  1  0.86042000  0.18202000  0.19160000  1.0 -0.1395227124
C  C243  1  0.93202000  0.24042000  0.82160000  1.0 -0.1395227124
C  C244  1  0.99042000  0.66882000  0.80840000  1.0 -0.1395227124
C  C245  1  0.91882000  0.74042000  0.30840000  1.0 -0.1395227124
C  C246  1  0.43202000  0.61042000  0.69160000  1.0 -0.1395227124
C  C247  1  0.49042000  0.68202000  0.32160000  1.0 -0.1395227124
C  C248  1  0.36042000  0.16882000  0.67840000  1.0 -0.1395227124
C  C249  1  0.38570000  0.04590000  0.07700000  1.0 -0.1214714395
C  C250  1  0.79590000  0.21890000  0.16020000  1.0 -0.1214714395
C  C251  1  0.96890000  0.30870000  0.92300000  1.0 -0.1214714395
C  C252  1  0.05870000  0.63570000  0.83980000  1.0 -0.1214714395
C  C253  1  0.88570000  0.80870000  0.33980000  1.0 -0.1214714395
C  C254  1  0.46890000  0.54590000  0.66020000  1.0 -0.1214714395
C  C255  1  0.55870000  0.71890000  0.42300000  1.0 -0.1214714395
C  C256  1  0.29590000  0.13570000  0.57700000  1.0 -0.1214714395
C  C257  1  0.41296000  0.02126000  0.04450000  1.0 -0.0028298587
C  C258  1  0.77126000  0.22676000  0.10830000  1.0 -0.0028298587
C  C259  1  0.97676000  0.36846000  0.95550000  1.0 -0.0028298587
C  C260  1  0.11846000  0.66296000  0.89170000  1.0 -0.0028298587
C  C261  1  0.91296000  0.86846000  0.39170000  1.0 -0.0028298587
C  C262  1  0.47676000  0.52126000  0.60830000  1.0 -0.0028298587
C  C263  1  0.61846000  0.72676000  0.45550000  1.0 -0.0028298587
C  C264  1  0.27126000  0.16296000  0.54450000  1.0 -0.0028298587
C  C265  1  0.47596000  0.06066000  0.11430000  1.0 -0.1214714395
C  C266  1  0.81066000  0.19636000  0.08470000  1.0 -0.1214714395
C  C267  1  0.94636000  0.36166000  0.88570000  1.0 -0.1214714395
C  C268  1  0.11166000  0.72596000  0.91530000  1.0 -0.1214714395
C  C269  1  0.97596000  0.86166000  0.41530000  1.0 -0.1214714395
C  C270  1  0.44636000  0.56066000  0.58470000  1.0 -0.1214714395
C  C271  1  0.61166000  0.69636000  0.38570000  1.0 -0.1214714395
C  C272  1  0.31066000  0.22596000  0.61430000  1.0 -0.1214714395
C  C273  1  0.50985000  0.12415000  0.21490000  1.0 -0.1317261539
C  C274  1  0.87415000  0.15925000  0.11430000  1.0 -0.1317261539
C  C275  1  0.90925000  0.29495000  0.78510000  1.0 -0.1317261539
C  C276  1  0.04495000  0.75985000  0.88570000  1.0 -0.1317261539
C  C277  1  0.00985000  0.79495000  0.38570000  1.0 -0.1317261539
C  C278  1  0.40925000  0.62415000  0.61430000  1.0 -0.1317261539
C  C279  1  0.54495000  0.65925000  0.28510000  1.0 -0.1317261539
C  C280  1  0.37415000  0.25985000  0.71490000  1.0 -0.1317261539
C  C281  1  0.37569000  0.95359000  0.93450000  1.0 0.5351149927
C  C282  1  0.70359000  0.26909000  0.07790000  1.0 0.5348701964
C  C283  1  0.01909000  0.44119000  0.06550000  1.0 0.5351149927
C  C284  1  0.19119000  0.62569000  0.92210000  1.0 0.5351149927
C  C285  1  0.87569000  0.94119000  0.42210000  1.0 0.5348701964
C  C286  1  0.51909000  0.45359000  0.57790000  1.0 0.5348701964
C  C287  1  0.69119000  0.76909000  0.56550000  1.0 0.5348701964
C  C288  1  0.20359000  0.12569000  0.43450000  1.0 0.5348701964
C  C289  1  0.61229000  0.27179000  0.59090000  1.0 -0.0692044103
C  C290  1  0.02179000  0.93089000  0.15950000  1.0 -0.0692044103
C  C291  1  0.68089000  0.02139000  0.40910000  1.0 -0.0692044103
C  C292  1  0.77139000  0.86229000  0.84050000  1.0 -0.0692044103
C  C293  1  0.11229000  0.52139000  0.34050000  1.0 -0.0692044103
C  C294  1  0.18089000  0.77179000  0.65950000  1.0 -0.0692044103
C  C295  1  0.27139000  0.43089000  0.90910000  1.0 -0.0692044103
C  C296  1  0.52179000  0.36229000  0.09090000  1.0 -0.0692044103
C  C297  1  0.64030000  0.21460000  0.63110000  1.0 0.099213823
C  C298  1  0.96460000  0.83350000  0.07430000  1.0 0.099213823
C  C299  1  0.58350000  0.00920000  0.36890000  1.0 0.099213823
C  C300  1  0.75920000  0.89030000  0.92570000  1.0 0.099213823
C  C301  1  0.14030000  0.50920000  0.42570000  1.0 0.099213823
C  C302  1  0.08350000  0.71460000  0.57430000  1.0 0.099213823
C  C303  1  0.25920000  0.33350000  0.86890000  1.0 0.099213823
C  C304  1  0.46460000  0.39030000  0.13110000  1.0 0.099213823
C  C305  1  0.58486000  0.24566000  0.63140000  1.0 -0.1678712889
C  C306  1  0.99566000  0.86426000  0.16080000  1.0 -0.1678712889
C  C307  1  0.61426000  0.95346000  0.36860000  1.0 -0.1678712889
C  C308  1  0.70346000  0.83486000  0.83920000  1.0 -0.1678712889
C  C309  1  0.08486000  0.45346000  0.33920000  1.0 -0.1678712889
C  C310  1  0.11426000  0.74566000  0.66080000  1.0 -0.1678712889
C  C311  1  0.20346000  0.36426000  0.86860000  1.0 -0.1678712889
C  C312  1  0.49566000  0.33486000  0.13140000  1.0 -0.1678712889
C  C313  1  0.56762000  0.22002000  0.63300000  1.0 -0.1797696146
C  C314  1  0.97002000  0.83702000  0.15240000  1.0 -0.1797696146
C  C315  1  0.58702000  0.93462000  0.36700000  1.0 -0.1797696146
C  C316  1  0.68462000  0.81762000  0.84760000  1.0 -0.1797696146
C  C317  1  0.06762000  0.43462000  0.34760000  1.0 -0.1797696146
C  C318  1  0.08702000  0.72002000  0.65240000  1.0 -0.1797696146
C  C319  1  0.18462000  0.33702000  0.86700000  1.0 -0.1797696146
C  C320  1  0.47002000  0.31762000  0.13300000  1.0 -0.1797696146
C  C321  1  0.67786000  0.16096000  0.63490000  1.0 -0.1678712889
C  C322  1  0.91096000  0.77606000  0.98310000  1.0 -0.1678712889
C  C323  1  0.52606000  0.04296000  0.36510000  1.0 -0.1678712889
C  C324  1  0.79296000  0.92786000  0.01690000  1.0 -0.1678712889
C  C325  1  0.17786000  0.54296000  0.51690000  1.0 -0.1678712889
C  C326  1  0.02606000  0.66096000  0.48310000  1.0 -0.1678712889
C  C327  1  0.29296000  0.27606000  0.86510000  1.0 -0.1678712889
C  C328  1  0.41096000  0.42786000  0.13490000  1.0 -0.1678712889
C  C329  1  0.66379000  0.13689000  0.64070000  1.0 -0.1797696146
C  C330  1  0.88689000  0.74619000  0.97310000  1.0 -0.1678712889
C  C331  1  0.49619000  0.02309000  0.35930000  1.0 -0.1797696146
C  C332  1  0.77309000  0.91379000  0.02690000  1.0 -0.1678712889
C  C333  1  0.16379000  0.52309000  0.52690000  1.0 -0.1797696146
C  C334  1  0.99619000  0.63689000  0.47310000  1.0 -0.1678712889
C  C335  1  0.27309000  0.24619000  0.85930000  1.0 -0.1797696146
C  C336  1  0.38689000  0.41379000  0.14070000  1.0 -0.1678712889
C  C337  1  0.60740000  0.16610000  0.63790000  1.0 0.2319610978
C  C338  1  0.91610000  0.77820000  0.05870000  1.0 0.2319610978
C  C339  1  0.52820000  0.96950000  0.36210000  1.0 0.2319610978
C  C340  1  0.71950000  0.85740000  0.94130000  1.0 0.2319610978
C  C341  1  0.10740000  0.46950000  0.44130000  1.0 0.2319610978
C  C342  1  0.02820000  0.66610000  0.55870000  1.0 0.2319610978
C  C343  1  0.21950000  0.27820000  0.86210000  1.0 0.2319610978
C  C344  1  0.41610000  0.35740000  0.13790000  1.0 0.2319610978
C  C345  1  0.63421000  0.10931000  0.67530000  1.0 0.2197476246
C  C346  1  0.85931000  0.68401000  0.97510000  1.0 0.2197476246
C  C347  1  0.43401000  0.95891000  0.32470000  1.0 0.2197476246
C  C348  1  0.70891000  0.88421000  0.02490000  1.0 0.2197476246
C  C349  1  0.13421000  0.45891000  0.52490000  1.0 0.2197476246
C  C350  1  0.93401000  0.60931000  0.47510000  1.0 0.2197476246
C  C351  1  0.20891000  0.18401000  0.82470000  1.0 0.2197476246
C  C352  1  0.35931000  0.38421000  0.17530000  1.0 0.2197476246
C  C353  1  0.62641000  0.03421000  0.61220000  1.0 -0.1854004075
C  C354  1  0.78421000  0.67201000  0.90780000  1.0 -0.1854004075
C  C355  1  0.42201000  0.01421000  0.38780000  1.0 -0.1854004075
C  C356  1  0.76421000  0.87641000  0.09220000  1.0 -0.1854004075
C  C357  1  0.12641000  0.51421000  0.59220000  1.0 -0.1854004075
C  C358  1  0.92201000  0.53421000  0.40780000  1.0 -0.1854004075
C  C359  1  0.26421000  0.17201000  0.88780000  1.0 -0.1854004075
C  C360  1  0.28421000  0.37641000  0.11220000  1.0 -0.1854004075
C  C361  1  0.68761000  0.15441000  0.77820000  1.0 -0.1797696146
C  C362  1  0.90441000  0.62621000  0.96680000  1.0 -0.1797696146
C  C363  1  0.37621000  0.90941000  0.22180000  1.0 -0.1797696146
C  C364  1  0.65941000  0.93761000  0.03320000  1.0 -0.1797696146
C  C365  1  0.18761000  0.40941000  0.53320000  1.0 -0.1797696146
C  C366  1  0.87621000  0.65441000  0.46680000  1.0 -0.1797696146
C  C367  1  0.15941000  0.12621000  0.72180000  1.0 -0.1797696146
C  C368  1  0.40441000  0.43761000  0.27820000  1.0 -0.1797696146
C  C369  1  0.74538000  0.95838000  0.75160000  1.0 0.1104561013
C  C370  1  0.70838000  0.45678000  0.71300000  1.0 0.1104561013
C  C371  1  0.20678000  0.99378000  0.24840000  1.0 0.1104561013
C  C372  1  0.74378000  0.99538000  0.28700000  1.0 0.1104561013
C  C373  1  0.24538000  0.49378000  0.78700000  1.0 0.1104561013
C  C374  1  0.70678000  0.45838000  0.21300000  1.0 0.1104561013
C  C375  1  0.24378000  0.95678000  0.74840000  1.0 0.1104561013
C  C376  1  0.20838000  0.49538000  0.25160000  1.0 0.1104561013
C  C377  1  0.85707000  0.99387000  0.89320000  1.0 -0.0503485349
C  C378  1  0.74387000  0.35067000  0.63680000  1.0 -0.0503485349
C  C379  1  0.10067000  0.96387000  0.10680000  1.0 -0.0503485349
C  C380  1  0.71387000  0.10707000  0.36320000  1.0 -0.0503485349
C  C381  1  0.35707000  0.46387000  0.86320000  1.0 -0.0503485349
C  C382  1  0.60067000  0.49387000  0.13680000  1.0 -0.0503485349
C  C383  1  0.21387000  0.85067000  0.60680000  1.0 -0.0503485349
C  C384  1  0.24387000  0.60707000  0.39320000  1.0 -0.0503485349
C  C385  1  0.83858000  0.04128000  0.88910000  1.0 -0.1022803087
C  C386  1  0.79128000  0.40218000  0.70270000  1.0 -0.1022803087
C  C387  1  0.15218000  0.94948000  0.11090000  1.0 -0.1022803087
C  C388  1  0.69948000  0.08858000  0.29730000  1.0 -0.1022803087
C  C389  1  0.33858000  0.44948000  0.79730000  1.0 -0.1022803087
C  C390  1  0.65218000  0.54128000  0.20270000  1.0 -0.1022803087
C  C391  1  0.19948000  0.90218000  0.61090000  1.0 -0.1022803087
C  C392  1  0.29128000  0.58858000  0.38910000  1.0 -0.1022803087
C  C393  1  0.72161000  0.04901000  0.75480000  1.0 0.1380119879
C  C394  1  0.79901000  0.54421000  0.82740000  1.0 0.1380119879
C  C395  1  0.29421000  0.96681000  0.24520000  1.0 0.1380119879
C  C396  1  0.71681000  0.97161000  0.17260000  1.0 0.1380119879
C  C397  1  0.22161000  0.46681000  0.67260000  1.0 0.1380119879
C  C398  1  0.79421000  0.54901000  0.32740000  1.0 0.1380119879
C  C399  1  0.21681000  0.04421000  0.74520000  1.0 0.1380119879
C  C400  1  0.29901000  0.47161000  0.25480000  1.0 0.1380119879
C  C401  1  0.73255000  0.12475000  0.82020000  1.0 -0.1317261539
C  C402  1  0.87475000  0.55455000  0.89220000  1.0 -0.1317261539
C  C403  1  0.30455000  0.91235000  0.17980000  1.0 -0.1317261539
C  C404  1  0.66235000  0.98255000  0.10780000  1.0 -0.1317261539
C  C405  1  0.23255000  0.41235000  0.60780000  1.0 -0.1317261539
C  C406  1  0.80455000  0.62475000  0.39220000  1.0 -0.1317261539
C  C407  1  0.16235000  0.05455000  0.67980000  1.0 -0.1317261539
C  C408  1  0.37475000  0.48255000  0.32020000  1.0 -0.1317261539
C  C409  1  0.67082000  0.00342000  0.65200000  1.0 -0.159032393
C  C410  1  0.75342000  0.60142000  0.83260000  1.0 -0.159032393
C  C411  1  0.35142000  0.01882000  0.34800000  1.0 -0.159032393
C  C412  1  0.76882000  0.92082000  0.16740000  1.0 -0.159032393
C  C413  1  0.17082000  0.51882000  0.66740000  1.0 -0.159032393
C  C414  1  0.85142000  0.50342000  0.33260000  1.0 -0.159032393
C  C415  1  0.26882000  0.10142000  0.84800000  1.0 -0.159032393
C  C416  1  0.25342000  0.42082000  0.15200000  1.0 -0.159032393
C  C417  1  0.70990000  0.21160000  0.62310000  1.0 -0.0413617527
C  C418  1  0.96160000  0.83850000  0.00170000  1.0 -0.0413617527
C  C419  1  0.58850000  0.08680000  0.37690000  1.0 -0.0413617527
C  C420  1  0.83680000  0.95990000  0.99830000  1.0 -0.0413617527
C  C421  1  0.20990000  0.58680000  0.49830000  1.0 -0.0413617527
C  C422  1  0.08850000  0.71160000  0.50170000  1.0 -0.0413617527
C  C423  1  0.33680000  0.33850000  0.87690000  1.0 -0.0413617527
C  C424  1  0.46160000  0.45990000  0.12310000  1.0 -0.0413617527
C  C425  1  0.70220000  0.24610000  0.61050000  1.0 -0.0028298587
C  C426  1  0.99610000  0.88560000  0.04390000  1.0 -0.0028298587
C  C427  1  0.63560000  0.09170000  0.38950000  1.0 -0.0028298587
C  C428  1  0.84170000  0.95220000  0.95610000  1.0 -0.0028298587
C  C429  1  0.20220000  0.59170000  0.45610000  1.0 -0.0028298587
C  C430  1  0.13560000  0.74610000  0.54390000  1.0 -0.0028298587
C  C431  1  0.34170000  0.38560000  0.88950000  1.0 -0.0028298587
C  C432  1  0.49610000  0.45220000  0.11050000  1.0 -0.0028298587
C  C433  1  0.11510000  0.78980000  0.56590000  1.0 -0.0264619224
C  C434  1  0.53980000  0.47390000  0.17470000  1.0 -0.0264619224
C  C435  1  0.22390000  0.54920000  0.43410000  1.0 -0.0264619224
C  C436  1  0.29920000  0.36510000  0.82530000  1.0 -0.0247449239
C  C437  1  0.61510000  0.04920000  0.32530000  1.0 -0.0247449239
C  C438  1  0.72390000  0.28980000  0.67470000  1.0 -0.0247449239
C  C439  1  0.79920000  0.97390000  0.93410000  1.0 -0.0247449239
C  C440  1  0.03980000  0.86510000  0.06590000  1.0 -0.0264619224
C  C441  1  0.06760000  0.75780000  0.52540000  1.0 -0.0052895106
C  C442  1  0.50780000  0.48240000  0.19020000  1.0 -0.0052895106
C  C443  1  0.23240000  0.54220000  0.47460000  1.0 -0.0028298587
C  C444  1  0.29220000  0.31760000  0.80980000  1.0 -0.0028298587
C  C445  1  0.56760000  0.04220000  0.30980000  1.0 -0.0028298587
C  C446  1  0.73240000  0.25780000  0.69020000  1.0 -0.0028298587
C  C447  1  0.79220000  0.98240000  0.97460000  1.0 -0.0028298587
C  C448  1  0.00780000  0.81760000  0.02540000  1.0 -0.0052895106
N  N1  1  0.60686000  0.70406000  0.14560000  1.0 -0.2494278361
N  N2  1  0.55846000  0.46126000  0.85440000  1.0 -0.2494278361
N  N3  1  0.45406000  0.80846000  0.59720000  1.0 -0.2494278361
N  N4  1  0.21126000  0.85686000  0.40280000  1.0 -0.2494278361
N  N5  1  0.10686000  0.96126000  0.90280000  1.0 -0.2494278361
N  N6  1  0.71126000  0.30846000  0.35440000  1.0 -0.2494278361
N  N7  1  0.05846000  0.20406000  0.09720000  1.0 -0.2494278361
N  N8  1  0.95406000  0.35686000  0.64560000  1.0 -0.2494278361
N  N9  1  0.59395000  0.71945000  0.08330000  1.0 0.0162457187
N  N10  1  0.63615000  0.51065000  0.91670000  1.0 0.0162457187
N  N11  1  0.46945000  0.88615000  0.62550000  1.0 0.0162457187
N  N12  1  0.26065000  0.84395000  0.37450000  1.0 0.0162457187
N  N13  1  0.09395000  0.01065000  0.87450000  1.0 0.0162457187
N  N14  1  0.76065000  0.38615000  0.41670000  1.0 0.0162457187
N  N15  1  0.13615000  0.21945000  0.12550000  1.0 0.0162457187
N  N16  1  0.96945000  0.34395000  0.58330000  1.0 0.0162457187
N  N17  1  0.45095000  0.75795000  0.64220000  1.0 -0.3000265395
N  N18  1  0.11575000  0.80875000  0.35780000  1.0 -0.3000265395
N  N19  1  0.50795000  0.36575000  0.80700000  1.0 -0.3000265395
N  N20  1  0.55875000  0.70095000  0.19300000  1.0 -0.3000265395
N  N21  1  0.95095000  0.30875000  0.69300000  1.0 -0.3000265395
N  N22  1  0.05875000  0.86575000  0.85780000  1.0 -0.3000265395
N  N23  1  0.61575000  0.25795000  0.30700000  1.0 -0.3000265395
N  N24  1  0.00795000  0.20095000  0.14220000  1.0 -0.3000265395
N  N25  1  0.48356000  0.78046000  0.75130000  1.0 0.0144415333
N  N26  1  0.02916000  0.73226000  0.24870000  1.0 0.0144415333
N  N27  1  0.53046000  0.27916000  0.79690000  1.0 0.0144415333
N  N28  1  0.48226000  0.73356000  0.20310000  1.0 0.0144415333
N  N29  1  0.98356000  0.23226000  0.70310000  1.0 0.0144415333
N  N30  1  0.98226000  0.77916000  0.74870000  1.0 0.0144415333
N  N31  1  0.52916000  0.28046000  0.29690000  1.0 0.0144415333
N  N32  1  0.03046000  0.23356000  0.25130000  1.0 0.0144415333
N  N33  1  0.64314000  0.28874000  0.59720000  1.0 -0.2494278361
N  N34  1  0.03874000  0.94154000  0.14560000  1.0 -0.2494278361
N  N35  1  0.69154000  0.04594000  0.40280000  1.0 -0.2494278361
N  N36  1  0.79594000  0.89314000  0.85440000  1.0 -0.2494278361
N  N37  1  0.14314000  0.54594000  0.35440000  1.0 -0.2494278361
N  N38  1  0.19154000  0.78874000  0.64560000  1.0 -0.2494278361
N  N39  1  0.29594000  0.44154000  0.90280000  1.0 -0.2494278361
N  N40  1  0.53874000  0.39314000  0.09720000  1.0 -0.2494278361
N  N41  1  0.65605000  0.23935000  0.62550000  1.0 0.0162457187
N  N42  1  0.98935000  0.86385000  0.08330000  1.0 0.0162457187
N  N43  1  0.61385000  0.03055000  0.37450000  1.0 0.0162457187
N  N44  1  0.78055000  0.90605000  0.91670000  1.0 0.0162457187
N  N45  1  0.15605000  0.53055000  0.41670000  1.0 0.0162457187
N  N46  1  0.11385000  0.73935000  0.58330000  1.0 0.0162457187
N  N47  1  0.28055000  0.36385000  0.87450000  1.0 0.0162457187
N  N48  1  0.48935000  0.40605000  0.12550000  1.0 0.0162457187
N  N49  1  0.79905000  0.94125000  0.80700000  1.0 -0.3000265395
N  N50  1  0.69125000  0.38425000  0.64220000  1.0 -0.3000265395
N  N51  1  0.13425000  0.99205000  0.19300000  1.0 -0.3000265395
N  N52  1  0.74205000  0.04905000  0.35780000  1.0 -0.3000265395
N  N53  1  0.29905000  0.49205000  0.85780000  1.0 -0.3000265395
N  N54  1  0.63425000  0.44125000  0.14220000  1.0 -0.3000265395
N  N55  1  0.24205000  0.88425000  0.69300000  1.0 -0.3000265395
N  N56  1  0.19125000  0.54905000  0.30700000  1.0 -0.3000265395
N  N57  1  0.76644000  0.01774000  0.79690000  1.0 0.0144415333
N  N58  1  0.76774000  0.47084000  0.75130000  1.0 0.0144415333
N  N59  1  0.22084000  0.96954000  0.20310000  1.0 0.0144415333
N  N60  1  0.71954000  0.01644000  0.24870000  1.0 0.0144415333
N  N61  1  0.26644000  0.46954000  0.74870000  1.0 0.0144415333
N  N62  1  0.72084000  0.51774000  0.25130000  1.0 0.0144415333
N  N63  1  0.21954000  0.97084000  0.70310000  1.0 0.0144415333
N  N64  1  0.26774000  0.51644000  0.29690000  1.0 0.0144415333
O  O1  1  0.67148000  0.59148000  0.17020000  1.0 -0.5212745352
O  O2  1  0.42128000  0.50128000  0.82980000  1.0 -0.5212745352
O  O3  1  0.34148000  0.67128000  0.42000000  1.0 -0.5212745352
O  O4  1  0.25128000  0.92148000  0.58000000  1.0 -0.5212745352
O  O5  1  0.17148000  0.00128000  0.08000000  1.0 -0.5212745352
O  O6  1  0.75128000  0.17128000  0.32980000  1.0 -0.5212745352
O  O7  1  0.92128000  0.09148000  0.92000000  1.0 -0.5212745352
O  O8  1  0.84148000  0.42148000  0.67020000  1.0 -0.5212745352
O  O9  1  0.76081000  0.64651000  0.25630000  1.0 -0.5212745352
O  O10  1  0.39021000  0.50451000  0.74370000  1.0 -0.5212745352
O  O11  1  0.39651000  0.64021000  0.38570000  1.0 -0.5147272458
O  O12  1  0.25451000  0.01081000  0.61430000  1.0 -0.5147272458
O  O13  1  0.26081000  0.00451000  0.11430000  1.0 -0.5212745352
O  O14  1  0.75451000  0.14021000  0.24370000  1.0 -0.5212745352
O  O15  1  0.89021000  0.14651000  0.88570000  1.0 -0.5212745352
O  O16  1  0.89651000  0.51081000  0.75630000  1.0 -0.5147272458
O  O17  1  0.85189000  0.25639000  0.03650000  1.0 -0.5212745352
O  O18  1  0.21989000  0.81539000  0.96350000  1.0 -0.5212745352
O  O19  1  0.00639000  0.46989000  0.90450000  1.0 -0.5212745352
O  O20  1  0.56539000  0.10189000  0.09550000  1.0 -0.5212745352
O  O21  1  0.35189000  0.31539000  0.59550000  1.0 -0.5212745352
O  O22  1  0.06539000  0.96989000  0.46350000  1.0 -0.5212745352
O  O23  1  0.71989000  0.75639000  0.40450000  1.0 -0.5212745352
O  O24  1  0.50639000  0.60189000  0.53650000  1.0 -0.5212745352
O  O25  1  0.93016000  0.30416000  0.09820000  1.0 -0.5283791606
O  O26  1  0.20596000  0.83196000  0.90180000  1.0 -0.5283791606
O  O27  1  0.05416000  0.45596000  0.87400000  1.0 -0.5283791606
O  O28  1  0.58196000  0.18016000  0.12600000  1.0 -0.5283791606
O  O29  1  0.43016000  0.33196000  0.62600000  1.0 -0.5283791606
O  O30  1  0.08196000  0.95596000  0.40180000  1.0 -0.5283791606
O  O31  1  0.70596000  0.80416000  0.37400000  1.0 -0.5283791606
O  O32  1  0.55416000  0.68016000  0.59820000  1.0 -0.5283791606
O  O33  1  0.66655000  0.80165000  0.05870000  1.0 -0.2399639652
O  O34  1  0.74295000  0.60785000  0.94130000  1.0 -0.2399639652
O  O35  1  0.55165000  0.99295000  0.63510000  1.0 -0.2399639652
O  O36  1  0.35785000  0.91655000  0.36490000  1.0 -0.2399639652
O  O37  1  0.16655000  0.10785000  0.86490000  1.0 -0.2399639652
O  O38  1  0.85785000  0.49295000  0.44130000  1.0 -0.2399639652
O  O39  1  0.24295000  0.30165000  0.13510000  1.0 -0.2399639652
O  O40  1  0.05165000  0.41655000  0.55870000  1.0 -0.2399639652
O  O41  1  0.57852000  0.24872000  0.42000000  1.0 -0.5212745352
O  O42  1  0.99872000  0.07872000  0.17020000  1.0 -0.5212745352
O  O43  1  0.82872000  0.15852000  0.58000000  1.0 -0.5212745352
O  O44  1  0.90852000  0.82852000  0.82980000  1.0 -0.5212745352
O  O45  1  0.07852000  0.65852000  0.32980000  1.0 -0.5212745352
O  O46  1  0.32872000  0.74872000  0.67020000  1.0 -0.5212745352
O  O47  1  0.40852000  0.57872000  0.08000000  1.0 -0.5212745352
O  O48  1  0.49872000  0.32852000  0.92000000  1.0 -0.5212745352
O  O49  1  0.48919000  0.24549000  0.38570000  1.0 -0.5212745352
O  O50  1  0.99549000  0.10979000  0.25630000  1.0 -0.5212745352
O  O51  1  0.85979000  0.10349000  0.61430000  1.0 -0.5212745352
O  O52  1  0.85349000  0.73919000  0.74370000  1.0 -0.5212745352
O  O53  1  0.98919000  0.60349000  0.24370000  1.0 -0.5212745352
O  O54  1  0.35979000  0.74549000  0.75630000  1.0 -0.5212745352
O  O55  1  0.35349000  0.60979000  0.11430000  1.0 -0.5212745352
O  O56  1  0.49549000  0.23919000  0.88570000  1.0 -0.5212745352
O  O57  1  0.39811000  0.93461000  0.90450000  1.0 -0.5212745352
O  O58  1  0.68461000  0.28011000  0.03650000  1.0 -0.5212745352
O  O59  1  0.03011000  0.49361000  0.09550000  1.0 -0.5212745352
O  O60  1  0.24361000  0.64811000  0.96350000  1.0 -0.5212745352
O  O61  1  0.89811000  0.99361000  0.46350000  1.0 -0.5212745352
O  O62  1  0.53011000  0.43461000  0.53650000  1.0 -0.5212745352
O  O63  1  0.74361000  0.78011000  0.59550000  1.0 -0.5212745352
O  O64  1  0.18461000  0.14811000  0.40450000  1.0 -0.5212745352
O  O65  1  0.31984000  0.91804000  0.87400000  1.0 -0.5283791606
O  O66  1  0.66804000  0.29404000  0.09820000  1.0 -0.5283791606
O  O67  1  0.04404000  0.44584000  0.12600000  1.0 -0.5283791606
O  O68  1  0.19584000  0.56984000  0.90180000  1.0 -0.5283791606
O  O69  1  0.81984000  0.94584000  0.40180000  1.0 -0.5283791606
O  O70  1  0.54404000  0.41804000  0.59820000  1.0 -0.5283791606
O  O71  1  0.69584000  0.79404000  0.62600000  1.0 -0.5283791606
O  O72  1  0.16804000  0.06984000  0.37400000  1.0 -0.5283791606
O  O73  1  0.58345000  0.14215000  0.63510000  1.0 -0.2399639652
O  O74  1  0.89215000  0.75705000  0.05870000  1.0 -0.2399639652
O  O75  1  0.50705000  0.94835000  0.36490000  1.0 -0.2399639652
O  O76  1  0.69835000  0.83345000  0.94130000  1.0 -0.2399639652
O  O77  1  0.08345000  0.44835000  0.44130000  1.0 -0.2399639652
O  O78  1  0.00705000  0.64215000  0.55870000  1.0 -0.2399639652
O  O79  1  0.19835000  0.25705000  0.86490000  1.0 -0.2399639652
O  O80  1  0.39215000  0.33345000  0.13510000  1.0 -0.2399639652
