# DDEC6 charges by PACMAN v1.1 (https://github.com/mtap-research/PACMAN-charge/)
data_OKUJUB_ion_pacman
_symmetry_space_group_name_H-M   'P 1'
_cell_length_a   27.89390000
_cell_length_b   27.89390000
_cell_length_c   50.81300000
_cell_angle_alpha   89.01840000
_cell_angle_beta   90.98160000
_cell_angle_gamma   79.94970000
_symmetry_Int_Tables_number   1
_chemical_formula_structural   Zn10B6H252C206N23O45
_chemical_formula_sum   'Zn40 B24 H1008 C824 N92 O180'
_cell_volume   38915.52704155
_cell_formula_units_Z   4
loop_
 _symmetry_equiv_pos_site_id
 _symmetry_equiv_pos_as_xyz
  1  'x, y, z'
loop_
 _atom_site_type_symbol
 _atom_site_label
 _atom_site_symmetry_multiplicity
 _atom_site_fract_x
 _atom_site_fract_y
 _atom_site_fract_z
 _atom_site_occupancy
 _atom_site_charge
Zn  Zn1  1  0.97736000  0.20558000  0.69797000  1.0 0.7289695197
Zn  Zn2  1  0.79442000  0.02264000  0.19797000  1.0 0.7289695197
Zn  Zn3  1  0.08098000  0.21314000  0.69631000  1.0 0.7180994058
Zn  Zn4  1  0.78686000  0.91902000  0.19631000  1.0 0.7180994058
Zn  Zn5  1  0.50163000  0.78667000  0.69508000  1.0 0.7060757408
Zn  Zn6  1  0.21333000  0.49837000  0.19508000  1.0 0.7060757408
Zn  Zn7  1  0.50190000  0.68162000  0.69212000  1.0 0.7060757408
Zn  Zn8  1  0.31838000  0.49810000  0.19212000  1.0 0.7060757408
Zn  Zn9  1  0.66919000  0.38145000  0.96581000  1.0 0.6936383003
Zn  Zn10  1  0.61855000  0.33081000  0.46581000  1.0 0.6936383003
Zn  Zn11  1  0.63535000  0.34685000  0.91570000  1.0 0.6791287118
Zn  Zn12  1  0.65315000  0.36465000  0.41570000  1.0 0.6791287118
Zn  Zn13  1  0.48063000  0.27281000  0.71151000  1.0 0.9494009668
Zn  Zn14  1  0.72719000  0.51937000  0.21151000  1.0 0.9494009668
Zn  Zn15  1  0.57069000  0.26451000  0.67263000  1.0 0.9391346329
Zn  Zn16  1  0.73549000  0.42931000  0.17263000  1.0 0.9391346329
Zn  Zn17  1  0.56655000  0.18217000  0.71532000  1.0 0.9494009668
Zn  Zn18  1  0.81783000  0.43345000  0.21532000  1.0 0.9494009668
Zn  Zn19  1  0.49261000  0.19793000  0.66586000  1.0 0.9343500191
Zn  Zn20  1  0.80207000  0.50739000  0.16586000  1.0 0.9343500191
Zn  Zn21  1  0.20558000  0.97736000  0.80203000  1.0 0.7289695197
Zn  Zn22  1  0.02264000  0.79442000  0.30203000  1.0 0.7289695197
Zn  Zn23  1  0.21314000  0.08098000  0.80369000  1.0 0.7180994058
Zn  Zn24  1  0.91902000  0.78686000  0.30369000  1.0 0.7180994058
Zn  Zn25  1  0.78667000  0.50163000  0.80492000  1.0 0.7060757408
Zn  Zn26  1  0.49837000  0.21333000  0.30492000  1.0 0.7060757408
Zn  Zn27  1  0.68162000  0.50190000  0.80788000  1.0 0.7060757408
Zn  Zn28  1  0.49810000  0.31838000  0.30788000  1.0 0.7060757408
Zn  Zn29  1  0.38145000  0.66919000  0.53419000  1.0 0.6936383003
Zn  Zn30  1  0.33081000  0.61855000  0.03419000  1.0 0.6936383003
Zn  Zn31  1  0.34685000  0.63535000  0.58430000  1.0 0.6791287118
Zn  Zn32  1  0.36465000  0.65315000  0.08430000  1.0 0.6791287118
Zn  Zn33  1  0.27281000  0.48063000  0.78849000  1.0 0.9494009668
Zn  Zn34  1  0.51937000  0.72719000  0.28849000  1.0 0.9494009668
Zn  Zn35  1  0.26451000  0.57069000  0.82737000  1.0 0.9391346329
Zn  Zn36  1  0.42931000  0.73549000  0.32737000  1.0 0.9391346329
Zn  Zn37  1  0.18217000  0.56655000  0.78468000  1.0 0.9391346329
Zn  Zn38  1  0.43345000  0.81783000  0.28468000  1.0 0.9494009668
Zn  Zn39  1  0.19793000  0.49261000  0.83414000  1.0 0.9343500191
Zn  Zn40  1  0.50739000  0.80207000  0.33414000  1.0 0.9391346329
B  B1  1  0.18940000  0.21900000  0.69530000  1.0 0.6581851
B  B2  1  0.78100000  0.81060000  0.19530000  1.0 0.6581851
B  B3  1  0.86840000  0.19920000  0.69900000  1.0 0.624731546
B  B4  1  0.80080000  0.13160000  0.19900000  1.0 0.625254696
B  B5  1  0.70470000  0.41750000  0.01853000  1.0 0.4750964695
B  B6  1  0.58250000  0.29530000  0.51853000  1.0 0.4732638353
B  B7  1  0.60110000  0.30970000  0.86304000  1.0 0.5647376233
B  B8  1  0.69030000  0.39890000  0.36304000  1.0 0.5665160272
B  B9  1  0.50200000  0.89600000  0.69790000  1.0 0.6714903766
B  B10  1  0.10400000  0.49800000  0.19790000  1.0 0.6714903766
B  B11  1  0.50270000  0.57130000  0.68900000  1.0 0.6427708769
B  B12  1  0.42870000  0.49730000  0.18900000  1.0 0.6427708769
B  B13  1  0.21900000  0.18940000  0.80470000  1.0 0.6581851
B  B14  1  0.81060000  0.78100000  0.30470000  1.0 0.6581851
B  B15  1  0.19920000  0.86840000  0.80100000  1.0 0.625254696
B  B16  1  0.13160000  0.80080000  0.30100000  1.0 0.625254696
B  B17  1  0.41750000  0.70470000  0.48147000  1.0 0.4732638353
B  B18  1  0.29530000  0.58250000  0.98147000  1.0 0.4732638353
B  B19  1  0.30970000  0.60110000  0.63696000  1.0 0.5665160272
B  B20  1  0.39890000  0.69030000  0.13696000  1.0 0.5665160272
B  B21  1  0.89600000  0.50200000  0.80210000  1.0 0.6714903766
B  B22  1  0.49800000  0.10400000  0.30210000  1.0 0.6714903766
B  B23  1  0.57130000  0.50270000  0.81100000  1.0 0.6427708769
B  B24  1  0.49730000  0.42870000  0.31100000  1.0 0.6427708769
H  H1  1  0.74850000  0.37670000  0.89790000  1.0 0.1003406944
H  H2  1  0.62330000  0.25150000  0.39790000  1.0 0.1003406944
H  H3  1  0.76520000  0.37700000  0.86810000  1.0 0.1003406944
H  H4  1  0.62300000  0.23480000  0.36810000  1.0 0.1003406944
H  H5  1  0.68950000  0.41750000  0.87190000  1.0 0.1093339124
H  H6  1  0.58250000  0.31050000  0.37190000  1.0 0.1093339124
H  H7  1  0.72430000  0.45410000  0.86250000  1.0 0.1093339124
H  H8  1  0.54590000  0.27570000  0.36250000  1.0 0.1093339124
H  H9  1  0.70740000  0.45380000  0.89240000  1.0 0.1204655201
H  H10  1  0.54620000  0.29260000  0.39240000  1.0 0.1204655201
H  H11  1  0.78920000  0.48200000  0.90500000  1.0 0.1204655201
H  H12  1  0.51800000  0.21080000  0.40500000  1.0 0.1204655201
H  H13  1  0.83180000  0.45000000  0.92210000  1.0 0.1093339124
H  H14  1  0.55000000  0.16820000  0.42210000  1.0 0.1093339124
H  H15  1  0.76540000  0.47260000  0.94660000  1.0 0.1204655201
H  H16  1  0.52740000  0.23460000  0.44660000  1.0 0.1204655201
H  H17  1  0.77590000  0.41470000  0.94400000  1.0 0.1003406944
H  H18  1  0.58530000  0.22410000  0.44400000  1.0 0.1003406944
H  H19  1  0.73310000  0.44690000  0.92680000  1.0 0.1204655201
H  H20  1  0.55310000  0.26690000  0.42680000  1.0 0.1204655201
H  H21  1  0.82530000  0.35070000  0.91650000  1.0 0.1003406944
H  H22  1  0.64930000  0.17470000  0.41650000  1.0 0.0899712884
H  H23  1  0.87120000  0.37420000  0.90790000  1.0 0.0693092067
H  H24  1  0.62580000  0.12880000  0.40790000  1.0 0.0693092067
H  H25  1  0.87210000  0.30030000  0.88720000  1.0 0.0785931177
H  H26  1  0.69970000  0.12790000  0.38720000  1.0 0.0785931177
H  H27  1  0.86540000  0.34360000  0.86560000  1.0 0.1204655201
H  H28  1  0.65640000  0.13460000  0.36560000  1.0 0.1204655201
H  H29  1  0.81950000  0.32010000  0.87420000  1.0 0.0785931177
H  H30  1  0.67990000  0.18050000  0.37420000  1.0 0.0785931177
H  H31  1  0.82550000  0.40330000  0.85360000  1.0 0.0899712884
H  H32  1  0.59670000  0.17450000  0.35360000  1.0 0.0899712884
H  H33  1  0.80540000  0.45920000  0.86070000  1.0 0.0899712884
H  H34  1  0.54080000  0.19460000  0.36070000  1.0 0.0899712884
H  H35  1  0.89270000  0.44670000  0.85710000  1.0 0.1389563123
H  H36  1  0.55330000  0.10730000  0.35710000  1.0 0.1389563123
H  H37  1  0.89810000  0.40530000  0.87960000  1.0 0.1291054301
H  H38  1  0.59470000  0.10190000  0.37960000  1.0 0.1291054301
H  H39  1  0.87820000  0.46080000  0.88660000  1.0 0.1291054301
H  H40  1  0.53920000  0.12180000  0.38660000  1.0 0.1291054301
H  H41  1  0.24970000  0.26350000  0.72710000  1.0 0.1093339124
H  H42  1  0.73650000  0.75030000  0.22710000  1.0 0.1093339124
H  H43  1  0.33120000  0.26980000  0.72550000  1.0 0.1204655201
H  H44  1  0.73020000  0.66880000  0.22550000  1.0 0.1204655201
H  H45  1  0.34370000  0.19190000  0.65900000  1.0 0.1204655201
H  H46  1  0.80810000  0.65630000  0.15900000  1.0 0.1204655201
H  H47  1  0.26350000  0.18150000  0.66220000  1.0 0.1204655201
H  H48  1  0.81850000  0.73650000  0.16220000  1.0 0.1204655201
H  H49  1  0.11950000  0.30510000  0.64530000  1.0 0.1204655201
H  H50  1  0.69490000  0.88050000  0.14530000  1.0 0.1204655201
H  H51  1  0.92080000  0.32940000  0.61510000  1.0 0.1093339124
H  H52  1  0.67060000  0.07920000  0.11510000  1.0 0.1093339124
H  H53  1  0.06240000  0.34120000  0.61390000  1.0 0.1093339124
H  H54  1  0.65880000  0.93760000  0.11390000  1.0 0.1093339124
H  H55  1  0.88920000  0.28960000  0.64940000  1.0 0.1204655201
H  H56  1  0.71040000  0.11080000  0.14940000  1.0 0.1204655201
H  H57  1  0.17130000  0.09510000  0.67810000  1.0 0.1204655201
H  H58  1  0.90490000  0.82870000  0.17810000  1.0 0.1204655201
H  H59  1  0.00170000  0.01230000  0.67900000  1.0 0.1003406944
H  H60  1  0.98770000  0.99830000  0.17900000  1.0 0.1003406944
H  H61  1  0.14180000  0.02400000  0.67140000  1.0 0.1204655201
H  H62  1  0.97600000  0.85820000  0.17140000  1.0 0.1204655201
H  H63  1  0.94050000  0.07770000  0.68390000  1.0 0.1204655201
H  H64  1  0.92230000  0.05950000  0.18390000  1.0 0.1204655201
H  H65  1  0.14390000  0.24530000  0.76200000  1.0 0.1204655201
H  H66  1  0.75470000  0.85610000  0.26200000  1.0 0.1204655201
H  H67  1  0.95180000  0.26540000  0.79850000  1.0 0.1204655201
H  H68  1  0.73460000  0.04820000  0.29850000  1.0 0.1204655201
H  H69  1  0.09510000  0.26910000  0.79830000  1.0 0.1204655201
H  H70  1  0.73090000  0.90490000  0.29830000  1.0 0.1204655201
H  H71  1  0.91070000  0.23490000  0.76440000  1.0 0.1093339124
H  H72  1  0.76510000  0.08930000  0.26440000  1.0 0.1093339124
H  H73  1  0.09670000  0.93410000  0.71400000  1.0 0.1389563123
H  H74  1  0.06590000  0.90330000  0.21400000  1.0 0.1389563123
H  H75  1  0.14620000  0.94500000  0.70160000  1.0 0.1291054301
H  H76  1  0.05500000  0.85380000  0.20160000  1.0 0.1291054301
H  H77  1  0.12860000  0.89440000  0.69620000  1.0 0.1204655201
H  H78  1  0.10560000  0.87140000  0.19620000  1.0 0.1204655201
H  H79  1  0.15340000  0.95960000  0.65770000  1.0 0.1204655201
H  H80  1  0.04040000  0.84660000  0.15770000  1.0 0.1204655201
H  H81  1  0.11490000  0.94710000  0.63630000  1.0 0.1389563123
H  H82  1  0.05290000  0.88510000  0.13630000  1.0 0.1389563123
H  H83  1  0.14210000  0.90550000  0.65610000  1.0 0.1389563123
H  H84  1  0.09450000  0.85790000  0.15610000  1.0 0.1389563123
H  H85  1  0.02260000  0.94120000  0.68700000  1.0 0.1003406944
H  H86  1  0.05880000  0.97740000  0.18700000  1.0 0.1003406944
H  H87  1  0.05470000  0.89310000  0.67560000  1.0 0.1291054301
H  H88  1  0.10690000  0.94530000  0.17560000  1.0 0.1291054301
H  H89  1  0.02750000  0.93470000  0.65580000  1.0 0.1204655201
H  H90  1  0.06530000  0.97250000  0.15580000  1.0 0.1204655201
H  H91  1  0.79230000  0.24410000  0.66710000  1.0 0.0693092067
H  H92  1  0.75590000  0.20770000  0.16710000  1.0 0.0693092067
H  H93  1  0.70870000  0.24870000  0.66920000  1.0 0.0693092067
H  H94  1  0.75130000  0.29130000  0.16920000  1.0 0.0693092067
H  H95  1  0.72660000  0.15860000  0.73330000  1.0 0.0899712884
H  H96  1  0.84140000  0.27340000  0.23330000  1.0 0.0899712884
H  H97  1  0.80970000  0.15650000  0.73170000  1.0 0.0899712884
H  H98  1  0.84350000  0.19030000  0.23170000  1.0 0.0899712884
H  H99  1  0.07770000  0.24230000  0.84540000  1.0 0.0595722357
H  H100  1  0.75770000  0.92230000  0.34540000  1.0 0.0595722357
H  H101  1  0.02650000  0.23070000  0.85510000  1.0 0.0595722357
H  H102  1  0.76930000  0.97350000  0.35510000  1.0 0.0595722357
H  H103  1  0.04850000  0.27450000  0.86780000  1.0 0.0693092067
H  H104  1  0.72550000  0.95150000  0.36780000  1.0 0.0693092067
H  H105  1  0.03370000  0.35950000  0.81850000  1.0 0.0785931177
H  H106  1  0.64050000  0.96630000  0.31850000  1.0 0.0785931177
H  H107  1  0.08230000  0.32290000  0.82750000  1.0 0.0899712884
H  H108  1  0.67710000  0.91770000  0.32750000  1.0 0.0899712884
H  H109  1  0.04600000  0.34860000  0.84910000  1.0 0.0785931177
H  H110  1  0.65140000  0.95400000  0.34910000  1.0 0.0785931177
H  H111  1  0.95380000  0.33680000  0.82410000  1.0 0.1093339124
H  H112  1  0.66320000  0.04620000  0.32410000  1.0 0.1093339124
H  H113  1  0.97070000  0.33370000  0.85440000  1.0 0.0693092067
H  H114  1  0.66630000  0.02930000  0.35440000  1.0 0.0693092067
H  H115  1  0.94870000  0.28990000  0.84180000  1.0 0.0595722357
H  H116  1  0.71010000  0.05130000  0.34180000  1.0 0.0595722357
H  H117  1  0.03850000  0.33390000  0.56570000  1.0 0.1003406944
H  H118  1  0.66610000  0.96150000  0.06570000  1.0 0.1003406944
H  H119  1  0.00050000  0.36830000  0.54660000  1.0 0.1204655201
H  H120  1  0.63170000  0.99950000  0.04660000  1.0 0.1204655201
H  H121  1  0.98720000  0.31880000  0.55830000  1.0 0.1093339124
H  H122  1  0.68120000  0.01280000  0.05830000  1.0 0.1093339124
H  H123  1  0.92380000  0.41360000  0.56430000  1.0 0.1204655201
H  H124  1  0.58640000  0.07620000  0.06430000  1.0 0.1204655201
H  H125  1  0.91350000  0.41210000  0.59520000  1.0 0.1003406944
H  H126  1  0.58790000  0.08650000  0.09520000  1.0 0.1003406944
H  H127  1  0.91020000  0.36560000  0.57770000  1.0 0.0899712884
H  H128  1  0.63440000  0.08980000  0.07770000  1.0 0.1003406944
H  H129  1  0.04320000  0.40400000  0.59290000  1.0 0.1003406944
H  H130  1  0.59600000  0.95680000  0.09290000  1.0 0.1003406944
H  H131  1  0.99500000  0.43640000  0.60400000  1.0 0.1204655201
H  H132  1  0.56360000  0.00500000  0.10400000  1.0 0.1093339124
H  H133  1  0.00500000  0.43660000  0.57310000  1.0 0.1291054301
H  H134  1  0.56340000  0.99500000  0.07310000  1.0 0.1291054301
H  H135  1  0.61360000  0.33720000  0.03040000  1.0 0.1093339124
H  H136  1  0.66280000  0.38640000  0.53040000  1.0 0.1093339124
H  H137  1  0.50280000  0.25080000  0.95840000  1.0 0.1389563123
H  H138  1  0.74920000  0.49720000  0.45840000  1.0 0.1389563123
H  H139  1  0.55290000  0.29110000  0.02700000  1.0 0.1204655201
H  H140  1  0.70890000  0.44710000  0.52700000  1.0 0.1204655201
H  H141  1  0.53390000  0.26610000  0.91840000  1.0 0.1291054301
H  H142  1  0.73390000  0.46610000  0.41840000  1.0 0.1291054301
H  H143  1  0.63430000  0.52010000  0.97980000  1.0 0.1204655201
H  H144  1  0.47990000  0.36570000  0.47980000  1.0 0.1204655201
H  H145  1  0.53530000  0.52030000  0.88310000  1.0 0.1204655201
H  H146  1  0.47970000  0.46470000  0.38310000  1.0 0.1204655201
H  H147  1  0.58010000  0.56610000  0.95180000  1.0 0.1291054301
H  H148  1  0.43390000  0.41990000  0.45180000  1.0 0.1291054301
H  H149  1  0.56660000  0.44460000  0.86560000  1.0 0.1291054301
H  H150  1  0.55540000  0.43340000  0.36560000  1.0 0.1291054301
H  H151  1  0.53740000  0.35440000  0.82420000  1.0 0.1093339124
H  H152  1  0.64560000  0.46260000  0.32420000  1.0 0.1093339124
H  H153  1  0.50910000  0.32670000  0.78480000  1.0 0.1204655201
H  H154  1  0.67330000  0.49090000  0.28480000  1.0 0.1204655201
H  H155  1  0.60010000  0.19810000  0.79600000  1.0 0.1204655201
H  H156  1  0.80190000  0.39990000  0.29600000  1.0 0.1204655201
H  H157  1  0.62680000  0.22540000  0.83570000  1.0 0.1093339124
H  H158  1  0.77460000  0.37320000  0.33570000  1.0 0.1093339124
H  H159  1  0.56800000  0.63940000  0.93280000  1.0 0.1389563123
H  H160  1  0.36060000  0.43200000  0.43280000  1.0 0.1389563123
H  H161  1  0.52970000  0.67410000  0.91400000  1.0 0.1389563123
H  H162  1  0.32590000  0.47030000  0.41400000  1.0 0.1389563123
H  H163  1  0.57490000  0.63910000  0.90160000  1.0 0.1389563123
H  H164  1  0.36090000  0.42510000  0.40160000  1.0 0.1389563123
H  H165  1  0.50000000  0.60460000  0.95260000  1.0 0.1204655201
H  H166  1  0.39540000  0.50000000  0.45260000  1.0 0.1204655201
H  H167  1  0.46050000  0.58630000  0.93390000  1.0 0.1291054301
H  H168  1  0.41370000  0.53950000  0.43390000  1.0 0.1291054301
H  H169  1  0.46440000  0.64280000  0.93420000  1.0 0.1291054301
H  H170  1  0.35720000  0.53560000  0.43420000  1.0 0.1291054301
H  H171  1  0.52020000  0.60340000  0.87300000  1.0 0.1291054301
H  H172  1  0.39660000  0.47980000  0.37300000  1.0 0.1291054301
H  H173  1  0.47720000  0.64200000  0.88500000  1.0 0.1291054301
H  H174  1  0.35800000  0.52280000  0.38500000  1.0 0.1291054301
H  H175  1  0.47320000  0.58540000  0.88470000  1.0 0.1204655201
H  H176  1  0.41460000  0.52680000  0.38470000  1.0 0.1204655201
H  H177  1  0.80410000  0.48170000  0.07810000  1.0 0.0899712884
H  H178  1  0.51830000  0.19590000  0.57810000  1.0 0.0899712884
H  H179  1  0.78370000  0.45610000  0.03690000  1.0 0.0693092067
H  H180  1  0.54390000  0.21630000  0.53690000  1.0 0.0693092067
H  H181  1  0.65650000  0.42930000  0.06460000  1.0 0.0785931177
H  H182  1  0.57070000  0.34350000  0.56460000  1.0 0.0785931177
H  H183  1  0.67690000  0.45270000  0.10630000  1.0 0.0899712884
H  H184  1  0.54730000  0.32310000  0.60630000  1.0 0.0899712884
H  H185  1  0.80980000  0.36140000  0.98030000  1.0 0.0785931177
H  H186  1  0.63860000  0.19020000  0.48030000  1.0 0.0785931177
H  H187  1  0.81260000  0.27360000  0.88100000  1.0 0.0498747537
H  H188  1  0.72640000  0.18740000  0.38100000  1.0 0.0498747537
H  H189  1  0.85940000  0.31740000  0.95010000  1.0 0.0785931177
H  H190  1  0.68260000  0.14060000  0.45010000  1.0 0.0785931177
H  H191  1  0.73270000  0.28130000  0.86910000  1.0 0.0693092067
H  H192  1  0.71870000  0.26730000  0.36910000  1.0 0.0693092067
H  H193  1  0.92140000  0.32820000  0.92540000  1.0 0.1093339124
H  H194  1  0.67180000  0.07860000  0.42540000  1.0 0.1093339124
H  H195  1  0.90520000  0.33960000  0.89520000  1.0 0.0899712884
H  H196  1  0.66040000  0.09480000  0.39520000  1.0 0.0899712884
H  H197  1  0.95570000  0.30470000  0.90240000  1.0 0.1389563123
H  H198  1  0.69530000  0.04430000  0.40240000  1.0 0.1389563123
H  H199  1  0.91840000  0.24660000  0.94540000  1.0 0.0498747537
H  H200  1  0.75340000  0.08160000  0.44540000  1.0 0.0498747537
H  H201  1  0.95300000  0.22000000  0.92330000  1.0 0.1003406944
H  H202  1  0.78000000  0.04700000  0.42330000  1.0 0.1003406944
H  H203  1  0.90080000  0.20520000  0.92810000  1.0 0.1389563123
H  H204  1  0.79480000  0.09920000  0.42810000  1.0 0.1389563123
H  H205  1  0.88200000  0.27460000  0.86770000  1.0 0.0595722357
H  H206  1  0.72540000  0.11800000  0.36770000  1.0 0.0595722357
H  H207  1  0.87850000  0.22250000  0.88040000  1.0 0.1093339124
H  H208  1  0.77750000  0.12150000  0.38040000  1.0 0.1093339124
H  H209  1  0.93060000  0.23720000  0.87560000  1.0 0.0899712884
H  H210  1  0.76280000  0.06940000  0.37560000  1.0 0.0899712884
H  H211  1  0.55140000  0.95120000  0.72930000  1.0 0.1204655201
H  H212  1  0.04880000  0.44860000  0.22930000  1.0 0.1204655201
H  H213  1  0.55950000  0.03210000  0.72870000  1.0 0.1093339124
H  H214  1  0.96790000  0.44050000  0.22870000  1.0 0.1093339124
H  H215  1  0.46640000  0.05580000  0.66570000  1.0 0.1291054301
H  H216  1  0.94420000  0.53360000  0.16570000  1.0 0.1291054301
H  H217  1  0.45750000  0.97530000  0.66810000  1.0 0.1291054301
H  H218  1  0.02470000  0.54250000  0.16810000  1.0 0.1291054301
H  H219  1  0.37350000  0.87290000  0.69680000  1.0 0.1204655201
H  H220  1  0.12710000  0.62650000  0.19680000  1.0 0.1204655201
H  H221  1  0.30450000  0.69690000  0.68500000  1.0 0.1093339124
H  H222  1  0.30310000  0.69550000  0.18500000  1.0 0.1093339124
H  H223  1  0.30490000  0.83950000  0.69440000  1.0 0.1093339124
H  H224  1  0.16050000  0.69510000  0.19440000  1.0 0.1093339124
H  H225  1  0.37560000  0.64000000  0.68220000  1.0 0.1204655201
H  H226  1  0.36000000  0.62440000  0.18220000  1.0 0.1204655201
H  H227  1  0.56550000  0.84670000  0.63900000  1.0 0.1291054301
H  H228  1  0.15330000  0.43450000  0.13900000  1.0 0.1291054301
H  H229  1  0.59240000  0.65760000  0.59930000  1.0 0.1204655201
H  H230  1  0.34240000  0.40760000  0.09930000  1.0 0.1204655201
H  H231  1  0.59640000  0.79960000  0.60470000  1.0 0.1291054301
H  H232  1  0.20040000  0.40360000  0.10470000  1.0 0.1291054301
H  H233  1  0.56050000  0.61470000  0.63090000  1.0 0.1204655201
H  H234  1  0.38530000  0.43950000  0.13090000  1.0 0.1204655201
H  H235  1  0.54900000  0.83600000  0.76000000  1.0 0.1389563123
H  H236  1  0.16400000  0.45100000  0.26000000  1.0 0.1389563123
H  H237  1  0.53830000  0.60350000  0.75690000  1.0 0.1204655201
H  H238  1  0.39650000  0.46170000  0.25690000  1.0 0.1204655201
H  H239  1  0.44270000  0.51190000  0.71040000  1.0 0.1204655201
H  H240  1  0.48810000  0.55730000  0.21040000  1.0 0.1204655201
H  H241  1  0.44760000  0.42800000  0.71180000  1.0 0.1204655201
H  H242  1  0.57200000  0.55240000  0.21180000  1.0 0.1204655201
H  H243  1  0.56900000  0.41240000  0.66840000  1.0 0.1204655201
H  H244  1  0.58760000  0.43100000  0.16840000  1.0 0.1204655201
H  H245  1  0.56430000  0.49630000  0.66740000  1.0 0.1204655201
H  H246  1  0.50370000  0.43570000  0.16740000  1.0 0.1204655201
H  H247  1  0.22620000  0.73620000  0.66200000  1.0 0.0785931177
H  H248  1  0.26380000  0.77380000  0.16200000  1.0 0.0785931177
H  H249  1  0.21230000  0.79290000  0.65450000  1.0 0.0595722357
H  H250  1  0.20710000  0.78770000  0.15450000  1.0 0.0595722357
H  H251  1  0.17800000  0.76800000  0.67340000  1.0 0.0693092067
H  H252  1  0.23200000  0.82200000  0.17340000  1.0 0.0693092067
H  H253  1  0.24680000  0.75240000  0.73120000  1.0 0.0693092067
H  H254  1  0.24760000  0.75320000  0.23120000  1.0 0.0693092067
H  H255  1  0.23840000  0.71180000  0.71070000  1.0 0.0785931177
H  H256  1  0.28820000  0.76160000  0.21070000  1.0 0.0785931177
H  H257  1  0.19380000  0.75260000  0.71870000  1.0 0.0785931177
H  H258  1  0.24740000  0.80620000  0.21870000  1.0 0.0785931177
H  H259  1  0.23710000  0.83690000  0.71730000  1.0 0.1003406944
H  H260  1  0.16310000  0.76290000  0.21730000  1.0 0.1003406944
H  H261  1  0.18460000  0.82920000  0.70700000  1.0 0.0693092067
H  H262  1  0.17080000  0.81540000  0.20700000  1.0 0.0693092067
H  H263  1  0.21890000  0.85410000  0.68810000  1.0 0.0595722357
H  H264  1  0.14590000  0.78110000  0.18810000  1.0 0.0595722357
H  H265  1  0.64640000  0.79380000  0.57260000  1.0 0.0498747537
H  H266  1  0.20620000  0.35360000  0.07260000  1.0 0.0498747537
H  H267  1  0.59750000  0.79730000  0.55530000  1.0 0.0382440532
H  H268  1  0.20270000  0.40250000  0.05530000  1.0 0.0382440532
H  H269  1  0.64860000  0.77280000  0.54350000  1.0 0.0785931177
H  H270  1  0.22720000  0.35140000  0.04350000  1.0 0.0785931177
H  H271  1  0.67270000  0.66790000  0.58440000  1.0 0.0693092067
H  H272  1  0.33210000  0.32730000  0.08440000  1.0 0.0693092067
H  H273  1  0.68990000  0.71850000  0.59020000  1.0 0.0693092067
H  H274  1  0.28150000  0.31010000  0.09020000  1.0 0.0693092067
H  H275  1  0.69390000  0.69710000  0.56120000  1.0 0.1093339124
H  H276  1  0.30290000  0.30610000  0.06120000  1.0 0.1093339124
H  H277  1  0.59260000  0.66800000  0.55940000  1.0 0.0693092067
H  H278  1  0.33200000  0.40740000  0.05940000  1.0 0.0693092067
H  H279  1  0.61480000  0.69360000  0.53510000  1.0 0.0498747537
H  H280  1  0.30640000  0.38520000  0.03510000  1.0 0.0498747537
H  H281  1  0.56360000  0.71800000  0.54690000  1.0 0.0595722357
H  H282  1  0.28200000  0.43640000  0.04690000  1.0 0.0498747537
H  H283  1  0.64610000  0.75990000  0.81850000  1.0 0.0785931177
H  H284  1  0.24010000  0.35390000  0.31850000  1.0 0.0785931177
H  H285  1  0.64850000  0.73850000  0.84810000  1.0 0.1003406944
H  H286  1  0.26150000  0.35150000  0.34810000  1.0 0.1003406944
H  H287  1  0.59890000  0.76990000  0.83640000  1.0 0.0094123071
H  H288  1  0.23010000  0.40110000  0.33640000  1.0 0.0094123071
H  H289  1  0.57400000  0.64880000  0.83690000  1.0 0.0595722357
H  H290  1  0.35120000  0.42600000  0.33690000  1.0 0.0595722357
H  H291  1  0.55480000  0.70220000  0.84760000  1.0 0.0693092067
H  H292  1  0.29780000  0.44520000  0.34760000  1.0 0.0693092067
H  H293  1  0.60440000  0.67080000  0.85930000  1.0 0.0693092067
H  H294  1  0.32920000  0.39560000  0.35930000  1.0 0.0693092067
H  H295  1  0.65210000  0.63410000  0.81110000  1.0 0.1003406944
H  H296  1  0.36590000  0.34790000  0.31110000  1.0 0.1003406944
H  H297  1  0.67860000  0.65880000  0.83410000  1.0 0.1093339124
H  H298  1  0.34120000  0.32140000  0.33410000  1.0 0.1093339124
H  H299  1  0.67880000  0.67900000  0.80450000  1.0 0.1291054301
H  H300  1  0.32100000  0.32120000  0.30450000  1.0 0.1291054301
H  H301  1  0.60210000  0.07350000  0.61920000  1.0 0.1093339124
H  H302  1  0.92650000  0.39790000  0.11920000  1.0 0.1093339124
H  H303  1  0.56040000  0.11680000  0.62790000  1.0 0.1291054301
H  H304  1  0.88320000  0.43960000  0.12790000  1.0 0.1291054301
H  H305  1  0.60110000  0.09210000  0.64880000  1.0 0.1291054301
H  H306  1  0.90790000  0.39890000  0.14880000  1.0 0.1291054301
H  H307  1  0.65270000  0.09050000  0.59570000  1.0 0.1204655201
H  H308  1  0.90950000  0.34730000  0.09570000  1.0 0.1204655201
H  H309  1  0.69050000  0.12230000  0.60720000  1.0 0.1204655201
H  H310  1  0.87770000  0.30950000  0.10720000  1.0 0.1204655201
H  H311  1  0.64840000  0.14640000  0.58690000  1.0 0.1093339124
H  H312  1  0.85360000  0.35160000  0.08690000  1.0 0.1093339124
H  H313  1  0.63940000  0.20220000  0.62980000  1.0 0.1093339124
H  H314  1  0.79780000  0.36060000  0.12980000  1.0 0.1093339124
H  H315  1  0.47730000  0.28610000  0.04020000  1.0 0.0693092067
H  H316  1  0.71390000  0.52270000  0.54020000  1.0 0.0693092067
H  H317  1  0.43690000  0.25190000  0.03880000  1.0 0.0693092067
H  H318  1  0.74810000  0.56310000  0.53880000  1.0 0.0693092067
H  H319  1  0.43390000  0.29730000  0.01880000  1.0 0.0298263258
H  H320  1  0.70270000  0.56610000  0.51880000  1.0 0.0382440532
H  H321  1  0.47270000  0.19550000  0.97800000  1.0 0.0298263258
H  H322  1  0.80450000  0.52730000  0.47800000  1.0 0.0298263258
H  H323  1  0.43110000  0.24230000  0.98110000  1.0 -0.0111007449
H  H324  1  0.75770000  0.56890000  0.48110000  1.0 -0.0111007449
H  H325  1  0.43420000  0.19700000  0.00110000  1.0 0.0785931177
H  H326  1  0.80300000  0.56580000  0.50110000  1.0 0.0785931177
H  H327  1  0.54010000  0.20610000  0.03620000  1.0 0.0595722357
H  H328  1  0.79390000  0.45990000  0.53620000  1.0 0.0595722357
H  H329  1  0.53550000  0.17270000  0.01130000  1.0 0.0595722357
H  H330  1  0.82730000  0.46450000  0.51130000  1.0 0.0595722357
H  H331  1  0.49550000  0.17730000  0.03370000  1.0 0.1093339124
H  H332  1  0.82270000  0.50450000  0.53370000  1.0 0.1093339124
H  H333  1  0.79070000  0.27010000  0.68540000  1.0 0.0693092067
H  H334  1  0.72990000  0.20930000  0.18540000  1.0 0.0693092067
H  H335  1  0.70720000  0.27400000  0.68750000  1.0 0.0693092067
H  H336  1  0.72600000  0.29280000  0.18750000  1.0 0.0693092067
H  H337  1  0.72830000  0.13850000  0.71960000  1.0 0.0899712884
H  H338  1  0.86150000  0.27170000  0.21960000  1.0 0.0899712884
H  H339  1  0.81150000  0.13590000  0.71850000  1.0 0.0899712884
H  H340  1  0.86410000  0.18850000  0.21850000  1.0 0.0899712884
H  H341  1  0.08790000  0.25910000  0.84310000  1.0 0.0595722357
H  H342  1  0.74090000  0.91210000  0.34310000  1.0 0.0595722357
H  H343  1  0.06300000  0.30080000  0.86220000  1.0 0.0595722357
H  H344  1  0.69920000  0.93700000  0.36220000  1.0 0.0595722357
H  H345  1  0.08400000  0.31520000  0.83470000  1.0 0.0785931177
H  H346  1  0.68480000  0.91600000  0.33470000  1.0 0.0785931177
H  H347  1  0.95420000  0.33640000  0.82210000  1.0 0.1093339124
H  H348  1  0.66360000  0.04580000  0.32210000  1.0 0.1093339124
H  H349  1  0.99990000  0.36410000  0.82150000  1.0 0.0693092067
H  H350  1  0.63590000  0.00010000  0.32150000  1.0 0.0693092067
H  H351  1  0.97880000  0.34960000  0.84900000  1.0 0.0498747537
H  H352  1  0.65040000  0.02120000  0.34900000  1.0 0.0498747537
H  H353  1  0.96570000  0.25010000  0.84120000  1.0 0.0595722357
H  H354  1  0.74990000  0.03430000  0.34120000  1.0 0.0595722357
H  H355  1  0.99500000  0.26460000  0.86630000  1.0 0.0785931177
H  H356  1  0.73540000  0.00500000  0.36630000  1.0 0.0785931177
H  H357  1  0.01950000  0.22170000  0.84790000  1.0 0.0693092067
H  H358  1  0.77830000  0.98050000  0.34790000  1.0 0.0785931177
H  H359  1  0.65120000  0.47060000  0.05640000  1.0 0.0785931177
H  H360  1  0.52940000  0.34880000  0.55640000  1.0 0.0785931177
H  H361  1  0.67080000  0.49520000  0.09790000  1.0 0.0785931177
H  H362  1  0.50480000  0.32920000  0.59790000  1.0 0.0899712884
H  H363  1  0.81310000  0.44350000  0.08510000  1.0 0.0785931177
H  H364  1  0.55650000  0.18690000  0.58510000  1.0 0.0785931177
H  H365  1  0.79210000  0.41610000  0.04430000  1.0 0.0693092067
H  H366  1  0.58390000  0.20790000  0.54430000  1.0 0.0693092067
H  H367  1  0.80380000  0.32500000  0.99150000  1.0 0.0785931177
H  H368  1  0.67500000  0.19620000  0.49150000  1.0 0.0785931177
H  H369  1  0.80530000  0.21490000  0.89900000  1.0 0.0899712884
H  H370  1  0.78510000  0.19470000  0.39900000  1.0 0.0899712884
H  H371  1  0.85290000  0.26890000  0.96560000  1.0 0.0899712884
H  H372  1  0.73110000  0.14710000  0.46560000  1.0 0.0899712884
H  H373  1  0.72910000  0.24350000  0.88000000  1.0 0.0785931177
H  H374  1  0.75650000  0.27090000  0.38000000  1.0 0.0785931177
H  H375  1  0.90590000  0.19530000  0.96640000  1.0 0.1003406944
H  H376  1  0.80470000  0.09410000  0.46640000  1.0 0.1003406944
H  H377  1  0.93030000  0.23690000  0.95260000  1.0 0.0498747537
H  H378  1  0.76310000  0.06970000  0.45260000  1.0 0.0498747537
H  H379  1  0.95110000  0.18070000  0.94740000  1.0 0.1093339124
H  H380  1  0.81930000  0.04890000  0.44740000  1.0 0.1093339124
H  H381  1  0.85640000  0.15200000  0.90900000  1.0 0.1204655201
H  H382  1  0.84800000  0.14360000  0.40900000  1.0 0.1204655201
H  H383  1  0.86450000  0.14210000  0.94000000  1.0 0.1291054301
H  H384  1  0.85790000  0.13550000  0.44000000  1.0 0.1291054301
H  H385  1  0.90990000  0.13190000  0.92070000  1.0 0.1291054301
H  H386  1  0.86810000  0.09010000  0.42070000  1.0 0.1291054301
H  H387  1  0.88320000  0.21980000  0.88710000  1.0 0.1093339124
H  H388  1  0.78020000  0.11680000  0.38710000  1.0 0.1093339124
H  H389  1  0.93700000  0.19620000  0.89720000  1.0 0.0693092067
H  H390  1  0.80380000  0.06300000  0.39720000  1.0 0.0693092067
H  H391  1  0.91610000  0.25250000  0.90230000  1.0 0.0595722357
H  H392  1  0.74750000  0.08390000  0.40230000  1.0 0.0595722357
H  H393  1  0.43050000  0.26530000  0.98170000  1.0 0.0382440532
H  H394  1  0.73470000  0.56950000  0.48170000  1.0 0.0498747537
H  H395  1  0.43050000  0.29970000  0.00660000  1.0 0.0498747537
H  H396  1  0.70030000  0.56950000  0.50660000  1.0 0.0498747537
H  H397  1  0.41050000  0.24950000  0.00930000  1.0 0.1093339124
H  H398  1  0.75050000  0.58950000  0.50930000  1.0 0.1093339124
H  H399  1  0.48760000  0.18480000  0.98170000  1.0 0.0298263258
H  H400  1  0.81520000  0.51240000  0.48170000  1.0 0.0382440532
H  H401  1  0.46320000  0.17300000  0.00880000  1.0 0.0693092067
H  H402  1  0.82700000  0.53680000  0.50880000  1.0 0.0693092067
H  H403  1  0.52120000  0.16740000  0.00720000  1.0 0.0094123071
H  H404  1  0.83260000  0.47880000  0.50720000  1.0 0.0094123071
H  H405  1  0.48860000  0.27540000  0.04370000  1.0 0.0693092067
H  H406  1  0.72460000  0.51140000  0.54370000  1.0 0.0693092067
H  H407  1  0.52170000  0.22230000  0.04480000  1.0 0.0382440532
H  H408  1  0.77770000  0.47830000  0.54480000  1.0 0.0382440532
H  H409  1  0.46380000  0.22800000  0.04640000  1.0 0.0693092067
H  H410  1  0.77200000  0.53620000  0.54640000  1.0 0.0693092067
H  H411  1  0.23380000  0.84960000  0.67430000  1.0 0.0899712884
H  H412  1  0.15040000  0.76620000  0.17430000  1.0 0.0899712884
H  H413  1  0.18460000  0.82780000  0.67180000  1.0 0.0785931177
H  H414  1  0.17220000  0.81540000  0.17180000  1.0 0.0785931177
H  H415  1  0.22930000  0.80850000  0.65330000  1.0 0.0785931177
H  H416  1  0.19150000  0.77070000  0.15330000  1.0 0.0785931177
H  H417  1  0.22920000  0.72460000  0.66770000  1.0 0.0785931177
H  H418  1  0.27540000  0.77080000  0.16770000  1.0 0.0785931177
H  H419  1  0.18170000  0.74690000  0.68360000  1.0 0.0693092067
H  H420  1  0.25310000  0.81830000  0.18360000  1.0 0.0693092067
H  H421  1  0.22560000  0.71120000  0.69830000  1.0 0.0693092067
H  H422  1  0.28880000  0.77440000  0.19830000  1.0 0.0693092067
H  H423  1  0.23860000  0.82840000  0.72230000  1.0 0.1003406944
H  H424  1  0.17160000  0.76140000  0.22230000  1.0 0.1003406944
H  H425  1  0.23130000  0.77530000  0.73210000  1.0 0.0595722357
H  H426  1  0.22470000  0.76870000  0.23210000  1.0 0.0595722357
H  H427  1  0.18740000  0.81100000  0.71740000  1.0 0.0595722357
H  H428  1  0.18900000  0.81260000  0.21740000  1.0 0.0595722357
H  H429  1  0.65560000  0.78700000  0.57870000  1.0 0.0693092067
H  H430  1  0.21300000  0.34440000  0.07870000  1.0 0.0785931177
H  H431  1  0.67880000  0.75700000  0.55400000  1.0 0.0693092067
H  H432  1  0.24300000  0.32120000  0.05400000  1.0 0.0693092067
H  H433  1  0.69140000  0.73600000  0.58330000  1.0 -0.0292766096
H  H434  1  0.26400000  0.30860000  0.08330000  1.0 -0.0292766096
H  H435  1  0.60820000  0.66060000  0.55910000  1.0 0.0595722357
H  H436  1  0.33940000  0.39180000  0.05910000  1.0 0.0595722357
H  H437  1  0.66200000  0.65760000  0.57120000  1.0 0.0498747537
H  H438  1  0.34240000  0.33800000  0.07120000  1.0 0.0498747537
H  H439  1  0.64930000  0.67870000  0.54190000  1.0 0.0693092067
H  H440  1  0.32130000  0.35070000  0.04190000  1.0 0.0693092067
H  H441  1  0.55740000  0.73800000  0.54830000  1.0 0.0595722357
H  H442  1  0.26200000  0.44260000  0.04830000  1.0 0.0595722357
H  H443  1  0.60140000  0.75360000  0.53230000  1.0 0.0899712884
H  H444  1  0.24640000  0.39860000  0.03230000  1.0 0.0899712884
H  H445  1  0.57510000  0.78830000  0.55450000  1.0 0.0595722357
H  H446  1  0.21170000  0.42490000  0.05450000  1.0 0.0595722357
H  H447  1  0.56650000  0.78210000  0.83510000  1.0 0.0899712884
H  H448  1  0.21790000  0.43350000  0.33510000  1.0 0.0899712884
H  H449  1  0.61970000  0.74950000  0.83770000  1.0 -0.0111007449
H  H450  1  0.25050000  0.38030000  0.33770000  1.0 -0.0111007449
H  H451  1  0.58210000  0.74970000  0.86120000  1.0 0.0899712884
H  H452  1  0.25030000  0.41790000  0.36120000  1.0 0.0899712884
H  H453  1  0.57860000  0.63380000  0.83030000  1.0 0.0899712884
H  H454  1  0.36620000  0.42140000  0.33030000  1.0 0.0899712884
H  H455  1  0.58980000  0.65580000  0.85810000  1.0 0.0693092067
H  H456  1  0.34420000  0.41020000  0.35810000  1.0 0.0693092067
H  H457  1  0.62740000  0.65560000  0.83470000  1.0 0.0498747537
H  H458  1  0.34440000  0.37260000  0.33470000  1.0 0.0498747537
H  H459  1  0.49850000  0.68830000  0.83310000  1.0 0.1093339124
H  H460  1  0.31170000  0.50150000  0.33310000  1.0 0.1093339124
H  H461  1  0.49540000  0.74600000  0.83440000  1.0 0.1291054301
H  H462  1  0.25400000  0.50460000  0.33440000  1.0 0.1291054301
H  H463  1  0.51530000  0.71210000  0.85940000  1.0 0.0899712884
H  H464  1  0.28790000  0.48470000  0.35940000  1.0 0.0899712884
H  H465  1  0.37670000  0.74850000  0.60210000  1.0 0.1003406944
H  H466  1  0.25150000  0.62330000  0.10210000  1.0 0.1003406944
H  H467  1  0.37700000  0.76520000  0.63190000  1.0 0.1003406944
H  H468  1  0.23480000  0.62300000  0.13190000  1.0 0.1003406944
H  H469  1  0.41750000  0.68950000  0.62810000  1.0 0.1093339124
H  H470  1  0.31050000  0.58250000  0.12810000  1.0 0.1093339124
H  H471  1  0.45410000  0.72430000  0.63750000  1.0 0.1093339124
H  H472  1  0.27570000  0.54590000  0.13750000  1.0 0.1093339124
H  H473  1  0.45380000  0.70740000  0.60760000  1.0 0.1204655201
H  H474  1  0.29260000  0.54620000  0.10760000  1.0 0.1204655201
H  H475  1  0.48200000  0.78920000  0.59500000  1.0 0.1204655201
H  H476  1  0.21080000  0.51800000  0.09500000  1.0 0.1204655201
H  H477  1  0.45000000  0.83180000  0.57790000  1.0 0.1093339124
H  H478  1  0.16820000  0.55000000  0.07790000  1.0 0.1093339124
H  H479  1  0.47260000  0.76540000  0.55340000  1.0 0.1204655201
H  H480  1  0.23460000  0.52740000  0.05340000  1.0 0.1204655201
H  H481  1  0.41470000  0.77590000  0.55600000  1.0 0.1003406944
H  H482  1  0.22410000  0.58530000  0.05600000  1.0 0.1003406944
H  H483  1  0.44690000  0.73310000  0.57320000  1.0 0.1204655201
H  H484  1  0.26690000  0.55310000  0.07320000  1.0 0.1204655201
H  H485  1  0.35070000  0.82530000  0.58350000  1.0 0.1003406944
H  H486  1  0.17470000  0.64930000  0.08350000  1.0 0.1003406944
H  H487  1  0.37420000  0.87120000  0.59210000  1.0 0.0693092067
H  H488  1  0.12880000  0.62580000  0.09210000  1.0 0.0693092067
H  H489  1  0.30030000  0.87210000  0.61280000  1.0 0.0785931177
H  H490  1  0.12790000  0.69970000  0.11280000  1.0 0.0785931177
H  H491  1  0.34360000  0.86540000  0.63440000  1.0 0.1204655201
H  H492  1  0.13460000  0.65640000  0.13440000  1.0 0.1204655201
H  H493  1  0.32010000  0.81950000  0.62580000  1.0 0.0785931177
H  H494  1  0.18050000  0.67990000  0.12580000  1.0 0.0785931177
H  H495  1  0.40330000  0.82550000  0.64640000  1.0 0.0899712884
H  H496  1  0.17450000  0.59670000  0.14640000  1.0 0.0899712884
H  H497  1  0.45920000  0.80540000  0.63930000  1.0 0.0899712884
H  H498  1  0.19460000  0.54080000  0.13930000  1.0 0.0899712884
H  H499  1  0.44670000  0.89270000  0.64290000  1.0 0.1389563123
H  H500  1  0.10730000  0.55330000  0.14290000  1.0 0.1389563123
H  H501  1  0.40530000  0.89810000  0.62040000  1.0 0.1291054301
H  H502  1  0.10190000  0.59470000  0.12040000  1.0 0.1291054301
H  H503  1  0.46080000  0.87820000  0.61340000  1.0 0.1291054301
H  H504  1  0.12180000  0.53920000  0.11340000  1.0 0.1291054301
H  H505  1  0.26350000  0.24970000  0.77290000  1.0 0.1093339124
H  H506  1  0.75030000  0.73650000  0.27290000  1.0 0.1093339124
H  H507  1  0.26980000  0.33120000  0.77450000  1.0 0.1204655201
H  H508  1  0.66880000  0.73020000  0.27450000  1.0 0.1204655201
H  H509  1  0.19190000  0.34370000  0.84100000  1.0 0.1204655201
H  H510  1  0.65630000  0.80810000  0.34100000  1.0 0.1204655201
H  H511  1  0.18150000  0.26350000  0.83780000  1.0 0.1204655201
H  H512  1  0.73650000  0.81850000  0.33780000  1.0 0.1204655201
H  H513  1  0.30510000  0.11950000  0.85470000  1.0 0.1204655201
H  H514  1  0.88050000  0.69490000  0.35470000  1.0 0.1204655201
H  H515  1  0.32940000  0.92080000  0.88490000  1.0 0.1093339124
H  H516  1  0.07920000  0.67060000  0.38490000  1.0 0.1093339124
H  H517  1  0.34120000  0.06240000  0.88610000  1.0 0.1093339124
H  H518  1  0.93760000  0.65880000  0.38610000  1.0 0.1093339124
H  H519  1  0.28960000  0.88920000  0.85060000  1.0 0.1204655201
H  H520  1  0.11080000  0.71040000  0.35060000  1.0 0.1204655201
H  H521  1  0.09510000  0.17130000  0.82190000  1.0 0.1204655201
H  H522  1  0.82870000  0.90490000  0.32190000  1.0 0.1204655201
H  H523  1  0.01230000  0.00170000  0.82100000  1.0 0.1003406944
H  H524  1  0.99830000  0.98770000  0.32100000  1.0 0.1003406944
H  H525  1  0.02400000  0.14180000  0.82860000  1.0 0.1204655201
H  H526  1  0.85820000  0.97600000  0.32860000  1.0 0.1204655201
H  H527  1  0.07770000  0.94050000  0.81610000  1.0 0.1204655201
H  H528  1  0.05950000  0.92230000  0.31610000  1.0 0.1204655201
H  H529  1  0.24530000  0.14390000  0.73800000  1.0 0.1204655201
H  H530  1  0.85610000  0.75470000  0.23800000  1.0 0.1204655201
H  H531  1  0.26540000  0.95180000  0.70150000  1.0 0.1204655201
H  H532  1  0.04820000  0.73460000  0.20150000  1.0 0.1204655201
H  H533  1  0.26910000  0.09510000  0.70170000  1.0 0.1204655201
H  H534  1  0.90490000  0.73090000  0.20170000  1.0 0.1204655201
H  H535  1  0.23490000  0.91070000  0.73560000  1.0 0.1093339124
H  H536  1  0.08930000  0.76510000  0.23560000  1.0 0.1093339124
H  H537  1  0.93410000  0.09670000  0.78600000  1.0 0.1389563123
H  H538  1  0.90330000  0.06590000  0.28600000  1.0 0.1389563123
H  H539  1  0.94500000  0.14620000  0.79840000  1.0 0.1291054301
H  H540  1  0.85380000  0.05500000  0.29840000  1.0 0.1291054301
H  H541  1  0.89440000  0.12860000  0.80380000  1.0 0.1204655201
H  H542  1  0.87140000  0.10560000  0.30380000  1.0 0.1204655201
H  H543  1  0.95960000  0.15340000  0.84230000  1.0 0.1204655201
H  H544  1  0.84660000  0.04040000  0.34230000  1.0 0.1204655201
H  H545  1  0.94710000  0.11490000  0.86370000  1.0 0.1389563123
H  H546  1  0.88510000  0.05290000  0.36370000  1.0 0.1389563123
H  H547  1  0.90550000  0.14210000  0.84390000  1.0 0.1389563123
H  H548  1  0.85790000  0.09450000  0.34390000  1.0 0.1389563123
H  H549  1  0.94120000  0.02260000  0.81300000  1.0 0.1093339124
H  H550  1  0.97740000  0.05880000  0.31300000  1.0 0.1093339124
H  H551  1  0.89310000  0.05470000  0.82440000  1.0 0.1291054301
H  H552  1  0.94530000  0.10690000  0.32440000  1.0 0.1291054301
H  H553  1  0.93470000  0.02750000  0.84420000  1.0 0.1204655201
H  H554  1  0.97250000  0.06530000  0.34420000  1.0 0.1204655201
H  H555  1  0.24410000  0.79230000  0.83290000  1.0 0.0693092067
H  H556  1  0.20770000  0.75590000  0.33290000  1.0 0.0693092067
H  H557  1  0.24870000  0.70870000  0.83080000  1.0 0.0693092067
H  H558  1  0.29130000  0.75130000  0.33080000  1.0 0.0693092067
H  H559  1  0.15860000  0.72660000  0.76670000  1.0 0.0899712884
H  H560  1  0.27340000  0.84140000  0.26670000  1.0 0.0899712884
H  H561  1  0.15650000  0.80970000  0.76830000  1.0 0.0899712884
H  H562  1  0.19030000  0.84350000  0.26830000  1.0 0.0899712884
H  H563  1  0.24230000  0.07770000  0.65460000  1.0 0.0595722357
H  H564  1  0.92230000  0.75770000  0.15460000  1.0 0.0595722357
H  H565  1  0.23070000  0.02650000  0.64490000  1.0 0.0595722357
H  H566  1  0.97350000  0.76930000  0.14490000  1.0 0.0595722357
H  H567  1  0.27450000  0.04850000  0.63220000  1.0 0.0693092067
H  H568  1  0.95150000  0.72550000  0.13220000  1.0 0.0693092067
H  H569  1  0.35950000  0.03370000  0.68150000  1.0 0.0785931177
H  H570  1  0.96630000  0.64050000  0.18150000  1.0 0.0785931177
H  H571  1  0.32290000  0.08230000  0.67250000  1.0 0.0899712884
H  H572  1  0.91770000  0.67710000  0.17250000  1.0 0.0899712884
H  H573  1  0.34860000  0.04600000  0.65090000  1.0 0.0785931177
H  H574  1  0.95400000  0.65140000  0.15090000  1.0 0.0785931177
H  H575  1  0.33680000  0.95380000  0.67590000  1.0 0.1093339124
H  H576  1  0.04620000  0.66320000  0.17590000  1.0 0.1093339124
H  H577  1  0.33370000  0.97070000  0.64560000  1.0 0.0693092067
H  H578  1  0.02930000  0.66630000  0.14560000  1.0 0.0693092067
H  H579  1  0.28990000  0.94870000  0.65820000  1.0 0.0595722357
H  H580  1  0.05130000  0.71010000  0.15820000  1.0 0.0595722357
H  H581  1  0.33390000  0.03850000  0.93430000  1.0 0.1093339124
H  H582  1  0.96150000  0.66610000  0.43430000  1.0 0.1093339124
H  H583  1  0.36830000  0.00050000  0.95340000  1.0 0.1204655201
H  H584  1  0.99950000  0.63170000  0.45340000  1.0 0.1204655201
H  H585  1  0.31880000  0.98720000  0.94170000  1.0 0.1093339124
H  H586  1  0.01280000  0.68120000  0.44170000  1.0 0.1093339124
H  H587  1  0.41360000  0.92380000  0.93570000  1.0 0.1204655201
H  H588  1  0.07620000  0.58640000  0.43570000  1.0 0.1204655201
H  H589  1  0.41210000  0.91350000  0.90480000  1.0 0.1003406944
H  H590  1  0.08650000  0.58790000  0.40480000  1.0 0.1003406944
H  H591  1  0.36560000  0.91020000  0.92230000  1.0 0.0899712884
H  H592  1  0.08980000  0.63440000  0.42230000  1.0 0.0899712884
H  H593  1  0.40400000  0.04320000  0.90710000  1.0 0.1003406944
H  H594  1  0.95680000  0.59600000  0.40710000  1.0 0.1003406944
H  H595  1  0.43640000  0.99500000  0.89600000  1.0 0.1093339124
H  H596  1  0.00500000  0.56360000  0.39600000  1.0 0.1204655201
H  H597  1  0.43660000  0.00500000  0.92690000  1.0 0.1291054301
H  H598  1  0.99500000  0.56340000  0.42690000  1.0 0.1291054301
H  H599  1  0.33720000  0.61360000  0.46960000  1.0 0.1093339124
H  H600  1  0.38640000  0.66280000  0.96960000  1.0 0.1093339124
H  H601  1  0.25080000  0.50280000  0.54160000  1.0 0.1468908989
H  H602  1  0.49720000  0.74920000  0.04160000  1.0 0.1389563123
H  H603  1  0.29110000  0.55290000  0.47300000  1.0 0.1204655201
H  H604  1  0.44710000  0.70890000  0.97300000  1.0 0.1204655201
H  H605  1  0.26610000  0.53390000  0.58160000  1.0 0.1291054301
H  H606  1  0.46610000  0.73390000  0.08160000  1.0 0.1291054301
H  H607  1  0.52010000  0.63430000  0.52020000  1.0 0.1204655201
H  H608  1  0.36570000  0.47990000  0.02020000  1.0 0.1204655201
H  H609  1  0.52030000  0.53530000  0.61690000  1.0 0.1204655201
H  H610  1  0.46470000  0.47970000  0.11690000  1.0 0.1204655201
H  H611  1  0.56610000  0.58010000  0.54820000  1.0 0.1291054301
H  H612  1  0.41990000  0.43390000  0.04820000  1.0 0.1291054301
H  H613  1  0.44460000  0.56660000  0.63440000  1.0 0.1291054301
H  H614  1  0.43340000  0.55540000  0.13440000  1.0 0.1291054301
H  H615  1  0.35440000  0.53740000  0.67580000  1.0 0.1093339124
H  H616  1  0.46260000  0.64560000  0.17580000  1.0 0.1093339124
H  H617  1  0.32670000  0.50910000  0.71520000  1.0 0.1204655201
H  H618  1  0.49090000  0.67330000  0.21520000  1.0 0.1204655201
H  H619  1  0.19810000  0.60010000  0.70400000  1.0 0.1204655201
H  H620  1  0.39990000  0.80190000  0.20400000  1.0 0.1204655201
H  H621  1  0.22540000  0.62680000  0.66430000  1.0 0.1093339124
H  H622  1  0.37320000  0.77460000  0.16430000  1.0 0.1093339124
H  H623  1  0.63940000  0.56800000  0.56720000  1.0 0.1389563123
H  H624  1  0.43200000  0.36060000  0.06720000  1.0 0.1389563123
H  H625  1  0.67410000  0.52970000  0.58600000  1.0 0.1389563123
H  H626  1  0.47030000  0.32590000  0.08600000  1.0 0.1389563123
H  H627  1  0.63910000  0.57490000  0.59840000  1.0 0.1389563123
H  H628  1  0.42510000  0.36090000  0.09840000  1.0 0.1389563123
H  H629  1  0.60460000  0.50000000  0.54740000  1.0 0.1204655201
H  H630  1  0.50000000  0.39540000  0.04740000  1.0 0.1204655201
H  H631  1  0.58630000  0.46050000  0.56610000  1.0 0.1291054301
H  H632  1  0.53950000  0.41370000  0.06610000  1.0 0.1291054301
H  H633  1  0.64280000  0.46440000  0.56580000  1.0 0.1291054301
H  H634  1  0.53560000  0.35720000  0.06580000  1.0 0.1291054301
H  H635  1  0.60340000  0.52020000  0.62700000  1.0 0.1291054301
H  H636  1  0.47980000  0.39660000  0.12700000  1.0 0.1291054301
H  H637  1  0.64200000  0.47720000  0.61500000  1.0 0.1291054301
H  H638  1  0.52280000  0.35800000  0.11500000  1.0 0.1291054301
H  H639  1  0.58540000  0.47320000  0.61530000  1.0 0.1204655201
H  H640  1  0.52680000  0.41460000  0.11530000  1.0 0.1204655201
H  H641  1  0.48170000  0.80410000  0.42190000  1.0 0.0899712884
H  H642  1  0.19590000  0.51830000  0.92190000  1.0 0.0899712884
H  H643  1  0.45610000  0.78370000  0.46310000  1.0 0.0693092067
H  H644  1  0.21630000  0.54390000  0.96310000  1.0 0.0693092067
H  H645  1  0.42930000  0.65650000  0.43540000  1.0 0.0785931177
H  H646  1  0.34350000  0.57070000  0.93540000  1.0 0.0785931177
H  H647  1  0.45270000  0.67690000  0.39370000  1.0 0.0899712884
H  H648  1  0.32310000  0.54730000  0.89370000  1.0 0.0899712884
H  H649  1  0.36140000  0.80980000  0.51970000  1.0 0.0785931177
H  H650  1  0.19020000  0.63860000  0.01970000  1.0 0.0785931177
H  H651  1  0.27360000  0.81260000  0.61900000  1.0 0.0498747537
H  H652  1  0.18740000  0.72640000  0.11900000  1.0 0.0498747537
H  H653  1  0.31740000  0.85940000  0.54990000  1.0 0.0785931177
H  H654  1  0.14060000  0.68260000  0.04990000  1.0 0.0785931177
H  H655  1  0.28130000  0.73270000  0.63090000  1.0 0.0693092067
H  H656  1  0.26730000  0.71870000  0.13090000  1.0 0.0693092067
H  H657  1  0.32820000  0.92140000  0.57460000  1.0 0.1093339124
H  H658  1  0.07860000  0.67180000  0.07460000  1.0 0.1093339124
H  H659  1  0.33960000  0.90520000  0.60480000  1.0 0.0899712884
H  H660  1  0.09480000  0.66040000  0.10480000  1.0 0.0899712884
H  H661  1  0.30470000  0.95570000  0.59760000  1.0 0.1389563123
H  H662  1  0.04430000  0.69530000  0.09760000  1.0 0.1389563123
H  H663  1  0.24660000  0.91840000  0.55460000  1.0 0.0498747537
H  H664  1  0.08160000  0.75340000  0.05460000  1.0 0.0595722357
H  H665  1  0.22000000  0.95300000  0.57670000  1.0 0.1003406944
H  H666  1  0.04700000  0.78000000  0.07670000  1.0 0.0899712884
H  H667  1  0.20520000  0.90080000  0.57190000  1.0 0.1389563123
H  H668  1  0.09920000  0.79480000  0.07190000  1.0 0.1389563123
H  H669  1  0.27460000  0.88200000  0.63230000  1.0 0.0595722357
H  H670  1  0.11800000  0.72540000  0.13230000  1.0 0.0595722357
H  H671  1  0.22250000  0.87850000  0.61960000  1.0 0.1093339124
H  H672  1  0.12150000  0.77750000  0.11960000  1.0 0.1093339124
H  H673  1  0.23720000  0.93060000  0.62440000  1.0 0.0899712884
H  H674  1  0.06940000  0.76280000  0.12440000  1.0 0.0899712884
H  H675  1  0.95120000  0.55140000  0.77070000  1.0 0.1204655201
H  H676  1  0.44860000  0.04880000  0.27070000  1.0 0.1204655201
H  H677  1  0.03210000  0.55950000  0.77130000  1.0 0.1093339124
H  H678  1  0.44050000  0.96790000  0.27130000  1.0 0.1093339124
H  H679  1  0.05580000  0.46640000  0.83430000  1.0 0.1291054301
H  H680  1  0.53360000  0.94420000  0.33430000  1.0 0.1291054301
H  H681  1  0.97530000  0.45750000  0.83190000  1.0 0.1291054301
H  H682  1  0.54250000  0.02470000  0.33190000  1.0 0.1291054301
H  H683  1  0.87290000  0.37350000  0.80320000  1.0 0.1204655201
H  H684  1  0.62650000  0.12710000  0.30320000  1.0 0.1204655201
H  H685  1  0.69690000  0.30450000  0.81500000  1.0 0.1093339124
H  H686  1  0.69550000  0.30310000  0.31500000  1.0 0.1093339124
H  H687  1  0.83950000  0.30490000  0.80560000  1.0 0.1093339124
H  H688  1  0.69510000  0.16050000  0.30560000  1.0 0.1093339124
H  H689  1  0.64000000  0.37560000  0.81780000  1.0 0.1204655201
H  H690  1  0.62440000  0.36000000  0.31780000  1.0 0.1204655201
H  H691  1  0.84670000  0.56550000  0.86100000  1.0 0.1291054301
H  H692  1  0.43450000  0.15330000  0.36100000  1.0 0.1291054301
H  H693  1  0.65760000  0.59240000  0.90070000  1.0 0.1204655201
H  H694  1  0.40760000  0.34240000  0.40070000  1.0 0.1204655201
H  H695  1  0.79960000  0.59640000  0.89530000  1.0 0.1291054301
H  H696  1  0.40360000  0.20040000  0.39530000  1.0 0.1291054301
H  H697  1  0.61470000  0.56050000  0.86910000  1.0 0.1204655201
H  H698  1  0.43950000  0.38530000  0.36910000  1.0 0.1204655201
H  H699  1  0.83600000  0.54900000  0.74000000  1.0 0.1389563123
H  H700  1  0.45100000  0.16400000  0.24000000  1.0 0.1389563123
H  H701  1  0.60350000  0.53830000  0.74310000  1.0 0.1204655201
H  H702  1  0.46170000  0.39650000  0.24310000  1.0 0.1204655201
H  H703  1  0.51190000  0.44270000  0.78960000  1.0 0.1204655201
H  H704  1  0.55730000  0.48810000  0.28960000  1.0 0.1204655201
H  H705  1  0.42800000  0.44760000  0.78820000  1.0 0.1204655201
H  H706  1  0.55240000  0.57200000  0.28820000  1.0 0.1204655201
H  H707  1  0.41240000  0.56900000  0.83160000  1.0 0.1204655201
H  H708  1  0.43100000  0.58760000  0.33160000  1.0 0.1204655201
H  H709  1  0.49630000  0.56430000  0.83260000  1.0 0.1204655201
H  H710  1  0.43570000  0.50370000  0.33260000  1.0 0.1204655201
H  H711  1  0.73620000  0.22620000  0.83800000  1.0 0.0785931177
H  H712  1  0.77380000  0.26380000  0.33800000  1.0 0.0785931177
H  H713  1  0.79290000  0.21230000  0.84550000  1.0 0.0595722357
H  H714  1  0.78770000  0.20710000  0.34550000  1.0 0.0595722357
H  H715  1  0.76800000  0.17800000  0.82660000  1.0 0.0693092067
H  H716  1  0.82200000  0.23200000  0.32660000  1.0 0.0693092067
H  H717  1  0.75240000  0.24680000  0.76880000  1.0 0.0693092067
H  H718  1  0.75320000  0.24760000  0.26880000  1.0 0.0693092067
H  H719  1  0.71180000  0.23840000  0.78930000  1.0 0.0785931177
H  H720  1  0.76160000  0.28820000  0.28930000  1.0 0.0785931177
H  H721  1  0.75260000  0.19380000  0.78130000  1.0 0.0785931177
H  H722  1  0.80620000  0.24740000  0.28130000  1.0 0.0785931177
H  H723  1  0.83690000  0.23710000  0.78270000  1.0 0.1003406944
H  H724  1  0.76290000  0.16310000  0.28270000  1.0 0.1003406944
H  H725  1  0.82920000  0.18460000  0.79300000  1.0 0.0693092067
H  H726  1  0.81540000  0.17080000  0.29300000  1.0 0.0693092067
H  H727  1  0.85410000  0.21890000  0.81190000  1.0 0.0595722357
H  H728  1  0.78110000  0.14590000  0.31190000  1.0 0.0595722357
H  H729  1  0.79380000  0.64640000  0.92740000  1.0 0.0498747537
H  H730  1  0.35360000  0.20620000  0.42740000  1.0 0.0498747537
H  H731  1  0.79730000  0.59750000  0.94470000  1.0 0.0382440532
H  H732  1  0.40250000  0.20270000  0.44470000  1.0 0.0382440532
H  H733  1  0.77280000  0.64860000  0.95650000  1.0 0.0785931177
H  H734  1  0.35140000  0.22720000  0.45650000  1.0 0.0785931177
H  H735  1  0.66790000  0.67270000  0.91560000  1.0 0.0693092067
H  H736  1  0.32730000  0.33210000  0.41560000  1.0 0.0693092067
H  H737  1  0.71850000  0.68990000  0.90980000  1.0 0.0693092067
H  H738  1  0.31010000  0.28150000  0.40980000  1.0 0.0693092067
H  H739  1  0.69710000  0.69390000  0.93880000  1.0 0.1003406944
H  H740  1  0.30610000  0.30290000  0.43880000  1.0 0.1093339124
H  H741  1  0.66800000  0.59260000  0.94060000  1.0 0.0693092067
H  H742  1  0.40740000  0.33200000  0.44060000  1.0 0.0693092067
H  H743  1  0.69360000  0.61480000  0.96490000  1.0 0.0498747537
H  H744  1  0.38520000  0.30640000  0.46490000  1.0 0.0498747537
H  H745  1  0.71800000  0.56360000  0.95310000  1.0 0.0498747537
H  H746  1  0.43640000  0.28200000  0.45310000  1.0 0.0498747537
H  H747  1  0.75990000  0.64610000  0.68150000  1.0 0.0785931177
H  H748  1  0.35390000  0.24010000  0.18150000  1.0 0.0785931177
H  H749  1  0.73850000  0.64850000  0.65190000  1.0 0.1003406944
H  H750  1  0.35150000  0.26150000  0.15190000  1.0 0.1003406944
H  H751  1  0.76990000  0.59890000  0.66360000  1.0 0.0094123071
H  H752  1  0.40110000  0.23010000  0.16360000  1.0 0.0094123071
H  H753  1  0.64880000  0.57400000  0.66310000  1.0 0.0595722357
H  H754  1  0.42600000  0.35120000  0.16310000  1.0 0.0595722357
H  H755  1  0.70220000  0.55480000  0.65240000  1.0 0.0693092067
H  H756  1  0.44520000  0.29780000  0.15240000  1.0 0.0693092067
H  H757  1  0.67080000  0.60440000  0.64070000  1.0 0.0693092067
H  H758  1  0.39560000  0.32920000  0.14070000  1.0 0.0693092067
H  H759  1  0.63410000  0.65210000  0.68890000  1.0 0.1003406944
H  H760  1  0.34790000  0.36590000  0.18890000  1.0 0.1003406944
H  H761  1  0.65880000  0.67860000  0.66590000  1.0 0.1093339124
H  H762  1  0.32140000  0.34120000  0.16590000  1.0 0.1093339124
H  H763  1  0.67900000  0.67880000  0.69550000  1.0 0.1291054301
H  H764  1  0.32120000  0.32100000  0.19550000  1.0 0.1291054301
H  H765  1  0.07350000  0.60210000  0.88080000  1.0 0.1093339124
H  H766  1  0.39790000  0.92650000  0.38080000  1.0 0.1093339124
H  H767  1  0.11680000  0.56040000  0.87210000  1.0 0.1291054301
H  H768  1  0.43960000  0.88320000  0.37210000  1.0 0.1291054301
H  H769  1  0.09210000  0.60110000  0.85120000  1.0 0.1291054301
H  H770  1  0.39890000  0.90790000  0.35120000  1.0 0.1291054301
H  H771  1  0.09050000  0.65270000  0.90430000  1.0 0.1204655201
H  H772  1  0.34730000  0.90950000  0.40430000  1.0 0.1204655201
H  H773  1  0.12230000  0.69050000  0.89280000  1.0 0.1204655201
H  H774  1  0.30950000  0.87770000  0.39280000  1.0 0.1204655201
H  H775  1  0.14640000  0.64840000  0.91310000  1.0 0.1093339124
H  H776  1  0.35160000  0.85360000  0.41310000  1.0 0.1093339124
H  H777  1  0.20220000  0.63940000  0.87020000  1.0 0.1093339124
H  H778  1  0.36060000  0.79780000  0.37020000  1.0 0.1093339124
H  H779  1  0.28610000  0.47730000  0.45980000  1.0 0.0693092067
H  H780  1  0.52270000  0.71390000  0.95980000  1.0 0.0693092067
H  H781  1  0.25190000  0.43690000  0.46120000  1.0 0.0693092067
H  H782  1  0.56310000  0.74810000  0.96120000  1.0 0.0693092067
H  H783  1  0.29730000  0.43390000  0.48120000  1.0 0.0382440532
H  H784  1  0.56610000  0.70270000  0.98120000  1.0 0.0382440532
H  H785  1  0.19550000  0.47270000  0.52200000  1.0 0.0298263258
H  H786  1  0.52730000  0.80450000  0.02200000  1.0 0.0298263258
H  H787  1  0.24230000  0.43110000  0.51890000  1.0 -0.0111007449
H  H788  1  0.56890000  0.75770000  0.01890000  1.0 -0.0111007449
H  H789  1  0.19700000  0.43420000  0.49890000  1.0 0.0785931177
H  H790  1  0.56580000  0.80300000  0.99890000  1.0 0.0785931177
H  H791  1  0.20610000  0.54010000  0.46380000  1.0 0.0595722357
H  H792  1  0.45990000  0.79390000  0.96380000  1.0 0.0595722357
H  H793  1  0.17270000  0.53550000  0.48870000  1.0 0.0595722357
H  H794  1  0.46450000  0.82730000  0.98870000  1.0 0.0595722357
H  H795  1  0.17730000  0.49550000  0.46630000  1.0 0.1093339124
H  H796  1  0.50450000  0.82270000  0.96630000  1.0 0.1093339124
H  H797  1  0.27010000  0.79070000  0.81460000  1.0 0.0693092067
H  H798  1  0.20930000  0.72990000  0.31460000  1.0 0.0693092067
H  H799  1  0.27400000  0.70720000  0.81250000  1.0 0.0693092067
H  H800  1  0.29280000  0.72600000  0.31250000  1.0 0.0693092067
H  H801  1  0.13850000  0.72830000  0.78040000  1.0 0.0899712884
H  H802  1  0.27170000  0.86150000  0.28040000  1.0 0.0899712884
H  H803  1  0.13590000  0.81150000  0.78150000  1.0 0.0899712884
H  H804  1  0.18850000  0.86410000  0.28150000  1.0 0.0899712884
H  H805  1  0.25910000  0.08790000  0.65690000  1.0 0.0595722357
H  H806  1  0.91210000  0.74090000  0.15690000  1.0 0.0595722357
H  H807  1  0.30080000  0.06300000  0.63780000  1.0 0.0595722357
H  H808  1  0.93700000  0.69920000  0.13780000  1.0 0.0595722357
H  H809  1  0.31520000  0.08400000  0.66530000  1.0 0.0785931177
H  H810  1  0.91600000  0.68480000  0.16530000  1.0 0.0785931177
H  H811  1  0.33640000  0.95420000  0.67790000  1.0 0.1093339124
H  H812  1  0.04580000  0.66360000  0.17790000  1.0 0.1093339124
H  H813  1  0.36410000  0.99990000  0.67850000  1.0 0.0693092067
H  H814  1  0.00010000  0.63590000  0.17850000  1.0 0.0693092067
H  H815  1  0.34960000  0.97880000  0.65100000  1.0 0.0498747537
H  H816  1  0.02120000  0.65040000  0.15100000  1.0 0.0498747537
H  H817  1  0.25010000  0.96570000  0.65880000  1.0 0.0595722357
H  H818  1  0.03430000  0.74990000  0.15880000  1.0 0.0595722357
H  H819  1  0.26460000  0.99500000  0.63370000  1.0 0.0785931177
H  H820  1  0.00500000  0.73540000  0.13370000  1.0 0.0785931177
H  H821  1  0.22170000  0.01950000  0.65210000  1.0 0.0693092067
H  H822  1  0.98050000  0.77830000  0.15210000  1.0 0.0693092067
H  H823  1  0.47060000  0.65120000  0.44360000  1.0 0.0785931177
H  H824  1  0.34880000  0.52940000  0.94360000  1.0 0.0785931177
H  H825  1  0.49520000  0.67080000  0.40210000  1.0 0.0899712884
H  H826  1  0.32920000  0.50480000  0.90210000  1.0 0.0785931177
H  H827  1  0.44350000  0.81310000  0.41490000  1.0 0.0785931177
H  H828  1  0.18690000  0.55650000  0.91490000  1.0 0.0785931177
H  H829  1  0.41610000  0.79210000  0.45570000  1.0 0.0693092067
H  H830  1  0.20790000  0.58390000  0.95570000  1.0 0.0693092067
H  H831  1  0.32500000  0.80380000  0.50850000  1.0 0.0785931177
H  H832  1  0.19620000  0.67500000  0.00850000  1.0 0.0785931177
H  H833  1  0.21490000  0.80530000  0.60100000  1.0 0.0899712884
H  H834  1  0.19470000  0.78510000  0.10100000  1.0 0.0899712884
H  H835  1  0.26890000  0.85290000  0.53440000  1.0 0.0899712884
H  H836  1  0.14710000  0.73110000  0.03440000  1.0 0.0899712884
H  H837  1  0.24350000  0.72910000  0.62000000  1.0 0.0785931177
H  H838  1  0.27090000  0.75650000  0.12000000  1.0 0.0785931177
H  H839  1  0.19530000  0.90590000  0.53360000  1.0 0.1003406944
H  H840  1  0.09410000  0.80470000  0.03360000  1.0 0.1003406944
H  H841  1  0.23690000  0.93030000  0.54740000  1.0 0.0498747537
H  H842  1  0.06970000  0.76310000  0.04740000  1.0 0.0498747537
H  H843  1  0.18070000  0.95110000  0.55260000  1.0 0.1093339124
H  H844  1  0.04890000  0.81930000  0.05260000  1.0 0.1093339124
H  H845  1  0.15200000  0.85640000  0.59100000  1.0 0.1204655201
H  H846  1  0.14360000  0.84800000  0.09100000  1.0 0.1204655201
H  H847  1  0.14210000  0.86450000  0.56000000  1.0 0.1291054301
H  H848  1  0.13550000  0.85790000  0.06000000  1.0 0.1291054301
H  H849  1  0.13190000  0.90990000  0.57930000  1.0 0.1291054301
H  H850  1  0.09010000  0.86810000  0.07930000  1.0 0.1291054301
H  H851  1  0.21980000  0.88320000  0.61290000  1.0 0.1093339124
H  H852  1  0.11680000  0.78020000  0.11290000  1.0 0.1093339124
H  H853  1  0.19620000  0.93700000  0.60280000  1.0 0.0693092067
H  H854  1  0.06300000  0.80380000  0.10280000  1.0 0.0693092067
H  H855  1  0.25250000  0.91610000  0.59770000  1.0 0.0595722357
H  H856  1  0.08390000  0.74750000  0.09770000  1.0 0.0595722357
H  H857  1  0.26530000  0.43050000  0.51830000  1.0 0.0498747537
H  H858  1  0.56950000  0.73470000  0.01830000  1.0 0.0498747537
H  H859  1  0.29970000  0.43050000  0.49340000  1.0 0.0498747537
H  H860  1  0.56950000  0.70030000  0.99340000  1.0 0.0595722357
H  H861  1  0.24950000  0.41050000  0.49070000  1.0 0.1093339124
H  H862  1  0.58950000  0.75050000  0.99070000  1.0 0.1093339124
H  H863  1  0.18480000  0.48760000  0.51830000  1.0 0.0298263258
H  H864  1  0.51240000  0.81520000  0.01830000  1.0 0.0382440532
H  H865  1  0.17300000  0.46320000  0.49120000  1.0 0.0693092067
H  H866  1  0.53680000  0.82700000  0.99120000  1.0 0.0693092067
H  H867  1  0.16740000  0.52120000  0.49280000  1.0 0.0094123071
H  H868  1  0.47880000  0.83260000  0.99280000  1.0 0.0094123071
H  H869  1  0.27540000  0.48860000  0.45630000  1.0 0.0693092067
H  H870  1  0.51140000  0.72460000  0.95630000  1.0 0.0693092067
H  H871  1  0.22230000  0.52170000  0.45520000  1.0 0.0382440532
H  H872  1  0.47830000  0.77770000  0.95520000  1.0 0.0382440532
H  H873  1  0.22800000  0.46380000  0.45360000  1.0 0.0693092067
H  H874  1  0.53620000  0.77200000  0.95360000  1.0 0.0595722357
H  H875  1  0.84960000  0.23380000  0.82570000  1.0 0.0899712884
H  H876  1  0.76620000  0.15040000  0.32570000  1.0 0.0899712884
H  H877  1  0.82780000  0.18460000  0.82820000  1.0 0.0785931177
H  H878  1  0.81540000  0.17220000  0.32820000  1.0 0.0785931177
H  H879  1  0.80850000  0.22930000  0.84670000  1.0 0.0785931177
H  H880  1  0.77070000  0.19150000  0.34670000  1.0 0.0785931177
H  H881  1  0.72460000  0.22920000  0.83230000  1.0 0.0785931177
H  H882  1  0.77080000  0.27540000  0.33230000  1.0 0.0785931177
H  H883  1  0.74690000  0.18170000  0.81640000  1.0 0.0693092067
H  H884  1  0.81830000  0.25310000  0.31640000  1.0 0.0693092067
H  H885  1  0.71120000  0.22560000  0.80170000  1.0 0.0693092067
H  H886  1  0.77440000  0.28880000  0.30170000  1.0 0.0693092067
H  H887  1  0.82840000  0.23860000  0.77770000  1.0 0.1003406944
H  H888  1  0.76140000  0.17160000  0.27770000  1.0 0.1003406944
H  H889  1  0.77530000  0.23130000  0.76790000  1.0 0.0595722357
H  H890  1  0.76870000  0.22470000  0.26790000  1.0 0.0595722357
H  H891  1  0.81100000  0.18740000  0.78260000  1.0 0.0595722357
H  H892  1  0.81260000  0.18900000  0.28260000  1.0 0.0595722357
H  H893  1  0.78700000  0.65560000  0.92130000  1.0 0.0785931177
H  H894  1  0.34440000  0.21300000  0.42130000  1.0 0.0785931177
H  H895  1  0.75700000  0.67880000  0.94600000  1.0 0.0693092067
H  H896  1  0.32120000  0.24300000  0.44600000  1.0 0.0693092067
H  H897  1  0.73600000  0.69140000  0.91670000  1.0 -0.0292766096
H  H898  1  0.30860000  0.26400000  0.41670000  1.0 -0.0292766096
H  H899  1  0.66060000  0.60820000  0.94090000  1.0 0.0595722357
H  H900  1  0.39180000  0.33940000  0.44090000  1.0 0.0595722357
H  H901  1  0.65760000  0.66200000  0.92880000  1.0 0.0498747537
H  H902  1  0.33800000  0.34240000  0.42880000  1.0 0.0498747537
H  H903  1  0.67870000  0.64930000  0.95810000  1.0 0.0785931177
H  H904  1  0.35070000  0.32130000  0.45810000  1.0 0.0785931177
H  H905  1  0.73800000  0.55740000  0.95170000  1.0 0.0595722357
H  H906  1  0.44260000  0.26200000  0.45170000  1.0 0.0595722357
H  H907  1  0.75360000  0.60140000  0.96770000  1.0 0.0899712884
H  H908  1  0.39860000  0.24640000  0.46770000  1.0 0.0899712884
H  H909  1  0.78830000  0.57510000  0.94550000  1.0 0.0595722357
H  H910  1  0.42490000  0.21170000  0.44550000  1.0 0.0595722357
H  H911  1  0.78210000  0.56650000  0.66490000  1.0 0.0899712884
H  H912  1  0.43350000  0.21790000  0.16490000  1.0 0.0899712884
H  H913  1  0.74950000  0.61970000  0.66230000  1.0 -0.0111007449
H  H914  1  0.38030000  0.25050000  0.16230000  1.0 -0.0111007449
H  H915  1  0.74970000  0.58210000  0.63880000  1.0 0.0899712884
H  H916  1  0.41790000  0.25030000  0.13880000  1.0 0.0899712884
H  H917  1  0.63380000  0.57860000  0.66970000  1.0 0.0899712884
H  H918  1  0.42140000  0.36620000  0.16970000  1.0 0.0899712884
H  H919  1  0.65580000  0.58980000  0.64190000  1.0 0.0693092067
H  H920  1  0.41020000  0.34420000  0.14190000  1.0 0.0693092067
H  H921  1  0.65560000  0.62740000  0.66530000  1.0 0.0498747537
H  H922  1  0.37260000  0.34440000  0.16530000  1.0 0.0498747537
H  H923  1  0.68830000  0.49850000  0.66690000  1.0 0.1093339124
H  H924  1  0.50150000  0.31170000  0.16690000  1.0 0.1093339124
H  H925  1  0.74600000  0.49540000  0.66560000  1.0 0.1291054301
H  H926  1  0.50460000  0.25400000  0.16560000  1.0 0.1204655201
H  H927  1  0.71210000  0.51530000  0.64060000  1.0 0.0899712884
H  H928  1  0.48470000  0.28790000  0.14060000  1.0 0.0899712884
H  H929  1  0.24710000  0.66490000  0.27210000  1.0 0.1093339124
H  H930  1  0.27060000  0.65200000  0.24420000  1.0 0.1003406944
H  H931  1  0.21020000  0.60540000  0.25210000  1.0 0.1291054301
H  H932  1  0.26170000  0.57010000  0.25050000  1.0 0.1204655201
H  H933  1  0.23800000  0.58300000  0.27850000  1.0 0.1291054301
H  H934  1  0.33070000  0.57050000  0.25110000  1.0 0.0899712884
H  H935  1  0.33950000  0.61970000  0.23680000  1.0 0.1003406944
H  H936  1  0.41370000  0.56770000  0.24460000  1.0 0.1389563123
H  H937  1  0.41250000  0.61610000  0.26120000  1.0 0.1291054301
H  H938  1  0.40350000  0.56690000  0.27550000  1.0 0.1204655201
H  H939  1  0.32910000  0.69770000  0.28440000  1.0 0.0899712884
H  H940  1  0.37800000  0.66220000  0.27770000  1.0 0.1093339124
H  H941  1  0.36490000  0.72630000  0.25010000  1.0 0.1291054301
H  H942  1  0.36290000  0.67770000  0.23400000  1.0 0.1291054301
H  H943  1  0.31350000  0.71350000  0.24080000  1.0 0.1093339124
H  H944  1  0.33180000  0.56720000  0.29570000  1.0 0.1093339124
H  H945  1  0.36620000  0.60400000  0.30380000  1.0 0.1003406944
H  H946  1  0.32570000  0.58330000  0.33860000  1.0 0.1389563123
H  H947  1  0.30930000  0.64030000  0.33240000  1.0 0.1291054301
H  H948  1  0.27440000  0.60300000  0.32420000  1.0 0.1389563123
H  H949  1  0.66490000  0.24710000  0.22790000  1.0 0.1093339124
H  H950  1  0.65200000  0.27060000  0.25580000  1.0 0.1003406944
H  H951  1  0.60540000  0.21020000  0.24790000  1.0 0.1291054301
H  H952  1  0.57010000  0.26170000  0.24950000  1.0 0.1204655201
H  H953  1  0.58300000  0.23800000  0.22150000  1.0 0.1291054301
H  H954  1  0.57050000  0.33070000  0.24890000  1.0 0.0899712884
H  H955  1  0.61970000  0.33950000  0.26320000  1.0 0.1003406944
H  H956  1  0.56770000  0.41370000  0.25540000  1.0 0.1389563123
H  H957  1  0.61610000  0.41250000  0.23880000  1.0 0.1291054301
H  H958  1  0.56690000  0.40350000  0.22450000  1.0 0.1204655201
H  H959  1  0.69770000  0.32910000  0.21560000  1.0 0.0899712884
H  H960  1  0.66220000  0.37800000  0.22230000  1.0 0.1093339124
H  H961  1  0.72630000  0.36490000  0.24990000  1.0 0.1291054301
H  H962  1  0.67770000  0.36290000  0.26600000  1.0 0.1291054301
H  H963  1  0.71350000  0.31350000  0.25920000  1.0 0.1093339124
H  H964  1  0.56720000  0.33180000  0.20430000  1.0 0.1093339124
H  H965  1  0.60400000  0.36620000  0.19620000  1.0 0.0899712884
H  H966  1  0.58330000  0.32570000  0.16140000  1.0 0.1389563123
H  H967  1  0.64030000  0.30930000  0.16760000  1.0 0.1291054301
H  H968  1  0.60300000  0.27440000  0.17580000  1.0 0.1389563123
H  H969  1  0.75290000  0.33510000  0.72790000  1.0 0.1093339124
H  H970  1  0.72940000  0.34800000  0.75580000  1.0 0.1003406944
H  H971  1  0.78980000  0.39460000  0.74790000  1.0 0.1291054301
H  H972  1  0.73830000  0.42990000  0.74950000  1.0 0.1204655201
H  H973  1  0.76200000  0.41700000  0.72150000  1.0 0.1291054301
H  H974  1  0.66930000  0.42950000  0.74890000  1.0 0.0899712884
H  H975  1  0.66050000  0.38030000  0.76320000  1.0 0.1003406944
H  H976  1  0.58630000  0.43230000  0.75540000  1.0 0.1389563123
H  H977  1  0.58750000  0.38390000  0.73880000  1.0 0.1291054301
H  H978  1  0.59650000  0.43310000  0.72450000  1.0 0.1204655201
H  H979  1  0.67090000  0.30230000  0.71560000  1.0 0.0899712884
H  H980  1  0.62200000  0.33780000  0.72230000  1.0 0.1093339124
H  H981  1  0.63510000  0.27370000  0.74990000  1.0 0.1291054301
H  H982  1  0.63710000  0.32230000  0.76600000  1.0 0.1291054301
H  H983  1  0.68650000  0.28650000  0.75920000  1.0 0.1093339124
H  H984  1  0.66820000  0.43280000  0.70430000  1.0 0.1093339124
H  H985  1  0.63380000  0.39600000  0.69620000  1.0 0.0899712884
H  H986  1  0.67430000  0.41670000  0.66140000  1.0 0.1389563123
H  H987  1  0.69070000  0.35970000  0.66760000  1.0 0.1291054301
H  H988  1  0.72560000  0.39700000  0.67580000  1.0 0.1389563123
H  H989  1  0.33510000  0.75290000  0.77210000  1.0 0.1093339124
H  H990  1  0.34800000  0.72940000  0.74420000  1.0 0.1003406944
H  H991  1  0.39460000  0.78980000  0.75210000  1.0 0.1291054301
H  H992  1  0.42990000  0.73830000  0.75050000  1.0 0.1204655201
H  H993  1  0.41700000  0.76200000  0.77850000  1.0 0.1291054301
H  H994  1  0.42950000  0.66930000  0.75110000  1.0 0.0899712884
H  H995  1  0.38030000  0.66050000  0.73680000  1.0 0.1003406944
H  H996  1  0.43230000  0.58630000  0.74460000  1.0 0.1389563123
H  H997  1  0.38390000  0.58750000  0.76120000  1.0 0.1291054301
H  H998  1  0.43310000  0.59650000  0.77550000  1.0 0.1204655201
H  H999  1  0.30230000  0.67090000  0.78440000  1.0 0.0899712884
H  H1000  1  0.33780000  0.62200000  0.77770000  1.0 0.1093339124
H  H1001  1  0.27370000  0.63510000  0.75010000  1.0 0.1291054301
H  H1002  1  0.32230000  0.63710000  0.73400000  1.0 0.1291054301
H  H1003  1  0.28650000  0.68650000  0.74080000  1.0 0.1093339124
H  H1004  1  0.43280000  0.66820000  0.79570000  1.0 0.1093339124
H  H1005  1  0.39600000  0.63380000  0.80380000  1.0 0.0899712884
H  H1006  1  0.41670000  0.67430000  0.83860000  1.0 0.1389563123
H  H1007  1  0.35970000  0.69070000  0.83240000  1.0 0.1291054301
H  H1008  1  0.39700000  0.72560000  0.82420000  1.0 0.1389563123
C  C1  1  0.75820000  0.39760000  0.88370000  1.0 -0.1084467998
C  C2  1  0.60240000  0.24180000  0.38370000  1.0 -0.1084467998
C  C3  1  0.71660000  0.43360000  0.87710000  1.0 -0.4222669697
C  C4  1  0.56640000  0.28340000  0.37710000  1.0 -0.4222669697
C  C5  1  0.79950000  0.44990000  0.91370000  1.0 -0.0292766096
C  C6  1  0.55010000  0.20050000  0.41370000  1.0 -0.0292766096
C  C7  1  0.76570000  0.44570000  0.93440000  1.0 -0.468831036
C  C8  1  0.55430000  0.23430000  0.43440000  1.0 -0.468831036
C  C9  1  0.84000000  0.36560000  0.90150000  1.0 -0.1805553625
C  C10  1  0.63440000  0.16000000  0.40150000  1.0 -0.1805553625
C  C11  1  0.85010000  0.32930000  0.88030000  1.0 -0.3796673542
C  C12  1  0.67070000  0.14990000  0.38030000  1.0 -0.3796673542
C  C13  1  0.82560000  0.42840000  0.86720000  1.0 -0.0503092952
C  C14  1  0.57160000  0.17440000  0.36720000  1.0 -0.0503092952
C  C15  1  0.87850000  0.43610000  0.87320000  1.0 -0.4222669697
C  C16  1  0.56390000  0.12150000  0.37320000  1.0 -0.4222669697
C  C17  1  0.24608000  0.22288000  0.69444000  1.0 -0.1805553625
C  C18  1  0.77712000  0.75392000  0.19444000  1.0 -0.1805553625
C  C19  1  0.26859000  0.24859000  0.71315000  1.0 -0.0898613977
C  C20  1  0.75141000  0.73141000  0.21315000  1.0 -0.0898613977
C  C21  1  0.31717000  0.25297000  0.71208000  1.0 -0.1170535228
C  C22  1  0.74703000  0.68283000  0.21208000  1.0 -0.1170535228
C  C23  1  0.34560000  0.23280000  0.69163000  1.0 -0.0205121602
C  C24  1  0.76720000  0.65440000  0.19163000  1.0 -0.0205121602
C  C25  1  0.32472000  0.20632000  0.67305000  1.0 -0.1084467998
C  C26  1  0.79368000  0.67528000  0.17305000  1.0 -0.1084467998
C  C27  1  0.27647000  0.20087000  0.67476000  1.0 -0.0898613977
C  C28  1  0.79913000  0.72353000  0.17476000  1.0 -0.0898613977
C  C29  1  0.09740000  0.28800000  0.65390000  1.0 0.0207422723
C  C30  1  0.71200000  0.90260000  0.15390000  1.0 0.0207422723
C  C31  1  0.04740000  0.29820000  0.64430000  1.0 -0.0721713419
C  C32  1  0.70180000  0.95260000  0.14430000  1.0 -0.0721713419
C  C33  1  0.00970000  0.27770000  0.65650000  1.0 0.2998891564
C  C34  1  0.72230000  0.99030000  0.15650000  1.0 0.2998891564
C  C35  1  0.96140000  0.29220000  0.64510000  1.0 -0.0503092952
C  C36  1  0.70780000  0.03860000  0.14510000  1.0 -0.0503092952
C  C37  1  0.95280000  0.32200000  0.62250000  1.0 -0.189796126
C  C38  1  0.67800000  0.04720000  0.12250000  1.0 -0.189796126
C  C39  1  0.99000000  0.34080000  0.61060000  1.0 0.0595722357
C  C40  1  0.65920000  0.01000000  0.11060000  1.0 0.0595722357
C  C41  1  0.03660000  0.32840000  0.62190000  1.0 -0.189796126
C  C42  1  0.67160000  0.96340000  0.12190000  1.0 -0.189796126
C  C43  1  0.92040000  0.27540000  0.65630000  1.0 -0.0028299042
C  C44  1  0.72460000  0.07960000  0.15630000  1.0 0.0020087988
C  C45  1  0.14018000  0.11358000  0.68160000  1.0 0.0207422723
C  C46  1  0.88642000  0.85982000  0.18160000  1.0 0.0207422723
C  C47  1  0.09901000  0.08761000  0.68020000  1.0 -0.0503092952
C  C48  1  0.91239000  0.90099000  0.18020000  1.0 -0.0503092952
C  C49  1  0.05034000  0.11134000  0.68380000  1.0 0.2714448804
C  C50  1  0.88866000  0.94966000  0.18380000  1.0 0.2714448804
C  C51  1  0.01379000  0.08219000  0.68230000  1.0 -0.0605047089
C  C52  1  0.91781000  0.98621000  0.18230000  1.0 -0.0605047089
C  C53  1  0.02670000  0.03130000  0.67900000  1.0 -0.189796126
C  C54  1  0.96870000  0.97330000  0.17900000  1.0 -0.189796126
C  C55  1  0.07445000  0.00805000  0.67570000  1.0 0.0693092067
C  C56  1  0.99195000  0.92555000  0.17570000  1.0 0.0693092067
C  C57  1  0.10924000  0.03804000  0.67530000  1.0 -0.1624453759
C  C58  1  0.96196000  0.89076000  0.17530000  1.0 -0.1624453759
C  C59  1  0.96230000  0.10010000  0.68590000  1.0 0.0207422723
C  C60  1  0.89990000  0.03770000  0.18590000  1.0 0.0207422723
C  C61  1  0.11703000  0.24023000  0.75124000  1.0 0.0207422723
C  C62  1  0.75977000  0.88297000  0.25124000  1.0 0.0207422723
C  C63  1  0.06958000  0.24578000  0.76364000  1.0 -0.041550636
C  C64  1  0.75422000  0.93042000  0.26364000  1.0 -0.041550636
C  C65  1  0.02764000  0.23484000  0.75007000  1.0 0.2998891564
C  C66  1  0.76516000  0.97236000  0.25007000  1.0 0.2998891564
C  C67  1  0.98293000  0.24173000  0.76430000  1.0 -0.0292766096
C  C68  1  0.75827000  0.01707000  0.26430000  1.0 -0.0292766096
C  C69  1  0.98200000  0.26000000  0.78976000  1.0 -0.2692422366
C  C70  1  0.74000000  0.01800000  0.28976000  1.0 -0.2692422366
C  C71  1  0.02250000  0.27070000  0.80294000  1.0 0.0207422723
C  C72  1  0.72930000  0.97750000  0.30294000  1.0 0.0207422723
C  C73  1  0.06640000  0.26280000  0.78961000  1.0 -0.2312344557
C  C74  1  0.73720000  0.93360000  0.28961000  1.0 -0.2312344557
C  C75  1  0.93780000  0.23160000  0.75307000  1.0 -0.0111007449
C  C76  1  0.76840000  0.06220000  0.25307000  1.0 -0.0111007449
C  C77  1  0.81107000  0.20087000  0.69999000  1.0 -0.1084467998
C  C78  1  0.79913000  0.18893000  0.19999000  1.0 -0.1084467998
C  C79  1  0.70889000  0.20489000  0.70178000  1.0 -0.0111007449
C  C80  1  0.79511000  0.29111000  0.20178000  1.0 -0.0111007449
C  C81  1  0.39830000  0.23790000  0.69002000  1.0 0.5963402742
C  C82  1  0.76210000  0.60170000  0.19002000  1.0 0.5963402742
C  C83  1  0.98110000  0.37370000  0.58590000  1.0 0.2714448804
C  C84  1  0.62630000  0.01890000  0.08590000  1.0 0.2714448804
C  C85  1  0.08850000  0.95250000  0.67340000  1.0 0.2714448804
C  C86  1  0.04750000  0.91150000  0.17340000  1.0 0.2714448804
C  C87  1  0.11780000  0.92940000  0.69870000  1.0 -0.4811499591
C  C88  1  0.07060000  0.88220000  0.19870000  1.0 -0.4811499591
C  C89  1  0.12810000  0.94010000  0.65420000  1.0 -0.5453562683
C  C90  1  0.05990000  0.87190000  0.15420000  1.0 -0.5413906372
C  C91  1  0.04450000  0.92830000  0.67290000  1.0 -0.4530888827
C  C92  1  0.07170000  0.95550000  0.17290000  1.0 -0.4530888827
C  C93  1  0.01930000  0.29090000  0.83082000  1.0 0.1933389062
C  C94  1  0.70910000  0.98070000  0.33082000  1.0 0.1933389062
C  C95  1  0.65531000  0.20791000  0.70370000  1.0 0.5206990296
C  C96  1  0.79209000  0.34469000  0.20370000  1.0 0.5206990296
C  C97  1  0.77930000  0.22750000  0.68090000  1.0 -0.0205121602
C  C98  1  0.77250000  0.22070000  0.18090000  1.0 -0.0205121602
C  C99  1  0.72930000  0.22990000  0.68200000  1.0 -0.041550636
C  C100  1  0.77010000  0.27070000  0.18200000  1.0 -0.041550636
C  C101  1  0.73960000  0.17680000  0.72010000  1.0 -0.0721713419
C  C102  1  0.82320000  0.26040000  0.22010000  1.0 -0.0721713419
C  C103  1  0.78930000  0.17570000  0.71890000  1.0 -0.0605047089
C  C104  1  0.82430000  0.21070000  0.21890000  1.0 -0.0605047089
C  C105  1  0.04520000  0.25660000  0.85160000  1.0 -0.1998005403
C  C106  1  0.74340000  0.95480000  0.35160000  1.0 -0.1998005403
C  C107  1  0.04800000  0.33460000  0.83150000  1.0 -0.2184091336
C  C108  1  0.66540000  0.95200000  0.33150000  1.0 -0.2184091336
C  C109  1  0.96860000  0.31500000  0.83850000  1.0 -0.235511983
C  C110  1  0.68500000  0.03140000  0.33850000  1.0 -0.235511983
C  C111  1  0.00390000  0.34610000  0.56200000  1.0 -0.4530888827
C  C112  1  0.65390000  0.99610000  0.06200000  1.0 -0.4530888827
C  C113  1  0.92740000  0.39300000  0.58030000  1.0 -0.468831036
C  C114  1  0.60700000  0.07260000  0.08030000  1.0 -0.468831036
C  C115  1  0.00860000  0.41660000  0.58930000  1.0 -0.4559953855
C  C116  1  0.58340000  0.99140000  0.08930000  1.0 -0.4530888827
C  C117  1  0.71870000  0.43790000  0.04612000  1.0 -0.1414901799
C  C118  1  0.56210000  0.28130000  0.54612000  1.0 -0.1414901799
C  C119  1  0.74360000  0.46900000  0.09645000  1.0 -0.0292766096
C  C120  1  0.53100000  0.25640000  0.59645000  1.0 -0.0292766096
C  C121  1  0.61670000  0.34070000  0.01192000  1.0 0.0298263258
C  C122  1  0.65930000  0.38330000  0.51192000  1.0 0.0298263258
C  C123  1  0.58713000  0.31513000  0.99532000  1.0 -0.0292766096
C  C124  1  0.68487000  0.41287000  0.49532000  1.0 -0.0292766096
C  C125  1  0.58930000  0.31530000  0.96725000  1.0 0.2998891564
C  C126  1  0.68470000  0.41070000  0.46725000  1.0 0.2998891564
C  C127  1  0.55730000  0.28930000  0.95350000  1.0 -0.041550636
C  C128  1  0.71070000  0.44270000  0.45350000  1.0 -0.041550636
C  C129  1  0.52500000  0.26660000  0.96792000  1.0 -0.189796126
C  C130  1  0.73340000  0.47500000  0.46792000  1.0 -0.189796126
C  C131  1  0.52330000  0.26550000  0.99478000  1.0 0.0785931177
C  C132  1  0.73450000  0.47670000  0.49478000  1.0 0.0785931177
C  C133  1  0.55400000  0.29040000  0.00830000  1.0 -0.1998005403
C  C134  1  0.70960000  0.44600000  0.50830000  1.0 -0.189796126
C  C135  1  0.55650000  0.28470000  0.92539000  1.0 0.0298263258
C  C136  1  0.71530000  0.44350000  0.42539000  1.0 0.0298263258
C  C137  1  0.63720000  0.49180000  0.96934000  1.0 0.0298263258
C  C138  1  0.50820000  0.36280000  0.46934000  1.0 0.0298263258
C  C139  1  0.61150000  0.49610000  0.94447000  1.0 -0.0503092952
C  C140  1  0.50390000  0.38850000  0.44447000  1.0 -0.0503092952
C  C141  1  0.61370000  0.45770000  0.92574000  1.0 0.2884343246
C  C142  1  0.54230000  0.38630000  0.42574000  1.0 0.2884343246
C  C143  1  0.58490000  0.46870000  0.90216000  1.0 -0.0503092952
C  C144  1  0.53130000  0.41510000  0.40216000  1.0 -0.0503092952
C  C145  1  0.55480000  0.51420000  0.89872000  1.0 -0.1805553625
C  C146  1  0.48580000  0.44520000  0.39872000  1.0 -0.1805553625
C  C147  1  0.55210000  0.55110000  0.91702000  1.0 0.0498747537
C  C148  1  0.44890000  0.44790000  0.41702000  1.0 0.0498747537
C  C149  1  0.58090000  0.54110000  0.93926000  1.0 -0.1512770425
C  C150  1  0.45890000  0.41910000  0.43926000  1.0 -0.1512770425
C  C151  1  0.58280000  0.43320000  0.88172000  1.0 0.0498747537
C  C152  1  0.56680000  0.41720000  0.38172000  1.0 0.0498747537
C  C153  1  0.58360000  0.29200000  0.83514000  1.0 -0.189796126
C  C154  1  0.70800000  0.41640000  0.33514000  1.0 -0.189796126
C  C155  1  0.54960000  0.32220000  0.81886000  1.0 -0.0721713419
C  C156  1  0.67780000  0.45040000  0.31886000  1.0 -0.0721713419
C  C157  1  0.53330000  0.30610000  0.79512000  1.0 -0.1084467998
C  C158  1  0.69390000  0.46670000  0.29512000  1.0 -0.1084467998
C  C159  1  0.55232000  0.25992000  0.78644000  1.0 -0.0205121602
C  C160  1  0.74008000  0.44768000  0.28644000  1.0 -0.0205121602
C  C161  1  0.58700000  0.22980000  0.80171000  1.0 -0.1084467998
C  C162  1  0.77020000  0.41300000  0.30171000  1.0 -0.1084467998
C  C163  1  0.60240000  0.24620000  0.82556000  1.0 -0.0898613977
C  C164  1  0.75380000  0.39760000  0.32556000  1.0 -0.0898613977
C  C165  1  0.75570000  0.48270000  0.12373000  1.0 0.5076761895
C  C166  1  0.51730000  0.24430000  0.62373000  1.0 0.5076761895
C  C167  1  0.48700000  0.23900000  0.00890000  1.0 0.2429909946
C  C168  1  0.76100000  0.51300000  0.50890000  1.0 0.2429909946
C  C169  1  0.52010000  0.60150000  0.91330000  1.0 0.2765360901
C  C170  1  0.39850000  0.47990000  0.41330000  1.0 0.2765360901
C  C171  1  0.55090000  0.64230000  0.91570000  1.0 -0.5090486354
C  C172  1  0.35770000  0.44910000  0.41570000  1.0 -0.5090486354
C  C173  1  0.48290000  0.60950000  0.93550000  1.0 -0.468831036
C  C174  1  0.39050000  0.51710000  0.43550000  1.0 -0.468831036
C  C175  1  0.49550000  0.60870000  0.88670000  1.0 -0.5090486354
C  C176  1  0.39130000  0.50450000  0.38670000  1.0 -0.5090486354
C  C177  1  0.53656000  0.24376000  0.76006000  1.0 0.5900520289
C  C178  1  0.75624000  0.46344000  0.26006000  1.0 0.5900520289
C  C179  1  0.77430000  0.47030000  0.07560000  1.0 -0.041550636
C  C180  1  0.52970000  0.22570000  0.57560000  1.0 -0.041550636
C  C181  1  0.76190000  0.45490000  0.05100000  1.0 -0.041550636
C  C182  1  0.54510000  0.23810000  0.55100000  1.0 -0.041550636
C  C183  1  0.68710000  0.43890000  0.06740000  1.0 -0.041550636
C  C184  1  0.56110000  0.31290000  0.56740000  1.0 -0.041550636
C  C185  1  0.69880000  0.45340000  0.09230000  1.0 -0.0503092952
C  C186  1  0.54660000  0.30120000  0.59230000  1.0 -0.0503092952
C  C187  1  0.78080000  0.35820000  0.97080000  1.0 0.0298263258
C  C188  1  0.64180000  0.21920000  0.47080000  1.0 0.0298263258
C  C189  1  0.78580000  0.33320000  0.94600000  1.0 -0.0111007449
C  C190  1  0.66680000  0.21420000  0.44600000  1.0 -0.0111007449
C  C191  1  0.74570000  0.32730000  0.92900000  1.0 0.260783484
C  C192  1  0.67270000  0.25430000  0.42900000  1.0 0.260783484
C  C193  1  0.75710000  0.30450000  0.90430000  1.0 -0.0292766096
C  C194  1  0.69550000  0.24290000  0.40430000  1.0 -0.0292766096
C  C195  1  0.80580000  0.28780000  0.89770000  1.0 -0.1309139815
C  C196  1  0.71220000  0.19420000  0.39770000  1.0 -0.1309139815
C  C197  1  0.84370000  0.29170000  0.91480000  1.0 0.0498747537
C  C198  1  0.70830000  0.15630000  0.41480000  1.0 0.0498747537
C  C199  1  0.83320000  0.31440000  0.93840000  1.0 -0.1309139815
C  C200  1  0.68560000  0.16680000  0.43840000  1.0 -0.1309139815
C  C201  1  0.72100000  0.29700000  0.88480000  1.0 0.0382440532
C  C202  1  0.70300000  0.27900000  0.38480000  1.0 0.0382440532
C  C203  1  0.89620000  0.27060000  0.90770000  1.0 0.0595722357
C  C204  1  0.72940000  0.10380000  0.40770000  1.0 0.0595722357
C  C205  1  0.92190000  0.31470000  0.90770000  1.0 -0.4530888827
C  C206  1  0.68530000  0.07810000  0.40770000  1.0 -0.4530888827
C  C207  1  0.91910000  0.23210000  0.92790000  1.0 -0.1710350758
C  C208  1  0.76790000  0.08090000  0.42790000  1.0 -0.1710350758
C  C209  1  0.89690000  0.24930000  0.88040000  1.0 -0.2989686823
C  C210  1  0.75070000  0.10310000  0.38040000  1.0 -0.2989686823
C  C211  1  0.50444000  0.95304000  0.69831000  1.0 -0.1805553625
C  C212  1  0.04696000  0.49556000  0.19831000  1.0 -0.1805553625
C  C213  1  0.53413000  0.97233000  0.71620000  1.0 -0.0805381277
C  C214  1  0.02767000  0.46587000  0.21620000  1.0 -0.0805381277
C  C215  1  0.53944000  0.02044000  0.71580000  1.0 -0.0996401497
C  C216  1  0.97956000  0.46056000  0.21580000  1.0 -0.1084467998
C  C217  1  0.51524000  0.05204000  0.69642000  1.0 -0.0292766096
C  C218  1  0.94796000  0.48476000  0.19642000  1.0 -0.0292766096
C  C219  1  0.48420000  0.03460000  0.67872000  1.0 -0.1084467998
C  C220  1  0.96540000  0.51580000  0.17872000  1.0 -0.1084467998
C  C221  1  0.47932000  0.98632000  0.68018000  1.0 -0.0898613977
C  C222  1  0.01368000  0.52068000  0.18018000  1.0 -0.0898613977
C  C223  1  0.39480000  0.84260000  0.69490000  1.0 0.0207422723
C  C224  1  0.15740000  0.60520000  0.19490000  1.0 0.0207422723
C  C225  1  0.37284000  0.79964000  0.69279000  1.0 -0.0605047089
C  C226  1  0.20036000  0.62716000  0.19279000  1.0 -0.0605047089
C  C227  1  0.40016000  0.75236000  0.68964000  1.0 0.2884343246
C  C228  1  0.24764000  0.59984000  0.18964000  1.0 0.2884343246
C  C229  1  0.37320000  0.71364000  0.68668000  1.0 -0.0503092952
C  C230  1  0.28636000  0.62680000  0.18668000  1.0 -0.0503092952
C  C231  1  0.32168000  0.72318000  0.68702000  1.0 -0.2798072741
C  C232  1  0.27682000  0.67832000  0.18702000  1.0 -0.2798072741
C  C233  1  0.29577000  0.76961000  0.69016000  1.0 -0.0996401497
C  C234  1  0.23039000  0.70423000  0.19016000  1.0 -0.0898613977
C  C235  1  0.32209000  0.80729000  0.69270000  1.0 -0.2798072741
C  C236  1  0.19271000  0.67791000  0.19270000  1.0 -0.2798072741
C  C237  1  0.39656000  0.66286000  0.68506000  1.0 0.0298263258
C  C238  1  0.33714000  0.60344000  0.18506000  1.0 0.0298263258
C  C239  1  0.55540000  0.82040000  0.64820000  1.0 0.0094123071
C  C240  1  0.17960000  0.44460000  0.14820000  1.0 0.0094123071
C  C241  1  0.56650000  0.77310000  0.63654000  1.0 -0.041550636
C  C242  1  0.22690000  0.43350000  0.13654000  1.0 -0.041550636
C  C243  1  0.55430000  0.73050000  0.64841000  1.0 0.2998891564
C  C244  1  0.26950000  0.44570000  0.14841000  1.0 0.2998891564
C  C245  1  0.56434000  0.68694000  0.63328000  1.0 -0.0805381277
C  C246  1  0.31306000  0.43566000  0.13328000  1.0 -0.0805381277
C  C247  1  0.58580000  0.68720000  0.60865000  1.0 -0.2184091336
C  C248  1  0.31280000  0.41420000  0.10865000  1.0 -0.2096827447
C  C249  1  0.59790000  0.72890000  0.59725000  1.0 0.0207422723
C  C250  1  0.27110000  0.40210000  0.09725000  1.0 0.0207422723
C  C251  1  0.58800000  0.77060000  0.61190000  1.0 -0.189796126
C  C252  1  0.22940000  0.41200000  0.11190000  1.0 -0.189796126
C  C253  1  0.55299000  0.64119000  0.64246000  1.0 -0.0028299042
C  C254  1  0.35881000  0.44701000  0.14246000  1.0 -0.0028299042
C  C255  1  0.54150000  0.81130000  0.74880000  1.0 0.0298263258
C  C256  1  0.18870000  0.45850000  0.24880000  1.0 0.0298263258
C  C257  1  0.54910000  0.76270000  0.76007000  1.0 -0.0996401497
C  C258  1  0.23730000  0.45090000  0.26007000  1.0 -0.0996401497
C  C259  1  0.53840000  0.72240000  0.74513000  1.0 0.2765360901
C  C260  1  0.27760000  0.46160000  0.24513000  1.0 0.2765360901
C  C261  1  0.54550000  0.67630000  0.75843000  1.0 -0.1170535228
C  C262  1  0.32370000  0.45450000  0.25843000  1.0 -0.1170535228
C  C263  1  0.56260000  0.67180000  0.78459000  1.0 -0.1084467998
C  C264  1  0.32820000  0.43740000  0.28459000  1.0 -0.1084467998
C  C265  1  0.56620000  0.75500000  0.78597000  1.0 -0.0996401497
C  C266  1  0.24500000  0.43380000  0.28597000  1.0 -0.0996401497
C  C267  1  0.53600000  0.63180000  0.74598000  1.0 0.0298263258
C  C268  1  0.36820000  0.46400000  0.24598000  1.0 0.0298263258
C  C269  1  0.50324000  0.51392000  0.68908000  1.0 -0.1710350758
C  C270  1  0.48608000  0.49676000  0.18908000  1.0 -0.1710350758
C  C271  1  0.46889000  0.49189000  0.70200000  1.0 -0.0721713419
C  C272  1  0.50811000  0.53111000  0.20200000  1.0 -0.0721713419
C  C273  1  0.47167000  0.44189000  0.70287000  1.0 -0.1084467998
C  C274  1  0.55811000  0.52833000  0.20287000  1.0 -0.1084467998
C  C275  1  0.50964000  0.41188000  0.69076000  1.0 -0.0205121602
C  C276  1  0.58812000  0.49036000  0.19076000  1.0 -0.0205121602
C  C277  1  0.54350000  0.43250000  0.67729000  1.0 -0.1084467998
C  C278  1  0.56750000  0.45650000  0.17729000  1.0 -0.1084467998
C  C279  1  0.54036000  0.48266000  0.67665000  1.0 -0.0805381277
C  C280  1  0.51734000  0.45964000  0.17665000  1.0 -0.0805381277
C  C281  1  0.52370000  0.10330000  0.69350000  1.0 0.5900520289
C  C282  1  0.89670000  0.47630000  0.19350000  1.0 0.5900520289
C  C283  1  0.24037000  0.77997000  0.69190000  1.0 0.2035046124
C  C284  1  0.22003000  0.75963000  0.19190000  1.0 0.2035046124
C  C285  1  0.62240000  0.72780000  0.57040000  1.0 0.2303661683
C  C286  1  0.27220000  0.37760000  0.07040000  1.0 0.2303661683
C  C287  1  0.51382000  0.35746000  0.69207000  1.0 0.580545252
C  C288  1  0.64254000  0.48618000  0.19207000  1.0 0.580545252
C  C289  1  0.57800000  0.70940000  0.79810000  1.0 0.0693092067
C  C290  1  0.29060000  0.42200000  0.29810000  1.0 0.0693092067
C  C291  1  0.21180000  0.76820000  0.66840000  1.0 -0.2096827447
C  C292  1  0.23180000  0.78820000  0.16840000  1.0 -0.2096827447
C  C293  1  0.22870000  0.74590000  0.71540000  1.0 -0.1998005403
C  C294  1  0.25410000  0.77130000  0.21540000  1.0 -0.1998005403
C  C295  1  0.21820000  0.82940000  0.70200000  1.0 -0.1998005403
C  C296  1  0.17060000  0.78180000  0.20200000  1.0 -0.1998005403
C  C297  1  0.62940000  0.77740000  0.55950000  1.0 -0.189796126
C  C298  1  0.22260000  0.37060000  0.05950000  1.0 -0.189796126
C  C299  1  0.67450000  0.70030000  0.57720000  1.0 -0.1710350758
C  C300  1  0.29970000  0.32550000  0.07720000  1.0 -0.1710350758
C  C301  1  0.59590000  0.69930000  0.55130000  1.0 -0.2096827447
C  C302  1  0.30070000  0.40410000  0.05130000  1.0 -0.2096827447
C  C303  1  0.61240000  0.70020000  0.82230000  1.0 0.1093339124
C  C304  1  0.29980000  0.38760000  0.32230000  1.0 0.1093339124
C  C305  1  0.62780000  0.74620000  0.83220000  1.0 -0.2096827447
C  C306  1  0.25380000  0.37220000  0.33220000  1.0 -0.2096827447
C  C307  1  0.58390000  0.67850000  0.84340000  1.0 -0.1309139815
C  C308  1  0.32150000  0.41610000  0.34340000  1.0 -0.1309139815
C  C309  1  0.65970000  0.66490000  0.81760000  1.0 -0.4021780693
C  C310  1  0.33510000  0.34030000  0.31760000  1.0 -0.4021780693
C  C311  1  0.59470000  0.10210000  0.63030000  1.0 -0.2936190611
C  C312  1  0.89790000  0.40530000  0.13030000  1.0 -0.2936190611
C  C313  1  0.65670000  0.12290000  0.60150000  1.0 -0.3165785915
C  C314  1  0.87710000  0.34330000  0.10150000  1.0 -0.3165785915
C  C315  1  0.62050000  0.17930000  0.63590000  1.0 0.1698525974
C  C316  1  0.82070000  0.37950000  0.13590000  1.0 0.1698525974
C  C317  1  0.45590000  0.27150000  0.02850000  1.0 -0.1998005403
C  C318  1  0.72850000  0.54410000  0.52850000  1.0 -0.1998005403
C  C319  1  0.45320000  0.21640000  0.99060000  1.0 -0.1414901799
C  C320  1  0.78360000  0.54680000  0.49060000  1.0 -0.1414901799
C  C321  1  0.51730000  0.19470000  0.02390000  1.0 -0.189796126
C  C322  1  0.80530000  0.48270000  0.52390000  1.0 -0.189796126
C  C323  1  0.77840000  0.24260000  0.69180000  1.0 -0.0503092952
C  C324  1  0.75740000  0.22160000  0.19180000  1.0 -0.0503092952
C  C325  1  0.72840000  0.24500000  0.69290000  1.0 -0.0503092952
C  C326  1  0.75500000  0.27160000  0.19290000  1.0 -0.0503092952
C  C327  1  0.74060000  0.16500000  0.71200000  1.0 -0.0605047089
C  C328  1  0.83500000  0.25940000  0.21200000  1.0 -0.0605047089
C  C329  1  0.79040000  0.16360000  0.71110000  1.0 -0.041550636
C  C330  1  0.83640000  0.20960000  0.21110000  1.0 -0.041550636
C  C331  1  0.06770000  0.29150000  0.84380000  1.0 -0.1998005403
C  C332  1  0.70850000  0.93230000  0.34380000  1.0 -0.1998005403
C  C333  1  0.98500000  0.33960000  0.83090000  1.0 -0.2184091336
C  C334  1  0.66040000  0.01500000  0.33090000  1.0 -0.2184091336
C  C335  1  0.99790000  0.25330000  0.84820000  1.0 -0.1998005403
C  C336  1  0.74670000  0.00210000  0.34820000  1.0 -0.1998005403
C  C337  1  0.68410000  0.46330000  0.06250000  1.0 -0.0292766096
C  C338  1  0.53670000  0.31590000  0.56250000  1.0 -0.0292766096
C  C339  1  0.69560000  0.47840000  0.08720000  1.0 -0.0605047089
C  C340  1  0.52160000  0.30440000  0.58720000  1.0 -0.0605047089
C  C341  1  0.77980000  0.44740000  0.07970000  1.0 -0.041550636
C  C342  1  0.55260000  0.22020000  0.57970000  1.0 -0.041550636
C  C343  1  0.76710000  0.43170000  0.05530000  1.0 -0.0503092952
C  C344  1  0.56830000  0.23290000  0.55530000  1.0 -0.0605047089
C  C345  1  0.77720000  0.32880000  0.97920000  1.0 0.0382440532
C  C346  1  0.67120000  0.22280000  0.47920000  1.0 0.0382440532
C  C347  1  0.78360000  0.30020000  0.95540000  1.0 0.0020087988
C  C348  1  0.69980000  0.21640000  0.45540000  1.0 0.0020087988
C  C349  1  0.74560000  0.30160000  0.93570000  1.0 0.2082109282
C  C350  1  0.69840000  0.25440000  0.43570000  1.0 0.2082109282
C  C351  1  0.75490000  0.26850000  0.91430000  1.0 -0.0028299042
C  C352  1  0.73150000  0.24510000  0.41430000  1.0 -0.0028299042
C  C353  1  0.80010000  0.23730000  0.91300000  1.0 -0.2096827447
C  C354  1  0.76270000  0.19990000  0.41300000  1.0 -0.2096827447
C  C355  1  0.83770000  0.23830000  0.93150000  1.0 -0.0503092952
C  C356  1  0.76170000  0.16230000  0.43150000  1.0 -0.0503092952
C  C357  1  0.82810000  0.26910000  0.95250000  1.0 -0.1805553625
C  C358  1  0.73090000  0.17190000  0.45250000  1.0 -0.1805553625
C  C359  1  0.72030000  0.26750000  0.89300000  1.0 0.0382440532
C  C360  1  0.73250000  0.27970000  0.39300000  1.0 0.0382440532
C  C361  1  0.88720000  0.20580000  0.92730000  1.0 0.1291054301
C  C362  1  0.79420000  0.11280000  0.42730000  1.0 0.1291054301
C  C363  1  0.92160000  0.20460000  0.95040000  1.0 -0.2989686823
C  C364  1  0.79540000  0.07840000  0.45040000  1.0 -0.2989686823
C  C365  1  0.87880000  0.15320000  0.92400000  1.0 -0.468831036
C  C366  1  0.84680000  0.12120000  0.42400000  1.0 -0.468831036
C  C367  1  0.90770000  0.21990000  0.90110000  1.0 -0.1805553625
C  C368  1  0.78010000  0.09230000  0.40110000  1.0 -0.1805553625
C  C369  1  0.43470000  0.26590000  0.00090000  1.0 -0.1805553625
C  C370  1  0.73410000  0.56530000  0.50090000  1.0 -0.1805553625
C  C371  1  0.49000000  0.18640000  0.00100000  1.0 -0.1624453759
C  C372  1  0.81360000  0.51000000  0.50100000  1.0 -0.1710350758
C  C373  1  0.49060000  0.24140000  0.03860000  1.0 -0.1998005403
C  C374  1  0.75860000  0.50940000  0.53860000  1.0 -0.1998005403
C  C375  1  0.22020000  0.82020000  0.67090000  1.0 -0.2096827447
C  C376  1  0.17980000  0.77980000  0.17090000  1.0 -0.2096827447
C  C377  1  0.21730000  0.73690000  0.68480000  1.0 -0.1998005403
C  C378  1  0.26310000  0.78270000  0.18480000  1.0 -0.1998005403
C  C379  1  0.22290000  0.80050000  0.71830000  1.0 -0.2096827447
C  C380  1  0.19950000  0.77710000  0.21830000  1.0 -0.2096827447
C  C381  1  0.66590000  0.75430000  0.57170000  1.0 -0.1998005403
C  C382  1  0.24570000  0.33410000  0.07170000  1.0 -0.1998005403
C  C383  1  0.63680000  0.67660000  0.55970000  1.0 -0.189796126
C  C384  1  0.32340000  0.36320000  0.05970000  1.0 -0.189796126
C  C385  1  0.58570000  0.75430000  0.54950000  1.0 -0.1998005403
C  C386  1  0.24570000  0.41430000  0.04950000  1.0 -0.1998005403
C  C387  1  0.56840000  0.71140000  0.79960000  1.0 0.0693092067
C  C388  1  0.28860000  0.43160000  0.29960000  1.0 0.0693092067
C  C389  1  0.56630000  0.70910000  0.82970000  1.0 0.0595722357
C  C390  1  0.29090000  0.43370000  0.32970000  1.0 0.0595722357
C  C391  1  0.58530000  0.75130000  0.84200000  1.0 -0.1805553625
C  C392  1  0.24870000  0.41470000  0.34200000  1.0 -0.1805553625
C  C393  1  0.59290000  0.65910000  0.83900000  1.0 -0.1710350758
C  C394  1  0.34090000  0.40710000  0.33900000  1.0 -0.1710350758
C  C395  1  0.51410000  0.71430000  0.84010000  1.0 -0.3796673542
C  C396  1  0.28570000  0.48590000  0.34010000  1.0 -0.3796673542
C  C397  1  0.39760000  0.75820000  0.61630000  1.0 -0.1084467998
C  C398  1  0.24180000  0.60240000  0.11630000  1.0 -0.1084467998
C  C399  1  0.43360000  0.71660000  0.62290000  1.0 -0.4222669697
C  C400  1  0.28340000  0.56640000  0.12290000  1.0 -0.4222669697
C  C401  1  0.44990000  0.79950000  0.58630000  1.0 -0.0292766096
C  C402  1  0.20050000  0.55010000  0.08630000  1.0 -0.0292766096
C  C403  1  0.44570000  0.76570000  0.56560000  1.0 -0.468831036
C  C404  1  0.23430000  0.55430000  0.06560000  1.0 -0.468831036
C  C405  1  0.36560000  0.84000000  0.59850000  1.0 -0.1805553625
C  C406  1  0.16000000  0.63440000  0.09850000  1.0 -0.1805553625
C  C407  1  0.32930000  0.85010000  0.61970000  1.0 -0.3796673542
C  C408  1  0.14990000  0.67070000  0.11970000  1.0 -0.3796673542
C  C409  1  0.42840000  0.82560000  0.63280000  1.0 -0.0503092952
C  C410  1  0.17440000  0.57160000  0.13280000  1.0 -0.0503092952
C  C411  1  0.43610000  0.87850000  0.62680000  1.0 -0.4264350082
C  C412  1  0.12150000  0.56390000  0.12680000  1.0 -0.4264350082
C  C413  1  0.22288000  0.24608000  0.80556000  1.0 -0.1805553625
C  C414  1  0.75392000  0.77712000  0.30556000  1.0 -0.1805553625
C  C415  1  0.24859000  0.26859000  0.78685000  1.0 -0.0898613977
C  C416  1  0.73141000  0.75141000  0.28685000  1.0 -0.0898613977
C  C417  1  0.25297000  0.31717000  0.78792000  1.0 -0.1170535228
C  C418  1  0.68283000  0.74703000  0.28792000  1.0 -0.1170535228
C  C419  1  0.23280000  0.34560000  0.80837000  1.0 -0.0205121602
C  C420  1  0.65440000  0.76720000  0.30837000  1.0 -0.0205121602
C  C421  1  0.20632000  0.32472000  0.82695000  1.0 -0.1084467998
C  C422  1  0.67528000  0.79368000  0.32695000  1.0 -0.1084467998
C  C423  1  0.20087000  0.27647000  0.82524000  1.0 -0.0898613977
C  C424  1  0.72353000  0.79913000  0.32524000  1.0 -0.0898613977
C  C425  1  0.28800000  0.09740000  0.84610000  1.0 0.0207422723
C  C426  1  0.90260000  0.71200000  0.34610000  1.0 0.0207422723
C  C427  1  0.29820000  0.04740000  0.85570000  1.0 -0.0721713419
C  C428  1  0.95260000  0.70180000  0.35570000  1.0 -0.0721713419
C  C429  1  0.27770000  0.00970000  0.84350000  1.0 0.2998891564
C  C430  1  0.99030000  0.72230000  0.34350000  1.0 0.2998891564
C  C431  1  0.29220000  0.96140000  0.85490000  1.0 -0.0503092952
C  C432  1  0.03860000  0.70780000  0.35490000  1.0 -0.0503092952
C  C433  1  0.32200000  0.95280000  0.87750000  1.0 -0.189796126
C  C434  1  0.04720000  0.67800000  0.37750000  1.0 -0.189796126
C  C435  1  0.34080000  0.99000000  0.88940000  1.0 0.0595722357
C  C436  1  0.01000000  0.65920000  0.38940000  1.0 0.0595722357
C  C437  1  0.32840000  0.03660000  0.87810000  1.0 -0.189796126
C  C438  1  0.96340000  0.67160000  0.37810000  1.0 -0.189796126
C  C439  1  0.27540000  0.92040000  0.84370000  1.0 -0.0028299042
C  C440  1  0.07960000  0.72460000  0.34370000  1.0 -0.0028299042
C  C441  1  0.11358000  0.14018000  0.81840000  1.0 0.0207422723
C  C442  1  0.85982000  0.88642000  0.31840000  1.0 0.0207422723
C  C443  1  0.08761000  0.09901000  0.81980000  1.0 -0.0503092952
C  C444  1  0.90099000  0.91239000  0.31980000  1.0 -0.0503092952
C  C445  1  0.11134000  0.05034000  0.81620000  1.0 0.2714448804
C  C446  1  0.94966000  0.88866000  0.31620000  1.0 0.2714448804
C  C447  1  0.08219000  0.01379000  0.81770000  1.0 -0.0605047089
C  C448  1  0.98621000  0.91781000  0.31770000  1.0 -0.0605047089
C  C449  1  0.03130000  0.02670000  0.82100000  1.0 -0.189796126
C  C450  1  0.97330000  0.96870000  0.32100000  1.0 -0.189796126
C  C451  1  0.00805000  0.07445000  0.82430000  1.0 0.0693092067
C  C452  1  0.92555000  0.99195000  0.32430000  1.0 0.0693092067
C  C453  1  0.03804000  0.10924000  0.82470000  1.0 -0.1624453759
C  C454  1  0.89076000  0.96196000  0.32470000  1.0 -0.1624453759
C  C455  1  0.10010000  0.96230000  0.81410000  1.0 0.0207422723
C  C456  1  0.03770000  0.89990000  0.31410000  1.0 0.0298263258
C  C457  1  0.24023000  0.11703000  0.74876000  1.0 0.0207422723
C  C458  1  0.88297000  0.75977000  0.24876000  1.0 0.0207422723
C  C459  1  0.24578000  0.06958000  0.73636000  1.0 -0.041550636
C  C460  1  0.93042000  0.75422000  0.23636000  1.0 -0.041550636
C  C461  1  0.23484000  0.02764000  0.74993000  1.0 0.2998891564
C  C462  1  0.97236000  0.76516000  0.24993000  1.0 0.2998891564
C  C463  1  0.24173000  0.98293000  0.73570000  1.0 -0.0292766096
C  C464  1  0.01707000  0.75827000  0.23570000  1.0 -0.0292766096
C  C465  1  0.26000000  0.98200000  0.71024000  1.0 -0.2692422366
C  C466  1  0.01800000  0.74000000  0.21024000  1.0 -0.2692422366
C  C467  1  0.27070000  0.02250000  0.69706000  1.0 0.0207422723
C  C468  1  0.97750000  0.72930000  0.19706000  1.0 0.0207422723
C  C469  1  0.26280000  0.06640000  0.71039000  1.0 -0.2312344557
C  C470  1  0.93360000  0.73720000  0.21039000  1.0 -0.2312344557
C  C471  1  0.23160000  0.93780000  0.74693000  1.0 -0.0028299042
C  C472  1  0.06220000  0.76840000  0.24693000  1.0 -0.0028299042
C  C473  1  0.20087000  0.81107000  0.80001000  1.0 -0.1084467998
C  C474  1  0.18893000  0.79913000  0.30001000  1.0 -0.1084467998
C  C475  1  0.20489000  0.70889000  0.79822000  1.0 -0.0111007449
C  C476  1  0.29111000  0.79511000  0.29822000  1.0 -0.0111007449
C  C477  1  0.23790000  0.39830000  0.80998000  1.0 0.5963402742
C  C478  1  0.60170000  0.76210000  0.30998000  1.0 0.5963402742
C  C479  1  0.37370000  0.98110000  0.91410000  1.0 0.260783484
C  C480  1  0.01890000  0.62630000  0.41410000  1.0 0.260783484
C  C481  1  0.95250000  0.08850000  0.82660000  1.0 0.2714448804
C  C482  1  0.91150000  0.04750000  0.32660000  1.0 0.2714448804
C  C483  1  0.92940000  0.11780000  0.80130000  1.0 -0.4811499591
C  C484  1  0.88220000  0.07060000  0.30130000  1.0 -0.4811499591
C  C485  1  0.94010000  0.12810000  0.84580000  1.0 -0.5453562683
C  C486  1  0.87190000  0.05990000  0.34580000  1.0 -0.5453562683
C  C487  1  0.92830000  0.04450000  0.82710000  1.0 -0.4530888827
C  C488  1  0.95550000  0.07170000  0.32710000  1.0 -0.4530888827
C  C489  1  0.29090000  0.01930000  0.66918000  1.0 0.1933389062
C  C490  1  0.98070000  0.70910000  0.16918000  1.0 0.1933389062
C  C491  1  0.20791000  0.65531000  0.79630000  1.0 0.5206990296
C  C492  1  0.34469000  0.79209000  0.29630000  1.0 0.5206990296
C  C493  1  0.22750000  0.77930000  0.81910000  1.0 -0.0205121602
C  C494  1  0.22070000  0.77250000  0.31910000  1.0 -0.0205121602
C  C495  1  0.22990000  0.72930000  0.81800000  1.0 -0.041550636
C  C496  1  0.27070000  0.77010000  0.31800000  1.0 -0.0503092952
C  C497  1  0.17680000  0.73960000  0.77990000  1.0 -0.0721713419
C  C498  1  0.26040000  0.82320000  0.27990000  1.0 -0.0721713419
C  C499  1  0.17570000  0.78930000  0.78110000  1.0 -0.0605047089
C  C500  1  0.21070000  0.82430000  0.28110000  1.0 -0.0605047089
C  C501  1  0.25660000  0.04520000  0.64840000  1.0 -0.1998005403
C  C502  1  0.95480000  0.74340000  0.14840000  1.0 -0.1998005403
C  C503  1  0.33460000  0.04800000  0.66850000  1.0 -0.2184091336
C  C504  1  0.95200000  0.66540000  0.16850000  1.0 -0.2184091336
C  C505  1  0.31500000  0.96860000  0.66150000  1.0 -0.235511983
C  C506  1  0.03140000  0.68500000  0.16150000  1.0 -0.235511983
C  C507  1  0.34610000  0.00390000  0.93800000  1.0 -0.4530888827
C  C508  1  0.99610000  0.65390000  0.43800000  1.0 -0.4559953855
C  C509  1  0.39300000  0.92740000  0.91970000  1.0 -0.468831036
C  C510  1  0.07260000  0.60700000  0.41970000  1.0 -0.468831036
C  C511  1  0.41660000  0.00860000  0.91070000  1.0 -0.4559953855
C  C512  1  0.99140000  0.58340000  0.41070000  1.0 -0.4559953855
C  C513  1  0.43790000  0.71870000  0.45388000  1.0 -0.1414901799
C  C514  1  0.28130000  0.56210000  0.95388000  1.0 -0.1512770425
C  C515  1  0.46900000  0.74360000  0.40355000  1.0 -0.0292766096
C  C516  1  0.25640000  0.53100000  0.90355000  1.0 -0.0292766096
C  C517  1  0.34070000  0.61670000  0.48808000  1.0 0.0298263258
C  C518  1  0.38330000  0.65930000  0.98808000  1.0 0.0298263258
C  C519  1  0.31513000  0.58713000  0.50468000  1.0 -0.0292766096
C  C520  1  0.41287000  0.68487000  0.00468000  1.0 -0.0292766096
C  C521  1  0.31530000  0.58930000  0.53275000  1.0 0.2998891564
C  C522  1  0.41070000  0.68470000  0.03275000  1.0 0.2998891564
C  C523  1  0.28930000  0.55730000  0.54650000  1.0 -0.041550636
C  C524  1  0.44270000  0.71070000  0.04650000  1.0 -0.041550636
C  C525  1  0.26660000  0.52500000  0.53208000  1.0 -0.189796126
C  C526  1  0.47500000  0.73340000  0.03208000  1.0 -0.189796126
C  C527  1  0.26550000  0.52330000  0.50522000  1.0 0.0785931177
C  C528  1  0.47670000  0.73450000  0.00522000  1.0 0.0785931177
C  C529  1  0.29040000  0.55400000  0.49170000  1.0 -0.189796126
C  C530  1  0.44600000  0.70960000  0.99170000  1.0 -0.189796126
C  C531  1  0.28470000  0.55650000  0.57461000  1.0 0.0298263258
C  C532  1  0.44350000  0.71530000  0.07461000  1.0 0.0298263258
C  C533  1  0.49180000  0.63720000  0.53066000  1.0 0.0298263258
C  C534  1  0.36280000  0.50820000  0.03066000  1.0 0.0298263258
C  C535  1  0.49610000  0.61150000  0.55553000  1.0 -0.0503092952
C  C536  1  0.38850000  0.50390000  0.05553000  1.0 -0.0503092952
C  C537  1  0.45770000  0.61370000  0.57426000  1.0 0.2884343246
C  C538  1  0.38630000  0.54230000  0.07426000  1.0 0.2884343246
C  C539  1  0.46870000  0.58490000  0.59784000  1.0 -0.0503092952
C  C540  1  0.41510000  0.53130000  0.09784000  1.0 -0.0503092952
C  C541  1  0.51420000  0.55480000  0.60128000  1.0 -0.1805553625
C  C542  1  0.44520000  0.48580000  0.10128000  1.0 -0.1805553625
C  C543  1  0.55110000  0.55210000  0.58298000  1.0 0.0498747537
C  C544  1  0.44790000  0.44890000  0.08298000  1.0 0.0498747537
C  C545  1  0.54110000  0.58090000  0.56074000  1.0 -0.1512770425
C  C546  1  0.41910000  0.45890000  0.06074000  1.0 -0.1512770425
C  C547  1  0.43320000  0.58280000  0.61828000  1.0 0.0498747537
C  C548  1  0.41720000  0.56680000  0.11828000  1.0 0.0498747537
C  C549  1  0.29200000  0.58360000  0.66486000  1.0 -0.189796126
C  C550  1  0.41640000  0.70800000  0.16486000  1.0 -0.189796126
C  C551  1  0.32220000  0.54960000  0.68114000  1.0 -0.0721713419
C  C552  1  0.45040000  0.67780000  0.18114000  1.0 -0.0721713419
C  C553  1  0.30610000  0.53330000  0.70488000  1.0 -0.1084467998
C  C554  1  0.46670000  0.69390000  0.20488000  1.0 -0.1084467998
C  C555  1  0.25992000  0.55232000  0.71356000  1.0 -0.0205121602
C  C556  1  0.44768000  0.74008000  0.21356000  1.0 -0.0205121602
C  C557  1  0.22980000  0.58700000  0.69829000  1.0 -0.1084467998
C  C558  1  0.41300000  0.77020000  0.19829000  1.0 -0.1084467998
C  C559  1  0.24620000  0.60240000  0.67444000  1.0 -0.0898613977
C  C560  1  0.39760000  0.75380000  0.17444000  1.0 -0.0898613977
C  C561  1  0.48270000  0.75570000  0.37627000  1.0 0.5076761895
C  C562  1  0.24430000  0.51730000  0.87627000  1.0 0.5076761895
C  C563  1  0.23900000  0.48700000  0.49110000  1.0 0.2429909946
C  C564  1  0.51300000  0.76100000  0.99110000  1.0 0.2429909946
C  C565  1  0.60150000  0.52010000  0.58670000  1.0 0.2765360901
C  C566  1  0.47990000  0.39850000  0.08670000  1.0 0.2765360901
C  C567  1  0.64230000  0.55090000  0.58430000  1.0 -0.5090486354
C  C568  1  0.44910000  0.35770000  0.08430000  1.0 -0.5090486354
C  C569  1  0.60950000  0.48290000  0.56450000  1.0 -0.468831036
C  C570  1  0.51710000  0.39050000  0.06450000  1.0 -0.468831036
C  C571  1  0.60870000  0.49550000  0.61330000  1.0 -0.5090486354
C  C572  1  0.50450000  0.39130000  0.11330000  1.0 -0.5090486354
C  C573  1  0.24376000  0.53656000  0.73994000  1.0 0.5900520289
C  C574  1  0.46344000  0.75624000  0.23994000  1.0 0.5900520289
C  C575  1  0.47030000  0.77430000  0.42440000  1.0 -0.041550636
C  C576  1  0.22570000  0.52970000  0.92440000  1.0 -0.041550636
C  C577  1  0.45490000  0.76190000  0.44900000  1.0 -0.041550636
C  C578  1  0.23810000  0.54510000  0.94900000  1.0 -0.041550636
C  C579  1  0.43890000  0.68710000  0.43260000  1.0 -0.041550636
C  C580  1  0.31290000  0.56110000  0.93260000  1.0 -0.041550636
C  C581  1  0.45340000  0.69880000  0.40770000  1.0 -0.0503092952
C  C582  1  0.30120000  0.54660000  0.90770000  1.0 -0.0503092952
C  C583  1  0.35820000  0.78080000  0.52920000  1.0 0.0298263258
C  C584  1  0.21920000  0.64180000  0.02920000  1.0 0.0298263258
C  C585  1  0.33320000  0.78580000  0.55400000  1.0 -0.0111007449
C  C586  1  0.21420000  0.66680000  0.05400000  1.0 -0.0111007449
C  C587  1  0.32730000  0.74570000  0.57100000  1.0 0.260783484
C  C588  1  0.25430000  0.67270000  0.07100000  1.0 0.260783484
C  C589  1  0.30450000  0.75710000  0.59570000  1.0 -0.0292766096
C  C590  1  0.24290000  0.69550000  0.09570000  1.0 -0.0292766096
C  C591  1  0.28780000  0.80580000  0.60230000  1.0 -0.1309139815
C  C592  1  0.19420000  0.71220000  0.10230000  1.0 -0.1309139815
C  C593  1  0.29170000  0.84370000  0.58520000  1.0 0.0498747537
C  C594  1  0.15630000  0.70830000  0.08520000  1.0 0.0498747537
C  C595  1  0.31440000  0.83320000  0.56160000  1.0 -0.1309139815
C  C596  1  0.16680000  0.68560000  0.06160000  1.0 -0.1309139815
C  C597  1  0.29700000  0.72100000  0.61520000  1.0 0.0382440532
C  C598  1  0.27900000  0.70300000  0.11520000  1.0 0.0382440532
C  C599  1  0.27060000  0.89620000  0.59230000  1.0 0.0595722357
C  C600  1  0.10380000  0.72940000  0.09230000  1.0 0.0595722357
C  C601  1  0.31470000  0.92190000  0.59230000  1.0 -0.4530888827
C  C602  1  0.07810000  0.68530000  0.09230000  1.0 -0.4530888827
C  C603  1  0.23210000  0.91910000  0.57210000  1.0 -0.1710350758
C  C604  1  0.08090000  0.76790000  0.07210000  1.0 -0.1710350758
C  C605  1  0.24930000  0.89690000  0.61960000  1.0 -0.2989686823
C  C606  1  0.10310000  0.75070000  0.11960000  1.0 -0.2989686823
C  C607  1  0.95304000  0.50444000  0.80169000  1.0 -0.1805553625
C  C608  1  0.49556000  0.04696000  0.30169000  1.0 -0.1805553625
C  C609  1  0.97233000  0.53413000  0.78380000  1.0 -0.0805381277
C  C610  1  0.46587000  0.02767000  0.28380000  1.0 -0.0805381277
C  C611  1  0.02044000  0.53944000  0.78420000  1.0 -0.0996401497
C  C612  1  0.46056000  0.97956000  0.28420000  1.0 -0.1084467998
C  C613  1  0.05204000  0.51524000  0.80358000  1.0 -0.0292766096
C  C614  1  0.48476000  0.94796000  0.30358000  1.0 -0.0292766096
C  C615  1  0.03460000  0.48420000  0.82128000  1.0 -0.1084467998
C  C616  1  0.51580000  0.96540000  0.32128000  1.0 -0.1084467998
C  C617  1  0.98632000  0.47932000  0.81982000  1.0 -0.0898613977
C  C618  1  0.52068000  0.01368000  0.31982000  1.0 -0.0898613977
C  C619  1  0.84260000  0.39480000  0.80510000  1.0 0.0207422723
C  C620  1  0.60520000  0.15740000  0.30510000  1.0 0.0207422723
C  C621  1  0.79964000  0.37284000  0.80721000  1.0 -0.0605047089
C  C622  1  0.62716000  0.20036000  0.30721000  1.0 -0.0605047089
C  C623  1  0.75236000  0.40016000  0.81036000  1.0 0.2884343246
C  C624  1  0.59984000  0.24764000  0.31036000  1.0 0.2884343246
C  C625  1  0.71364000  0.37320000  0.81332000  1.0 -0.0503092952
C  C626  1  0.62680000  0.28636000  0.31332000  1.0 -0.0503092952
C  C627  1  0.72318000  0.32168000  0.81298000  1.0 -0.2798072741
C  C628  1  0.67832000  0.27682000  0.31298000  1.0 -0.2798072741
C  C629  1  0.76961000  0.29577000  0.80984000  1.0 -0.0898613977
C  C630  1  0.70423000  0.23039000  0.30984000  1.0 -0.0898613977
C  C631  1  0.80729000  0.32209000  0.80730000  1.0 -0.2798072741
C  C632  1  0.67791000  0.19271000  0.30730000  1.0 -0.2798072741
C  C633  1  0.66286000  0.39656000  0.81494000  1.0 0.0298263258
C  C634  1  0.60344000  0.33714000  0.31494000  1.0 0.0298263258
C  C635  1  0.82040000  0.55540000  0.85180000  1.0 0.0094123071
C  C636  1  0.44460000  0.17960000  0.35180000  1.0 0.0094123071
C  C637  1  0.77310000  0.56650000  0.86346000  1.0 -0.041550636
C  C638  1  0.43350000  0.22690000  0.36346000  1.0 -0.041550636
C  C639  1  0.73050000  0.55430000  0.85159000  1.0 0.2998891564
C  C640  1  0.44570000  0.26950000  0.35159000  1.0 0.2998891564
C  C641  1  0.68694000  0.56434000  0.86672000  1.0 -0.0805381277
C  C642  1  0.43566000  0.31306000  0.36672000  1.0 -0.0805381277
C  C643  1  0.68720000  0.58580000  0.89135000  1.0 -0.2184091336
C  C644  1  0.41420000  0.31280000  0.39135000  1.0 -0.2096827447
C  C645  1  0.72890000  0.59790000  0.90275000  1.0 0.0207422723
C  C646  1  0.40210000  0.27110000  0.40275000  1.0 0.0207422723
C  C647  1  0.77060000  0.58800000  0.88810000  1.0 -0.189796126
C  C648  1  0.41200000  0.22940000  0.38810000  1.0 -0.189796126
C  C649  1  0.64119000  0.55299000  0.85754000  1.0 -0.0028299042
C  C650  1  0.44701000  0.35881000  0.35754000  1.0 -0.0028299042
C  C651  1  0.81130000  0.54150000  0.75120000  1.0 0.0298263258
C  C652  1  0.45850000  0.18870000  0.25120000  1.0 0.0298263258
C  C653  1  0.76270000  0.54910000  0.73993000  1.0 -0.0996401497
C  C654  1  0.45090000  0.23730000  0.23993000  1.0 -0.0996401497
C  C655  1  0.72240000  0.53840000  0.75487000  1.0 0.2765360901
C  C656  1  0.46160000  0.27760000  0.25487000  1.0 0.2765360901
C  C657  1  0.67630000  0.54550000  0.74157000  1.0 -0.1170535228
C  C658  1  0.45450000  0.32370000  0.24157000  1.0 -0.1170535228
C  C659  1  0.67180000  0.56260000  0.71541000  1.0 -0.1084467998
C  C660  1  0.43740000  0.32820000  0.21541000  1.0 -0.1084467998
C  C661  1  0.75500000  0.56620000  0.71403000  1.0 -0.0898613977
C  C662  1  0.43380000  0.24500000  0.21403000  1.0 -0.0996401497
C  C663  1  0.63180000  0.53600000  0.75402000  1.0 0.0298263258
C  C664  1  0.46400000  0.36820000  0.25402000  1.0 0.0298263258
C  C665  1  0.51392000  0.50324000  0.81092000  1.0 -0.1710350758
C  C666  1  0.49676000  0.48608000  0.31092000  1.0 -0.1710350758
C  C667  1  0.49189000  0.46889000  0.79800000  1.0 -0.0721713419
C  C668  1  0.53111000  0.50811000  0.29800000  1.0 -0.0721713419
C  C669  1  0.44189000  0.47167000  0.79713000  1.0 -0.1084467998
C  C670  1  0.52833000  0.55811000  0.29713000  1.0 -0.1084467998
C  C671  1  0.41188000  0.50964000  0.80924000  1.0 -0.0205121602
C  C672  1  0.49036000  0.58812000  0.30924000  1.0 -0.0205121602
C  C673  1  0.43250000  0.54350000  0.82271000  1.0 -0.1084467998
C  C674  1  0.45650000  0.56750000  0.32271000  1.0 -0.1084467998
C  C675  1  0.48266000  0.54036000  0.82335000  1.0 -0.0805381277
C  C676  1  0.45964000  0.51734000  0.32335000  1.0 -0.0805381277
C  C677  1  0.10330000  0.52370000  0.80650000  1.0 0.5900520289
C  C678  1  0.47630000  0.89670000  0.30650000  1.0 0.5900520289
C  C679  1  0.77997000  0.24037000  0.80810000  1.0 0.2035046124
C  C680  1  0.75963000  0.22003000  0.30810000  1.0 0.2035046124
C  C681  1  0.72780000  0.62240000  0.92960000  1.0 0.2303661683
C  C682  1  0.37760000  0.27220000  0.42960000  1.0 0.2303661683
C  C683  1  0.35746000  0.51382000  0.80793000  1.0 0.580545252
C  C684  1  0.48618000  0.64254000  0.30793000  1.0 0.580545252
C  C685  1  0.70940000  0.57800000  0.70190000  1.0 0.0693092067
C  C686  1  0.42200000  0.29060000  0.20190000  1.0 0.0693092067
C  C687  1  0.76820000  0.21180000  0.83160000  1.0 -0.2096827447
C  C688  1  0.78820000  0.23180000  0.33160000  1.0 -0.2096827447
C  C689  1  0.74590000  0.22870000  0.78460000  1.0 -0.1998005403
C  C690  1  0.77130000  0.25410000  0.28460000  1.0 -0.1998005403
C  C691  1  0.82940000  0.21820000  0.79800000  1.0 -0.1998005403
C  C692  1  0.78180000  0.17060000  0.29800000  1.0 -0.1998005403
C  C693  1  0.77740000  0.62940000  0.94050000  1.0 -0.189796126
C  C694  1  0.37060000  0.22260000  0.44050000  1.0 -0.189796126
C  C695  1  0.70030000  0.67450000  0.92280000  1.0 -0.1710350758
C  C696  1  0.32550000  0.29970000  0.42280000  1.0 -0.1710350758
C  C697  1  0.69930000  0.59590000  0.94870000  1.0 -0.2096827447
C  C698  1  0.40410000  0.30070000  0.44870000  1.0 -0.2096827447
C  C699  1  0.70020000  0.61240000  0.67770000  1.0 0.1093339124
C  C700  1  0.38760000  0.29980000  0.17770000  1.0 0.1093339124
C  C701  1  0.74620000  0.62780000  0.66780000  1.0 -0.2096827447
C  C702  1  0.37220000  0.25380000  0.16780000  1.0 -0.2096827447
C  C703  1  0.67850000  0.58390000  0.65660000  1.0 -0.1309139815
C  C704  1  0.41610000  0.32150000  0.15660000  1.0 -0.1309139815
C  C705  1  0.66490000  0.65970000  0.68240000  1.0 -0.4021780693
C  C706  1  0.34030000  0.33510000  0.18240000  1.0 -0.4021780693
C  C707  1  0.10210000  0.59470000  0.86970000  1.0 -0.2936190611
C  C708  1  0.40530000  0.89790000  0.36970000  1.0 -0.2936190611
C  C709  1  0.12290000  0.65670000  0.89850000  1.0 -0.3165785915
C  C710  1  0.34330000  0.87710000  0.39850000  1.0 -0.3165785915
C  C711  1  0.17930000  0.62050000  0.86410000  1.0 0.1698525974
C  C712  1  0.37950000  0.82070000  0.36410000  1.0 0.1698525974
C  C713  1  0.27150000  0.45590000  0.47150000  1.0 -0.1998005403
C  C714  1  0.54410000  0.72850000  0.97150000  1.0 -0.1998005403
C  C715  1  0.21640000  0.45320000  0.50940000  1.0 -0.1414901799
C  C716  1  0.54680000  0.78360000  0.00940000  1.0 -0.1512770425
C  C717  1  0.19470000  0.51730000  0.47610000  1.0 -0.189796126
C  C718  1  0.48270000  0.80530000  0.97610000  1.0 -0.189796126
C  C719  1  0.24260000  0.77840000  0.80820000  1.0 -0.0503092952
C  C720  1  0.22160000  0.75740000  0.30820000  1.0 -0.0503092952
C  C721  1  0.24500000  0.72840000  0.80710000  1.0 -0.0503092952
C  C722  1  0.27160000  0.75500000  0.30710000  1.0 -0.0605047089
C  C723  1  0.16500000  0.74060000  0.78800000  1.0 -0.0605047089
C  C724  1  0.25940000  0.83500000  0.28800000  1.0 -0.0605047089
C  C725  1  0.16360000  0.79040000  0.78890000  1.0 -0.041550636
C  C726  1  0.20960000  0.83640000  0.28890000  1.0 -0.041550636
C  C727  1  0.29150000  0.06770000  0.65620000  1.0 -0.1998005403
C  C728  1  0.93230000  0.70850000  0.15620000  1.0 -0.1998005403
C  C729  1  0.33960000  0.98500000  0.66910000  1.0 -0.2184091336
C  C730  1  0.01500000  0.66040000  0.16910000  1.0 -0.2184091336
C  C731  1  0.25330000  0.99790000  0.65180000  1.0 -0.1998005403
C  C732  1  0.00210000  0.74670000  0.15180000  1.0 -0.1998005403
C  C733  1  0.46330000  0.68410000  0.43750000  1.0 -0.0292766096
C  C734  1  0.31590000  0.53670000  0.93750000  1.0 -0.0292766096
C  C735  1  0.47840000  0.69560000  0.41280000  1.0 -0.0605047089
C  C736  1  0.30440000  0.52160000  0.91280000  1.0 -0.0605047089
C  C737  1  0.44740000  0.77980000  0.42030000  1.0 -0.041550636
C  C738  1  0.22020000  0.55260000  0.92030000  1.0 -0.041550636
C  C739  1  0.43170000  0.76710000  0.44470000  1.0 -0.0605047089
C  C740  1  0.23290000  0.56830000  0.94470000  1.0 -0.0503092952
C  C741  1  0.32880000  0.77720000  0.52080000  1.0 0.0382440532
C  C742  1  0.22280000  0.67120000  0.02080000  1.0 0.0382440532
C  C743  1  0.30020000  0.78360000  0.54460000  1.0 0.0020087988
C  C744  1  0.21640000  0.69980000  0.04460000  1.0 0.0020087988
C  C745  1  0.30160000  0.74560000  0.56430000  1.0 0.2082109282
C  C746  1  0.25440000  0.69840000  0.06430000  1.0 0.2082109282
C  C747  1  0.26850000  0.75490000  0.58570000  1.0 -0.0028299042
C  C748  1  0.24510000  0.73150000  0.08570000  1.0 -0.0028299042
C  C749  1  0.23730000  0.80010000  0.58700000  1.0 -0.2096827447
C  C750  1  0.19990000  0.76270000  0.08700000  1.0 -0.2096827447
C  C751  1  0.23830000  0.83770000  0.56850000  1.0 -0.0503092952
C  C752  1  0.16230000  0.76170000  0.06850000  1.0 -0.0503092952
C  C753  1  0.26910000  0.82810000  0.54750000  1.0 -0.1805553625
C  C754  1  0.17190000  0.73090000  0.04750000  1.0 -0.1805553625
C  C755  1  0.26750000  0.72030000  0.60700000  1.0 0.0382440532
C  C756  1  0.27970000  0.73250000  0.10700000  1.0 0.0382440532
C  C757  1  0.20580000  0.88720000  0.57270000  1.0 0.1291054301
C  C758  1  0.11280000  0.79420000  0.07270000  1.0 0.1291054301
C  C759  1  0.20460000  0.92160000  0.54960000  1.0 -0.2989686823
C  C760  1  0.07840000  0.79540000  0.04960000  1.0 -0.2989686823
C  C761  1  0.15320000  0.87880000  0.57600000  1.0 -0.468831036
C  C762  1  0.12120000  0.84680000  0.07600000  1.0 -0.468831036
C  C763  1  0.21990000  0.90770000  0.59890000  1.0 -0.1805553625
C  C764  1  0.09230000  0.78010000  0.09890000  1.0 -0.1805553625
C  C765  1  0.26590000  0.43470000  0.49910000  1.0 -0.1805553625
C  C766  1  0.56530000  0.73410000  0.99910000  1.0 -0.1805553625
C  C767  1  0.18640000  0.49000000  0.49900000  1.0 -0.1710350758
C  C768  1  0.51000000  0.81360000  0.99900000  1.0 -0.1624453759
C  C769  1  0.24140000  0.49060000  0.46140000  1.0 -0.1998005403
C  C770  1  0.50940000  0.75860000  0.96140000  1.0 -0.1998005403
C  C771  1  0.82020000  0.22020000  0.82910000  1.0 -0.2096827447
C  C772  1  0.77980000  0.17980000  0.32910000  1.0 -0.2096827447
C  C773  1  0.73690000  0.21730000  0.81520000  1.0 -0.1998005403
C  C774  1  0.78270000  0.26310000  0.31520000  1.0 -0.1998005403
C  C775  1  0.80050000  0.22290000  0.78170000  1.0 -0.2096827447
C  C776  1  0.77710000  0.19950000  0.28170000  1.0 -0.2096827447
C  C777  1  0.75430000  0.66590000  0.92830000  1.0 -0.1998005403
C  C778  1  0.33410000  0.24570000  0.42830000  1.0 -0.1998005403
C  C779  1  0.67660000  0.63680000  0.94030000  1.0 -0.189796126
C  C780  1  0.36320000  0.32340000  0.44030000  1.0 -0.189796126
C  C781  1  0.75430000  0.58570000  0.95050000  1.0 -0.1998005403
C  C782  1  0.41430000  0.24570000  0.45050000  1.0 -0.1998005403
C  C783  1  0.71140000  0.56840000  0.70040000  1.0 0.0693092067
C  C784  1  0.43160000  0.28860000  0.20040000  1.0 0.0693092067
C  C785  1  0.70910000  0.56630000  0.67030000  1.0 0.0595722357
C  C786  1  0.43370000  0.29090000  0.17030000  1.0 0.0595722357
C  C787  1  0.75130000  0.58530000  0.65800000  1.0 -0.1805553625
C  C788  1  0.41470000  0.24870000  0.15800000  1.0 -0.1805553625
C  C789  1  0.65910000  0.59290000  0.66100000  1.0 -0.1710350758
C  C790  1  0.40710000  0.34090000  0.16100000  1.0 -0.1710350758
C  C791  1  0.71430000  0.51410000  0.65990000  1.0 -0.3796673542
C  C792  1  0.48590000  0.28570000  0.15990000  1.0 -0.3796673542
C  C793  1  0.26780000  0.63920000  0.26230000  1.0 -0.0721713419
C  C794  1  0.24220000  0.59560000  0.26070000  1.0 -0.4118400083
C  C795  1  0.34470000  0.60050000  0.25350000  1.0 -0.0996401497
C  C796  1  0.39820000  0.58660000  0.25920000  1.0 -0.4264350082
C  C797  1  0.34390000  0.67330000  0.27160000  1.0 -0.0996401497
C  C798  1  0.34650000  0.69990000  0.24720000  1.0 -0.4811499591
C  C799  1  0.33180000  0.60160000  0.30020000  1.0 -0.0605047089
C  C800  1  0.30830000  0.60750000  0.32600000  1.0 -0.4118400083
C  C801  1  0.63920000  0.26780000  0.23770000  1.0 -0.0721713419
C  C802  1  0.59560000  0.24220000  0.23930000  1.0 -0.4118400083
C  C803  1  0.60050000  0.34470000  0.24650000  1.0 -0.0996401497
C  C804  1  0.58660000  0.39820000  0.24080000  1.0 -0.4264350082
C  C805  1  0.67330000  0.34390000  0.22840000  1.0 -0.0996401497
C  C806  1  0.69990000  0.34650000  0.25280000  1.0 -0.468831036
C  C807  1  0.60160000  0.33180000  0.19980000  1.0 -0.0605047089
C  C808  1  0.60750000  0.30830000  0.17400000  1.0 -0.4118400083
C  C809  1  0.73220000  0.36080000  0.73770000  1.0 -0.0721713419
C  C810  1  0.75780000  0.40440000  0.73930000  1.0 -0.4118400083
C  C811  1  0.65530000  0.39950000  0.74650000  1.0 -0.0996401497
C  C812  1  0.60180000  0.41340000  0.74080000  1.0 -0.4264350082
C  C813  1  0.65610000  0.32670000  0.72840000  1.0 -0.0996401497
C  C814  1  0.65350000  0.30010000  0.75280000  1.0 -0.468831036
C  C815  1  0.66820000  0.39840000  0.69980000  1.0 -0.0605047089
C  C816  1  0.69170000  0.39250000  0.67400000  1.0 -0.4118400083
C  C817  1  0.36080000  0.73220000  0.76230000  1.0 -0.0721713419
C  C818  1  0.40440000  0.75780000  0.76070000  1.0 -0.4118400083
C  C819  1  0.39950000  0.65530000  0.75350000  1.0 -0.0996401497
C  C820  1  0.41340000  0.60180000  0.75920000  1.0 -0.4264350082
C  C821  1  0.32670000  0.65610000  0.77160000  1.0 -0.0996401497
C  C822  1  0.30010000  0.65350000  0.74720000  1.0 -0.468831036
C  C823  1  0.39840000  0.66820000  0.80020000  1.0 -0.0605047089
C  C824  1  0.39250000  0.69170000  0.82600000  1.0 -0.4118400083
N  N1  1  0.80600000  0.41200000  0.89260000  1.0 0.1204655201
N  N2  1  0.58800000  0.19400000  0.39260000  1.0 0.1204655201
N  N3  1  0.11508000  0.25888000  0.67229000  1.0 -0.0898613977
N  N4  1  0.74112000  0.88492000  0.17229000  1.0 -0.0898613977
N  N5  1  0.92130000  0.24350000  0.67440000  1.0 -0.041550636
N  N6  1  0.75650000  0.07870000  0.17440000  1.0 -0.041550636
N  N7  1  0.13895000  0.15795000  0.68704000  1.0 -0.0721713419
N  N8  1  0.84205000  0.86105000  0.18704000  1.0 -0.0805381277
N  N9  1  0.94443000  0.14363000  0.69160000  1.0 -0.0721713419
N  N10  1  0.85637000  0.05557000  0.19160000  1.0 -0.0721713419
N  N11  1  0.12577000  0.22937000  0.72748000  1.0 -0.0503092952
N  N12  1  0.77063000  0.87423000  0.22748000  1.0 -0.0503092952
N  N13  1  0.93060000  0.21860000  0.72976000  1.0 -0.041550636
N  N14  1  0.78140000  0.06940000  0.22976000  1.0 -0.041550636
N  N15  1  0.64610000  0.36710000  0.00412000  1.0 -0.1170535228
N  N16  1  0.63290000  0.35390000  0.50412000  1.0 -0.1170535228
N  N17  1  0.58208000  0.30248000  0.90880000  1.0 -0.0996401497
N  N18  1  0.69752000  0.41792000  0.40880000  1.0 -0.0996401497
N  N19  1  0.66360000  0.45320000  0.97851000  1.0 -0.1170535228
N  N20  1  0.54680000  0.33640000  0.47851000  1.0 -0.1084467998
N  N21  1  0.60088000  0.38828000  0.88373000  1.0 -0.0898613977
N  N22  1  0.61172000  0.39912000  0.38373000  1.0 -0.0898613977
N  N23  1  0.74040000  0.37620000  0.98070000  1.0 -0.0028299042
N  N24  1  0.62380000  0.25960000  0.48070000  1.0 -0.0028299042
N  N25  1  0.67530000  0.30930000  0.88660000  1.0 -0.0111007449
N  N26  1  0.69070000  0.32470000  0.38660000  1.0 -0.0111007449
N  N27  1  0.44015000  0.84335000  0.69460000  1.0 -0.0996401497
N  N28  1  0.15665000  0.55985000  0.19460000  1.0 -0.0996401497
N  N29  1  0.44152000  0.64558000  0.68698000  1.0 -0.0721713419
N  N30  1  0.35442000  0.55848000  0.18698000  1.0 -0.0721713419
N  N31  1  0.53340000  0.83060000  0.66957000  1.0 -0.0805381277
N  N32  1  0.16940000  0.46660000  0.16957000  1.0 -0.0805381277
N  N33  1  0.53439000  0.63199000  0.66396000  1.0 -0.0721713419
N  N34  1  0.36801000  0.46561000  0.16396000  1.0 -0.0721713419
N  N35  1  0.52590000  0.82530000  0.72597000  1.0 -0.0721713419
N  N36  1  0.17470000  0.47410000  0.22597000  1.0 -0.0721713419
N  N37  1  0.52517000  0.62797000  0.72179000  1.0 -0.0721713419
N  N38  1  0.37203000  0.47483000  0.22179000  1.0 -0.0721713419
N  N39  1  0.62490000  0.13690000  0.62300000  1.0 -0.0503092952
N  N40  1  0.86310000  0.37510000  0.12300000  1.0 -0.0503092952
N  N41  1  0.73890000  0.35830000  0.98480000  1.0 -0.0205121602
N  N42  1  0.64170000  0.26110000  0.48480000  1.0 -0.0205121602
N  N43  1  0.67930000  0.29510000  0.88980000  1.0 0.0094123071
N  N44  1  0.70490000  0.32070000  0.38980000  1.0 -0.0028299042
N  N45  1  0.41200000  0.80600000  0.60740000  1.0 0.1204655201
N  N46  1  0.19400000  0.58800000  0.10740000  1.0 0.1204655201
N  N47  1  0.25888000  0.11508000  0.82771000  1.0 -0.0898613977
N  N48  1  0.88492000  0.74112000  0.32771000  1.0 -0.0898613977
N  N49  1  0.24350000  0.92130000  0.82560000  1.0 -0.041550636
N  N50  1  0.07870000  0.75650000  0.32560000  1.0 -0.041550636
N  N51  1  0.15795000  0.13895000  0.81296000  1.0 -0.0721713419
N  N52  1  0.86105000  0.84205000  0.31296000  1.0 -0.0721713419
N  N53  1  0.14363000  0.94443000  0.80840000  1.0 -0.0721713419
N  N54  1  0.05557000  0.85637000  0.30840000  1.0 -0.0721713419
N  N55  1  0.22937000  0.12577000  0.77252000  1.0 -0.0503092952
N  N56  1  0.87423000  0.77063000  0.27252000  1.0 -0.0503092952
N  N57  1  0.21860000  0.93060000  0.77024000  1.0 -0.041550636
N  N58  1  0.06940000  0.78140000  0.27024000  1.0 -0.041550636
N  N59  1  0.36710000  0.64610000  0.49588000  1.0 -0.1170535228
N  N60  1  0.35390000  0.63290000  0.99588000  1.0 -0.1170535228
N  N61  1  0.30248000  0.58208000  0.59120000  1.0 -0.0996401497
N  N62  1  0.41792000  0.69752000  0.09120000  1.0 -0.0996401497
N  N63  1  0.45320000  0.66360000  0.52149000  1.0 -0.1170535228
N  N64  1  0.33640000  0.54680000  0.02149000  1.0 -0.1170535228
N  N65  1  0.38828000  0.60088000  0.61627000  1.0 -0.0898613977
N  N66  1  0.39912000  0.61172000  0.11627000  1.0 -0.0898613977
N  N67  1  0.37620000  0.74040000  0.51930000  1.0 -0.0111007449
N  N68  1  0.25960000  0.62380000  0.01930000  1.0 -0.0111007449
N  N69  1  0.30930000  0.67530000  0.61340000  1.0 -0.0111007449
N  N70  1  0.32470000  0.69070000  0.11340000  1.0 -0.0111007449
N  N71  1  0.84335000  0.44015000  0.80540000  1.0 -0.0996401497
N  N72  1  0.55985000  0.15665000  0.30540000  1.0 -0.0996401497
N  N73  1  0.64558000  0.44152000  0.81302000  1.0 -0.0721713419
N  N74  1  0.55848000  0.35442000  0.31302000  1.0 -0.0721713419
N  N75  1  0.83060000  0.53340000  0.83043000  1.0 -0.0805381277
N  N76  1  0.46660000  0.16940000  0.33043000  1.0 -0.0805381277
N  N77  1  0.63199000  0.53439000  0.83604000  1.0 -0.0721713419
N  N78  1  0.46561000  0.36801000  0.33604000  1.0 -0.0721713419
N  N79  1  0.82530000  0.52590000  0.77403000  1.0 -0.0721713419
N  N80  1  0.47410000  0.17470000  0.27403000  1.0 -0.0721713419
N  N81  1  0.62797000  0.52517000  0.77821000  1.0 -0.0721713419
N  N82  1  0.47483000  0.37203000  0.27821000  1.0 -0.0721713419
N  N83  1  0.13690000  0.62490000  0.87700000  1.0 -0.0503092952
N  N84  1  0.37510000  0.86310000  0.37700000  1.0 -0.0503092952
N  N85  1  0.35830000  0.73890000  0.51520000  1.0 -0.0205121602
N  N86  1  0.26110000  0.64170000  0.01520000  1.0 -0.0205121602
N  N87  1  0.29510000  0.67930000  0.61020000  1.0 -0.0028299042
N  N88  1  0.32070000  0.70490000  0.11020000  1.0 -0.0028299042
N  N89  1  0.31840000  0.62980000  0.27520000  1.0 0.1698525974
N  N90  1  0.62980000  0.31840000  0.22480000  1.0 0.1698525974
N  N91  1  0.68160000  0.37020000  0.72480000  1.0 0.1698525974
N  N92  1  0.37020000  0.68160000  0.77520000  1.0 0.1698525974
O  O1  1  0.52709000  0.22849000  0.69211000  1.0 -1.0015846735
O  O2  1  0.77151000  0.47291000  0.19211000  1.0 -1.0015846735
O  O3  1  0.61580000  0.28680000  0.64160000  1.0 -0.3796673542
O  O4  1  0.71320000  0.38420000  0.14160000  1.0 -0.3796673542
O  O5  1  0.16435000  0.25641000  0.67588000  1.0 -0.1998005403
O  O6  1  0.74359000  0.83565000  0.17588000  1.0 -0.1998005403
O  O7  1  0.87493000  0.23633000  0.67939000  1.0 -0.3702411717
O  O8  1  0.76367000  0.12507000  0.17939000  1.0 -0.3702411717
O  O9  1  0.18583000  0.16987000  0.68672000  1.0 -0.3702411717
O  O10  1  0.83013000  0.81417000  0.18672000  1.0 -0.3796673542
O  O11  1  0.89309000  0.15001000  0.69392000  1.0 -0.3796673542
O  O12  1  0.84999000  0.10691000  0.19392000  1.0 -0.3796673542
O  O13  1  0.17399000  0.22901000  0.72213000  1.0 -0.3073705878
O  O14  1  0.77099000  0.82601000  0.22213000  1.0 -0.3073705878
O  O15  1  0.88200000  0.21360000  0.72571000  1.0 -0.4021780693
O  O16  1  0.78640000  0.11800000  0.22571000  1.0 -0.4118400083
O  O17  1  0.41493000  0.26031000  0.70815000  1.0 -0.5342629856
O  O18  1  0.73969000  0.58507000  0.20815000  1.0 -0.5413906372
O  O19  1  0.42140000  0.21654000  0.67120000  1.0 -0.5413906372
O  O20  1  0.78346000  0.57860000  0.17120000  1.0 -0.5413906372
O  O21  1  0.01757000  0.25077000  0.67686000  1.0 -0.4903872481
O  O22  1  0.74923000  0.98243000  0.17686000  1.0 -0.4903872481
O  O23  1  0.04050000  0.15782000  0.68847000  1.0 -0.5197540258
O  O24  1  0.84218000  0.95950000  0.18847000  1.0 -0.5197540258
O  O25  1  0.02930000  0.21864000  0.72612000  1.0 -0.5090486354
O  O26  1  0.78136000  0.97070000  0.22612000  1.0 -0.5090486354
O  O27  1  0.62943000  0.24773000  0.69611000  1.0 -0.5197540258
O  O28  1  0.75227000  0.37057000  0.19611000  1.0 -0.5197540258
O  O29  1  0.63744000  0.17286000  0.71289000  1.0 -0.4903872481
O  O30  1  0.82714000  0.36256000  0.21289000  1.0 -0.4903872481
O  O31  1  0.66981000  0.38621000  0.02490000  1.0 -0.3924082427
O  O32  1  0.61379000  0.33019000  0.52490000  1.0 -0.4021780693
O  O33  1  0.57235000  0.29095000  0.88337000  1.0 -0.2464775017
O  O34  1  0.70905000  0.42765000  0.38337000  1.0 -0.2464775017
O  O35  1  0.68274000  0.46034000  0.00317000  1.0 -0.3796673542
O  O36  1  0.53966000  0.31726000  0.50317000  1.0 -0.3796673542
O  O37  1  0.59351000  0.36411000  0.86128000  1.0 -0.3441548691
O  O38  1  0.63589000  0.40649000  0.36128000  1.0 -0.3441548691
O  O39  1  0.79505000  0.49789000  0.12776000  1.0 -0.4811499591
O  O40  1  0.50211000  0.20495000  0.62776000  1.0 -0.4811499591
O  O41  1  0.72440000  0.48440000  0.14072000  1.0 -0.468831036
O  O42  1  0.51560000  0.27560000  0.64072000  1.0 -0.468831036
O  O43  1  0.61628000  0.34048000  0.95522000  1.0 -0.4811499591
O  O44  1  0.65952000  0.38372000  0.45522000  1.0 -0.4811499591
O  O45  1  0.64073000  0.41633000  0.92989000  1.0 -0.4903872481
O  O46  1  0.58367000  0.35927000  0.42989000  1.0 -0.4903872481
O  O47  1  0.50237000  0.27185000  0.74811000  1.0 -0.5413906372
O  O48  1  0.72815000  0.49763000  0.24811000  1.0 -0.5413906372
O  O49  1  0.55858000  0.20308000  0.75214000  1.0 -0.5413906372
O  O50  1  0.79692000  0.44142000  0.25214000  1.0 -0.5413906372
O  O51  1  0.74860000  0.39900000  0.00320000  1.0 -0.0111007449
O  O52  1  0.60100000  0.25140000  0.50320000  1.0 -0.0111007449
O  O53  1  0.65370000  0.29750000  0.86390000  1.0 -0.1414901799
O  O54  1  0.70250000  0.34630000  0.36390000  1.0 -0.1414901799
O  O55  1  0.70240000  0.34100000  0.93590000  1.0 -0.468831036
O  O56  1  0.65900000  0.29760000  0.43590000  1.0 -0.468831036
O  O57  1  0.44988000  0.89148000  0.69656000  1.0 -0.3796673542
O  O58  1  0.10852000  0.55012000  0.19656000  1.0 -0.3796673542
O  O59  1  0.45123000  0.59553000  0.68552000  1.0 -0.2989686823
O  O60  1  0.40447000  0.54877000  0.18552000  1.0 -0.2989686823
O  O61  1  0.52738000  0.88018000  0.67433000  1.0 -0.2692422366
O  O62  1  0.11982000  0.47262000  0.17433000  1.0 -0.2692422366
O  O63  1  0.53281000  0.58375000  0.66732000  1.0 -0.3475038654
O  O64  1  0.41625000  0.46719000  0.16732000  1.0 -0.3475038654
O  O65  1  0.52459000  0.87519000  0.72242000  1.0 -0.2798072741
O  O66  1  0.12481000  0.47541000  0.22242000  1.0 -0.2798072741
O  O67  1  0.52339000  0.57979000  0.71524000  1.0 -0.3475038654
O  O68  1  0.42021000  0.47661000  0.21524000  1.0 -0.3475038654
O  O69  1  0.54937000  0.11761000  0.71125000  1.0 -0.5342629856
O  O70  1  0.88239000  0.45063000  0.21125000  1.0 -0.5342629856
O  O71  1  0.50307000  0.12795000  0.67429000  1.0 -0.5413906372
O  O72  1  0.87205000  0.49693000  0.17429000  1.0 -0.5413906372
O  O73  1  0.44695000  0.74463000  0.68890000  1.0 -0.4811499591
O  O74  1  0.25537000  0.55305000  0.18890000  1.0 -0.4811499591
O  O75  1  0.53275000  0.73155000  0.67004000  1.0 -0.4559953855
O  O76  1  0.26845000  0.46725000  0.17004000  1.0 -0.4559953855
O  O77  1  0.52389000  0.72789000  0.72078000  1.0 -0.4903872481
O  O78  1  0.27211000  0.47611000  0.22078000  1.0 -0.4903872481
O  O79  1  0.47866000  0.34064000  0.70123000  1.0 -0.5197540258
O  O80  1  0.65936000  0.52134000  0.20123000  1.0 -0.5197540258
O  O81  1  0.55232000  0.33268000  0.68503000  1.0 -0.5197540258
O  O82  1  0.66732000  0.44768000  0.18503000  1.0 -0.5197540258
O  O83  1  0.59560000  0.19060000  0.65430000  1.0 -0.4118400083
O  O84  1  0.80940000  0.40440000  0.15430000  1.0 -0.4118400083
O  O85  1  0.74570000  0.38070000  0.00920000  1.0 0.0020087988
O  O86  1  0.61930000  0.25430000  0.50920000  1.0 -0.0028299042
O  O87  1  0.65260000  0.28540000  0.86790000  1.0 -0.1309139815
O  O88  1  0.71460000  0.34740000  0.36790000  1.0 -0.1309139815
O  O89  1  0.70550000  0.33230000  0.93660000  1.0 -0.3924082427
O  O90  1  0.66770000  0.29450000  0.43660000  1.0 -0.3924082427
O  O91  1  0.22849000  0.52709000  0.80789000  1.0 -1.0015846735
O  O92  1  0.47291000  0.77151000  0.30789000  1.0 -1.0015846735
O  O93  1  0.28680000  0.61580000  0.85840000  1.0 -0.3796673542
O  O94  1  0.38420000  0.71320000  0.35840000  1.0 -0.3796673542
O  O95  1  0.25641000  0.16435000  0.82412000  1.0 -0.1998005403
O  O96  1  0.83565000  0.74359000  0.32412000  1.0 -0.1998005403
O  O97  1  0.23633000  0.87493000  0.82061000  1.0 -0.3702411717
O  O98  1  0.12507000  0.76367000  0.32061000  1.0 -0.3702411717
O  O99  1  0.16987000  0.18583000  0.81328000  1.0 -0.3796673542
O  O100  1  0.81417000  0.83013000  0.31328000  1.0 -0.3796673542
O  O101  1  0.15001000  0.89309000  0.80608000  1.0 -0.3924082427
O  O102  1  0.10691000  0.84999000  0.30608000  1.0 -0.3796673542
O  O103  1  0.22901000  0.17399000  0.77787000  1.0 -0.3073705878
O  O104  1  0.82601000  0.77099000  0.27787000  1.0 -0.3073705878
O  O105  1  0.21360000  0.88200000  0.77429000  1.0 -0.4118400083
O  O106  1  0.11800000  0.78640000  0.27429000  1.0 -0.4118400083
O  O107  1  0.26031000  0.41493000  0.79185000  1.0 -0.5413906372
O  O108  1  0.58507000  0.73969000  0.29185000  1.0 -0.5413906372
O  O109  1  0.21654000  0.42140000  0.82880000  1.0 -0.5413906372
O  O110  1  0.57860000  0.78346000  0.32880000  1.0 -0.5413906372
O  O111  1  0.25077000  0.01757000  0.82314000  1.0 -0.4903872481
O  O112  1  0.98243000  0.74923000  0.32314000  1.0 -0.4903872481
O  O113  1  0.15782000  0.04050000  0.81153000  1.0 -0.5197540258
O  O114  1  0.95950000  0.84218000  0.31153000  1.0 -0.5197540258
O  O115  1  0.21864000  0.02930000  0.77388000  1.0 -0.5090486354
O  O116  1  0.97070000  0.78136000  0.27388000  1.0 -0.5197540258
O  O117  1  0.24773000  0.62943000  0.80389000  1.0 -0.5197540258
O  O118  1  0.37057000  0.75227000  0.30389000  1.0 -0.5197540258
O  O119  1  0.17286000  0.63744000  0.78711000  1.0 -0.4903872481
O  O120  1  0.36256000  0.82714000  0.28711000  1.0 -0.4903872481
O  O121  1  0.38621000  0.66981000  0.47510000  1.0 -0.3924082427
O  O122  1  0.33019000  0.61379000  0.97510000  1.0 -0.4021780693
O  O123  1  0.29095000  0.57235000  0.61663000  1.0 -0.2464775017
O  O124  1  0.42765000  0.70905000  0.11663000  1.0 -0.2464775017
O  O125  1  0.46034000  0.68274000  0.49683000  1.0 -0.3796673542
O  O126  1  0.31726000  0.53966000  0.99683000  1.0 -0.3796673542
O  O127  1  0.36411000  0.59351000  0.63872000  1.0 -0.3475038654
O  O128  1  0.40649000  0.63589000  0.13872000  1.0 -0.3475038654
O  O129  1  0.49789000  0.79505000  0.37224000  1.0 -0.4811499591
O  O130  1  0.20495000  0.50211000  0.87224000  1.0 -0.4811499591
O  O131  1  0.48440000  0.72440000  0.35928000  1.0 -0.468831036
O  O132  1  0.27560000  0.51560000  0.85928000  1.0 -0.468831036
O  O133  1  0.34048000  0.61628000  0.54478000  1.0 -0.4811499591
O  O134  1  0.38372000  0.65952000  0.04478000  1.0 -0.4811499591
O  O135  1  0.41633000  0.64073000  0.57011000  1.0 -0.4903872481
O  O136  1  0.35927000  0.58367000  0.07011000  1.0 -0.4903872481
O  O137  1  0.27185000  0.50237000  0.75189000  1.0 -0.5413906372
O  O138  1  0.49763000  0.72815000  0.25189000  1.0 -0.5413906372
O  O139  1  0.20308000  0.55858000  0.74786000  1.0 -0.5413906372
O  O140  1  0.44142000  0.79692000  0.24786000  1.0 -0.5413906372
O  O141  1  0.39900000  0.74860000  0.49680000  1.0 -0.0205121602
O  O142  1  0.25140000  0.60100000  0.99680000  1.0 -0.0111007449
O  O143  1  0.29750000  0.65370000  0.63610000  1.0 -0.1414901799
O  O144  1  0.34630000  0.70250000  0.13610000  1.0 -0.1414901799
O  O145  1  0.34100000  0.70240000  0.56410000  1.0 -0.468831036
O  O146  1  0.29760000  0.65900000  0.06410000  1.0 -0.468831036
O  O147  1  0.89148000  0.44988000  0.80344000  1.0 -0.3924082427
O  O148  1  0.55012000  0.10852000  0.30344000  1.0 -0.3796673542
O  O149  1  0.59553000  0.45123000  0.81448000  1.0 -0.3073705878
O  O150  1  0.54877000  0.40447000  0.31448000  1.0 -0.3073705878
O  O151  1  0.88018000  0.52738000  0.82567000  1.0 -0.2692422366
O  O152  1  0.47262000  0.11982000  0.32567000  1.0 -0.2692422366
O  O153  1  0.58375000  0.53281000  0.83268000  1.0 -0.3475038654
O  O154  1  0.46719000  0.41625000  0.33268000  1.0 -0.3441548691
O  O155  1  0.87519000  0.52459000  0.77758000  1.0 -0.2798072741
O  O156  1  0.47541000  0.12481000  0.27758000  1.0 -0.2798072741
O  O157  1  0.57979000  0.52339000  0.78476000  1.0 -0.3475038654
O  O158  1  0.47661000  0.42021000  0.28476000  1.0 -0.3475038654
O  O159  1  0.11761000  0.54937000  0.78875000  1.0 -0.5342629856
O  O160  1  0.45063000  0.88239000  0.28875000  1.0 -0.5342629856
O  O161  1  0.12795000  0.50307000  0.82571000  1.0 -0.5413906372
O  O162  1  0.49693000  0.87205000  0.32571000  1.0 -0.5413906372
O  O163  1  0.74463000  0.44695000  0.81110000  1.0 -0.4811499591
O  O164  1  0.55305000  0.25537000  0.31110000  1.0 -0.4811499591
O  O165  1  0.73155000  0.53275000  0.82996000  1.0 -0.4530888827
O  O166  1  0.46725000  0.26845000  0.32996000  1.0 -0.4530888827
O  O167  1  0.72789000  0.52389000  0.77922000  1.0 -0.4903872481
O  O168  1  0.47611000  0.27211000  0.27922000  1.0 -0.4903872481
O  O169  1  0.34064000  0.47866000  0.79877000  1.0 -0.5197540258
O  O170  1  0.52134000  0.65936000  0.29877000  1.0 -0.5197540258
O  O171  1  0.33268000  0.55232000  0.81497000  1.0 -0.5197540258
O  O172  1  0.44768000  0.66732000  0.31497000  1.0 -0.5197540258
O  O173  1  0.19060000  0.59560000  0.84570000  1.0 -0.4118400083
O  O174  1  0.40440000  0.80940000  0.34570000  1.0 -0.4118400083
O  O175  1  0.38070000  0.74570000  0.49080000  1.0 0.0020087988
O  O176  1  0.25430000  0.61930000  0.99080000  1.0 -0.0028299042
O  O177  1  0.28540000  0.65260000  0.63210000  1.0 -0.1309139815
O  O178  1  0.34740000  0.71460000  0.13210000  1.0 -0.1309139815
O  O179  1  0.33230000  0.70550000  0.56340000  1.0 -0.3924082427
O  O180  1  0.29450000  0.66770000  0.06340000  1.0 -0.3924082427
