# DDEC6 charges by PACMAN v1.1 (https://github.com/mtap-research/PACMAN-charge/)
data_OKUKOW_ASR_pacman
_symmetry_space_group_name_H-M   'P 1'
_cell_length_a   29.42480000
_cell_length_b   29.42480000
_cell_length_c   34.54700000
_cell_angle_alpha   72.40720000
_cell_angle_beta   107.59300000
_cell_angle_gamma   87.90430000
_symmetry_Int_Tables_number   1
_chemical_formula_structural   Zn8B4H64C114Br4N12O31
_chemical_formula_sum   'Zn32 B16 H256 C456 Br16 N48 O124'
_cell_volume   26908.14801156
_cell_formula_units_Z   4
loop_
 _symmetry_equiv_pos_site_id
 _symmetry_equiv_pos_as_xyz
  1  'x, y, z'
loop_
 _atom_site_type_symbol
 _atom_site_label
 _atom_site_symmetry_multiplicity
 _atom_site_fract_x
 _atom_site_fract_y
 _atom_site_fract_z
 _atom_site_occupancy
 _atom_site_charge
Zn  Zn1  1  0.09210000  0.08462000  0.63000000  1.0 0.7013468875
Zn  Zn2  1  0.91538000  0.90790000  0.13000000  1.0 0.7013468875
Zn  Zn3  1  0.18383000  0.08603000  0.61157000  1.0 0.7013468875
Zn  Zn4  1  0.91397000  0.81617000  0.11157000  1.0 0.7013468875
Zn  Zn5  1  0.34614000  0.39134000  0.07873000  1.0 0.7013468875
Zn  Zn6  1  0.60866000  0.65386000  0.57873000  1.0 0.7013468875
Zn  Zn7  1  0.43575000  0.39617000  0.05561000  1.0 0.7013468875
Zn  Zn8  1  0.60383000  0.56425000  0.55561000  1.0 0.7013468875
Zn  Zn9  1  0.42619000  0.93151000  0.05412000  1.0 0.9304843268
Zn  Zn10  1  0.06849000  0.57381000  0.55412000  1.0 0.9304843268
Zn  Zn11  1  0.36153000  0.84751000  0.06353000  1.0 0.9592899404
Zn  Zn12  1  0.15249000  0.63847000  0.56353000  1.0 0.9592899404
Zn  Zn13  1  0.47197000  0.83321000  0.12691000  1.0 0.9772940001
Zn  Zn14  1  0.16679000  0.52803000  0.62691000  1.0 0.9772940001
Zn  Zn15  1  0.38923000  0.90067000  0.13393000  1.0 0.9364673367
Zn  Zn16  1  0.09933000  0.61077000  0.63393000  1.0 0.9364673367
Zn  Zn17  1  0.08462000  0.09210000  0.87000000  1.0 0.7013468875
Zn  Zn18  1  0.90790000  0.91538000  0.37000000  1.0 0.7013468875
Zn  Zn19  1  0.08603000  0.18383000  0.88843000  1.0 0.7013468875
Zn  Zn20  1  0.81617000  0.91397000  0.38843000  1.0 0.7013468875
Zn  Zn21  1  0.39134000  0.34614000  0.42127000  1.0 0.7013468875
Zn  Zn22  1  0.65386000  0.60866000  0.92127000  1.0 0.7013468875
Zn  Zn23  1  0.39617000  0.43575000  0.44439000  1.0 0.7013468875
Zn  Zn24  1  0.56425000  0.60383000  0.94439000  1.0 0.7013468875
Zn  Zn25  1  0.93151000  0.42619000  0.44588000  1.0 0.9304843268
Zn  Zn26  1  0.57381000  0.06849000  0.94588000  1.0 0.9304843268
Zn  Zn27  1  0.84751000  0.36153000  0.43647000  1.0 0.9592899404
Zn  Zn28  1  0.63847000  0.15249000  0.93647000  1.0 0.9592899404
Zn  Zn29  1  0.83321000  0.47197000  0.37309000  1.0 0.9772940001
Zn  Zn30  1  0.52803000  0.16679000  0.87309000  1.0 0.9772940001
Zn  Zn31  1  0.90067000  0.38923000  0.36607000  1.0 0.9364673367
Zn  Zn32  1  0.61077000  0.09933000  0.86607000  1.0 0.9364673367
B  B1  1  0.52980000  0.40500000  0.03110000  1.0 0.6515725574
B  B2  1  0.59500000  0.47020000  0.53110000  1.0 0.6515725574
B  B3  1  0.25260000  0.38640000  0.10220000  1.0 0.6700258351
B  B4  1  0.61360000  0.74740000  0.60220000  1.0 0.6700258351
B  B5  1  0.99590000  0.08690000  0.65140000  1.0 0.6515725574
B  B6  1  0.91310000  0.00410000  0.15140000  1.0 0.6515725574
B  B7  1  0.28140000  0.08940000  0.59340000  1.0 0.6700258351
B  B8  1  0.91060000  0.71860000  0.09340000  1.0 0.6700258351
B  B9  1  0.40500000  0.52980000  0.46890000  1.0 0.6515725574
B  B10  1  0.47020000  0.59500000  0.96890000  1.0 0.6515725574
B  B11  1  0.38640000  0.25260000  0.39780000  1.0 0.6700258351
B  B12  1  0.74740000  0.61360000  0.89780000  1.0 0.6700258351
B  B13  1  0.08690000  0.99590000  0.84860000  1.0 0.6515725574
B  B14  1  0.00410000  0.91310000  0.34860000  1.0 0.6515725574
B  B15  1  0.08940000  0.28140000  0.90660000  1.0 0.6700258351
B  B16  1  0.71860000  0.91060000  0.40660000  1.0 0.6700258351
H  H1  1  0.59130000  0.33570000  0.02240000  1.0 0.1206700022
H  H2  1  0.66430000  0.40870000  0.52240000  1.0 0.1206700022
H  H3  1  0.66140000  0.34020000  0.00460000  1.0 0.1278260017
H  H4  1  0.65980000  0.33860000  0.50460000  1.0 0.1278260017
H  H5  1  0.64910000  0.48150000  0.98930000  1.0 0.1206700022
H  H6  1  0.51850000  0.35090000  0.48930000  1.0 0.1206700022
H  H7  1  0.58070000  0.47710000  0.00830000  1.0 0.1114008703
H  H8  1  0.52290000  0.41930000  0.50830000  1.0 0.1114008703
H  H9  1  0.51110000  0.27070000  0.07730000  1.0 0.1206700022
H  H10  1  0.72930000  0.48890000  0.57730000  1.0 0.1206700022
H  H11  1  0.35020000  0.19840000  0.11650000  1.0 0.1114008703
H  H12  1  0.80160000  0.64980000  0.61650000  1.0 0.1114008703
H  H13  1  0.47240000  0.20480000  0.08620000  1.0 0.1114008703
H  H14  1  0.79520000  0.52760000  0.58620000  1.0 0.1114008703
H  H15  1  0.30640000  0.26400000  0.11760000  1.0 0.1206700022
H  H16  1  0.73600000  0.69360000  0.61760000  1.0 0.1206700022
H  H17  1  0.42060000  0.44660000  0.93240000  1.0 0.1114008703
H  H18  1  0.55340000  0.57940000  0.43240000  1.0 0.1114008703
H  H19  1  0.22360000  0.47300000  0.91340000  1.0 0.1114008703
H  H20  1  0.52700000  0.77640000  0.41340000  1.0 0.1114008703
H  H21  1  0.34530000  0.47190000  0.88220000  1.0 0.1114008703
H  H22  1  0.52810000  0.65470000  0.38220000  1.0 0.1114008703
H  H23  1  0.22300000  0.44420000  0.98350000  1.0 0.1114008703
H  H24  1  0.55580000  0.77700000  0.48350000  1.0 0.1114008703
H  H25  1  0.51790000  0.48970000  0.08660000  1.0 0.1114008703
H  H26  1  0.51030000  0.48210000  0.58660000  1.0 0.1114008703
H  H27  1  0.36230000  0.54170000  0.13550000  1.0 0.1114008703
H  H28  1  0.45830000  0.63770000  0.63550000  1.0 0.1114008703
H  H29  1  0.48460000  0.54860000  0.10540000  1.0 0.1206700022
H  H30  1  0.45140000  0.51540000  0.60540000  1.0 0.1206700022
H  H31  1  0.32180000  0.47640000  0.13980000  1.0 0.1206700022
H  H32  1  0.52360000  0.67820000  0.63980000  1.0 0.1206700022
H  H33  1  0.23300000  0.37700000  0.17760000  1.0 0.1206700022
H  H34  1  0.62300000  0.76700000  0.67760000  1.0 0.1206700022
H  H35  1  0.16320000  0.37160000  0.19520000  1.0 0.1206700022
H  H36  1  0.62840000  0.83680000  0.69520000  1.0 0.1278260017
H  H37  1  0.08950000  0.37370000  0.07580000  1.0 0.1114008703
H  H38  1  0.62630000  0.91050000  0.57580000  1.0 0.1114008703
H  H39  1  0.15860000  0.38480000  0.05730000  1.0 0.1114008703
H  H40  1  0.61520000  0.84140000  0.55730000  1.0 0.1114008703
H  H41  1  0.42790000  0.15510000  0.04610000  1.0 0.1206700022
H  H42  1  0.84490000  0.57210000  0.54610000  1.0 0.1206700022
H  H43  1  0.42240000  0.07760000  0.04270000  1.0 0.1206700022
H  H44  1  0.92240000  0.57760000  0.54270000  1.0 0.1206700022
H  H45  1  0.39650000  0.03670000  0.15590000  1.0 0.1278260017
H  H46  1  0.96330000  0.60350000  0.65590000  1.0 0.1278260017
H  H47  1  0.39600000  0.11500000  0.15670000  1.0 0.1206700022
H  H48  1  0.88500000  0.60400000  0.65670000  1.0 0.1206700022
H  H49  1  0.29880000  0.46580000  0.82280000  1.0 0.1206700022
H  H50  1  0.53420000  0.70120000  0.32280000  1.0 0.1206700022
H  H51  1  0.25340000  0.49400000  0.75030000  1.0 0.1278260017
H  H52  1  0.50600000  0.74660000  0.25030000  1.0 0.1278260017
H  H53  1  0.15240000  0.56440000  0.77730000  1.0 0.1206700022
H  H54  1  0.43560000  0.84760000  0.27730000  1.0 0.1206700022
H  H55  1  0.19560000  0.53140000  0.85050000  1.0 0.1278260017
H  H56  1  0.46860000  0.80440000  0.35050000  1.0 0.1278260017
H  H57  1  0.35010000  0.62110000  0.09800000  1.0 0.1206700022
H  H58  1  0.37890000  0.64990000  0.59800000  1.0 0.1206700022
H  H59  1  0.34910000  0.70250000  0.08920000  1.0 0.1278260017
H  H60  1  0.29750000  0.65090000  0.58920000  1.0 0.1278260017
H  H61  1  0.49500000  0.68300000  0.13700000  1.0 0.1278260017
H  H62  1  0.31700000  0.50500000  0.63700000  1.0 0.1206700022
H  H63  1  0.49510000  0.60170000  0.14410000  1.0 0.1206700022
H  H64  1  0.39830000  0.50490000  0.64410000  1.0 0.1206700022
H  H65  1  0.95830000  0.01710000  0.70200000  1.0 0.1206700022
H  H66  1  0.98290000  0.04170000  0.20200000  1.0 0.1206700022
H  H67  1  0.88580000  0.01540000  0.71480000  1.0 0.1206700022
H  H68  1  0.98460000  0.11420000  0.21480000  1.0 0.1206700022
H  H69  1  0.83740000  0.14660000  0.62620000  1.0 0.1114008703
H  H70  1  0.85340000  0.16260000  0.12620000  1.0 0.1114008703
H  H71  1  0.91140000  0.14980000  0.61600000  1.0 0.1114008703
H  H72  1  0.85020000  0.08860000  0.11600000  1.0 0.1114008703
H  H73  1  0.01270000  0.98570000  0.60200000  1.0 0.1206700022
H  H74  1  0.01430000  0.98730000  0.10200000  1.0 0.1206700022
H  H75  1  0.18250000  0.91690000  0.58280000  1.0 0.1114008703
H  H76  1  0.08310000  0.81750000  0.08280000  1.0 0.1114008703
H  H77  1  0.05600000  0.91740000  0.60390000  1.0 0.1114008703
H  H78  1  0.08260000  0.94400000  0.10390000  1.0 0.1114008703
H  H79  1  0.22390000  0.98230000  0.57540000  1.0 0.1206700022
H  H80  1  0.01770000  0.77610000  0.07540000  1.0 0.1206700022
H  H81  1  0.10000000  0.03280000  0.75310000  1.0 0.1114008703
H  H82  1  0.96720000  0.90000000  0.25310000  1.0 0.1114008703
H  H83  1  0.29910000  0.01630000  0.77870000  1.0 0.1114008703
H  H84  1  0.98370000  0.70090000  0.27870000  1.0 0.1114008703
H  H85  1  0.17450000  0.00470000  0.80400000  1.0 0.1206700022
H  H86  1  0.99530000  0.82550000  0.30400000  1.0 0.1206700022
H  H87  1  0.30400000  0.04740000  0.71070000  1.0 0.1206700022
H  H88  1  0.95260000  0.69600000  0.21070000  1.0 0.1206700022
H  H89  1  0.01430000  0.21010000  0.59830000  1.0 0.1114008703
H  H90  1  0.78990000  0.98570000  0.09830000  1.0 0.1114008703
H  H91  1  0.17510000  0.27750000  0.55500000  1.0 0.1114008703
H  H92  1  0.72250000  0.82490000  0.05500000  1.0 0.1114008703
H  H93  1  0.05030000  0.27750000  0.58020000  1.0 0.1206700022
H  H94  1  0.72250000  0.94970000  0.08020000  1.0 0.1114008703
H  H95  1  0.21580000  0.21080000  0.55320000  1.0 0.1206700022
H  H96  1  0.78920000  0.78420000  0.05320000  1.0 0.1206700022
H  H97  1  0.37680000  0.05660000  0.64520000  1.0 0.1206700022
H  H98  1  0.94340000  0.62320000  0.14520000  1.0 0.1206700022
H  H99  1  0.30550000  0.12750000  0.52100000  1.0 0.1206700022
H  H100  1  0.87250000  0.69450000  0.02100000  1.0 0.1206700022
H  H101  1  0.44990000  0.06750000  0.63320000  1.0 0.1206700022
H  H102  1  0.93250000  0.55010000  0.13320000  1.0 0.1206700022
H  H103  1  0.37750000  0.13670000  0.50780000  1.0 0.1278260017
H  H104  1  0.86330000  0.62250000  0.00780000  1.0 0.1206700022
H  H105  1  0.07130000  0.83990000  0.62800000  1.0 0.1206700022
H  H106  1  0.16010000  0.92870000  0.12800000  1.0 0.1206700022
H  H107  1  0.07360000  0.75980000  0.63290000  1.0 0.1278260017
H  H108  1  0.24020000  0.92640000  0.13290000  1.0 0.1278260017
H  H109  1  0.17010000  0.77570000  0.56970000  1.0 0.1278260017
H  H110  1  0.22430000  0.82990000  0.06970000  1.0 0.1278260017
H  H111  1  0.16760000  0.85600000  0.56460000  1.0 0.1206700022
H  H112  1  0.14400000  0.83240000  0.06460000  1.0 0.1206700022
H  H113  1  0.22190000  0.93610000  0.85950000  1.0 0.1206700022
H  H114  1  0.06390000  0.77810000  0.35950000  1.0 0.1206700022
H  H115  1  0.26550000  0.90050000  0.93210000  1.0 0.1278260017
H  H116  1  0.09950000  0.73450000  0.43210000  1.0 0.1278260017
H  H117  1  0.36680000  0.98840000  0.91790000  1.0 0.1206700022
H  H118  1  0.01160000  0.63320000  0.41790000  1.0 0.1206700022
H  H119  1  0.32400000  0.02240000  0.84500000  1.0 0.1206700022
H  H120  1  0.97760000  0.67600000  0.34500000  1.0 0.1206700022
H  H121  1  0.18320000  0.33640000  0.58900000  1.0 0.1206700022
H  H122  1  0.66360000  0.81680000  0.08900000  1.0 0.1206700022
H  H123  1  0.18030000  0.41570000  0.58720000  1.0 0.1206700022
H  H124  1  0.58430000  0.81970000  0.08720000  1.0 0.1206700022
H  H125  1  0.03600000  0.43780000  0.52980000  1.0 0.1278260017
H  H126  1  0.56220000  0.96400000  0.02980000  1.0 0.1278260017
H  H127  1  0.03900000  0.35920000  0.52950000  1.0 0.1206700022
H  H128  1  0.64080000  0.96100000  0.02950000  1.0 0.1206700022
H  H129  1  0.33570000  0.59130000  0.47760000  1.0 0.1206700022
H  H130  1  0.40870000  0.66430000  0.97760000  1.0 0.1206700022
H  H131  1  0.34020000  0.66140000  0.49540000  1.0 0.1278260017
H  H132  1  0.33860000  0.65980000  0.99540000  1.0 0.1278260017
H  H133  1  0.48150000  0.64910000  0.51070000  1.0 0.1206700022
H  H134  1  0.35090000  0.51850000  0.01070000  1.0 0.1206700022
H  H135  1  0.47710000  0.58070000  0.49170000  1.0 0.1114008703
H  H136  1  0.41930000  0.52290000  0.99170000  1.0 0.1114008703
H  H137  1  0.27070000  0.51110000  0.42270000  1.0 0.1206700022
H  H138  1  0.48890000  0.72930000  0.92270000  1.0 0.1206700022
H  H139  1  0.19840000  0.35020000  0.38350000  1.0 0.1114008703
H  H140  1  0.64980000  0.80160000  0.88350000  1.0 0.1114008703
H  H141  1  0.20480000  0.47240000  0.41380000  1.0 0.1114008703
H  H142  1  0.52760000  0.79520000  0.91380000  1.0 0.1114008703
H  H143  1  0.26400000  0.30640000  0.38240000  1.0 0.1206700022
H  H144  1  0.69360000  0.73600000  0.88240000  1.0 0.1206700022
H  H145  1  0.44660000  0.42060000  0.56760000  1.0 0.1114008703
H  H146  1  0.57940000  0.55340000  0.06760000  1.0 0.1114008703
H  H147  1  0.47300000  0.22360000  0.58660000  1.0 0.1114008703
H  H148  1  0.77640000  0.52700000  0.08660000  1.0 0.1114008703
H  H149  1  0.47190000  0.34530000  0.61780000  1.0 0.1114008703
H  H150  1  0.65470000  0.52810000  0.11780000  1.0 0.1114008703
H  H151  1  0.44420000  0.22300000  0.51650000  1.0 0.1114008703
H  H152  1  0.77700000  0.55580000  0.01650000  1.0 0.1114008703
H  H153  1  0.48970000  0.51790000  0.41340000  1.0 0.1114008703
H  H154  1  0.48210000  0.51030000  0.91340000  1.0 0.1114008703
H  H155  1  0.54170000  0.36230000  0.36450000  1.0 0.1114008703
H  H156  1  0.63770000  0.45830000  0.86450000  1.0 0.1114008703
H  H157  1  0.54860000  0.48460000  0.39460000  1.0 0.1206700022
H  H158  1  0.51540000  0.45140000  0.89460000  1.0 0.1206700022
H  H159  1  0.47640000  0.32180000  0.36020000  1.0 0.1206700022
H  H160  1  0.67820000  0.52360000  0.86020000  1.0 0.1206700022
H  H161  1  0.37700000  0.23300000  0.32240000  1.0 0.1206700022
H  H162  1  0.76700000  0.62300000  0.82240000  1.0 0.1206700022
H  H163  1  0.37160000  0.16320000  0.30480000  1.0 0.1206700022
H  H164  1  0.83680000  0.62840000  0.80480000  1.0 0.1206700022
H  H165  1  0.37370000  0.08950000  0.42420000  1.0 0.1114008703
H  H166  1  0.91050000  0.62630000  0.92420000  1.0 0.1114008703
H  H167  1  0.38480000  0.15860000  0.44270000  1.0 0.1114008703
H  H168  1  0.84140000  0.61520000  0.94270000  1.0 0.1114008703
H  H169  1  0.15510000  0.42790000  0.45390000  1.0 0.1206700022
H  H170  1  0.57210000  0.84490000  0.95390000  1.0 0.1206700022
H  H171  1  0.07760000  0.42240000  0.45730000  1.0 0.1206700022
H  H172  1  0.57760000  0.92240000  0.95730000  1.0 0.1206700022
H  H173  1  0.03670000  0.39650000  0.34410000  1.0 0.1278260017
H  H174  1  0.60350000  0.96330000  0.84410000  1.0 0.1278260017
H  H175  1  0.11500000  0.39600000  0.34330000  1.0 0.1206700022
H  H176  1  0.60400000  0.88500000  0.84330000  1.0 0.1206700022
H  H177  1  0.46580000  0.29880000  0.67720000  1.0 0.1206700022
H  H178  1  0.70120000  0.53420000  0.17720000  1.0 0.1206700022
H  H179  1  0.49400000  0.25340000  0.74970000  1.0 0.1278260017
H  H180  1  0.74660000  0.50600000  0.24970000  1.0 0.1278260017
H  H181  1  0.56440000  0.15240000  0.72270000  1.0 0.1206700022
H  H182  1  0.84760000  0.43560000  0.22270000  1.0 0.1206700022
H  H183  1  0.53140000  0.19560000  0.64950000  1.0 0.1278260017
H  H184  1  0.80440000  0.46860000  0.14950000  1.0 0.1278260017
H  H185  1  0.62110000  0.35010000  0.40200000  1.0 0.1206700022
H  H186  1  0.64990000  0.37890000  0.90200000  1.0 0.1206700022
H  H187  1  0.70250000  0.34910000  0.41080000  1.0 0.1278260017
H  H188  1  0.65090000  0.29750000  0.91080000  1.0 0.1278260017
H  H189  1  0.68300000  0.49500000  0.36300000  1.0 0.1278260017
H  H190  1  0.50500000  0.31700000  0.86300000  1.0 0.1206700022
H  H191  1  0.60170000  0.49510000  0.35590000  1.0 0.1206700022
H  H192  1  0.50490000  0.39830000  0.85590000  1.0 0.1206700022
H  H193  1  0.01710000  0.95830000  0.79800000  1.0 0.1206700022
H  H194  1  0.04170000  0.98290000  0.29800000  1.0 0.1206700022
H  H195  1  0.01540000  0.88580000  0.78520000  1.0 0.1206700022
H  H196  1  0.11420000  0.98460000  0.28520000  1.0 0.1206700022
H  H197  1  0.14660000  0.83740000  0.87380000  1.0 0.1114008703
H  H198  1  0.16260000  0.85340000  0.37380000  1.0 0.1114008703
H  H199  1  0.14980000  0.91140000  0.88400000  1.0 0.1114008703
H  H200  1  0.08860000  0.85020000  0.38400000  1.0 0.1114008703
H  H201  1  0.98570000  0.01270000  0.89800000  1.0 0.1206700022
H  H202  1  0.98730000  0.01430000  0.39800000  1.0 0.1206700022
H  H203  1  0.91690000  0.18250000  0.91720000  1.0 0.1114008703
H  H204  1  0.81750000  0.08310000  0.41720000  1.0 0.1114008703
H  H205  1  0.91740000  0.05600000  0.89610000  1.0 0.1114008703
H  H206  1  0.94400000  0.08260000  0.39610000  1.0 0.1114008703
H  H207  1  0.98230000  0.22390000  0.92460000  1.0 0.1206700022
H  H208  1  0.77610000  0.01770000  0.42460000  1.0 0.1206700022
H  H209  1  0.03280000  0.10000000  0.74690000  1.0 0.1114008703
H  H210  1  0.90000000  0.96720000  0.24690000  1.0 0.1114008703
H  H211  1  0.01630000  0.29910000  0.72130000  1.0 0.1114008703
H  H212  1  0.70090000  0.98370000  0.22130000  1.0 0.1114008703
H  H213  1  0.00470000  0.17450000  0.69600000  1.0 0.1206700022
H  H214  1  0.82550000  0.99530000  0.19600000  1.0 0.1206700022
H  H215  1  0.04740000  0.30400000  0.78930000  1.0 0.1206700022
H  H216  1  0.69600000  0.95260000  0.28930000  1.0 0.1206700022
H  H217  1  0.21010000  0.01430000  0.90170000  1.0 0.1114008703
H  H218  1  0.98570000  0.78990000  0.40170000  1.0 0.1114008703
H  H219  1  0.27750000  0.17510000  0.94500000  1.0 0.1114008703
H  H220  1  0.82490000  0.72250000  0.44500000  1.0 0.1114008703
H  H221  1  0.27750000  0.05030000  0.91980000  1.0 0.1114008703
H  H222  1  0.94970000  0.72250000  0.41980000  1.0 0.1114008703
H  H223  1  0.21080000  0.21580000  0.94680000  1.0 0.1206700022
H  H224  1  0.78420000  0.78920000  0.44680000  1.0 0.1206700022
H  H225  1  0.05660000  0.37680000  0.85480000  1.0 0.1206700022
H  H226  1  0.62320000  0.94340000  0.35480000  1.0 0.1206700022
H  H227  1  0.12750000  0.30550000  0.97900000  1.0 0.1206700022
H  H228  1  0.69450000  0.87250000  0.47900000  1.0 0.1206700022
H  H229  1  0.06750000  0.44990000  0.86680000  1.0 0.1206700022
H  H230  1  0.55010000  0.93250000  0.36680000  1.0 0.1206700022
H  H231  1  0.13670000  0.37750000  0.99220000  1.0 0.1278260017
H  H232  1  0.62250000  0.86330000  0.49220000  1.0 0.1278260017
H  H233  1  0.83990000  0.07130000  0.87200000  1.0 0.1206700022
H  H234  1  0.92870000  0.16010000  0.37200000  1.0 0.1206700022
H  H235  1  0.75980000  0.07360000  0.86710000  1.0 0.1278260017
H  H236  1  0.92640000  0.24020000  0.36710000  1.0 0.1278260017
H  H237  1  0.77570000  0.17010000  0.93030000  1.0 0.1278260017
H  H238  1  0.82990000  0.22430000  0.43030000  1.0 0.1278260017
H  H239  1  0.85600000  0.16760000  0.93540000  1.0 0.1206700022
H  H240  1  0.83240000  0.14400000  0.43540000  1.0 0.1206700022
H  H241  1  0.93610000  0.22190000  0.64050000  1.0 0.1206700022
H  H242  1  0.77810000  0.06390000  0.14050000  1.0 0.1206700022
H  H243  1  0.90050000  0.26550000  0.56790000  1.0 0.1278260017
H  H244  1  0.73450000  0.09950000  0.06790000  1.0 0.1278260017
H  H245  1  0.98840000  0.36680000  0.58210000  1.0 0.1206700022
H  H246  1  0.63320000  0.01160000  0.08210000  1.0 0.1206700022
H  H247  1  0.02240000  0.32400000  0.65500000  1.0 0.1206700022
H  H248  1  0.67600000  0.97760000  0.15500000  1.0 0.1206700022
H  H249  1  0.33640000  0.18320000  0.91100000  1.0 0.1206700022
H  H250  1  0.81680000  0.66360000  0.41100000  1.0 0.1206700022
H  H251  1  0.41570000  0.18030000  0.91280000  1.0 0.1206700022
H  H252  1  0.81970000  0.58430000  0.41280000  1.0 0.1206700022
H  H253  1  0.43780000  0.03600000  0.97020000  1.0 0.1278260017
H  H254  1  0.96400000  0.56220000  0.47020000  1.0 0.1278260017
H  H255  1  0.35920000  0.03900000  0.97050000  1.0 0.1206700022
H  H256  1  0.96100000  0.64080000  0.47050000  1.0 0.1206700022
C  C1  1  0.57790000  0.40550000  0.01850000  1.0 -0.1794829017
C  C2  1  0.59450000  0.42210000  0.51850000  1.0 -0.1794829017
C  C3  1  0.60320000  0.36580000  0.01620000  1.0 -0.0681234777
C  C4  1  0.63420000  0.39680000  0.51620000  1.0 -0.0681234777
C  C5  1  0.64490000  0.36830000  0.00520000  1.0 -0.158852504
C  C6  1  0.63170000  0.35510000  0.50520000  1.0 -0.158852504
C  C7  1  0.66220000  0.41180000  0.99510000  1.0 0.1114008703
C  C8  1  0.58820000  0.33780000  0.49510000  1.0 0.1114008703
C  C9  1  0.63760000  0.45140000  0.99640000  1.0 -0.1672436379
C  C10  1  0.54860000  0.36240000  0.49640000  1.0 -0.1672436379
C  C11  1  0.59670000  0.44870000  0.00770000  1.0 -0.0681234777
C  C12  1  0.55130000  0.40330000  0.50770000  1.0 -0.0681234777
C  C13  1  0.48430000  0.29170000  0.07500000  1.0 -0.0389578064
C  C14  1  0.70830000  0.51570000  0.57500000  1.0 -0.0389578064
C  C15  1  0.44370000  0.26870000  0.08680000  1.0 -0.0489284164
C  C16  1  0.73130000  0.55630000  0.58680000  1.0 -0.0489284164
C  C17  1  0.40610000  0.29310000  0.09330000  1.0 0.2808076761
C  C18  1  0.70690000  0.59390000  0.59330000  1.0 0.2808076761
C  C19  1  0.37000000  0.26600000  0.10420000  1.0 -0.058281785
C  C20  1  0.73400000  0.63000000  0.60420000  1.0 -0.058281785
C  C21  1  0.37380000  0.21660000  0.10850000  1.0 -0.1794829017
C  C22  1  0.78340000  0.62620000  0.60850000  1.0 -0.1794829017
C  C23  1  0.41110000  0.19390000  0.10130000  1.0 0.060349023
C  C24  1  0.80610000  0.58890000  0.60130000  1.0 0.060349023
C  C25  1  0.44630000  0.22010000  0.09070000  1.0 -0.1794829017
C  C26  1  0.77990000  0.55370000  0.59070000  1.0 -0.1794829017
C  C27  1  0.32800000  0.28560000  0.11040000  1.0 0.0294555892
C  C28  1  0.71440000  0.67200000  0.61040000  1.0 0.0294555892
C  C29  1  0.41000000  0.43820000  0.95670000  1.0 0.0140395171
C  C30  1  0.56180000  0.59000000  0.45670000  1.0 0.0140395171
C  C31  1  0.35850000  0.44630000  0.94720000  1.0 -0.0389578064
C  C32  1  0.55370000  0.64150000  0.44720000  1.0 -0.0389578064
C  C33  1  0.33580000  0.43580000  0.97980000  1.0 0.2808076761
C  C34  1  0.56420000  0.66420000  0.47980000  1.0 0.2808076761
C  C35  1  0.28430000  0.44570000  0.96630000  1.0 -0.0389578064
C  C36  1  0.55430000  0.71570000  0.46630000  1.0 -0.0389578064
C  C37  1  0.25770000  0.46590000  0.92210000  1.0 -0.1865930569
C  C38  1  0.53410000  0.74230000  0.42210000  1.0 -0.1865930569
C  C39  1  0.28010000  0.47590000  0.89110000  1.0 0.060349023
C  C40  1  0.52410000  0.71990000  0.39110000  1.0 0.060349023
C  C41  1  0.33010000  0.46570000  0.90360000  1.0 -0.1971342691
C  C42  1  0.53430000  0.66990000  0.40360000  1.0 -0.1971342691
C  C43  1  0.25690000  0.43490000  0.99570000  1.0 0.0294555892
C  C44  1  0.56510000  0.74310000  0.49570000  1.0 0.0294555892
C  C45  1  0.49160000  0.47180000  0.08610000  1.0 0.021650559
C  C46  1  0.52820000  0.50840000  0.58610000  1.0 0.021650559
C  C47  1  0.45490000  0.48790000  0.10090000  1.0 -0.0389578064
C  C48  1  0.51210000  0.54510000  0.60090000  1.0 -0.0389578064
C  C49  1  0.41490000  0.46250000  0.10560000  1.0 0.2808076761
C  C50  1  0.53750000  0.58510000  0.60560000  1.0 0.2808076761
C  C51  1  0.38090000  0.48350000  0.11970000  1.0 -0.0489284164
C  C52  1  0.51650000  0.61910000  0.61970000  1.0 -0.0489284164
C  C53  1  0.38540000  0.52840000  0.12630000  1.0 -0.1794829017
C  C54  1  0.47160000  0.61460000  0.62630000  1.0 -0.1865930569
C  C55  1  0.42300000  0.55340000  0.11950000  1.0 0.060349023
C  C56  1  0.44660000  0.57700000  0.61950000  1.0 0.060349023
C  C57  1  0.45790000  0.53230000  0.10830000  1.0 -0.1794829017
C  C58  1  0.46770000  0.54210000  0.60830000  1.0 -0.1794829017
C  C59  1  0.33960000  0.46180000  0.12680000  1.0 0.0294555892
C  C60  1  0.53820000  0.66040000  0.62680000  1.0 0.0294555892
C  C61  1  0.20470000  0.38230000  0.11480000  1.0 -0.158852504
C  C62  1  0.61770000  0.79530000  0.61480000  1.0 -0.158852504
C  C63  1  0.20370000  0.37750000  0.15610000  1.0 -0.058281785
C  C64  1  0.62250000  0.79630000  0.65610000  1.0 -0.0489284164
C  C65  1  0.16210000  0.37370000  0.16690000  1.0 -0.1416574295
C  C66  1  0.62630000  0.83790000  0.66690000  1.0 -0.1496035792
C  C67  1  0.11950000  0.37270000  0.13720000  1.0 0.1206700022
C  C68  1  0.62730000  0.88050000  0.63720000  1.0 0.1206700022
C  C69  1  0.11850000  0.37570000  0.09650000  1.0 -0.1416574295
C  C70  1  0.62430000  0.88150000  0.59650000  1.0 -0.1416574295
C  C71  1  0.16030000  0.38130000  0.08600000  1.0 -0.088546099
C  C72  1  0.61870000  0.83970000  0.58600000  1.0 -0.088546099
C  C73  1  0.41160000  0.14340000  0.10130000  1.0 0.0806631088
C  C74  1  0.85660000  0.58840000  0.60130000  1.0 0.0881422109
C  C75  1  0.42020000  0.13140000  0.06790000  1.0 -0.158852504
C  C76  1  0.86860000  0.57980000  0.56790000  1.0 -0.158852504
C  C77  1  0.41780000  0.08500000  0.06630000  1.0 -0.088546099
C  C78  1  0.91500000  0.58220000  0.56630000  1.0 -0.088546099
C  C79  1  0.40850000  0.04910000  0.09880000  1.0 -0.0296747229
C  C80  1  0.95090000  0.59150000  0.59880000  1.0 -0.0296747229
C  C81  1  0.40160000  0.06100000  0.13290000  1.0 -0.088546099
C  C82  1  0.93900000  0.59840000  0.63290000  1.0 -0.088546099
C  C83  1  0.40220000  0.10740000  0.13370000  1.0 -0.1416574295
C  C84  1  0.89260000  0.59780000  0.63370000  1.0 -0.1416574295
C  C85  1  0.40490000  0.99890000  0.09670000  1.0 0.5923496804
C  C86  1  0.00110000  0.59510000  0.59670000  1.0 0.5923496804
C  C87  1  0.25210000  0.49550000  0.84440000  1.0 0.0806631088
C  C88  1  0.50450000  0.74790000  0.34440000  1.0 0.0806631088
C  C89  1  0.26860000  0.48520000  0.81370000  1.0 -0.1496035792
C  C90  1  0.51480000  0.73140000  0.31370000  1.0 -0.1496035792
C  C91  1  0.24200000  0.50260000  0.77040000  1.0 -0.088546099
C  C92  1  0.49740000  0.75800000  0.27040000  1.0 -0.088546099
C  C93  1  0.19810000  0.53270000  0.75620000  1.0 -0.0389578064
C  C94  1  0.46730000  0.80190000  0.25620000  1.0 -0.0389578064
C  C95  1  0.18180000  0.54360000  0.78640000  1.0 -0.088546099
C  C96  1  0.45640000  0.81820000  0.28640000  1.0 -0.088546099
C  C97  1  0.20800000  0.52460000  0.83010000  1.0 -0.1496035792
C  C98  1  0.47540000  0.79200000  0.33010000  1.0 -0.1496035792
C  C99  1  0.17080000  0.55420000  0.70870000  1.0 0.5923496804
C  C100  1  0.44580000  0.82920000  0.20870000  1.0 0.5923496804
C  C101  1  0.42310000  0.60390000  0.11960000  1.0 0.0806631088
C  C102  1  0.39610000  0.57690000  0.61960000  1.0 0.0806631088
C  C103  1  0.37950000  0.63390000  0.10480000  1.0 -0.158852504
C  C104  1  0.36610000  0.62050000  0.60480000  1.0 -0.158852504
C  C105  1  0.37910000  0.68230000  0.10010000  1.0 -0.088546099
C  C106  1  0.31770000  0.62090000  0.60010000  1.0 -0.088546099
C  C107  1  0.42170000  0.70190000  0.11100000  1.0 -0.0296747229
C  C108  1  0.29810000  0.57830000  0.61100000  1.0 -0.0296747229
C  C109  1  0.46540000  0.67100000  0.12820000  1.0 -0.088546099
C  C110  1  0.32900000  0.53460000  0.62820000  1.0 -0.088546099
C  C111  1  0.46540000  0.62260000  0.13230000  1.0 -0.1496035792
C  C112  1  0.37740000  0.53460000  0.63230000  1.0 -0.1496035792
C  C113  1  0.41970000  0.75570000  0.10240000  1.0 0.5997501186
C  C114  1  0.24430000  0.58030000  0.60240000  1.0 0.5997501186
C  C115  1  0.94480000  0.08420000  0.65850000  1.0 -0.1672436379
C  C116  1  0.91580000  0.05520000  0.15850000  1.0 -0.1672436379
C  C117  1  0.93410000  0.04450000  0.68690000  1.0 -0.097826573
C  C118  1  0.95550000  0.06590000  0.18690000  1.0 -0.097826573
C  C119  1  0.89070000  0.04270000  0.69410000  1.0 -0.1496035792
C  C120  1  0.95730000  0.10930000  0.19410000  1.0 -0.1496035792
C  C121  1  0.85450000  0.08090000  0.67140000  1.0 0.0881422109
C  C122  1  0.91910000  0.14550000  0.17140000  1.0 0.0881422109
C  C123  1  0.86240000  0.12020000  0.64230000  1.0 -0.1496035792
C  C124  1  0.87980000  0.13760000  0.14230000  1.0 -0.1496035792
C  C125  1  0.90670000  0.12190000  0.63620000  1.0 -0.097826573
C  C126  1  0.87810000  0.09330000  0.13620000  1.0 -0.097826573
C  C127  1  0.04040000  0.00160000  0.60650000  1.0 -0.0225952787
C  C128  1  0.99840000  0.95960000  0.10650000  1.0 -0.0225952787
C  C129  1  0.08380000  0.97980000  0.60100000  1.0 -0.0489284164
C  C130  1  0.02020000  0.91620000  0.10100000  1.0 -0.0489284164
C  C131  1  0.12280000  0.00500000  0.59540000  1.0 0.2896875686
C  C132  1  0.99500000  0.87720000  0.09540000  1.0 0.2896875686
C  C133  1  0.16020000  0.98040000  0.58790000  1.0 -0.058281785
C  C134  1  0.01960000  0.83980000  0.08790000  1.0 -0.058281785
C  C135  1  0.15710000  0.93290000  0.58760000  1.0 -0.1794829017
C  C136  1  0.06710000  0.84290000  0.08760000  1.0 -0.1865930569
C  C137  1  0.11940000  0.90780000  0.59400000  1.0 0.0701976105
C  C138  1  0.09220000  0.88060000  0.09400000  1.0 0.0701976105
C  C139  1  0.08290000  0.93290000  0.60010000  1.0 -0.1794829017
C  C140  1  0.06710000  0.91710000  0.10010000  1.0 -0.1794829017
C  C141  1  0.20230000  0.00110000  0.58210000  1.0 0.0370398874
C  C142  1  0.99890000  0.79770000  0.08210000  1.0 0.0370398874
C  C143  1  0.11200000  0.04320000  0.72970000  1.0 0.021650559
C  C144  1  0.95680000  0.88800000  0.22970000  1.0 0.021650559
C  C145  1  0.16420000  0.03680000  0.74010000  1.0 -0.0489284164
C  C146  1  0.96320000  0.83580000  0.24010000  1.0 -0.0489284164
C  C147  1  0.18890000  0.05150000  0.70930000  1.0 0.3023423574
C  C148  1  0.94850000  0.81110000  0.20930000  1.0 0.3023423574
C  C149  1  0.24060000  0.04240000  0.72440000  1.0 -0.0489284164
C  C150  1  0.95760000  0.75940000  0.22440000  1.0 -0.0489284164
C  C151  1  0.26490000  0.02110000  0.76870000  1.0 -0.1794829017
C  C152  1  0.97890000  0.73510000  0.26870000  1.0 -0.1794829017
C  C153  1  0.24090000  0.00690000  0.79840000  1.0 0.060349023
C  C154  1  0.99310000  0.75910000  0.29840000  1.0 0.060349023
C  C155  1  0.19100000  0.01460000  0.78380000  1.0 -0.1794829017
C  C156  1  0.98540000  0.80900000  0.28380000  1.0 -0.1794829017
C  C157  1  0.27020000  0.05360000  0.69680000  1.0 0.021650559
C  C158  1  0.94640000  0.72980000  0.19680000  1.0 0.021650559
C  C159  1  0.04040000  0.18860000  0.60010000  1.0 0.021650559
C  C160  1  0.81140000  0.95960000  0.10010000  1.0 0.021650559
C  C161  1  0.07840000  0.21040000  0.58580000  1.0 -0.0489284164
C  C162  1  0.78960000  0.92160000  0.08580000  1.0 -0.0489284164
C  C163  1  0.11820000  0.18400000  0.58250000  1.0 0.3052371464
C  C164  1  0.81600000  0.88180000  0.08250000  1.0 0.3023423574
C  C165  1  0.15360000  0.21100000  0.56970000  1.0 -0.0489284164
C  C166  1  0.78900000  0.84640000  0.06970000  1.0 -0.0489284164
C  C167  1  0.15040000  0.26060000  0.56260000  1.0 -0.1794829017
C  C168  1  0.73940000  0.84960000  0.06260000  1.0 -0.1794829017
C  C169  1  0.11200000  0.28600000  0.56650000  1.0 0.0701976105
C  C170  1  0.71400000  0.88800000  0.06650000  1.0 0.0701976105
C  C171  1  0.07690000  0.26050000  0.57770000  1.0 -0.1794829017
C  C172  1  0.73950000  0.92310000  0.07770000  1.0 -0.1794829017
C  C173  1  0.19630000  0.18970000  0.56500000  1.0 0.021650559
C  C174  1  0.81030000  0.80370000  0.06500000  1.0 0.0140395171
C  C175  1  0.33190000  0.09150000  0.58500000  1.0 -0.1794829017
C  C176  1  0.90850000  0.66810000  0.08500000  1.0 -0.1794829017
C  C177  1  0.37650000  0.07370000  0.61690000  1.0 -0.0681234777
C  C178  1  0.92630000  0.62350000  0.11690000  1.0 -0.0681234777
C  C179  1  0.33480000  0.11480000  0.54430000  1.0 -0.058281785
C  C180  1  0.88520000  0.66520000  0.04430000  1.0 -0.058281785
C  C181  1  0.42050000  0.07930000  0.61000000  1.0 -0.158852504
C  C182  1  0.92070000  0.57950000  0.11000000  1.0 -0.158852504
C  C183  1  0.37770000  0.12050000  0.53610000  1.0 -0.1794829017
C  C184  1  0.87950000  0.62230000  0.03610000  1.0 -0.1794829017
C  C185  1  0.42060000  0.10240000  0.56910000  1.0 0.0979691188
C  C186  1  0.89760000  0.57940000  0.06910000  1.0 0.0979691188
C  C187  1  0.11890000  0.85710000  0.59560000  1.0 0.0806631088
C  C188  1  0.14290000  0.88110000  0.09560000  1.0 0.0806631088
C  C189  1  0.09150000  0.82710000  0.61580000  1.0 -0.1496035792
C  C190  1  0.17290000  0.90850000  0.11580000  1.0 -0.1496035792
C  C191  1  0.09270000  0.77930000  0.61880000  1.0 -0.088546099
C  C192  1  0.22070000  0.90730000  0.11880000  1.0 -0.088546099
C  C193  1  0.12150000  0.75930000  0.60110000  1.0 -0.0389578064
C  C194  1  0.24070000  0.87850000  0.10110000  1.0 -0.0389578064
C  C195  1  0.14960000  0.78880000  0.58140000  1.0 -0.088546099
C  C196  1  0.21120000  0.85040000  0.08140000  1.0 -0.088546099
C  C197  1  0.14820000  0.83660000  0.57850000  1.0 -0.1496035792
C  C198  1  0.16340000  0.85180000  0.07850000  1.0 -0.1496035792
C  C199  1  0.12240000  0.70800000  0.60200000  1.0 0.5923496804
C  C200  1  0.29200000  0.87760000  0.10200000  1.0 0.5923496804
C  C201  1  0.26800000  0.98320000  0.84480000  1.0 0.0881422109
C  C202  1  0.01680000  0.73200000  0.34480000  1.0 0.0806631088
C  C203  1  0.25140000  0.94680000  0.87140000  1.0 -0.158852504
C  C204  1  0.05320000  0.74860000  0.37140000  1.0 -0.158852504
C  C205  1  0.27710000  0.92570000  0.91470000  1.0 -0.097826573
C  C206  1  0.07430000  0.72290000  0.41470000  1.0 -0.097826573
C  C207  1  0.32020000  0.94180000  0.93280000  1.0 -0.0389578064
C  C208  1  0.05820000  0.67980000  0.43280000  1.0 -0.0389578064
C  C209  1  0.33730000  0.97790000  0.90610000  1.0 -0.097826573
C  C210  1  0.02210000  0.66270000  0.40610000  1.0 -0.097826573
C  C211  1  0.31170000  0.99810000  0.86280000  1.0 -0.158852504
C  C212  1  0.00190000  0.68830000  0.36280000  1.0 -0.158852504
C  C213  1  0.34810000  0.92190000  0.98040000  1.0 0.5923496804
C  C214  1  0.07810000  0.65190000  0.48040000  1.0 0.5923496804
C  C215  1  0.11090000  0.33830000  0.56100000  1.0 0.0806631088
C  C216  1  0.66170000  0.88910000  0.06100000  1.0 0.0806631088
C  C217  1  0.15320000  0.35660000  0.57720000  1.0 -0.158852504
C  C218  1  0.64340000  0.84680000  0.07720000  1.0 -0.158852504
C  C219  1  0.15130000  0.40390000  0.57620000  1.0 -0.088546099
C  C220  1  0.59610000  0.84870000  0.07620000  1.0 -0.088546099
C  C221  1  0.10810000  0.43450000  0.55960000  1.0 -0.0296747229
C  C222  1  0.56550000  0.89190000  0.05960000  1.0 -0.0296747229
C  C223  1  0.06600000  0.41720000  0.54200000  1.0 -0.088546099
C  C224  1  0.58280000  0.93400000  0.04200000  1.0 -0.088546099
C  C225  1  0.06780000  0.37020000  0.54230000  1.0 -0.1416574295
C  C226  1  0.62980000  0.93220000  0.04230000  1.0 -0.1416574295
C  C227  1  0.10590000  0.48570000  0.56030000  1.0 0.5802105686
C  C228  1  0.51430000  0.89410000  0.06030000  1.0 0.5802105686
C  C229  1  0.40550000  0.57790000  0.48150000  1.0 -0.1794829017
C  C230  1  0.42210000  0.59450000  0.98150000  1.0 -0.1794829017
C  C231  1  0.36580000  0.60320000  0.48380000  1.0 -0.0681234777
C  C232  1  0.39680000  0.63420000  0.98380000  1.0 -0.0681234777
C  C233  1  0.36830000  0.64490000  0.49480000  1.0 -0.158852504
C  C234  1  0.35510000  0.63170000  0.99480000  1.0 -0.158852504
C  C235  1  0.41180000  0.66220000  0.50490000  1.0 0.1114008703
C  C236  1  0.33780000  0.58820000  0.00490000  1.0 0.1114008703
C  C237  1  0.45140000  0.63760000  0.50360000  1.0 -0.1672436379
C  C238  1  0.36240000  0.54860000  0.00360000  1.0 -0.1672436379
C  C239  1  0.44870000  0.59670000  0.49230000  1.0 -0.0681234777
C  C240  1  0.40330000  0.55130000  0.99230000  1.0 -0.0681234777
C  C241  1  0.29170000  0.48430000  0.42500000  1.0 -0.0489284164
C  C242  1  0.51570000  0.70830000  0.92500000  1.0 -0.0489284164
C  C243  1  0.26870000  0.44370000  0.41320000  1.0 -0.0489284164
C  C244  1  0.55630000  0.73130000  0.91320000  1.0 -0.0489284164
C  C245  1  0.29310000  0.40610000  0.40670000  1.0 0.2808076761
C  C246  1  0.59390000  0.70690000  0.90670000  1.0 0.2808076761
C  C247  1  0.26600000  0.37000000  0.39580000  1.0 -0.058281785
C  C248  1  0.63000000  0.73400000  0.89580000  1.0 -0.058281785
C  C249  1  0.21660000  0.37380000  0.39150000  1.0 -0.1794829017
C  C250  1  0.62620000  0.78340000  0.89150000  1.0 -0.1794829017
C  C251  1  0.19390000  0.41110000  0.39870000  1.0 0.060349023
C  C252  1  0.58890000  0.80610000  0.89870000  1.0 0.060349023
C  C253  1  0.22010000  0.44630000  0.40930000  1.0 -0.1794829017
C  C254  1  0.55370000  0.77990000  0.90930000  1.0 -0.1794829017
C  C255  1  0.28560000  0.32800000  0.38960000  1.0 0.0294555892
C  C256  1  0.67200000  0.71440000  0.88960000  1.0 0.0294555892
C  C257  1  0.43820000  0.41000000  0.54330000  1.0 0.0140395171
C  C258  1  0.59000000  0.56180000  0.04330000  1.0 0.0140395171
C  C259  1  0.44630000  0.35850000  0.55280000  1.0 -0.0389578064
C  C260  1  0.64150000  0.55370000  0.05280000  1.0 -0.0389578064
C  C261  1  0.43580000  0.33580000  0.52020000  1.0 0.2808076761
C  C262  1  0.66420000  0.56420000  0.02020000  1.0 0.2808076761
C  C263  1  0.44570000  0.28430000  0.53370000  1.0 -0.0389578064
C  C264  1  0.71570000  0.55430000  0.03370000  1.0 -0.0389578064
C  C265  1  0.46590000  0.25770000  0.57790000  1.0 -0.1865930569
C  C266  1  0.74230000  0.53410000  0.07790000  1.0 -0.1865930569
C  C267  1  0.47590000  0.28010000  0.60890000  1.0 0.060349023
C  C268  1  0.71990000  0.52410000  0.10890000  1.0 0.060349023
C  C269  1  0.46570000  0.33010000  0.59640000  1.0 -0.1971342691
C  C270  1  0.66990000  0.53430000  0.09640000  1.0 -0.1971342691
C  C271  1  0.43490000  0.25690000  0.50430000  1.0 0.0294555892
C  C272  1  0.74310000  0.56510000  0.00430000  1.0 0.0294555892
C  C273  1  0.47180000  0.49160000  0.41390000  1.0 0.021650559
C  C274  1  0.50840000  0.52820000  0.91390000  1.0 0.021650559
C  C275  1  0.48790000  0.45490000  0.39910000  1.0 -0.0389578064
C  C276  1  0.54510000  0.51210000  0.89910000  1.0 -0.0389578064
C  C277  1  0.46250000  0.41490000  0.39440000  1.0 0.2808076761
C  C278  1  0.58510000  0.53750000  0.89440000  1.0 0.2808076761
C  C279  1  0.48350000  0.38090000  0.38030000  1.0 -0.0489284164
C  C280  1  0.61910000  0.51650000  0.88030000  1.0 -0.0489284164
C  C281  1  0.52840000  0.38540000  0.37370000  1.0 -0.1794829017
C  C282  1  0.61460000  0.47160000  0.87370000  1.0 -0.1865930569
C  C283  1  0.55340000  0.42300000  0.38050000  1.0 0.060349023
C  C284  1  0.57700000  0.44660000  0.88050000  1.0 0.060349023
C  C285  1  0.53230000  0.45790000  0.39170000  1.0 -0.1794829017
C  C286  1  0.54210000  0.46770000  0.89170000  1.0 -0.1794829017
C  C287  1  0.46180000  0.33960000  0.37320000  1.0 0.0294555892
C  C288  1  0.66040000  0.53820000  0.87320000  1.0 0.0294555892
C  C289  1  0.38230000  0.20470000  0.38520000  1.0 -0.1672436379
C  C290  1  0.79530000  0.61770000  0.88520000  1.0 -0.158852504
C  C291  1  0.37750000  0.20370000  0.34390000  1.0 -0.058281785
C  C292  1  0.79630000  0.62250000  0.84390000  1.0 -0.058281785
C  C293  1  0.37370000  0.16210000  0.33310000  1.0 -0.1416574295
C  C294  1  0.83790000  0.62630000  0.83310000  1.0 -0.1416574295
C  C295  1  0.37270000  0.11950000  0.36280000  1.0 0.1206700022
C  C296  1  0.88050000  0.62730000  0.86280000  1.0 0.1206700022
C  C297  1  0.37570000  0.11850000  0.40350000  1.0 -0.1416574295
C  C298  1  0.88150000  0.62430000  0.90350000  1.0 -0.1416574295
C  C299  1  0.38130000  0.16030000  0.41400000  1.0 -0.088546099
C  C300  1  0.83970000  0.61870000  0.91400000  1.0 -0.088546099
C  C301  1  0.14340000  0.41160000  0.39870000  1.0 0.0806631088
C  C302  1  0.58840000  0.85660000  0.89870000  1.0 0.0806631088
C  C303  1  0.13140000  0.42020000  0.43210000  1.0 -0.158852504
C  C304  1  0.57980000  0.86860000  0.93210000  1.0 -0.158852504
C  C305  1  0.08500000  0.41780000  0.43370000  1.0 -0.088546099
C  C306  1  0.58220000  0.91500000  0.93370000  1.0 -0.088546099
C  C307  1  0.04910000  0.40850000  0.40120000  1.0 -0.0296747229
C  C308  1  0.59150000  0.95090000  0.90120000  1.0 -0.0296747229
C  C309  1  0.06100000  0.40160000  0.36710000  1.0 -0.088546099
C  C310  1  0.59840000  0.93900000  0.86710000  1.0 -0.088546099
C  C311  1  0.10740000  0.40220000  0.36630000  1.0 -0.1416574295
C  C312  1  0.59780000  0.89260000  0.86630000  1.0 -0.1416574295
C  C313  1  0.99890000  0.40490000  0.40330000  1.0 0.5923496804
C  C314  1  0.59510000  0.00110000  0.90330000  1.0 0.5923496804
C  C315  1  0.49550000  0.25210000  0.65560000  1.0 0.0806631088
C  C316  1  0.74790000  0.50450000  0.15560000  1.0 0.0806631088
C  C317  1  0.48520000  0.26860000  0.68630000  1.0 -0.1496035792
C  C318  1  0.73140000  0.51480000  0.18630000  1.0 -0.1496035792
C  C319  1  0.50260000  0.24200000  0.72960000  1.0 -0.088546099
C  C320  1  0.75800000  0.49740000  0.22960000  1.0 -0.088546099
C  C321  1  0.53270000  0.19810000  0.74380000  1.0 -0.0389578064
C  C322  1  0.80190000  0.46730000  0.24380000  1.0 -0.0389578064
C  C323  1  0.54360000  0.18180000  0.71360000  1.0 -0.088546099
C  C324  1  0.81820000  0.45640000  0.21360000  1.0 -0.088546099
C  C325  1  0.52460000  0.20800000  0.66990000  1.0 -0.1496035792
C  C326  1  0.79200000  0.47540000  0.16990000  1.0 -0.1496035792
C  C327  1  0.55420000  0.17080000  0.79130000  1.0 0.5923496804
C  C328  1  0.82920000  0.44580000  0.29130000  1.0 0.5923496804
C  C329  1  0.60390000  0.42310000  0.38040000  1.0 0.0806631088
C  C330  1  0.57690000  0.39610000  0.88040000  1.0 0.0806631088
C  C331  1  0.63390000  0.37950000  0.39520000  1.0 -0.158852504
C  C332  1  0.62050000  0.36610000  0.89520000  1.0 -0.158852504
C  C333  1  0.68230000  0.37910000  0.39990000  1.0 -0.088546099
C  C334  1  0.62090000  0.31770000  0.89990000  1.0 -0.088546099
C  C335  1  0.70190000  0.42170000  0.38900000  1.0 -0.0296747229
C  C336  1  0.57830000  0.29810000  0.88900000  1.0 -0.0296747229
C  C337  1  0.67100000  0.46540000  0.37180000  1.0 -0.088546099
C  C338  1  0.53460000  0.32900000  0.87180000  1.0 -0.088546099
C  C339  1  0.62260000  0.46540000  0.36770000  1.0 -0.1496035792
C  C340  1  0.53460000  0.37740000  0.86770000  1.0 -0.1496035792
C  C341  1  0.75570000  0.41970000  0.39760000  1.0 0.5997501186
C  C342  1  0.58030000  0.24430000  0.89760000  1.0 0.5997501186
C  C343  1  0.08420000  0.94480000  0.84150000  1.0 -0.1672436379
C  C344  1  0.05520000  0.91580000  0.34150000  1.0 -0.1672436379
C  C345  1  0.04450000  0.93410000  0.81310000  1.0 -0.097826573
C  C346  1  0.06590000  0.95550000  0.31310000  1.0 -0.097826573
C  C347  1  0.04270000  0.89070000  0.80590000  1.0 -0.1496035792
C  C348  1  0.10930000  0.95730000  0.30590000  1.0 -0.1496035792
C  C349  1  0.08090000  0.85450000  0.82860000  1.0 0.0881422109
C  C350  1  0.14550000  0.91910000  0.32860000  1.0 0.0881422109
C  C351  1  0.12020000  0.86240000  0.85770000  1.0 -0.1496035792
C  C352  1  0.13760000  0.87980000  0.35770000  1.0 -0.1496035792
C  C353  1  0.12190000  0.90670000  0.86380000  1.0 -0.097826573
C  C354  1  0.09330000  0.87810000  0.36380000  1.0 -0.097826573
C  C355  1  0.00160000  0.04040000  0.89350000  1.0 -0.0225952787
C  C356  1  0.95960000  0.99840000  0.39350000  1.0 -0.0225952787
C  C357  1  0.97980000  0.08380000  0.89900000  1.0 -0.0489284164
C  C358  1  0.91620000  0.02020000  0.39900000  1.0 -0.0489284164
C  C359  1  0.00500000  0.12280000  0.90460000  1.0 0.2896875686
C  C360  1  0.87720000  0.99500000  0.40460000  1.0 0.2896875686
C  C361  1  0.98040000  0.16020000  0.91210000  1.0 -0.058281785
C  C362  1  0.83980000  0.01960000  0.41210000  1.0 -0.058281785
C  C363  1  0.93290000  0.15710000  0.91240000  1.0 -0.1865930569
C  C364  1  0.84290000  0.06710000  0.41240000  1.0 -0.1865930569
C  C365  1  0.90780000  0.11940000  0.90600000  1.0 0.0701976105
C  C366  1  0.88060000  0.09220000  0.40600000  1.0 0.0701976105
C  C367  1  0.93290000  0.08290000  0.89990000  1.0 -0.1794829017
C  C368  1  0.91710000  0.06710000  0.39990000  1.0 -0.1794829017
C  C369  1  0.00110000  0.20230000  0.91790000  1.0 0.0370398874
C  C370  1  0.79770000  0.99890000  0.41790000  1.0 0.0370398874
C  C371  1  0.04320000  0.11200000  0.77030000  1.0 0.021650559
C  C372  1  0.88800000  0.95680000  0.27030000  1.0 0.021650559
C  C373  1  0.03680000  0.16420000  0.75990000  1.0 -0.0489284164
C  C374  1  0.83580000  0.96320000  0.25990000  1.0 -0.0489284164
C  C375  1  0.05150000  0.18890000  0.79070000  1.0 0.3023423574
C  C376  1  0.81110000  0.94850000  0.29070000  1.0 0.3023423574
C  C377  1  0.04240000  0.24060000  0.77560000  1.0 -0.0489284164
C  C378  1  0.75940000  0.95760000  0.27560000  1.0 -0.0489284164
C  C379  1  0.02110000  0.26490000  0.73130000  1.0 -0.1794829017
C  C380  1  0.73510000  0.97890000  0.23130000  1.0 -0.1794829017
C  C381  1  0.00690000  0.24090000  0.70160000  1.0 0.060349023
C  C382  1  0.75910000  0.99310000  0.20160000  1.0 0.060349023
C  C383  1  0.01460000  0.19100000  0.71620000  1.0 -0.1794829017
C  C384  1  0.80900000  0.98540000  0.21620000  1.0 -0.1794829017
C  C385  1  0.05360000  0.27020000  0.80320000  1.0 0.021650559
C  C386  1  0.72980000  0.94640000  0.30320000  1.0 0.021650559
C  C387  1  0.18860000  0.04040000  0.89990000  1.0 0.021650559
C  C388  1  0.95960000  0.81140000  0.39990000  1.0 0.021650559
C  C389  1  0.21040000  0.07840000  0.91420000  1.0 -0.0489284164
C  C390  1  0.92160000  0.78960000  0.41420000  1.0 -0.0489284164
C  C391  1  0.18400000  0.11820000  0.91750000  1.0 0.3023423574
C  C392  1  0.88180000  0.81600000  0.41750000  1.0 0.3023423574
C  C393  1  0.21100000  0.15360000  0.93030000  1.0 -0.0489284164
C  C394  1  0.84640000  0.78900000  0.43030000  1.0 -0.0489284164
C  C395  1  0.26060000  0.15040000  0.93740000  1.0 -0.1794829017
C  C396  1  0.84960000  0.73940000  0.43740000  1.0 -0.1794829017
C  C397  1  0.28600000  0.11200000  0.93350000  1.0 0.0701976105
C  C398  1  0.88800000  0.71400000  0.43350000  1.0 0.0701976105
C  C399  1  0.26050000  0.07690000  0.92230000  1.0 -0.1794829017
C  C400  1  0.92310000  0.73950000  0.42230000  1.0 -0.1794829017
C  C401  1  0.18970000  0.19630000  0.93500000  1.0 0.0140395171
C  C402  1  0.80370000  0.81030000  0.43500000  1.0 0.0140395171
C  C403  1  0.09150000  0.33190000  0.91500000  1.0 -0.1794829017
C  C404  1  0.66810000  0.90850000  0.41500000  1.0 -0.1794829017
C  C405  1  0.07370000  0.37650000  0.88310000  1.0 -0.0681234777
C  C406  1  0.62350000  0.92630000  0.38310000  1.0 -0.0681234777
C  C407  1  0.11480000  0.33480000  0.95570000  1.0 -0.058281785
C  C408  1  0.66520000  0.88520000  0.45570000  1.0 -0.058281785
C  C409  1  0.07930000  0.42050000  0.89000000  1.0 -0.158852504
C  C410  1  0.57950000  0.92070000  0.39000000  1.0 -0.158852504
C  C411  1  0.12050000  0.37770000  0.96390000  1.0 -0.1794829017
C  C412  1  0.62230000  0.87950000  0.46390000  1.0 -0.1794829017
C  C413  1  0.10240000  0.42060000  0.93090000  1.0 0.0979691188
C  C414  1  0.57940000  0.89760000  0.43090000  1.0 0.0979691188
C  C415  1  0.85710000  0.11890000  0.90440000  1.0 0.0806631088
C  C416  1  0.88110000  0.14290000  0.40440000  1.0 0.0806631088
C  C417  1  0.82710000  0.09150000  0.88420000  1.0 -0.1416574295
C  C418  1  0.90850000  0.17290000  0.38420000  1.0 -0.1496035792
C  C419  1  0.77930000  0.09270000  0.88120000  1.0 -0.088546099
C  C420  1  0.90730000  0.22070000  0.38120000  1.0 -0.088546099
C  C421  1  0.75930000  0.12150000  0.89890000  1.0 -0.0296747229
C  C422  1  0.87850000  0.24070000  0.39890000  1.0 -0.0296747229
C  C423  1  0.78880000  0.14960000  0.91860000  1.0 -0.088546099
C  C424  1  0.85040000  0.21120000  0.41860000  1.0 -0.088546099
C  C425  1  0.83660000  0.14820000  0.92150000  1.0 -0.1496035792
C  C426  1  0.85180000  0.16340000  0.42150000  1.0 -0.1496035792
C  C427  1  0.70800000  0.12240000  0.89800000  1.0 0.5923496804
C  C428  1  0.87760000  0.29200000  0.39800000  1.0 0.5923496804
C  C429  1  0.98320000  0.26800000  0.65520000  1.0 0.0806631088
C  C430  1  0.73200000  0.01680000  0.15520000  1.0 0.0806631088
C  C431  1  0.94680000  0.25140000  0.62860000  1.0 -0.158852504
C  C432  1  0.74860000  0.05320000  0.12860000  1.0 -0.158852504
C  C433  1  0.92570000  0.27710000  0.58530000  1.0 -0.097826573
C  C434  1  0.72290000  0.07430000  0.08530000  1.0 -0.097826573
C  C435  1  0.94180000  0.32020000  0.56720000  1.0 -0.0389578064
C  C436  1  0.67980000  0.05820000  0.06720000  1.0 -0.0389578064
C  C437  1  0.97790000  0.33730000  0.59390000  1.0 -0.097826573
C  C438  1  0.66270000  0.02210000  0.09390000  1.0 -0.097826573
C  C439  1  0.99810000  0.31170000  0.63720000  1.0 -0.158852504
C  C440  1  0.68830000  0.00190000  0.13720000  1.0 -0.158852504
C  C441  1  0.92190000  0.34810000  0.51960000  1.0 0.5923496804
C  C442  1  0.65190000  0.07810000  0.01960000  1.0 0.5923496804
C  C443  1  0.33830000  0.11090000  0.93900000  1.0 0.0806631088
C  C444  1  0.88910000  0.66170000  0.43900000  1.0 0.0806631088
C  C445  1  0.35660000  0.15320000  0.92280000  1.0 -0.158852504
C  C446  1  0.84680000  0.64340000  0.42280000  1.0 -0.158852504
C  C447  1  0.40390000  0.15130000  0.92380000  1.0 -0.088546099
C  C448  1  0.84870000  0.59610000  0.42380000  1.0 -0.088546099
C  C449  1  0.43450000  0.10810000  0.94040000  1.0 -0.0296747229
C  C450  1  0.89190000  0.56550000  0.44040000  1.0 -0.0296747229
C  C451  1  0.41720000  0.06600000  0.95800000  1.0 -0.088546099
C  C452  1  0.93400000  0.58280000  0.45800000  1.0 -0.088546099
C  C453  1  0.37020000  0.06780000  0.95770000  1.0 -0.1416574295
C  C454  1  0.93220000  0.62980000  0.45770000  1.0 -0.1416574295
C  C455  1  0.48570000  0.10590000  0.93970000  1.0 0.5802105686
C  C456  1  0.89410000  0.51430000  0.43970000  1.0 0.5802105686
Br  Br1  1  0.71851000  0.41825000  0.97872000  1.0 -0.097826573
Br  Br2  1  0.58175000  0.28149000  0.47872000  1.0 -0.097826573
Br  Br3  1  0.06091000  0.37091000  0.15010000  1.0 -0.1794829017
Br  Br4  1  0.62909000  0.93909000  0.65010000  1.0 -0.1794829017
Br  Br5  1  0.79330000  0.07820000  0.67900000  1.0 -0.1098776121
Br  Br6  1  0.92180000  0.20670000  0.17900000  1.0 -0.1098776121
Br  Br7  1  0.47948000  0.10852000  0.55700000  1.0 -0.1273753994
Br  Br8  1  0.89148000  0.52052000  0.05700000  1.0 -0.1273753994
Br  Br9  1  0.41825000  0.71851000  0.52128000  1.0 -0.097826573
Br  Br10  1  0.28149000  0.58175000  0.02128000  1.0 -0.097826573
Br  Br11  1  0.37091000  0.06091000  0.34990000  1.0 -0.1794829017
Br  Br12  1  0.93909000  0.62909000  0.84990000  1.0 -0.1794829017
Br  Br13  1  0.07820000  0.79330000  0.82100000  1.0 -0.1098776121
Br  Br14  1  0.20670000  0.92180000  0.32100000  1.0 -0.1098776121
Br  Br15  1  0.10852000  0.47948000  0.94300000  1.0 -0.1273753994
Br  Br16  1  0.52052000  0.89148000  0.44300000  1.0 -0.1273753994
N  N1  1  0.48660000  0.34000000  0.06130000  1.0 -0.0296747229
N  N2  1  0.66000000  0.51340000  0.56130000  1.0 -0.0296747229
N  N3  1  0.31750000  0.32890000  0.10710000  1.0 -0.0681234777
N  N4  1  0.67110000  0.68250000  0.60710000  1.0 -0.0681234777
N  N5  1  0.44300000  0.42160000  0.99290000  1.0 -0.088546099
N  N6  1  0.57840000  0.55700000  0.49290000  1.0 -0.088546099
N  N7  1  0.27350000  0.41410000  0.03620000  1.0 -0.0807549397
N  N8  1  0.58590000  0.72650000  0.53620000  1.0 -0.0807549397
N  N9  1  0.49240000  0.43620000  0.07250000  1.0 -0.0681234777
N  N10  1  0.56380000  0.50760000  0.57250000  1.0 -0.0681234777
N  N11  1  0.32460000  0.42540000  0.11750000  1.0 -0.088546099
N  N12  1  0.57460000  0.67540000  0.61750000  1.0 -0.088546099
N  N13  1  0.03710000  0.04150000  0.61710000  1.0 -0.0389578064
N  N14  1  0.95850000  0.96290000  0.11710000  1.0 -0.0489284164
N  N15  1  0.21420000  0.04120000  0.58480000  1.0 -0.0807549397
N  N16  1  0.95880000  0.78580000  0.08480000  1.0 -0.0807549397
N  N17  1  0.08090000  0.06130000  0.69240000  1.0 -0.0681234777
N  N18  1  0.93870000  0.91910000  0.19240000  1.0 -0.0681234777
N  N19  1  0.25540000  0.07080000  0.65610000  1.0 -0.0807549397
N  N20  1  0.92920000  0.74460000  0.15610000  1.0 -0.0681234777
N  N21  1  0.03840000  0.14400000  0.61480000  1.0 -0.0681234777
N  N22  1  0.85600000  0.96160000  0.11480000  1.0 -0.058281785
N  N23  1  0.20940000  0.14460000  0.57570000  1.0 -0.058281785
N  N24  1  0.85540000  0.79060000  0.07570000  1.0 -0.058281785
N  N25  1  0.34000000  0.48660000  0.43870000  1.0 -0.0225952787
N  N26  1  0.51340000  0.66000000  0.93870000  1.0 -0.0296747229
N  N27  1  0.32890000  0.31750000  0.39290000  1.0 -0.0681234777
N  N28  1  0.68250000  0.67110000  0.89290000  1.0 -0.0681234777
N  N29  1  0.42160000  0.44300000  0.50710000  1.0 -0.088546099
N  N30  1  0.55700000  0.57840000  0.00710000  1.0 -0.088546099
N  N31  1  0.41410000  0.27350000  0.46380000  1.0 -0.0807549397
N  N32  1  0.72650000  0.58590000  0.96380000  1.0 -0.0807549397
N  N33  1  0.43620000  0.49240000  0.42750000  1.0 -0.0681234777
N  N34  1  0.50760000  0.56380000  0.92750000  1.0 -0.0681234777
N  N35  1  0.42540000  0.32460000  0.38250000  1.0 -0.088546099
N  N36  1  0.67540000  0.57460000  0.88250000  1.0 -0.088546099
N  N37  1  0.04150000  0.03710000  0.88290000  1.0 -0.0489284164
N  N38  1  0.96290000  0.95850000  0.38290000  1.0 -0.0489284164
N  N39  1  0.04120000  0.21420000  0.91520000  1.0 -0.0807549397
N  N40  1  0.78580000  0.95880000  0.41520000  1.0 -0.0807549397
N  N41  1  0.06130000  0.08090000  0.80760000  1.0 -0.0681234777
N  N42  1  0.91910000  0.93870000  0.30760000  1.0 -0.0681234777
N  N43  1  0.07080000  0.25540000  0.84390000  1.0 -0.0807549397
N  N44  1  0.74460000  0.92920000  0.34390000  1.0 -0.0807549397
N  N45  1  0.14400000  0.03840000  0.88520000  1.0 -0.0681234777
N  N46  1  0.96160000  0.85600000  0.38520000  1.0 -0.0681234777
N  N47  1  0.14460000  0.20940000  0.92430000  1.0 -0.058281785
N  N48  1  0.79060000  0.85540000  0.42430000  1.0 -0.058281785
O  O1  1  0.40980000  0.87880000  0.09420000  1.0 -1.0190144458
O  O2  1  0.12120000  0.59020000  0.59420000  1.0 -1.0190144458
O  O3  1  0.52810000  0.34830000  0.05470000  1.0 -0.1672436379
O  O4  1  0.65170000  0.47190000  0.55470000  1.0 -0.1672436379
O  O5  1  0.27590000  0.33630000  0.11640000  1.0 -0.2460545541
O  O6  1  0.66370000  0.72410000  0.61640000  1.0 -0.2460545541
O  O7  1  0.48970000  0.42150000  0.99070000  1.0 -0.3574142931
O  O8  1  0.57850000  0.51030000  0.49070000  1.0 -0.3574142931
O  O9  1  0.23720000  0.40840000  0.05560000  1.0 -0.3083980658
O  O10  1  0.59160000  0.76280000  0.55560000  1.0 -0.3083980658
O  O11  1  0.53260000  0.42940000  0.06060000  1.0 -0.3008387813
O  O12  1  0.57060000  0.46740000  0.56060000  1.0 -0.3008387813
O  O13  1  0.28150000  0.41410000  0.12640000  1.0 -0.2833081463
O  O14  1  0.58590000  0.71850000  0.62640000  1.0 -0.2833081463
O  O15  1  0.40340000  0.33900000  0.08770000  1.0 -0.510298855
O  O16  1  0.66100000  0.59660000  0.58770000  1.0 -0.510298855
O  O17  1  0.41190000  0.99110000  0.06480000  1.0 -0.5518360862
O  O18  1  0.00890000  0.58810000  0.56480000  1.0 -0.5518360862
O  O19  1  0.36190000  0.41810000  0.02100000  1.0 -0.5279553213
O  O20  1  0.58190000  0.63810000  0.52100000  1.0 -0.5279553213
O  O21  1  0.39660000  0.96900000  0.12690000  1.0 -0.5201200961
O  O22  1  0.03100000  0.60340000  0.62690000  1.0 -0.5201200961
O  O23  1  0.41060000  0.42080000  0.09880000  1.0 -0.5030452588
O  O24  1  0.57920000  0.58940000  0.59880000  1.0 -0.5030452588
O  O25  1  0.18930000  0.54390000  0.68310000  1.0 -0.5763248482
O  O26  1  0.45610000  0.81070000  0.18310000  1.0 -0.5763248482
O  O27  1  0.13280000  0.58220000  0.69480000  1.0 -0.510298855
O  O28  1  0.41780000  0.86720000  0.19480000  1.0 -0.510298855
O  O29  1  0.45880000  0.76980000  0.11820000  1.0 -0.5201200961
O  O30  1  0.23020000  0.54120000  0.61820000  1.0 -0.5201200961
O  O31  1  0.37960000  0.78140000  0.08090000  1.0 -0.5394762435
O  O32  1  0.21860000  0.62040000  0.58090000  1.0 -0.5394762435
O  O33  1  0.99440000  0.05200000  0.62130000  1.0 -0.158852504
O  O34  1  0.94800000  0.00560000  0.12130000  1.0 -0.158852504
O  O35  1  0.25960000  0.04920000  0.58010000  1.0 -0.2586353363
O  O36  1  0.95080000  0.74040000  0.08010000  1.0 -0.2586353363
O  O37  1  0.03350000  0.06310000  0.69210000  1.0 -0.3289210477
O  O38  1  0.93690000  0.96650000  0.19210000  1.0 -0.3289210477
O  O39  1  0.29200000  0.07660000  0.63860000  1.0 -0.3289210477
O  O40  1  0.92340000  0.70800000  0.13860000  1.0 -0.3289210477
O  O41  1  0.99750000  0.13430000  0.62650000  1.0 -0.3289210477
O  O42  1  0.86570000  0.00250000  0.12650000  1.0 -0.3289210477
O  O43  1  0.25140000  0.13540000  0.56890000  1.0 -0.2586353363
O  O44  1  0.86460000  0.74860000  0.06890000  1.0 -0.2586353363
O  O45  1  0.12490000  0.04830000  0.59770000  1.0 -0.510298855
O  O46  1  0.95170000  0.87510000  0.09770000  1.0 -0.510298855
O  O47  1  0.09960000  0.68120000  0.62230000  1.0 -0.5201200961
O  O48  1  0.31880000  0.90040000  0.12230000  1.0 -0.5201200961
O  O49  1  0.16510000  0.07390000  0.66890000  1.0 -0.5201200961
O  O50  1  0.92610000  0.83490000  0.16890000  1.0 -0.5201200961
O  O51  1  0.14830000  0.69510000  0.58240000  1.0 -0.5518360862
O  O52  1  0.30490000  0.85170000  0.08240000  1.0 -0.5518360862
O  O53  1  0.12180000  0.13760000  0.59080000  1.0 -0.510298855
O  O54  1  0.86240000  0.87820000  0.09080000  1.0 -0.510298855
O  O55  1  0.33650000  0.88370000  0.00270000  1.0 -0.5518360862
O  O56  1  0.11630000  0.66350000  0.50270000  1.0 -0.5518360862
O  O57  1  0.38340000  0.94180000  0.99460000  1.0 -0.5279553213
O  O58  1  0.05820000  0.61660000  0.49460000  1.0 -0.5279553213
O  O59  1  0.06640000  0.51140000  0.54530000  1.0 -0.510298855
O  O60  1  0.48860000  0.93360000  0.04530000  1.0 -0.510298855
O  O61  1  0.14490000  0.49890000  0.57650000  1.0 -0.5641008892
O  O62  1  0.50110000  0.85510000  0.07650000  1.0 -0.5641008892
O  O63  1  0.87880000  0.40980000  0.40580000  1.0 -1.0190144458
O  O64  1  0.59020000  0.12120000  0.90580000  1.0 -1.0190144458
O  O65  1  0.34830000  0.52810000  0.44530000  1.0 -0.1672436379
O  O66  1  0.47190000  0.65170000  0.94530000  1.0 -0.1672436379
O  O67  1  0.33630000  0.27590000  0.38360000  1.0 -0.2460545541
O  O68  1  0.72410000  0.66370000  0.88360000  1.0 -0.2460545541
O  O69  1  0.42150000  0.48970000  0.50930000  1.0 -0.3535850027
O  O70  1  0.51030000  0.57850000  0.00930000  1.0 -0.3574142931
O  O71  1  0.40840000  0.23720000  0.44440000  1.0 -0.3083980658
O  O72  1  0.76280000  0.59160000  0.94440000  1.0 -0.3083980658
O  O73  1  0.42940000  0.53260000  0.43940000  1.0 -0.3008387813
O  O74  1  0.46740000  0.57060000  0.93940000  1.0 -0.3008387813
O  O75  1  0.41410000  0.28150000  0.37360000  1.0 -0.2833081463
O  O76  1  0.71850000  0.58590000  0.87360000  1.0 -0.2833081463
O  O77  1  0.33900000  0.40340000  0.41230000  1.0 -0.510298855
O  O78  1  0.59660000  0.66100000  0.91230000  1.0 -0.510298855
O  O79  1  0.99110000  0.41190000  0.43520000  1.0 -0.5518360862
O  O80  1  0.58810000  0.00890000  0.93520000  1.0 -0.5518360862
O  O81  1  0.41810000  0.36190000  0.47900000  1.0 -0.5279553213
O  O82  1  0.63810000  0.58190000  0.97900000  1.0 -0.5279553213
O  O83  1  0.96900000  0.39660000  0.37310000  1.0 -0.5201200961
O  O84  1  0.60340000  0.03100000  0.87310000  1.0 -0.5201200961
O  O85  1  0.42080000  0.41060000  0.40120000  1.0 -0.5030452588
O  O86  1  0.58940000  0.57920000  0.90120000  1.0 -0.5030452588
O  O87  1  0.54390000  0.18930000  0.81690000  1.0 -0.5763248482
O  O88  1  0.81070000  0.45610000  0.31690000  1.0 -0.574682621
O  O89  1  0.58220000  0.13280000  0.80520000  1.0 -0.510298855
O  O90  1  0.86720000  0.41780000  0.30520000  1.0 -0.510298855
O  O91  1  0.76980000  0.45880000  0.38180000  1.0 -0.5201200961
O  O92  1  0.54120000  0.23020000  0.88180000  1.0 -0.5201200961
O  O93  1  0.78140000  0.37960000  0.41910000  1.0 -0.5394762435
O  O94  1  0.62040000  0.21860000  0.91910000  1.0 -0.5394762435
O  O95  1  0.05200000  0.99440000  0.87870000  1.0 -0.158852504
O  O96  1  0.00560000  0.94800000  0.37870000  1.0 -0.158852504
O  O97  1  0.04920000  0.25960000  0.91990000  1.0 -0.2586353363
O  O98  1  0.74040000  0.95080000  0.41990000  1.0 -0.2586353363
O  O99  1  0.06310000  0.03350000  0.80790000  1.0 -0.3289210477
O  O100  1  0.96650000  0.93690000  0.30790000  1.0 -0.3289210477
O  O101  1  0.07660000  0.29200000  0.86140000  1.0 -0.3289210477
O  O102  1  0.70800000  0.92340000  0.36140000  1.0 -0.3289210477
O  O103  1  0.13430000  0.99750000  0.87350000  1.0 -0.3355891385
O  O104  1  0.00250000  0.86570000  0.37350000  1.0 -0.3355891385
O  O105  1  0.13540000  0.25140000  0.93110000  1.0 -0.2586353363
O  O106  1  0.74860000  0.86460000  0.43110000  1.0 -0.2586353363
O  O107  1  0.04830000  0.12490000  0.90230000  1.0 -0.510298855
O  O108  1  0.87510000  0.95170000  0.40230000  1.0 -0.510298855
O  O109  1  0.68120000  0.09960000  0.87770000  1.0 -0.5279553213
O  O110  1  0.90040000  0.31880000  0.37770000  1.0 -0.5201200961
O  O111  1  0.07390000  0.16510000  0.83110000  1.0 -0.5201200961
O  O112  1  0.83490000  0.92610000  0.33110000  1.0 -0.5201200961
O  O113  1  0.69510000  0.14830000  0.91760000  1.0 -0.5518360862
O  O114  1  0.85170000  0.30490000  0.41760000  1.0 -0.5518360862
O  O115  1  0.13760000  0.12180000  0.90920000  1.0 -0.510298855
O  O116  1  0.87820000  0.86240000  0.40920000  1.0 -0.510298855
O  O117  1  0.88370000  0.33650000  0.49730000  1.0 -0.5518360862
O  O118  1  0.66350000  0.11630000  0.99730000  1.0 -0.5518360862
O  O119  1  0.94180000  0.38340000  0.50540000  1.0 -0.5279553213
O  O120  1  0.61660000  0.05820000  0.00540000  1.0 -0.5279553213
O  O121  1  0.51140000  0.06640000  0.95470000  1.0 -0.510298855
O  O122  1  0.93360000  0.48860000  0.45470000  1.0 -0.510298855
O  O123  1  0.49890000  0.14490000  0.92350000  1.0 -0.5641008892
O  O124  1  0.85510000  0.50110000  0.42350000  1.0 -0.5641008892
