# DDEC6 charges by PACMAN v1.1 (https://github.com/mtap-research/PACMAN-charge/)
data_OLANIA_ASR_pacman
_symmetry_space_group_name_H-M   'P 1'
_cell_length_a   16.28000000
_cell_length_b   18.43000000
_cell_length_c   23.55000000
_cell_angle_alpha   89.06100000
_cell_angle_beta   89.68800000
_cell_angle_gamma   77.70600000
_symmetry_Int_Tables_number   1
_chemical_formula_structural   Na2Mn9Co2H36C92(NO4)12
_chemical_formula_sum   'Na4 Mn18 Co4 H72 C184 N24 O96'
_cell_volume   6902.97318949
_cell_formula_units_Z   2
loop_
 _symmetry_equiv_pos_site_id
 _symmetry_equiv_pos_as_xyz
  1  'x, y, z'
loop_
 _atom_site_type_symbol
 _atom_site_label
 _atom_site_symmetry_multiplicity
 _atom_site_fract_x
 _atom_site_fract_y
 _atom_site_fract_z
 _atom_site_occupancy
 _atom_site_charge
Na  Na1  1  0.25700000  0.39520000  0.84645000  1.0 0.8408182764
Na  Na2  1  0.74300000  0.60480000  0.15355000  1.0 0.8408182764
Na  Na3  1  0.34010000  0.99460000  0.50073000  1.0 0.8521164858
Na  Na4  1  0.65990000  0.00540000  0.49927000  1.0 0.8521164858
Mn  Mn1  1  0.76220000  0.21368000  0.48766000  1.0 1.0007310414
Mn  Mn2  1  0.23780000  0.78632000  0.51234000  1.0 1.0007310414
Mn  Mn3  1  0.62149000  0.98886000  0.84895000  1.0 1.0007310414
Mn  Mn4  1  0.37851000  0.01114000  0.15105000  1.0 1.0007310414
Mn  Mn5  1  0.76244000  0.81815000  0.85318000  1.0 1.0437724197
Mn  Mn6  1  0.23756000  0.18185000  0.14682000  1.0 1.0437724197
Mn  Mn7  1  0.63677000  0.49720000  0.02566000  1.0 1.1103162968
Mn  Mn8  1  0.36323000  0.50280000  0.97434000  1.0 1.1103162968
Mn  Mn9  1  0.83853000  0.55527000  0.99513000  1.0 1.0596155727
Mn  Mn10  1  0.16147000  0.44473000  0.00487000  1.0 1.0596155727
Mn  Mn11  1  0.05241000  0.73623000  0.16850000  1.0 0.8920959437
Mn  Mn12  1  0.94759000  0.26377000  0.83150000  1.0 0.8920959437
Mn  Mn13  1  0.42215000  0.41155000  0.67265000  1.0 0.6100488209
Mn  Mn14  1  0.57785000  0.58845000  0.32735000  1.0 0.6100488209
Mn  Mn15  1  0.81889000  0.71154000  0.35376000  1.0 0.936797043
Mn  Mn16  1  0.18111000  0.28846000  0.64624000  1.0 0.9333400928
Mn  Mn17  1  0.35168000  0.48869000  0.70909000  1.0 0.5794473393
Mn  Mn18  1  0.64832000  0.51131000  0.29091000  1.0 0.5794473393
Co  Co1  1  0.75710000  0.61740000  0.66666667  1.0 0.5994204485
Co  Co2  1  0.24290000  0.38260000  0.33333333  1.0 0.5994204485
Co  Co3  1  0.77730000  0.10698000  0.15561000  1.0 0.5893513167
Co  Co4  1  0.22270000  0.89302000  0.84439000  1.0 0.5893513167
H  H1  1  0.60640000  0.70540000  0.83470000  1.0 0.1393460257
H  H2  1  0.39360000  0.29460000  0.16530000  1.0 0.1393460257
H  H3  1  0.47860000  0.68230000  0.80460000  1.0 0.1212707075
H  H4  1  0.52140000  0.31770000  0.19540000  1.0 0.1212707075
H  H5  1  0.46620000  0.63730000  0.71310000  1.0 0.1393460257
H  H6  1  0.53380000  0.36270000  0.28690000  1.0 0.1393460257
H  H7  1  0.70280000  0.44720000  0.58830000  1.0 0.1393460257
H  H8  1  0.29720000  0.55280000  0.41170000  1.0 0.1393460257
H  H9  1  0.75730000  0.46760000  0.42320000  1.0 0.1212707075
H  H10  1  0.24270000  0.53240000  0.57680000  1.0 0.1212707075
H  H11  1  0.70380000  0.64660000  0.52050000  1.0 0.1393460257
H  H12  1  0.29620000  0.35340000  0.47950000  1.0 0.1393460257
H  H13  1  0.90350000  0.73360000  0.67810000  1.0 0.1212707075
H  H14  1  0.09650000  0.26640000  0.32190000  1.0 0.1212707075
H  H15  1  0.12840000  0.63150000  0.74340000  1.0 0.1308809544
H  H16  1  0.87160000  0.36850000  0.25660000  1.0 0.1308809544
H  H17  1  0.91560000  0.57360000  0.79720000  1.0 0.1393460257
H  H18  1  0.08440000  0.42640000  0.20280000  1.0 0.1393460257
H  H19  1  0.00760000  0.44120000  0.61890000  1.0 0.1492389453
H  H20  1  0.99240000  0.55880000  0.38110000  1.0 0.1492389453
H  H21  1  0.05390000  0.51770000  0.55260000  1.0 0.1308809544
H  H22  1  0.94610000  0.48230000  0.44740000  1.0 0.1308809544
H  H23  1  0.96930000  0.63400000  0.52830000  1.0 0.1492389453
H  H24  1  0.03070000  0.36600000  0.47170000  1.0 0.1492389453
H  H25  1  0.63610000  0.77920000  0.55640000  1.0 0.1393460257
H  H26  1  0.36390000  0.22080000  0.44360000  1.0 0.1393460257
H  H27  1  0.55440000  0.95650000  0.65400000  1.0 0.1212707075
H  H28  1  0.44560000  0.04350000  0.34600000  1.0 0.1212707075
H  H29  1  0.74950000  0.79630000  0.70510000  1.0 0.1308809544
H  H30  1  0.25050000  0.20370000  0.29490000  1.0 0.1308809544
H  H31  1  0.65530000  0.45960000  0.69730000  1.0 0.1393460257
H  H32  1  0.34470000  0.54040000  0.30270000  1.0 0.1393460257
H  H33  1  0.60810000  0.44770000  0.86420000  1.0 0.1393460257
H  H34  1  0.39190000  0.55230000  0.13580000  1.0 0.1393460257
H  H35  1  0.81020000  0.52100000  0.81040000  1.0 0.1393460257
H  H36  1  0.18980000  0.47900000  0.18960000  1.0 0.1393460257
H  H37  1  0.61420000  0.23290000  0.30860000  1.0 0.1492389453
H  H38  1  0.38580000  0.76710000  0.69140000  1.0 0.1492389453
H  H39  1  0.55060000  0.13530000  0.33090000  1.0 0.1212707075
H  H40  1  0.44940000  0.86470000  0.66910000  1.0 0.1212707075
H  H41  1  0.56910000  0.03190000  0.27390000  1.0 0.1492389453
H  H42  1  0.43090000  0.96810000  0.72610000  1.0 0.1492389453
H  H43  1  0.84110000  0.88930000  0.14610000  1.0 0.1393460257
H  H44  1  0.15890000  0.11070000  0.85390000  1.0 0.1393460257
H  H45  1  0.83570000  0.83510000  0.98130000  1.0 0.1308809544
H  H46  1  0.16430000  0.16490000  0.01870000  1.0 0.1308809544
H  H47  1  0.69080000  0.02450000  0.03720000  1.0 0.1393460257
H  H48  1  0.30920000  0.97550000  0.96280000  1.0 0.1393460257
H  H49  1  0.95160000  0.18040000  0.18860000  1.0 0.1308809544
H  H50  1  0.04840000  0.81960000  0.81140000  1.0 0.1308809544
H  H51  1  0.98940000  0.33460000  0.07350000  1.0 0.1393460257
H  H52  1  0.01060000  0.66540000  0.92650000  1.0 0.1393460257
H  H53  1  0.75510000  0.32330000  0.12140000  1.0 0.1393460257
H  H54  1  0.24490000  0.67670000  0.87860000  1.0 0.1393460257
H  H55  1  0.06500000  0.01220000  0.10230000  1.0 0.1550126129
H  H56  1  0.93500000  0.98780000  0.89770000  1.0 0.1492389453
H  H57  1  0.05260000  0.06880000  0.01400000  1.0 0.1212707075
H  H58  1  0.94740000  0.93120000  0.98600000  1.0 0.1212707075
H  H59  1  0.92430000  0.13740000  0.98280000  1.0 0.1492389453
H  H60  1  0.07570000  0.86260000  0.01720000  1.0 0.1492389453
H  H61  1  0.65910000  0.29480000  0.05200000  1.0 0.1308809544
H  H62  1  0.34090000  0.70520000  0.94800000  1.0 0.1308809544
H  H63  1  0.41380000  0.29150000  0.05820000  1.0 0.1308809544
H  H64  1  0.58620000  0.70850000  0.94180000  1.0 0.1308809544
H  H65  1  0.58470000  0.11390000  0.11180000  1.0 0.1308809544
H  H66  1  0.41530000  0.88610000  0.88820000  1.0 0.1308809544
H  H67  1  0.85370000  0.91860000  0.24530000  1.0 0.1393460257
H  H68  1  0.14630000  0.08140000  0.75470000  1.0 0.1393460257
H  H69  1  0.78030000  0.97090000  0.40420000  1.0 0.1212707075
H  H70  1  0.21970000  0.02910000  0.59580000  1.0 0.1212707075
H  H71  1  0.83090000  0.12770000  0.29840000  1.0 0.1393460257
H  H72  1  0.16910000  0.87230000  0.70160000  1.0 0.1393460257
C  C1  1  0.75610000  0.68160000  0.77320000  1.0 0.4394477882
C  C2  1  0.24390000  0.31840000  0.22680000  1.0 0.4394477882
C  C3  1  0.66830000  0.67400000  0.76170000  1.0 0.1103168674
C  C4  1  0.33170000  0.32600000  0.23830000  1.0 0.1103168674
C  C5  1  0.60100000  0.68750000  0.79850000  1.0 -0.1301224793
C  C6  1  0.39900000  0.31250000  0.20150000  1.0 -0.1301224793
C  C7  1  0.52480000  0.67360000  0.78030000  1.0 -0.0286893796
C  C8  1  0.47520000  0.32640000  0.21970000  1.0 -0.0286893796
C  C9  1  0.51700000  0.64660000  0.72570000  1.0 -0.111257224
C  C10  1  0.48300000  0.35340000  0.27430000  1.0 -0.1035047642
C  C11  1  0.58780000  0.63410000  0.69120000  1.0 0.1103168674
C  C12  1  0.41220000  0.36590000  0.30880000  1.0 0.1103168674
C  C13  1  0.59670000  0.60010000  0.63420000  1.0 0.4189568513
C  C14  1  0.40330000  0.39990000  0.36580000  1.0 0.4189568513
C  C15  1  0.69760000  0.55250000  0.56310000  1.0 0.2188388808
C  C16  1  0.30240000  0.44750000  0.43690000  1.0 0.2188388808
C  C17  1  0.70910000  0.47680000  0.55690000  1.0 -0.1709706879
C  C18  1  0.29090000  0.52320000  0.44310000  1.0 -0.1709706879
C  C19  1  0.72990000  0.44390000  0.50480000  1.0 0.0066201421
C  C20  1  0.27010000  0.55610000  0.49520000  1.0 0.0066201421
C  C21  1  0.74300000  0.48870000  0.45850000  1.0 -0.1180390253
C  C22  1  0.25700000  0.51130000  0.54150000  1.0 -0.1180390253
C  C23  1  0.73460000  0.56400000  0.46520000  1.0 -0.0190597722
C  C24  1  0.26540000  0.43600000  0.53480000  1.0 -0.0190597722
C  C25  1  0.71100000  0.59550000  0.51670000  1.0 -0.1798747818
C  C26  1  0.28900000  0.40450000  0.48330000  1.0 -0.1798747818
C  C27  1  0.74180000  0.36140000  0.49830000  1.0 0.5381995046
C  C28  1  0.25820000  0.63860000  0.50170000  1.0 0.5381995046
C  C29  1  0.75960000  0.61590000  0.42060000  1.0 0.5215245489
C  C30  1  0.24040000  0.38410000  0.57940000  1.0 0.5215245489
C  C31  1  0.89570000  0.65420000  0.73610000  1.0 0.2297111728
C  C32  1  0.10430000  0.34580000  0.26390000  1.0 0.2297111728
C  C33  1  0.93460000  0.69830000  0.70260000  1.0 -0.231441634
C  C34  1  0.06540000  0.30170000  0.29740000  1.0 -0.231441634
C  C35  1  0.02320000  0.68920000  0.70610000  1.0 -0.0190597722
C  C36  1  0.97680000  0.31080000  0.29390000  1.0 -0.0190597722
C  C37  1  0.07030000  0.63710000  0.74180000  1.0 -0.1035047642
C  C38  1  0.92970000  0.36290000  0.25820000  1.0 -0.1035047642
C  C39  1  0.02950000  0.59280000  0.77580000  1.0 0.0185087078
C  C40  1  0.97050000  0.40720000  0.22420000  1.0 0.0185087078
C  C41  1  0.94270000  0.60220000  0.77356000  1.0 -0.1709706879
C  C42  1  0.05730000  0.39780000  0.22644000  1.0 -0.1709706879
C  C43  1  0.07770000  0.53070000  0.81330000  1.0 0.5319691105
C  C44  1  0.92230000  0.46930000  0.18670000  1.0 0.5319691105
C  C45  1  0.06420000  0.73440000  0.66570000  1.0 0.4394477882
C  C46  1  0.93580000  0.26560000  0.33430000  1.0 0.4394477882
C  C47  1  0.85940000  0.47650000  0.68440000  1.0 0.4318973922
C  C48  1  0.14060000  0.52350000  0.31560000  1.0 0.4318973922
C  C49  1  0.90000000  0.51430000  0.63790000  1.0 0.1212707075
C  C50  1  0.10000000  0.48570000  0.36210000  1.0 0.1212707075
C  C51  1  0.97560000  0.48820000  0.61060000  1.0 -0.111257224
C  C52  1  0.02440000  0.51180000  0.38940000  1.0 -0.111257224
C  C53  1  0.00240000  0.53380000  0.57060000  1.0 -0.0286893796
C  C54  1  0.99760000  0.46620000  0.42940000  1.0 -0.0286893796
C  C55  1  0.95290000  0.60420000  0.55660000  1.0 -0.1362963564
C  C56  1  0.04710000  0.39580000  0.44340000  1.0 -0.1362963564
C  C57  1  0.87860000  0.62720000  0.58650000  1.0 0.1013409399
C  C58  1  0.12140000  0.37280000  0.41350000  1.0 0.1013409399
C  C59  1  0.82000000  0.70100000  0.58260000  1.0 0.4087988341
C  C60  1  0.18000000  0.29900000  0.41740000  1.0 0.4087988341
C  C61  1  0.70200000  0.77670000  0.62900000  1.0 0.2297111728
C  C62  1  0.29800000  0.22330000  0.37100000  1.0 0.2297111728
C  C63  1  0.64090000  0.80540000  0.58920000  1.0 -0.1709706879
C  C64  1  0.35910000  0.19460000  0.41080000  1.0 -0.1709706879
C  C65  1  0.58640000  0.87370000  0.59860000  1.0 -0.0286893796
C  C66  1  0.41360000  0.12630000  0.40140000  1.0 -0.0286893796
C  C67  1  0.59090000  0.91100000  0.64830000  1.0 -0.1180390253
C  C68  1  0.40910000  0.08900000  0.35170000  1.0 -0.1180390253
C  C69  1  0.64970000  0.88150000  0.69030000  1.0 -0.0286893796
C  C70  1  0.35030000  0.11850000  0.30970000  1.0 -0.0286893796
C  C71  1  0.70730000  0.81500000  0.67900000  1.0 -0.1798747818
C  C72  1  0.29270000  0.18500000  0.32100000  1.0 -0.1798747818
C  C73  1  0.51980000  0.90130000  0.55520000  1.0 0.5319691105
C  C74  1  0.48020000  0.09870000  0.44480000  1.0 0.5319691105
C  C75  1  0.65060000  0.91540000  0.74610000  1.0 0.5794473393
C  C76  1  0.34940000  0.08460000  0.25390000  1.0 0.5794473393
C  C77  1  0.74090000  0.49340000  0.74630000  1.0 0.2188388808
C  C78  1  0.25910000  0.50660000  0.25370000  1.0 0.2188388808
C  C79  1  0.66990000  0.46660000  0.73460000  1.0 -0.1913113019
C  C80  1  0.33010000  0.53340000  0.26540000  1.0 -0.1913113019
C  C81  1  0.62020000  0.45000000  0.77970000  1.0 -0.0190597722
C  C82  1  0.37980000  0.55000000  0.22030000  1.0 -0.0190597722
C  C83  1  0.64180000  0.45870000  0.83470000  1.0 -0.111257224
C  C84  1  0.35820000  0.54130000  0.16530000  1.0 -0.111257224
C  C85  1  0.71410000  0.48370000  0.84640000  1.0 -0.0035590504
C  C86  1  0.28590000  0.51630000  0.15360000  1.0 -0.0035590504
C  C87  1  0.76280000  0.50240000  0.80242000  1.0 -0.1798747818
C  C88  1  0.23720000  0.49760000  0.19758000  1.0 -0.1798747818
C  C89  1  0.54050000  0.42430000  0.76710000  1.0 0.5136878096
C  C90  1  0.45950000  0.57570000  0.23290000  1.0 0.5215245489
C  C91  1  0.73550000  0.49580000  0.90730000  1.0 0.5794473393
C  C92  1  0.26450000  0.50420000  0.09270000  1.0 0.5794473393
C  C93  1  0.73040000  0.23600000  0.22000000  1.0 0.4189568513
C  C94  1  0.26960000  0.76400000  0.78000000  1.0 0.4189568513
C  C95  1  0.67850000  0.18240000  0.24005000  1.0 0.1103168674
C  C96  1  0.32150000  0.81760000  0.75995000  1.0 0.1103168674
C  C97  1  0.62400000  0.19030000  0.28680000  1.0 -0.1180390253
C  C98  1  0.37600000  0.80970000  0.71320000  1.0 -0.1180390253
C  C99  1  0.58550000  0.13240000  0.29920000  1.0 -0.0490462354
C  C100  1  0.41450000  0.86760000  0.70080000  1.0 -0.0490462354
C  C101  1  0.59700000  0.07000000  0.26590000  1.0 -0.1035047642
C  C102  1  0.40300000  0.93000000  0.73410000  1.0 -0.1035047642
C  C103  1  0.65180000  0.06580000  0.21980000  1.0 0.1103168674
C  C104  1  0.34820000  0.93420000  0.78020000  1.0 0.1103168674
C  C105  1  0.67760000  0.00360000  0.17920000  1.0 0.4189568513
C  C106  1  0.32240000  0.99640000  0.82080000  1.0 0.4189568513
C  C107  1  0.76210000  0.96520000  0.09830000  1.0 0.2188388808
C  C108  1  0.23790000  0.03480000  0.90170000  1.0 0.2188388808
C  C109  1  0.82030000  0.90000000  0.10950000  1.0 -0.1709706879
C  C110  1  0.17970000  0.10000000  0.89050000  1.0 -0.1709706879
C  C111  1  0.84750000  0.85070000  0.06600000  1.0 -0.0075612697
C  C112  1  0.15250000  0.14930000  0.93400000  1.0 -0.0075612697
C  C113  1  0.81670000  0.86750000  0.01070000  1.0 -0.111257224
C  C114  1  0.18330000  0.13250000  0.98930000  1.0 -0.111257224
C  C115  1  0.75800000  0.93250000  0.00020000  1.0 -0.0286893796
C  C116  1  0.24200000  0.06750000  0.99980000  1.0 -0.0286893796
C  C117  1  0.73070000  0.98100000  0.04420000  1.0 -0.1709706879
C  C118  1  0.26930000  0.01900000  0.95580000  1.0 -0.1709706879
C  C119  1  0.91070000  0.77920000  0.07870000  1.0 0.5381995046
C  C120  1  0.08930000  0.22080000  0.92130000  1.0 0.5381995046
C  C121  1  0.72170000  0.95080000  0.94250000  1.0 0.5794473393
C  C122  1  0.27830000  0.04920000  0.05750000  1.0 0.5794473393
C  C123  1  0.84420000  0.24410000  0.15809000  1.0 0.2145420813
C  C124  1  0.15580000  0.75590000  0.84191000  1.0 0.2145420813
C  C125  1  0.93010000  0.21920000  0.16357000  1.0 -0.2032615191
C  C126  1  0.06990000  0.78080000  0.83643000  1.0 -0.2032615191
C  C127  1  0.98470000  0.25280000  0.13125000  1.0 0.0047167425
C  C128  1  0.01530000  0.74720000  0.86875000  1.0 0.0066201421
C  C129  1  0.95330000  0.31320000  0.09565000  1.0 -0.1035047642
C  C130  1  0.04670000  0.68680000  0.90435000  1.0 -0.1035047642
C  C131  1  0.86640000  0.34120000  0.09375000  1.0 0.0066201421
C  C132  1  0.13360000  0.65880000  0.90625000  1.0 0.0066201421
C  C133  1  0.81290000  0.30560000  0.12399000  1.0 -0.1599645959
C  C134  1  0.18710000  0.69440000  0.87601000  1.0 -0.1599645959
C  C135  1  0.07710000  0.22190000  0.13602000  1.0 0.5319691105
C  C136  1  0.92290000  0.77810000  0.86398000  1.0 0.5319691105
C  C137  1  0.82740000  0.41120000  0.06080000  1.0 0.5893513167
C  C138  1  0.17260000  0.58880000  0.93920000  1.0 0.5893513167
C  C139  1  0.93770000  0.02250000  0.18420000  1.0 0.4189568513
C  C140  1  0.06230000  0.97750000  0.81580000  1.0 0.4189568513
C  C141  1  0.94220000  0.05000000  0.12500000  1.0 0.1103168674
C  C142  1  0.05780000  0.95000000  0.87500000  1.0 0.1103168674
C  C143  1  0.01370000  0.04040000  0.09000000  1.0 -0.1180390253
C  C144  1  0.98630000  0.95960000  0.91000000  1.0 -0.1180390253
C  C145  1  0.00570000  0.07370000  0.03750000  1.0 -0.0490462354
C  C146  1  0.99430000  0.92630000  0.96250000  1.0 -0.0490462354
C  C147  1  0.92940000  0.11460000  0.01850000  1.0 -0.1301224793
C  C148  1  0.07060000  0.88540000  0.98150000  1.0 -0.1301224793
C  C149  1  0.86030000  0.12070000  0.05450000  1.0 0.1103168674
C  C150  1  0.13970000  0.87930000  0.94550000  1.0 0.1103168674
C  C151  1  0.77210000  0.16110000  0.04297000  1.0 0.4189568513
C  C152  1  0.22790000  0.83890000  0.95703000  1.0 0.4189568513
C  C153  1  0.63670000  0.19780000  0.08274000  1.0 0.2297111728
C  C154  1  0.36330000  0.80220000  0.91726000  1.0 0.2297111728
C  C155  1  0.61640000  0.26990000  0.06036000  1.0 -0.1599645959
C  C156  1  0.38360000  0.73010000  0.93964000  1.0 -0.1599645959
C  C157  1  0.53360000  0.30470000  0.05038000  1.0 -0.0190597722
C  C158  1  0.46640000  0.69530000  0.94962000  1.0 -0.0190597722
C  C159  1  0.46960000  0.26840000  0.06490000  1.0 -0.111257224
C  C160  1  0.53040000  0.73160000  0.93510000  1.0 -0.111257224
C  C161  1  0.48900000  0.19750000  0.08940000  1.0 -0.0190597722
C  C162  1  0.51100000  0.80250000  0.91060000  1.0 -0.0286893796
C  C163  1  0.57190000  0.16200000  0.09700000  1.0 -0.1798747818
C  C164  1  0.42810000  0.83800000  0.90300000  1.0 -0.1798747818
C  C165  1  0.51410000  0.38080000  0.02199000  1.0 0.5794473393
C  C166  1  0.48590000  0.61920000  0.97801000  1.0 0.5794473393
C  C167  1  0.42070000  0.15940000  0.10760000  1.0 0.5794473393
C  C168  1  0.57930000  0.84060000  0.89240000  1.0 0.5794473393
C  C169  1  0.84550000  0.02760000  0.26266000  1.0 0.2297111728
C  C170  1  0.15450000  0.97240000  0.73734000  1.0 0.2297111728
C  C171  1  0.84090000  0.95360000  0.27380000  1.0 -0.1504195242
C  C172  1  0.15910000  0.04640000  0.72620000  1.0 -0.1504195242
C  C173  1  0.81760000  0.93250000  0.32720000  1.0 -0.0190597722
C  C174  1  0.18240000  0.06750000  0.67280000  1.0 -0.0190597722
C  C175  1  0.79760000  0.98500000  0.36870000  1.0 -0.111257224
C  C176  1  0.20240000  0.01500000  0.63130000  1.0 -0.111257224
C  C177  1  0.80250000  0.05880000  0.35910000  1.0 -0.0190597722
C  C178  1  0.19750000  0.94120000  0.64090000  1.0 -0.0190597722
C  C179  1  0.82690000  0.07880000  0.30560000  1.0 -0.1599645959
C  C180  1  0.17310000  0.92120000  0.69440000  1.0 -0.1599645959
C  C181  1  0.81460000  0.85360000  0.33690000  1.0 0.5381995046
C  C182  1  0.18540000  0.14640000  0.66310000  1.0 0.5381995046
C  C183  1  0.78270000  0.11480000  0.40400000  1.0 0.5593179369
C  C184  1  0.21730000  0.88520000  0.59600000  1.0 0.5593179369
N  N1  1  0.80800000  0.65730000  0.73073000  1.0 -0.4161759711
N  N2  1  0.19200000  0.34270000  0.26927000  1.0 -0.4161759711
N  N3  1  0.66050000  0.64810000  0.70981000  1.0 -0.2164028159
N  N4  1  0.33950000  0.35190000  0.29019000  1.0 -0.2164028159
N  N5  1  0.67700000  0.58670000  0.61612000  1.0 -0.4304734316
N  N6  1  0.32300000  0.41330000  0.38388000  1.0 -0.4304734316
N  N7  1  0.78790000  0.51810000  0.70117000  1.0 -0.4304734316
N  N8  1  0.21210000  0.48190000  0.29883000  1.0 -0.4304734316
N  N9  1  0.85460000  0.58250000  0.62536000  1.0 -0.2084601543
N  N10  1  0.14540000  0.41750000  0.37464000  1.0 -0.2084601543
N  N11  1  0.75880000  0.70630000  0.62204000  1.0 -0.4398710749
N  N12  1  0.24120000  0.29370000  0.37796000  1.0 -0.4398710749
N  N13  1  0.78980000  0.20320000  0.18472000  1.0 -0.4304734316
N  N14  1  0.21020000  0.79680000  0.81528000  1.0 -0.4304734316
N  N15  1  0.69090000  0.12170000  0.20898000  1.0 -0.2084601543
N  N16  1  0.30910000  0.87830000  0.79102000  1.0 -0.2084601543
N  N17  1  0.73450000  0.01730000  0.14257000  1.0 -0.4398710749
N  N18  1  0.26550000  0.98270000  0.85743000  1.0 -0.4398710749
N  N19  1  0.86240000  0.05040000  0.20718000  1.0 -0.4304734316
N  N20  1  0.13760000  0.94960000  0.79282000  1.0 -0.4304734316
N  N21  1  0.86870000  0.08910000  0.10613000  1.0 -0.2084601543
N  N22  1  0.13130000  0.91090000  0.89387000  1.0 -0.2084601543
N  N23  1  0.72220000  0.15920000  0.08820000  1.0 -0.4398710749
N  N24  1  0.27780000  0.84080000  0.91180000  1.0 -0.4398710749
O  O1  1  0.77370000  0.70958000  0.81836000  1.0 -0.4398710749
O  O2  1  0.22630000  0.29042000  0.18164000  1.0 -0.4398710749
O  O3  1  0.53480000  0.58700000  0.60770000  1.0 -0.4161759711
O  O4  1  0.46520000  0.41300000  0.39230000  1.0 -0.4161759711
O  O5  1  0.75140000  0.31910000  0.54350000  1.0 -0.5936267174
O  O6  1  0.24860000  0.68090000  0.45650000  1.0 -0.5936267174
O  O7  1  0.73890000  0.33550000  0.44870000  1.0 -0.5295405186
O  O8  1  0.26110000  0.66450000  0.55130000  1.0 -0.5295405186
O  O9  1  0.82410000  0.58840000  0.38410000  1.0 -0.4881973064
O  O10  1  0.17590000  0.41160000  0.61590000  1.0 -0.4881973064
O  O11  1  0.75170000  0.67950000  0.42610000  1.0 -0.3724117449
O  O12  1  0.24830000  0.32050000  0.57390000  1.0 -0.3724117449
O  O13  1  0.14030000  0.73550000  0.67495000  1.0 -0.4609667159
O  O14  1  0.85970000  0.26450000  0.32505000  1.0 -0.4609667159
O  O15  1  0.15660000  0.51820000  0.81036000  1.0 -0.572643692
O  O16  1  0.84340000  0.48180000  0.18964000  1.0 -0.572643692
O  O17  1  0.03700000  0.49320000  0.84328000  1.0 -0.4689345456
O  O18  1  0.96300000  0.50680000  0.15672000  1.0 -0.4689345456
O  O19  1  0.89370000  0.41280000  0.70167000  1.0 -0.4534664697
O  O20  1  0.10630000  0.58720000  0.29833000  1.0 -0.4534664697
O  O21  1  0.36630000  0.37610000  0.75731000  1.0 -0.5116174258
O  O22  1  0.63370000  0.62390000  0.24269000  1.0 -0.5004398561
O  O23  1  0.83120000  0.74900000  0.54780000  1.0 -0.4304734316
O  O24  1  0.16880000  0.25100000  0.45220000  1.0 -0.4304734316
O  O25  1  0.46980000  0.96410000  0.56794000  1.0 -0.6085157192
O  O26  1  0.53020000  0.03590000  0.43206000  1.0 -0.5991269863
O  O27  1  0.51080000  0.86720000  0.51380000  1.0 -0.4763430652
O  O28  1  0.48920000  0.13280000  0.48620000  1.0 -0.4763430652
O  O29  1  0.59670000  0.97400000  0.75755000  1.0 -0.5413513486
O  O30  1  0.40330000  0.02600000  0.24245000  1.0 -0.5413513486
O  O31  1  0.70380000  0.88410000  0.78275000  1.0 -0.5991269863
O  O32  1  0.29620000  0.11590000  0.21725000  1.0 -0.5991269863
O  O33  1  0.89790000  0.59810000  0.06665000  1.0 -0.0190597722
O  O34  1  0.10210000  0.40190000  0.93335000  1.0 -0.0286893796
O  O35  1  0.50830000  0.39080000  0.80295000  1.0 -0.3724117449
O  O36  1  0.49170000  0.60920000  0.19705000  1.0 -0.3724117449
O  O37  1  0.71400000  0.58877000  0.04296000  1.0 -0.6699211097
O  O38  1  0.28600000  0.41123000  0.95704000  1.0 -0.6699211097
O  O39  1  0.69390000  0.47030000  0.94478000  1.0 -0.5116174258
O  O40  1  0.30610000  0.52970000  0.05522000  1.0 -0.5116174258
O  O41  1  0.79140000  0.53080000  0.91576000  1.0 -0.5582665599
O  O42  1  0.20860000  0.46920000  0.08424000  1.0 -0.5582665599
O  O43  1  0.71530000  0.30065000  0.23817000  1.0 -0.4010520077
O  O44  1  0.28470000  0.69935000  0.76183000  1.0 -0.4010520077
O  O45  1  0.64390000  0.94815000  0.18116000  1.0 -0.4304734316
O  O46  1  0.35610000  0.05185000  0.81884000  1.0 -0.4304734316
O  O47  1  0.93040000  0.76640000  0.13092000  1.0 -0.5991269863
O  O48  1  0.06960000  0.23360000  0.86908000  1.0 -0.5991269863
O  O49  1  0.93520000  0.73600000  0.03960000  1.0 -0.4763430652
O  O50  1  0.06480000  0.26400000  0.96040000  1.0 -0.4689345456
O  O51  1  0.75710000  0.91830000  0.89974000  1.0 -0.572643692
O  O52  1  0.24290000  0.08170000  0.10026000  1.0 -0.572643692
O  O53  1  0.65440000  0.99980000  0.93726000  1.0 -0.5413513486
O  O54  1  0.34560000  0.00020000  0.06274000  1.0 -0.5413513486
O  O55  1  0.74873000  0.42952000  0.06226000  1.0 -0.5471374786
O  O56  1  0.25127000  0.57048000  0.93774000  1.0 -0.5413513486
O  O57  1  0.87463000  0.44682000  0.03468000  1.0 -0.5413513486
O  O58  1  0.12537000  0.55318000  0.96532000  1.0 -0.5413513486
O  O59  1  0.12500000  0.24160000  0.09929000  1.0 -0.5116174258
O  O60  1  0.87500000  0.75840000  0.90071000  1.0 -0.5116174258
O  O61  1  0.10556000  0.17821000  0.17660000  1.0 -0.5413513486
O  O62  1  0.89444000  0.82179000  0.82340000  1.0 -0.5413513486
O  O63  1  0.99840000  0.98004000  0.20767000  1.0 -0.4398710749
O  O64  1  0.00160000  0.01996000  0.79233000  1.0 -0.4398710749
O  O65  1  0.75170000  0.18830000  0.99465000  1.0 -0.4398710749
O  O66  1  0.24830000  0.81170000  0.00535000  1.0 -0.4398710749
O  O67  1  0.57370000  0.41087000  0.01156000  1.0 -0.5471374786
O  O68  1  0.42630000  0.58913000  0.98844000  1.0 -0.5471374786
O  O69  1  0.43970000  0.40550000  0.00943000  1.0 -0.5004398561
O  O70  1  0.56030000  0.59450000  0.99057000  1.0 -0.5004398561
O  O71  1  0.34660000  0.19580000  0.10268000  1.0 -0.5413513486
O  O72  1  0.65340000  0.80420000  0.89732000  1.0 -0.5413513486
O  O73  1  0.44320000  0.09460000  0.12837000  1.0 -0.5582665599
O  O74  1  0.55680000  0.90540000  0.87163000  1.0 -0.5582665599
O  O75  1  0.77670000  0.83500000  0.37970000  1.0 -0.5189383722
O  O76  1  0.22330000  0.16500000  0.62030000  1.0 -0.5189383722
O  O77  1  0.85000000  0.80540000  0.30210000  1.0 -0.5413513486
O  O78  1  0.15000000  0.19460000  0.69790000  1.0 -0.5413513486
O  O79  1  0.76390000  0.09510000  0.45383000  1.0 -0.6177677012
O  O80  1  0.23610000  0.90490000  0.54617000  1.0 -0.6177677012
O  O81  1  0.78570000  0.18130000  0.39370000  1.0 -0.5004398561
O  O82  1  0.21430000  0.81870000  0.60630000  1.0 -0.5004398561
O  O83  1  0.54180000  0.39510000  0.71440000  1.0 -0.3177303022
O  O84  1  0.45820000  0.60490000  0.28560000  1.0 -0.3177303022
O  O85  1  0.03250000  0.75190000  0.61630000  1.0 -0.0035590504
O  O86  1  0.96750000  0.24810000  0.38370000  1.0 -0.0035590504
O  O87  1  0.38840000  0.41680000  0.64370000  1.0 -0.0490462354
O  O88  1  0.61160000  0.58320000  0.35630000  1.0 -0.0603317528
O  O89  1  0.30170000  0.41430000  0.63760000  1.0 -0.2084601543
O  O90  1  0.69830000  0.58570000  0.36240000  1.0 -0.2084601543
O  O91  1  0.48140000  0.47840000  0.73050000  1.0 -0.1504195242
O  O92  1  0.51860000  0.52160000  0.26950000  1.0 -0.1504195242
O  O93  1  0.01790000  0.79540000  0.64720000  1.0 0.0047167425
O  O94  1  0.98210000  0.20460000  0.35280000  1.0 0.0185087078
O  O95  1  0.38200000  0.52400000  0.70270000  1.0 -0.2822193003
O  O96  1  0.61800000  0.47600000  0.29730000  1.0 -0.2822193003
