# DDEC6 charges by PACMAN v1.1 (https://github.com/mtap-research/PACMAN-charge/)
data_OLANEW_FSR_pacman
_symmetry_space_group_name_H-M   'P 1'
_cell_length_a   16.41300000
_cell_length_b   18.43000000
_cell_length_c   24.70000000
_cell_angle_alpha   87.90000000
_cell_angle_beta   85.39500000
_cell_angle_gamma   75.05800000
_symmetry_Int_Tables_number   1
_chemical_formula_structural   Cd8Co2H38C92N12O61
_chemical_formula_sum   'Cd16 Co4 H76 C184 N24 O122'
_cell_volume   7194.61995653
_cell_formula_units_Z   2
loop_
 _symmetry_equiv_pos_site_id
 _symmetry_equiv_pos_as_xyz
  1  'x, y, z'
loop_
 _atom_site_type_symbol
 _atom_site_label
 _atom_site_symmetry_multiplicity
 _atom_site_fract_x
 _atom_site_fract_y
 _atom_site_fract_z
 _atom_site_occupancy
 _atom_site_charge
Cd  Cd1  1  0.24619000  0.17842000  0.35282000  1.0 1.0674997689
Cd  Cd2  1  0.75381000  0.82158000  0.64718000  1.0 1.0674997689
Cd  Cd3  1  0.91889000  0.32951000  0.55407000  1.0 1.1245026709
Cd  Cd4  1  0.08111000  0.67049000  0.44593000  1.0 1.1250883461
Cd  Cd5  1  0.63596000  0.48584000  0.49610000  1.0 1.3212466361
Cd  Cd6  1  0.36404000  0.51416000  0.50390000  1.0 1.3212466361
Cd  Cd7  1  0.72753000  0.23500000  0.03138000  1.0 1.2228725673
Cd  Cd8  1  0.27247000  0.76500000  0.96862000  1.0 1.2228725673
Cd  Cd9  1  0.83462000  0.69990000  0.15594000  1.0 1.2228725673
Cd  Cd10  1  0.16538000  0.30010000  0.84406000  1.0 1.2228725673
Cd  Cd11  1  0.60639000  0.99649000  0.64364000  1.0 1.1604846837
Cd  Cd12  1  0.39361000  0.00351000  0.35636000  1.0 1.1714841248
Cd  Cd13  1  0.60974000  0.49941000  0.18520000  1.0 1.2937171977
Cd  Cd14  1  0.39026000  0.50059000  0.81480000  1.0 1.2937171977
Cd  Cd15  1  0.66898000  0.05213000  0.99895000  1.0 1.2937171977
Cd  Cd16  1  0.33102000  0.94787000  0.00105000  1.0 1.3038811804
Co  Co1  1  0.79073000  0.10140000  0.33712000  1.0 0.6128621818
Co  Co2  1  0.20927000  0.89860000  0.66288000  1.0 0.6128621818
Co  Co3  1  0.23631000  0.36464000  0.15232000  1.0 0.6190980495
Co  Co4  1  0.76369000  0.63536000  0.84768000  1.0 0.6190980495
H  H1  1  0.85320000  0.22950000  0.14420000  1.0 0.3809294821
H  H2  1  0.14680000  0.77050000  0.85580000  1.0 0.3809294821
H  H3  1  0.79060000  0.50410000  0.31070000  1.0 0.3950143577
H  H4  1  0.20940000  0.49590000  0.68930000  1.0 0.3950143577
H  H5  1  0.58850000  0.03450000  0.23530000  1.0 0.1579892011
H  H6  1  0.41150000  0.96550000  0.76470000  1.0 0.1579892011
H  H7  1  0.56630000  0.14030000  0.18080000  1.0 0.1303894615
H  H8  1  0.43370000  0.85970000  0.81920000  1.0 0.1303894615
H  H9  1  0.63150000  0.23430000  0.19420000  1.0 0.1495694399
H  H10  1  0.36850000  0.76570000  0.80580000  1.0 0.1495694399
H  H11  1  0.96450000  0.17890000  0.30570000  1.0 0.1495694399
H  H12  1  0.03550000  0.82110000  0.69430000  1.0 0.1495694399
H  H13  1  0.97740000  0.31640000  0.42440000  1.0 0.1404533455
H  H14  1  0.02260000  0.68360000  0.57560000  1.0 0.1404533455
H  H15  1  0.75250000  0.31650000  0.37140000  1.0 0.1495694399
H  H16  1  0.24750000  0.68350000  0.62860000  1.0 0.1495694399
H  H17  1  0.68150000  0.01950000  0.45130000  1.0 0.1495694399
H  H18  1  0.31850000  0.98050000  0.54870000  1.0 0.1495694399
H  H19  1  0.84650000  0.85110000  0.52190000  1.0 0.1404533455
H  H20  1  0.15350000  0.14890000  0.47810000  1.0 0.1404533455
H  H21  1  0.87810000  0.89300000  0.36220000  1.0 0.1495694399
H  H22  1  0.12190000  0.10700000  0.63780000  1.0 0.1495694399
H  H23  1  0.07980000  0.00390000  0.37670000  1.0 0.1660939576
H  H24  1  0.92020000  0.99610000  0.62330000  1.0 0.1660939576
H  H25  1  0.06110000  0.05100000  0.46360000  1.0 0.1303894615
H  H26  1  0.93890000  0.94900000  0.53640000  1.0 0.1303894615
H  H27  1  0.92690000  0.11580000  0.49840000  1.0 0.1495694399
H  H28  1  0.07310000  0.88420000  0.50160000  1.0 0.1495694399
H  H29  1  0.66130000  0.28710000  0.43950000  1.0 0.1404533455
H  H30  1  0.33870000  0.71290000  0.56050000  1.0 0.1404533455
H  H31  1  0.41830000  0.30090000  0.41990000  1.0 0.1303894615
H  H32  1  0.58170000  0.69910000  0.58010000  1.0 0.1303894615
H  H33  1  0.59510000  0.11300000  0.38150000  1.0 0.1404533455
H  H34  1  0.40490000  0.88700000  0.61850000  1.0 0.1404533455
H  H35  1  0.87430000  0.91270000  0.25400000  1.0 0.1495694399
H  H36  1  0.12570000  0.08730000  0.74600000  1.0 0.1495694399
H  H37  1  0.79030000  0.96650000  0.10580000  1.0 0.1303894615
H  H38  1  0.20970000  0.03350000  0.89420000  1.0 0.1303894615
H  H39  1  0.84810000  0.12070000  0.19500000  1.0 0.1404533455
H  H40  1  0.15190000  0.87930000  0.80500000  1.0 0.1404533455
H  H41  1  0.98080000  0.51910000  0.08580000  1.0 0.1579892011
H  H42  1  0.01920000  0.48090000  0.91420000  1.0 0.1579892011
H  H43  1  0.95780000  0.42690000  0.03280000  1.0 0.1404533455
H  H44  1  0.04220000  0.57310000  0.96720000  1.0 0.1404533455
H  H45  1  0.05420000  0.31010000  0.02770000  1.0 0.1660939576
H  H46  1  0.94580000  0.68990000  0.97230000  1.0 0.1660939576
H  H47  1  0.26460000  0.18100000  0.20870000  1.0 0.1404533455
H  H48  1  0.73540000  0.81900000  0.79130000  1.0 0.1404533455
H  H49  1  0.48310000  0.03160000  0.16760000  1.0 0.1303894615
H  H50  1  0.51690000  0.96840000  0.83240000  1.0 0.1303894615
H  H51  1  0.39130000  0.20150000  0.06460000  1.0 0.1495694399
H  H52  1  0.60870000  0.79850000  0.93540000  1.0 0.1495694399
H  H53  1  0.33410000  0.50350000  0.17160000  1.0 0.1404533455
H  H54  1  0.66590000  0.49650000  0.82840000  1.0 0.1404533455
H  H55  1  0.30730000  0.59600000  0.31760000  1.0 0.1404533455
H  H56  1  0.69270000  0.40400000  0.68240000  1.0 0.1404533455
H  H57  1  0.11710000  0.52790000  0.26380000  1.0 0.1495694399
H  H58  1  0.88290000  0.47210000  0.73620000  1.0 0.1495694399
H  H59  1  0.52280000  0.34630000  0.18610000  1.0 0.1495694399
H  H60  1  0.47720000  0.65370000  0.81390000  1.0 0.1495694399
H  H61  1  0.50750000  0.31910000  0.27720000  1.0 0.1303894615
H  H62  1  0.49250000  0.68090000  0.72280000  1.0 0.1303894615
H  H63  1  0.37630000  0.30390000  0.31650000  1.0 0.1495694399
H  H64  1  0.62370000  0.69610000  0.68350000  1.0 0.1495694399
H  H65  1  0.05920000  0.41810000  0.28310000  1.0 0.1495694399
H  H66  1  0.94080000  0.58190000  0.71690000  1.0 0.1495694399
H  H67  1  0.86270000  0.35550000  0.22920000  1.0 0.1303894615
H  H68  1  0.13730000  0.64450000  0.77080000  1.0 0.1303894615
H  H69  1  0.09910000  0.24910000  0.17920000  1.0 0.1495694399
H  H70  1  0.90090000  0.75090000  0.82080000  1.0 0.1495694399
H  H71  1  0.28000000  0.33580000  0.01090000  1.0 0.1404533455
H  H72  1  0.72000000  0.66420000  0.98910000  1.0 0.1404533455
H  H73  1  0.22490000  0.52480000  0.92020000  1.0 0.1303894615
H  H74  1  0.77510000  0.47520000  0.07980000  1.0 0.1303894615
H  H75  1  0.31600000  0.52630000  0.06660000  1.0 0.1495694399
H  H76  1  0.68400000  0.47370000  0.93340000  1.0 0.1495694399
C  C1  1  0.69690000  0.99930000  0.32070000  1.0 0.4196639977
C  C2  1  0.30310000  0.00070000  0.67930000  1.0 0.4196639977
C  C3  1  0.67060000  0.06280000  0.28110000  1.0 0.0903671579
C  C4  1  0.32940000  0.93720000  0.71890000  1.0 0.0903671579
C  C5  1  0.61610000  0.07150000  0.24080000  1.0 -0.1094156234
C  C6  1  0.38390000  0.92850000  0.75920000  1.0 -0.1094156234
C  C7  1  0.60250000  0.13530000  0.20860000  1.0 -0.0392536593
C  C8  1  0.39750000  0.86470000  0.79140000  1.0 -0.0392536593
C  C9  1  0.64040000  0.19150000  0.21630000  1.0 -0.1315131961
C  C10  1  0.35960000  0.80850000  0.78370000  1.0 -0.1315131961
C  C11  1  0.69350000  0.18190000  0.25920000  1.0 0.1303894615
C  C12  1  0.30650000  0.81810000  0.74080000  1.0 0.1303894615
C  C13  1  0.74270000  0.23490000  0.27620000  1.0 0.4285140456
C  C14  1  0.25730000  0.76510000  0.72380000  1.0 0.4285140456
C  C15  1  0.84980000  0.24000000  0.33450000  1.0 0.2198393987
C  C16  1  0.15020000  0.76000000  0.66550000  1.0 0.2198393987
C  C17  1  0.93740000  0.21510000  0.33100000  1.0 -0.1769703059
C  C18  1  0.06260000  0.78490000  0.66900000  1.0 -0.1769703059
C  C19  1  0.98470000  0.24360000  0.36450000  1.0 0.0159446658
C  C20  1  0.01530000  0.75640000  0.63550000  1.0 0.0159446658
C  C21  1  0.94540000  0.29790000  0.40150000  1.0 -0.0990042357
C  C22  1  0.05460000  0.70210000  0.59850000  1.0 -0.0990042357
C  C23  1  0.85690000  0.32560000  0.40470000  1.0 -0.0209121096
C  C24  1  0.14310000  0.67440000  0.59530000  1.0 -0.0209121096
C  C25  1  0.81080000  0.29710000  0.37040000  1.0 -0.1532637853
C  C26  1  0.18920000  0.70290000  0.62960000  1.0 -0.1532637853
C  C27  1  0.08070000  0.21500000  0.36200000  1.0 0.5491088004
C  C28  1  0.91930000  0.78500000  0.63800000  1.0 0.5491088004
C  C29  1  0.81220000  0.38280000  0.44520000  1.0 0.5700142405
C  C30  1  0.18780000  0.61720000  0.55480000  1.0 0.5700142405
C  C31  1  0.77590000  0.96330000  0.39820000  1.0 0.2198393987
C  C32  1  0.22410000  0.03670000  0.60180000  1.0 0.2198393987
C  C33  1  0.73030000  0.98030000  0.44880000  1.0 -0.160171911
C  C34  1  0.26970000  0.01970000  0.55120000  1.0 -0.160171911
C  C35  1  0.75780000  0.93920000  0.49470000  1.0 -0.0107292091
C  C36  1  0.24220000  0.06080000  0.50530000  1.0 -0.0107292091
C  C37  1  0.82930000  0.87960000  0.49110000  1.0 -0.1094156234
C  C38  1  0.17070000  0.12040000  0.50890000  1.0 -0.1094156234
C  C39  1  0.87510000  0.86230000  0.44150000  1.0 0.0113172182
C  C40  1  0.12490000  0.13770000  0.55850000  1.0 0.0113172182
C  C41  1  0.84740000  0.90470000  0.39550000  1.0 -0.1697210921
C  C42  1  0.15260000  0.09530000  0.60450000  1.0 -0.1697210921
C  C43  1  0.70730000  0.95890000  0.54810000  1.0 0.5700142405
C  C44  1  0.29270000  0.04110000  0.45190000  1.0 0.5700142405
C  C45  1  0.95150000  0.79670000  0.43890000  1.0 0.5170371206
C  C46  1  0.04850000  0.20330000  0.56110000  1.0 0.5170371206
C  C47  1  0.95460000  0.01890000  0.30290000  1.0 0.4285140456
C  C48  1  0.04540000  0.98110000  0.69710000  1.0 0.4285140456
C  C49  1  0.95720000  0.04210000  0.36010000  1.0 0.118759366
C  C50  1  0.04280000  0.95790000  0.63990000  1.0 0.118759366
C  C51  1  0.02660000  0.03020000  0.39080000  1.0 -0.0990042357
C  C52  1  0.97340000  0.96980000  0.60920000  1.0 -0.0990042357
C  C53  1  0.01520000  0.05820000  0.44240000  1.0 -0.0266566901
C  C54  1  0.98480000  0.94180000  0.55760000  1.0 -0.0266566901
C  C55  1  0.93520000  0.09720000  0.46330000  1.0 -0.1201100546
C  C56  1  0.06480000  0.90280000  0.53670000  1.0 -0.1201100546
C  C57  1  0.86870000  0.10750000  0.43060000  1.0 0.118759366
C  C58  1  0.13130000  0.89250000  0.56940000  1.0 0.118759366
C  C59  1  0.77890000  0.14850000  0.44470000  1.0 0.4196639977
C  C60  1  0.22110000  0.85150000  0.55530000  1.0 0.4196639977
C  C61  1  0.64400000  0.19200000  0.40920000  1.0 0.2298249388
C  C62  1  0.35600000  0.80800000  0.59080000  1.0 0.2298249388
C  C63  1  0.62000000  0.26510000  0.42930000  1.0 -0.1315131961
C  C64  1  0.38000000  0.73490000  0.57070000  1.0 -0.1315131961
C  C65  1  0.53590000  0.30560000  0.43430000  1.0 -0.0107292091
C  C66  1  0.46410000  0.69440000  0.56570000  1.0 -0.0107292091
C  C67  1  0.47450000  0.27350000  0.41780000  1.0 -0.0990042357
C  C68  1  0.52550000  0.72650000  0.58220000  1.0 -0.0990042357
C  C69  1  0.49580000  0.20110000  0.39820000  1.0 -0.0209121096
C  C70  1  0.50420000  0.79890000  0.60180000  1.0 -0.0209121096
C  C71  1  0.58060000  0.16180000  0.39450000  1.0 -0.1697210921
C  C72  1  0.41940000  0.83820000  0.60550000  1.0 -0.1697210921
C  C73  1  0.51050000  0.38230000  0.45940000  1.0 0.5901308627
C  C74  1  0.48950000  0.61770000  0.54060000  1.0 0.5901308627
C  C75  1  0.43050000  0.16380000  0.38280000  1.0 0.5901308627
C  C76  1  0.56950000  0.83620000  0.61720000  1.0 0.5901308627
C  C77  1  0.86230000  0.02200000  0.23390000  1.0 0.2298249388
C  C78  1  0.13770000  0.97800000  0.76610000  1.0 0.2298249388
C  C79  1  0.85970000  0.94790000  0.22620000  1.0 -0.1532637853
C  C80  1  0.14030000  0.05210000  0.77380000  1.0 -0.160171911
C  C81  1  0.83600000  0.92570000  0.17860000  1.0 0.0113172182
C  C82  1  0.16400000  0.07430000  0.82140000  1.0 0.0113172182
C  C83  1  0.81020000  0.97980000  0.13730000  1.0 -0.0779668382
C  C84  1  0.18980000  0.02020000  0.86270000  1.0 -0.0779668382
C  C85  1  0.81460000  0.05300000  0.14410000  1.0 -0.0107292091
C  C86  1  0.18540000  0.94700000  0.85590000  1.0 -0.0107292091
C  C87  1  0.84250000  0.07210000  0.19160000  1.0 -0.1697210921
C  C88  1  0.15750000  0.92790000  0.80840000  1.0 -0.1697210921
C  C89  1  0.83090000  0.84640000  0.17100000  1.0 0.5170371206
C  C90  1  0.16910000  0.15360000  0.82900000  1.0 0.5170371206
C  C91  1  0.78320000  0.11230000  0.10120000  1.0 0.5700142405
C  C92  1  0.21680000  0.88770000  0.89880000  1.0 0.5700142405
C  C93  1  0.11790000  0.50430000  0.15060000  1.0 0.4196639977
C  C94  1  0.88210000  0.49570000  0.84940000  1.0 0.4196639977
C  C95  1  0.09130000  0.45490000  0.11340000  1.0 0.1084532312
C  C96  1  0.90870000  0.54510000  0.88660000  1.0 0.1084532312
C  C97  1  0.01870000  0.47190000  0.08390000  1.0 -0.1201100546
C  C98  1  0.98130000  0.52810000  0.91610000  1.0 -0.1201100546
C  C99  1  0.00550000  0.41710000  0.05260000  1.0 -0.0209121096
C  C100  1  0.99450000  0.58290000  0.94740000  1.0 -0.0209121096
C  C101  1  0.06260000  0.34680000  0.04990000  1.0 -0.1094156234
C  C102  1  0.93740000  0.65320000  0.95010000  1.0 -0.1094156234
C  C103  1  0.13020000  0.33250000  0.07980000  1.0 0.1084532312
C  C104  1  0.86980000  0.66750000  0.92020000  1.0 0.1084532312
C  C105  1  0.19750000  0.25940000  0.08550000  1.0 0.4285140456
C  C106  1  0.80250000  0.74060000  0.91450000  1.0 0.4285140456
C  C107  1  0.31610000  0.20040000  0.13390000  1.0 0.2298249388
C  C108  1  0.68390000  0.79960000  0.86610000  1.0 0.2298249388
C  C109  1  0.31100000  0.16410000  0.18410000  1.0 -0.1769703059
C  C110  1  0.68900000  0.83590000  0.81590000  1.0 -0.1769703059
C  C111  1  0.37530000  0.10290000  0.19720000  1.0 -0.0209121096
C  C112  1  0.62470000  0.89710000  0.80280000  1.0 -0.0209121096
C  C113  1  0.44220000  0.07510000  0.15950000  1.0 -0.0990042357
C  C114  1  0.55780000  0.92490000  0.84050000  1.0 -0.0990042357
C  C115  1  0.44880000  0.11140000  0.11000000  1.0 0.0016317178
C  C116  1  0.55120000  0.88860000  0.89000000  1.0 0.0016317178
C  C117  1  0.38620000  0.17560000  0.09720000  1.0 -0.160171911
C  C118  1  0.61380000  0.82440000  0.90280000  1.0 -0.160171911
C  C119  1  0.37060000  0.06840000  0.25270000  1.0 0.5762755991
C  C120  1  0.62940000  0.93160000  0.74730000  1.0 0.5762755991
C  C121  1  0.52310000  0.08360000  0.07040000  1.0 0.5003098072
C  C122  1  0.47690000  0.91640000  0.92960000  1.0 0.5003098072
C  C123  1  0.22150000  0.50810000  0.21150000  1.0 0.2198393987
C  C124  1  0.77850000  0.49190000  0.78850000  1.0 0.2198393987
C  C125  1  0.30260000  0.51720000  0.20440000  1.0 -0.1697210921
C  C126  1  0.69740000  0.48280000  0.79560000  1.0 -0.1697210921
C  C127  1  0.33790000  0.54610000  0.24430000  1.0 -0.0023107719
C  C128  1  0.66210000  0.45390000  0.75570000  1.0 -0.0023107719
C  C129  1  0.28640000  0.57260000  0.29110000  1.0 -0.0917797396
C  C130  1  0.71360000  0.42740000  0.70890000  1.0 -0.0917797396
C  C131  1  0.20670000  0.56460000  0.29830000  1.0 0.0113172182
C  C132  1  0.79330000  0.43540000  0.70170000  1.0 0.0113172182
C  C133  1  0.17220000  0.53270000  0.25870000  1.0 -0.1532637853
C  C134  1  0.82780000  0.46730000  0.74130000  1.0 -0.1532637853
C  C135  1  0.42660000  0.55220000  0.23650000  1.0 0.5491088004
C  C136  1  0.57340000  0.44780000  0.76350000  1.0 0.5491088004
C  C137  1  0.15020000  0.59370000  0.34960000  1.0 0.513706726
C  C138  1  0.84980000  0.40630000  0.65040000  1.0 0.513706726
C  C139  1  0.39810000  0.37680000  0.11280000  1.0 0.4285140456
C  C140  1  0.60190000  0.62320000  0.88720000  1.0 0.4285140456
C  C141  1  0.40400000  0.35030000  0.17100000  1.0 0.1084532312
C  C142  1  0.59600000  0.64970000  0.82900000  1.0 0.1084532312
C  C143  1  0.47110000  0.34120000  0.20170000  1.0 -0.1201100546
C  C144  1  0.52890000  0.65880000  0.79830000  1.0 -0.1201100546
C  C145  1  0.46200000  0.32440000  0.25580000  1.0 -0.0209121096
C  C146  1  0.53800000  0.67560000  0.74420000  1.0 -0.0209121096
C  C147  1  0.38400000  0.31510000  0.27970000  1.0 -0.1201100546
C  C148  1  0.61600000  0.68490000  0.72030000  1.0 -0.1201100546
C  C149  1  0.32060000  0.32340000  0.24560000  1.0 0.118759366
C  C150  1  0.67940000  0.67660000  0.75440000  1.0 0.118759366
C  C151  1  0.23110000  0.31780000  0.26090000  1.0 0.453565848
C  C152  1  0.76890000  0.68220000  0.73910000  1.0 0.453565848
C  C153  1  0.09500000  0.33480000  0.22690000  1.0 0.2298249388
C  C154  1  0.90500000  0.66520000  0.77310000  1.0 0.2298249388
C  C155  1  0.03820000  0.38800000  0.26140000  1.0 -0.1532637853
C  C156  1  0.96180000  0.61200000  0.73860000  1.0 -0.1532637853
C  C157  1  0.95230000  0.39530000  0.26310000  1.0 0.0113172182
C  C158  1  0.04770000  0.60470000  0.73690000  1.0 0.0113172182
C  C159  1  0.92060000  0.34930000  0.22990000  1.0 -0.0990042357
C  C160  1  0.07940000  0.65070000  0.77010000  1.0 -0.0990042357
C  C161  1  0.97560000  0.29640000  0.19930000  1.0 -0.0266566901
C  C162  1  0.02440000  0.70360000  0.80070000  1.0 -0.0266566901
C  C163  1  0.06250000  0.28780000  0.19900000  1.0 -0.1697210921
C  C164  1  0.93750000  0.71220000  0.80100000  1.0 -0.1697210921
C  C165  1  0.89390000  0.45360000  0.29910000  1.0 0.536313069
C  C166  1  0.10610000  0.54640000  0.70090000  1.0 0.536313069
C  C167  1  0.94600000  0.24610000  0.16440000  1.0 0.536313069
C  C168  1  0.05400000  0.75390000  0.83560000  1.0 0.536313069
C  C169  1  0.29930000  0.42470000  0.04720000  1.0 0.2198393987
C  C170  1  0.70070000  0.57530000  0.95280000  1.0 0.2198393987
C  C171  1  0.27590000  0.38700000  0.00680000  1.0 -0.1697210921
C  C172  1  0.72410000  0.61300000  0.99320000  1.0 -0.1697210921
C  C173  1  0.24610000  0.42450000  0.95970000  1.0 -0.0023107719
C  C174  1  0.75390000  0.57550000  0.04030000  1.0 -0.0023107719
C  C175  1  0.24430000  0.49990000  0.95190000  1.0 -0.0917797396
C  C176  1  0.75570000  0.50010000  0.04810000  1.0 -0.0917797396
C  C177  1  0.27110000  0.53780000  0.99120000  1.0 -0.0023107719
C  C178  1  0.72890000  0.46220000  0.00880000  1.0 -0.0023107719
C  C179  1  0.29860000  0.50070000  0.03970000  1.0 -0.1532637853
C  C180  1  0.70140000  0.49930000  0.96030000  1.0 -0.1532637853
C  C181  1  0.21890000  0.38120000  0.91820000  1.0 0.5311173322
C  C182  1  0.78110000  0.61880000  0.08180000  1.0 0.5311173322
C  C183  1  0.27570000  0.61720000  0.98180000  1.0 0.5311173322
C  C184  1  0.72430000  0.38280000  0.01820000  1.0 0.5311173322
N  N1  1  0.75150000  0.01120000  0.35240000  1.0 -0.4094557425
N  N2  1  0.24850000  0.98880000  0.64760000  1.0 -0.4094557425
N  N3  1  0.70620000  0.12000000  0.28920000  1.0 -0.2106335638
N  N4  1  0.29380000  0.88000000  0.71080000  1.0 -0.2106335638
N  N5  1  0.80200000  0.20010000  0.30860000  1.0 -0.4094557425
N  N6  1  0.19800000  0.79990000  0.69140000  1.0 -0.4094557425
N  N7  1  0.87870000  0.04500000  0.28510000  1.0 -0.4289935334
N  N8  1  0.12130000  0.95500000  0.71490000  1.0 -0.4289935334
N  N9  1  0.88160000  0.07990000  0.38110000  1.0 -0.1992341793
N  N10  1  0.11840000  0.92010000  0.61890000  1.0 -0.1992341793
N  N11  1  0.72980000  0.15130000  0.40280000  1.0 -0.4208482814
N  N12  1  0.27020000  0.84870000  0.59720000  1.0 -0.4208482814
N  N13  1  0.19060000  0.47020000  0.17120000  1.0 -0.4208482814
N  N14  1  0.80940000  0.52980000  0.82880000  1.0 -0.4208482814
N  N15  1  0.14310000  0.38650000  0.11050000  1.0 -0.1992341793
N  N16  1  0.85690000  0.61350000  0.88950000  1.0 -0.1992341793
N  N17  1  0.25170000  0.26560000  0.12090000  1.0 -0.4289935334
N  N18  1  0.74830000  0.73440000  0.87910000  1.0 -0.4289935334
N  N19  1  0.18290000  0.33410000  0.21980000  1.0 -0.4094557425
N  N20  1  0.81710000  0.66590000  0.78020000  1.0 -0.4094557425
N  N21  1  0.33030000  0.34290000  0.19380000  1.0 -0.2106335638
N  N22  1  0.66970000  0.65710000  0.80620000  1.0 -0.2106335638
N  N23  1  0.32060000  0.38970000  0.09830000  1.0 -0.4094557425
N  N24  1  0.67940000  0.61030000  0.90170000  1.0 -0.4094557425
O  O1  1  0.66550000  0.94390000  0.32080000  1.0 -0.3754454134
O  O2  1  0.33450000  0.05610000  0.67920000  1.0 -0.3741476415
O  O3  1  0.82420000  0.25480000  0.55530000  1.0 0.0016317178
O  O4  1  0.17580000  0.74520000  0.44470000  1.0 -0.0023107719
O  O5  1  0.72730000  0.30130000  0.25930000  1.0 -0.3290481248
O  O6  1  0.27270000  0.69870000  0.74070000  1.0 -0.3290481248
O  O7  1  0.85020000  0.19830000  0.98090000  1.0 -0.3602878629
O  O8  1  0.14980000  0.80170000  0.01910000  1.0 -0.3602878629
O  O9  1  0.11580000  0.17060000  0.32390000  1.0 -0.5284025251
O  O10  1  0.88420000  0.82940000  0.67610000  1.0 -0.5284025251
O  O11  1  0.01200000  0.40300000  0.53230000  1.0 -0.0107292091
O  O12  1  0.98800000  0.59700000  0.46770000  1.0 -0.0107292091
O  O13  1  0.12010000  0.23610000  0.39690000  1.0 -0.4953541635
O  O14  1  0.87990000  0.76390000  0.60310000  1.0 -0.4953541635
O  O15  1  0.65960000  0.41370000  0.57420000  1.0 -0.0589257339
O  O16  1  0.34040000  0.58630000  0.42580000  1.0 -0.0589257339
O  O17  1  0.85200000  0.39790000  0.48330000  1.0 -0.5284025251
O  O18  1  0.14800000  0.60210000  0.51670000  1.0 -0.5284025251
O  O19  1  0.75180000  0.53300000  0.51410000  1.0 -0.0392536593
O  O20  1  0.24820000  0.46700000  0.48590000  1.0 -0.0502536018
O  O21  1  0.73730000  0.41360000  0.43900000  1.0 -0.5480324431
O  O22  1  0.26270000  0.58640000  0.56100000  1.0 -0.5480324431
O  O23  1  0.60020000  0.55550000  0.41920000  1.0 -0.3602878629
O  O24  1  0.39980000  0.44450000  0.58080000  1.0 -0.346458721
O  O25  1  0.63780000  0.00520000  0.54940000  1.0 -0.5078980951
O  O26  1  0.36220000  0.99480000  0.45060000  1.0 -0.5078980951
O  O27  1  0.66780000  0.09040000  0.65960000  1.0 -0.3907823144
O  O28  1  0.33220000  0.90960000  0.34040000  1.0 -0.398667085
O  O29  1  0.73780000  0.92830000  0.59150000  1.0 -0.5881943582
O  O30  1  0.26220000  0.07170000  0.40850000  1.0 -0.5881943582
O  O31  1  0.47930000  0.08080000  0.62990000  1.0 0.0777305597
O  O32  1  0.52070000  0.91920000  0.37010000  1.0 0.0777305597
O  O33  1  0.97680000  0.76590000  0.48070000  1.0 -0.5078980951
O  O34  1  0.02320000  0.23410000  0.51930000  1.0 -0.5078980951
O  O35  1  0.96190000  0.68240000  0.10150000  1.0 -0.1094156234
O  O36  1  0.03810000  0.31760000  0.89850000  1.0 -0.1094156234
O  O37  1  0.98700000  0.77420000  0.39280000  1.0 -0.5377808292
O  O38  1  0.01300000  0.22580000  0.60720000  1.0 -0.5377808292
O  O39  1  0.91260000  0.61950000  0.21730000  1.0 -0.0502536018
O  O40  1  0.08740000  0.38050000  0.78270000  1.0 -0.0392536593
O  O41  1  0.01920000  0.97760000  0.27840000  1.0 -0.4289935334
O  O42  1  0.98080000  0.02240000  0.72160000  1.0 -0.4289935334
O  O43  1  0.70810000  0.70960000  0.20890000  1.0 -0.1201100546
O  O44  1  0.29190000  0.29040000  0.79110000  1.0 -0.1201100546
O  O45  1  0.75660000  0.17330000  0.49110000  1.0 -0.3290481248
O  O46  1  0.24340000  0.82670000  0.50890000  1.0 -0.3290481248
O  O47  1  0.59660000  0.25210000  0.07820000  1.0 -0.0023107719
O  O48  1  0.40340000  0.74790000  0.92180000  1.0 -0.0023107719
O  O49  1  0.35470000  0.20480000  0.38460000  1.0 -0.5637210487
O  O50  1  0.64530000  0.79520000  0.61540000  1.0 -0.5637210487
O  O51  1  0.67120000  0.18100000  0.96270000  1.0 -0.5480324431
O  O52  1  0.32880000  0.81900000  0.03730000  1.0 -0.5480324431
O  O53  1  0.45360000  0.09810000  0.36820000  1.0 -0.5377808292
O  O54  1  0.54640000  0.90190000  0.63180000  1.0 -0.5377808292
O  O55  1  0.69870000  0.92340000  0.00300000  1.0 -0.0392536593
O  O56  1  0.30130000  0.07660000  0.99700000  1.0 -0.0392536593
O  O57  1  0.43730000  0.42260000  0.45130000  1.0 -0.5480324431
O  O58  1  0.56270000  0.57740000  0.54870000  1.0 -0.5480324431
O  O59  1  0.58920000  0.05520000  0.92520000  1.0 -0.3201830862
O  O60  1  0.41080000  0.94480000  0.07480000  1.0 -0.3201830862
O  O61  1  0.56140000  0.40310000  0.48240000  1.0 -0.5710822968
O  O62  1  0.43860000  0.59690000  0.51760000  1.0 -0.5710822968
O  O63  1  0.79920000  0.02850000  0.95240000  1.0 -0.4094557425
O  O64  1  0.20080000  0.97150000  0.04760000  1.0 -0.4208482814
O  O65  1  0.80470000  0.82860000  0.12960000  1.0 -0.5078980951
O  O66  1  0.19530000  0.17140000  0.87040000  1.0 -0.5078980951
O  O67  1  0.62590000  0.44690000  0.27470000  1.0 -0.1201100546
O  O68  1  0.37410000  0.55310000  0.72530000  1.0 -0.1201100546
O  O69  1  0.85910000  0.79880000  0.20730000  1.0 -0.5377808292
O  O70  1  0.14090000  0.20120000  0.79270000  1.0 -0.5377808292
O  O71  1  0.59800000  0.62280000  0.15940000  1.0 -0.4606543659
O  O72  1  0.40200000  0.37720000  0.84060000  1.0 -0.4606543659
O  O73  1  0.79390000  0.17780000  0.10610000  1.0 -0.5480324431
O  O74  1  0.20610000  0.82220000  0.89390000  1.0 -0.5480324431
O  O75  1  0.74750000  0.49640000  0.18860000  1.0 -0.2887032209
O  O76  1  0.25250000  0.50360000  0.81140000  1.0 -0.2887032209
O  O77  1  0.74650000  0.09670000  0.06220000  1.0 -0.5881943582
O  O78  1  0.25350000  0.90330000  0.93780000  1.0 -0.5881943582
O  O79  1  0.66680000  0.37180000  0.16460000  1.0 -0.0502536018
O  O80  1  0.33320000  0.62820000  0.83540000  1.0 -0.0502536018
O  O81  1  0.07650000  0.57040000  0.15830000  1.0 -0.3290481248
O  O82  1  0.92350000  0.42960000  0.84170000  1.0 -0.3290481248
O  O83  1  0.57240000  0.48420000  0.09640000  1.0 -0.0779668382
O  O84  1  0.42760000  0.51580000  0.90360000  1.0 -0.0779668382
O  O85  1  0.19570000  0.20300000  0.06040000  1.0 -0.3602878629
O  O86  1  0.80430000  0.79700000  0.93960000  1.0 -0.3602878629
O  O87  1  0.31120000  0.09640000  0.28720000  1.0 -0.579893577
O  O88  1  0.68880000  0.90360000  0.71280000  1.0 -0.579893577
O  O89  1  0.42920000  0.01110000  0.26440000  1.0 -0.5284025251
O  O90  1  0.57080000  0.98890000  0.73560000  1.0 -0.5284025251
O  O91  1  0.55040000  0.13040000  0.04280000  1.0 -0.4942733525
O  O92  1  0.44960000  0.86960000  0.95720000  1.0 -0.4953541635
O  O93  1  0.55790000  0.01670000  0.06900000  1.0 -0.4797417997
O  O94  1  0.44210000  0.98330000  0.93100000  1.0 -0.4797417997
O  O95  1  0.47230000  0.51610000  0.19990000  1.0 -0.5710822968
O  O96  1  0.52770000  0.48390000  0.80010000  1.0 -0.5710822968
O  O97  1  0.45440000  0.58680000  0.26940000  1.0 -0.4477434634
O  O98  1  0.54560000  0.41320000  0.73060000  1.0 -0.4477434634
O  O99  1  0.18490000  0.61050000  0.38810000  1.0 -0.4797417997
O  O100  1  0.81510000  0.38950000  0.61190000  1.0 -0.4797417997
O  O101  1  0.07500000  0.60210000  0.35190000  1.0 -0.4289935334
O  O102  1  0.92500000  0.39790000  0.64810000  1.0 -0.4289935334
O  O103  1  0.46270000  0.38630000  0.08550000  1.0 -0.3360031126
O  O104  1  0.53730000  0.61370000  0.91450000  1.0 -0.3360031126
O  O105  1  0.21230000  0.29730000  0.30860000  1.0 -0.467469561
O  O106  1  0.78770000  0.70270000  0.69140000  1.0 -0.467469561
O  O107  1  0.99260000  0.19630000  0.13790000  1.0 -0.4208482814
O  O108  1  0.00740000  0.80370000  0.86210000  1.0 -0.4208482814
O  O109  1  0.86500000  0.25920000  0.16420000  1.0 -0.4208482814
O  O110  1  0.13500000  0.74080000  0.83580000  1.0 -0.4208482814
O  O111  1  0.81720000  0.47230000  0.28900000  1.0 -0.4094557425
O  O112  1  0.18280000  0.52770000  0.71100000  1.0 -0.4094557425
O  O113  1  0.92190000  0.47910000  0.33680000  1.0 -0.4797417997
O  O114  1  0.07810000  0.52090000  0.66320000  1.0 -0.4797417997
O  O115  1  0.24780000  0.65130000  0.93940000  1.0 -0.5284025251
O  O116  1  0.75220000  0.34870000  0.06060000  1.0 -0.5284025251
O  O117  1  0.30870000  0.64760000  0.01580000  1.0 -0.522112119
O  O118  1  0.69130000  0.35240000  0.98420000  1.0 -0.522112119
O  O119  1  0.18110000  0.41540000  0.87830000  1.0 -0.5078980951
O  O120  1  0.81890000  0.58460000  0.12170000  1.0 -0.5078980951
O  O121  1  0.23140000  0.31060000  0.92430000  1.0 -0.5284025251
O  O122  1  0.76860000  0.68940000  0.07570000  1.0 -0.5284025251
