# DDEC6 charges by PACMAN v1.1 (https://github.com/mtap-research/PACMAN-charge/)
data_OLAQOI_FSR_pacman
_symmetry_space_group_name_H-M   'P 1'
_cell_length_a   34.58000000
_cell_length_b   34.58000000
_cell_length_c   20.76000000
_cell_angle_alpha   90.00000000
_cell_angle_beta   90.00000000
_cell_angle_gamma   120.00000000
_symmetry_Int_Tables_number   1
_chemical_formula_structural   K4CoCu14H108C60S12N12ClO36
_chemical_formula_sum   'K24 Co6 Cu84 H648 C360 S72 N72 Cl6 O216'
_cell_volume   21498.49007505
_cell_formula_units_Z   6
loop_
 _symmetry_equiv_pos_site_id
 _symmetry_equiv_pos_as_xyz
  1  'x, y, z'
loop_
 _atom_site_type_symbol
 _atom_site_label
 _atom_site_symmetry_multiplicity
 _atom_site_fract_x
 _atom_site_fract_y
 _atom_site_fract_z
 _atom_site_occupancy
 _atom_site_charge
K  K1  1  0.68980000  0.62540000  0.84950000  1.0 0.9213121005
K  K2  1  0.31020000  0.37460000  0.34950000  1.0 0.9121063519
K  K3  1  0.37460000  0.06440000  0.51617000  1.0 0.9213121005
K  K4  1  0.93560000  0.31020000  0.18283000  1.0 0.9213121005
K  K5  1  0.06440000  0.68980000  0.68283000  1.0 0.9121063519
K  K6  1  0.62540000  0.93560000  0.01617000  1.0 0.9121063519
K  K7  1  0.06440000  0.37460000  0.15050000  1.0 0.9121063519
K  K8  1  0.31020000  0.93560000  0.48383000  1.0 0.9121063519
K  K9  1  0.62540000  0.68980000  0.81717000  1.0 0.9213121005
K  K10  1  0.37460000  0.31020000  0.31717000  1.0 0.9121063519
K  K11  1  0.68980000  0.06440000  0.98383000  1.0 0.9213121005
K  K12  1  0.93560000  0.62540000  0.65050000  1.0 0.9213121005
K  K13  1  0.59654000  0.35094000  0.31330000  1.0 0.8089424986
K  K14  1  0.40346000  0.64906000  0.81330000  1.0 0.8089424986
K  K15  1  0.64906000  0.24560000  0.97997000  1.0 0.8089424986
K  K16  1  0.75440000  0.40346000  0.64663000  1.0 0.8089424986
K  K17  1  0.24560000  0.59654000  0.14663000  1.0 0.8089424986
K  K18  1  0.35094000  0.75440000  0.47997000  1.0 0.8089424986
K  K19  1  0.24560000  0.64906000  0.68670000  1.0 0.8089424986
K  K20  1  0.40346000  0.75440000  0.02003000  1.0 0.8089424986
K  K21  1  0.35094000  0.59654000  0.35337000  1.0 0.8089424986
K  K22  1  0.64906000  0.40346000  0.85337000  1.0 0.8089424986
K  K23  1  0.59654000  0.24560000  0.52003000  1.0 0.8089424986
K  K24  1  0.75440000  0.35094000  0.18670000  1.0 0.8089424986
Co  Co1  1  0.63271000  0.36729000  0.58333000  1.0 1.4711141058
Co  Co2  1  0.36729000  0.63271000  0.08333000  1.0 1.4582675961
Co  Co3  1  0.63271000  0.26542000  0.25000000  1.0 1.4711141058
Co  Co4  1  0.73458000  0.36729000  0.91667000  1.0 1.4711141058
Co  Co5  1  0.26542000  0.63271000  0.41667000  1.0 1.4582675961
Co  Co6  1  0.36729000  0.73458000  0.75000000  1.0 1.4582675961
Cu  Cu1  1  0.66578000  0.68723000  0.23517000  1.0 0.239136744
Cu  Cu2  1  0.33422000  0.31277000  0.73517000  1.0 0.239136744
Cu  Cu3  1  0.31277000  0.97855000  0.90184000  1.0 0.2504170977
Cu  Cu4  1  0.02145000  0.33422000  0.56850000  1.0 0.2504170977
Cu  Cu5  1  0.97855000  0.66578000  0.06850000  1.0 0.2504170977
Cu  Cu6  1  0.68723000  0.02145000  0.40184000  1.0 0.239136744
Cu  Cu7  1  0.97855000  0.31277000  0.76483000  1.0 0.239136744
Cu  Cu8  1  0.33422000  0.02145000  0.09816000  1.0 0.239136744
Cu  Cu9  1  0.68723000  0.66578000  0.43150000  1.0 0.2504170977
Cu  Cu10  1  0.31277000  0.33422000  0.93150000  1.0 0.239136744
Cu  Cu11  1  0.66578000  0.97855000  0.59816000  1.0 0.2504170977
Cu  Cu12  1  0.02145000  0.68723000  0.26483000  1.0 0.2504170977
Cu  Cu13  1  0.70962000  0.63986000  0.30223000  1.0 0.239136744
Cu  Cu14  1  0.29038000  0.36014000  0.80223000  1.0 0.239136744
Cu  Cu15  1  0.36014000  0.06976000  0.96890000  1.0 0.239136744
Cu  Cu16  1  0.93024000  0.29038000  0.63556000  1.0 0.239136744
Cu  Cu17  1  0.06976000  0.70962000  0.13556000  1.0 0.239136744
Cu  Cu18  1  0.63986000  0.93024000  0.46890000  1.0 0.239136744
Cu  Cu19  1  0.06976000  0.36014000  0.69777000  1.0 0.239136744
Cu  Cu20  1  0.29038000  0.93024000  0.03110000  1.0 0.239136744
Cu  Cu21  1  0.63986000  0.70962000  0.36444000  1.0 0.239136744
Cu  Cu22  1  0.36014000  0.29038000  0.86444000  1.0 0.239136744
Cu  Cu23  1  0.70962000  0.06976000  0.53110000  1.0 0.239136744
Cu  Cu24  1  0.93024000  0.63986000  0.19777000  1.0 0.239136744
Cu  Cu25  1  0.62012000  0.55287000  0.30510000  1.0 0.2592825104
Cu  Cu26  1  0.37988000  0.44713000  0.80510000  1.0 0.2592825104
Cu  Cu27  1  0.44713000  0.06725000  0.97177000  1.0 0.2592825104
Cu  Cu28  1  0.93275000  0.37988000  0.63843000  1.0 0.2592825104
Cu  Cu29  1  0.06725000  0.62012000  0.13843000  1.0 0.2592825104
Cu  Cu30  1  0.55287000  0.93275000  0.47177000  1.0 0.271163643
Cu  Cu31  1  0.06725000  0.44713000  0.69490000  1.0 0.2592825104
Cu  Cu32  1  0.37988000  0.93275000  0.02823000  1.0 0.271163643
Cu  Cu33  1  0.55287000  0.62012000  0.36157000  1.0 0.2592825104
Cu  Cu34  1  0.44713000  0.37988000  0.86157000  1.0 0.2592825104
Cu  Cu35  1  0.62012000  0.06725000  0.52823000  1.0 0.2592825104
Cu  Cu36  1  0.93275000  0.55287000  0.19490000  1.0 0.2592825104
Cu  Cu37  1  0.57448000  0.59914000  0.23147000  1.0 0.2504170977
Cu  Cu38  1  0.42552000  0.40086000  0.73147000  1.0 0.2504170977
Cu  Cu39  1  0.40086000  0.97534000  0.89814000  1.0 0.2504170977
Cu  Cu40  1  0.02466000  0.42552000  0.56480000  1.0 0.2504170977
Cu  Cu41  1  0.97534000  0.57448000  0.06480000  1.0 0.2504170977
Cu  Cu42  1  0.59914000  0.02466000  0.39814000  1.0 0.2504170977
Cu  Cu43  1  0.97534000  0.40086000  0.76853000  1.0 0.2504170977
Cu  Cu44  1  0.42552000  0.02466000  0.10186000  1.0 0.2504170977
Cu  Cu45  1  0.59914000  0.57448000  0.43520000  1.0 0.2504170977
Cu  Cu46  1  0.40086000  0.42552000  0.93520000  1.0 0.2504170977
Cu  Cu47  1  0.57448000  0.97534000  0.60186000  1.0 0.2504170977
Cu  Cu48  1  0.02466000  0.59914000  0.26853000  1.0 0.2504170977
Cu  Cu49  1  0.56026000  0.70466000  0.22822000  1.0 0.368845323
Cu  Cu50  1  0.43974000  0.29534000  0.72822000  1.0 0.368845323
Cu  Cu51  1  0.29534000  0.85560000  0.89489000  1.0 0.368845323
Cu  Cu52  1  0.14440000  0.43974000  0.56155000  1.0 0.368845323
Cu  Cu53  1  0.85560000  0.56026000  0.06155000  1.0 0.368845323
Cu  Cu54  1  0.70466000  0.14440000  0.39489000  1.0 0.368845323
Cu  Cu55  1  0.85560000  0.29534000  0.77178000  1.0 0.368845323
Cu  Cu56  1  0.43974000  0.14440000  0.10511000  1.0 0.368845323
Cu  Cu57  1  0.70466000  0.56026000  0.43845000  1.0 0.368845323
Cu  Cu58  1  0.29534000  0.43974000  0.93845000  1.0 0.368845323
Cu  Cu59  1  0.56026000  0.85560000  0.60511000  1.0 0.368845323
Cu  Cu60  1  0.14440000  0.70466000  0.27178000  1.0 0.368845323
Cu  Cu61  1  0.66766000  0.60020000  0.12553000  1.0 0.4465810142
Cu  Cu62  1  0.33234000  0.39980000  0.62553000  1.0 0.4427635565
Cu  Cu63  1  0.39980000  0.06746000  0.79220000  1.0 0.4427635565
Cu  Cu64  1  0.93254000  0.33234000  0.45886000  1.0 0.4427635565
Cu  Cu65  1  0.06746000  0.66766000  0.95886000  1.0 0.4427635565
Cu  Cu66  1  0.60020000  0.93254000  0.29220000  1.0 0.4427635565
Cu  Cu67  1  0.06746000  0.39980000  0.87447000  1.0 0.4427635565
Cu  Cu68  1  0.33234000  0.93254000  0.20780000  1.0 0.4427635565
Cu  Cu69  1  0.60020000  0.66766000  0.54114000  1.0 0.4427635565
Cu  Cu70  1  0.39980000  0.33234000  0.04114000  1.0 0.4427635565
Cu  Cu71  1  0.66766000  0.06746000  0.70780000  1.0 0.4427635565
Cu  Cu72  1  0.93254000  0.60020000  0.37447000  1.0 0.4427635565
Cu  Cu73  1  0.77027000  0.77027000  0.33333333  1.0 0.196136089
Cu  Cu74  1  0.22973000  0.22973000  0.83333000  1.0 0.1890041057
Cu  Cu75  1  0.22973000  0.00000000  0.00000000  1.0 0.1890041057
Cu  Cu76  1  0.00000000  0.22973000  0.66666667  1.0 0.1890041057
Cu  Cu77  1  0.00000000  0.77027000  0.16667000  1.0 0.1890041057
Cu  Cu78  1  0.77027000  0.00000000  0.50000000  1.0 0.1890041057
Cu  Cu79  1  0.49269000  0.49269000  0.33333333  1.0 0.4465810142
Cu  Cu80  1  0.50731000  0.50731000  0.83333000  1.0 0.4465810142
Cu  Cu81  1  0.50731000  0.00000000  0.00000000  1.0 0.4465810142
Cu  Cu82  1  0.00000000  0.50731000  0.66666667  1.0 0.4465810142
Cu  Cu83  1  0.00000000  0.49269000  0.16667000  1.0 0.4465810142
Cu  Cu84  1  0.49269000  0.00000000  0.50000000  1.0 0.4465810142
H  H1  1  0.57280000  0.76490000  0.15190000  1.0 0.2825187891
H  H2  1  0.42720000  0.23510000  0.65190000  1.0 0.2825187891
H  H3  1  0.23510000  0.80790000  0.81857000  1.0 0.2825187891
H  H4  1  0.19210000  0.42720000  0.48523000  1.0 0.2825187891
H  H5  1  0.80790000  0.57280000  0.98523000  1.0 0.2825187891
H  H6  1  0.76490000  0.19210000  0.31857000  1.0 0.2825187891
H  H7  1  0.80790000  0.23510000  0.84810000  1.0 0.2825187891
H  H8  1  0.42720000  0.19210000  0.18143000  1.0 0.2825187891
H  H9  1  0.76490000  0.57280000  0.51477000  1.0 0.2825187891
H  H10  1  0.23510000  0.42720000  0.01477000  1.0 0.2825187891
H  H11  1  0.57280000  0.80790000  0.68143000  1.0 0.2825187891
H  H12  1  0.19210000  0.76490000  0.34810000  1.0 0.2825187891
H  H13  1  0.57650000  0.78280000  0.21810000  1.0 0.3000232703
H  H14  1  0.42350000  0.21720000  0.71810000  1.0 0.3000232703
H  H15  1  0.21720000  0.79370000  0.88477000  1.0 0.3000232703
H  H16  1  0.20630000  0.42350000  0.55143000  1.0 0.3000232703
H  H17  1  0.79370000  0.57650000  0.05143000  1.0 0.3000232703
H  H18  1  0.78280000  0.20630000  0.38477000  1.0 0.3000232703
H  H19  1  0.79370000  0.21720000  0.78190000  1.0 0.3000232703
H  H20  1  0.42350000  0.20630000  0.11523000  1.0 0.3000232703
H  H21  1  0.78280000  0.57650000  0.44857000  1.0 0.3000232703
H  H22  1  0.21720000  0.42350000  0.94857000  1.0 0.3000232703
H  H23  1  0.57650000  0.79370000  0.61523000  1.0 0.3000232703
H  H24  1  0.20630000  0.78280000  0.28190000  1.0 0.3000232703
H  H25  1  0.64110000  0.77870000  0.14770000  1.0 0.1031219437
H  H26  1  0.35890000  0.22130000  0.64770000  1.0 0.1031219437
H  H27  1  0.22130000  0.86240000  0.81437000  1.0 0.1031219437
H  H28  1  0.13760000  0.35890000  0.48103000  1.0 0.1031219437
H  H29  1  0.86240000  0.64110000  0.98103000  1.0 0.1031219437
H  H30  1  0.77870000  0.13760000  0.31437000  1.0 0.1031219437
H  H31  1  0.86240000  0.22130000  0.85230000  1.0 0.1031219437
H  H32  1  0.35890000  0.13760000  0.18563000  1.0 0.1031219437
H  H33  1  0.77870000  0.64110000  0.51897000  1.0 0.1031219437
H  H34  1  0.22130000  0.35890000  0.01897000  1.0 0.1031219437
H  H35  1  0.64110000  0.86240000  0.68563000  1.0 0.1031219437
H  H36  1  0.13760000  0.77870000  0.35230000  1.0 0.1031219437
H  H37  1  0.62470000  0.80380000  0.29980000  1.0 0.1302323018
H  H38  1  0.37530000  0.19620000  0.79980000  1.0 0.1302323018
H  H39  1  0.19620000  0.82090000  0.96647000  1.0 0.1302323018
H  H40  1  0.17910000  0.37530000  0.63313000  1.0 0.1302323018
H  H41  1  0.82090000  0.62470000  0.13313000  1.0 0.1302323018
H  H42  1  0.80380000  0.17910000  0.46647000  1.0 0.1302323018
H  H43  1  0.82090000  0.19620000  0.70020000  1.0 0.1302323018
H  H44  1  0.37530000  0.17910000  0.03353000  1.0 0.1302323018
H  H45  1  0.80380000  0.62470000  0.36687000  1.0 0.1302323018
H  H46  1  0.19620000  0.37530000  0.86687000  1.0 0.1302323018
H  H47  1  0.62470000  0.82090000  0.53353000  1.0 0.1302323018
H  H48  1  0.17910000  0.80380000  0.20020000  1.0 0.1302323018
H  H49  1  0.67480000  0.84370000  0.28900000  1.0 0.1396533914
H  H50  1  0.32520000  0.15630000  0.78900000  1.0 0.1396533914
H  H51  1  0.15630000  0.83110000  0.95567000  1.0 0.1396533914
H  H52  1  0.16890000  0.32520000  0.62233000  1.0 0.1396533914
H  H53  1  0.83110000  0.67480000  0.12233000  1.0 0.1396533914
H  H54  1  0.84370000  0.16890000  0.45567000  1.0 0.1396533914
H  H55  1  0.83110000  0.15630000  0.71100000  1.0 0.1396533914
H  H56  1  0.32520000  0.16890000  0.04433000  1.0 0.1396533914
H  H57  1  0.84370000  0.67480000  0.37767000  1.0 0.1396533914
H  H58  1  0.15630000  0.32520000  0.87767000  1.0 0.1396533914
H  H59  1  0.67480000  0.83110000  0.54433000  1.0 0.1396533914
H  H60  1  0.16890000  0.84370000  0.21100000  1.0 0.1396533914
H  H61  1  0.66560000  0.80120000  0.33120000  1.0 0.1396533914
H  H62  1  0.33440000  0.19880000  0.83120000  1.0 0.1396533914
H  H63  1  0.19880000  0.86440000  0.99787000  1.0 0.1396533914
H  H64  1  0.13560000  0.33440000  0.66453000  1.0 0.1396533914
H  H65  1  0.86440000  0.66560000  0.16453000  1.0 0.1396533914
H  H66  1  0.80120000  0.13560000  0.49787000  1.0 0.1396533914
H  H67  1  0.86440000  0.19880000  0.66880000  1.0 0.1396533914
H  H68  1  0.33440000  0.13560000  0.00213000  1.0 0.1396533914
H  H69  1  0.80120000  0.66560000  0.33547000  1.0 0.1396533914
H  H70  1  0.19880000  0.33440000  0.83547000  1.0 0.1396533914
H  H71  1  0.66560000  0.86440000  0.50213000  1.0 0.1396533914
H  H72  1  0.13560000  0.80120000  0.16880000  1.0 0.1396533914
H  H73  1  0.71630000  0.79460000  0.25470000  1.0 0.1302323018
H  H74  1  0.28370000  0.20540000  0.75470000  1.0 0.1302323018
H  H75  1  0.20540000  0.92170000  0.92137000  1.0 0.1302323018
H  H76  1  0.07830000  0.28370000  0.58803000  1.0 0.1302323018
H  H77  1  0.92170000  0.71630000  0.08803000  1.0 0.1302323018
H  H78  1  0.79460000  0.07830000  0.42137000  1.0 0.1302323018
H  H79  1  0.92170000  0.20540000  0.74530000  1.0 0.1302323018
H  H80  1  0.28370000  0.07830000  0.07863000  1.0 0.1302323018
H  H81  1  0.79460000  0.71630000  0.41197000  1.0 0.1302323018
H  H82  1  0.20540000  0.28370000  0.91197000  1.0 0.1302323018
H  H83  1  0.71630000  0.92170000  0.57863000  1.0 0.1302323018
H  H84  1  0.07830000  0.79460000  0.24530000  1.0 0.1302323018
H  H85  1  0.71720000  0.82670000  0.19840000  1.0 0.1476779186
H  H86  1  0.28280000  0.17330000  0.69840000  1.0 0.1476779186
H  H87  1  0.17330000  0.89050000  0.86507000  1.0 0.1476779186
H  H88  1  0.10950000  0.28280000  0.53173000  1.0 0.1476779186
H  H89  1  0.89050000  0.71720000  0.03173000  1.0 0.1476779186
H  H90  1  0.82670000  0.10950000  0.36507000  1.0 0.1476779186
H  H91  1  0.89050000  0.17330000  0.80160000  1.0 0.1476779186
H  H92  1  0.28280000  0.10950000  0.13493000  1.0 0.1476779186
H  H93  1  0.82670000  0.71720000  0.46827000  1.0 0.1476779186
H  H94  1  0.17330000  0.28280000  0.96827000  1.0 0.1476779186
H  H95  1  0.71720000  0.89050000  0.63493000  1.0 0.1476779186
H  H96  1  0.10950000  0.82670000  0.30160000  1.0 0.1476779186
H  H97  1  0.69660000  0.77440000  0.18520000  1.0 0.1302323018
H  H98  1  0.30340000  0.22560000  0.68520000  1.0 0.1302323018
H  H99  1  0.22560000  0.92220000  0.85187000  1.0 0.1302323018
H  H100  1  0.07780000  0.30340000  0.51853000  1.0 0.1302323018
H  H101  1  0.92220000  0.69660000  0.01853000  1.0 0.1302323018
H  H102  1  0.77440000  0.07780000  0.35187000  1.0 0.1302323018
H  H103  1  0.92220000  0.22560000  0.81480000  1.0 0.1302323018
H  H104  1  0.30340000  0.07780000  0.14813000  1.0 0.1302323018
H  H105  1  0.77440000  0.69660000  0.48147000  1.0 0.1302323018
H  H106  1  0.22560000  0.30340000  0.98147000  1.0 0.1302323018
H  H107  1  0.69660000  0.92220000  0.64813000  1.0 0.1302323018
H  H108  1  0.07780000  0.77440000  0.31480000  1.0 0.1302323018
H  H109  1  0.70590000  0.64470000  0.02690000  1.0 0.3000232703
H  H110  1  0.29410000  0.35530000  0.52690000  1.0 0.3000232703
H  H111  1  0.35530000  0.06120000  0.69357000  1.0 0.3000232703
H  H112  1  0.93880000  0.29410000  0.36023000  1.0 0.3000232703
H  H113  1  0.06120000  0.70590000  0.86023000  1.0 0.3000232703
H  H114  1  0.64470000  0.93880000  0.19357000  1.0 0.3000232703
H  H115  1  0.06120000  0.35530000  0.97310000  1.0 0.3000232703
H  H116  1  0.29410000  0.93880000  0.30643000  1.0 0.3000232703
H  H117  1  0.64470000  0.70590000  0.63977000  1.0 0.3000232703
H  H118  1  0.35530000  0.29410000  0.13977000  1.0 0.3000232703
H  H119  1  0.70590000  0.06120000  0.80643000  1.0 0.3000232703
H  H120  1  0.93880000  0.64470000  0.47310000  1.0 0.3000232703
H  H121  1  0.65970000  0.61100000  0.00800000  1.0 0.2879234905
H  H122  1  0.34030000  0.38900000  0.50800000  1.0 0.2879234905
H  H123  1  0.38900000  0.04870000  0.67467000  1.0 0.2879234905
H  H124  1  0.95130000  0.34030000  0.34133000  1.0 0.2879234905
H  H125  1  0.04870000  0.65970000  0.84133000  1.0 0.2879234905
H  H126  1  0.61100000  0.95130000  0.17467000  1.0 0.2879234905
H  H127  1  0.04870000  0.38900000  0.99200000  1.0 0.2879234905
H  H128  1  0.34030000  0.95130000  0.32533000  1.0 0.2879234905
H  H129  1  0.61100000  0.65970000  0.65867000  1.0 0.2879234905
H  H130  1  0.38900000  0.34030000  0.15867000  1.0 0.2879234905
H  H131  1  0.65970000  0.04870000  0.82533000  1.0 0.2879234905
H  H132  1  0.95130000  0.61100000  0.49200000  1.0 0.2879234905
H  H133  1  0.66890000  0.54100000  0.05990000  1.0 0.2825187891
H  H134  1  0.33110000  0.45900000  0.55990000  1.0 0.2825187891
H  H135  1  0.45900000  0.12790000  0.72657000  1.0 0.2825187891
H  H136  1  0.87210000  0.33110000  0.39323000  1.0 0.2825187891
H  H137  1  0.12790000  0.66890000  0.89323000  1.0 0.2825187891
H  H138  1  0.54100000  0.87210000  0.22657000  1.0 0.2825187891
H  H139  1  0.12790000  0.45900000  0.94010000  1.0 0.2825187891
H  H140  1  0.33110000  0.87210000  0.27343000  1.0 0.2825187891
H  H141  1  0.54100000  0.66890000  0.60677000  1.0 0.2825187891
H  H142  1  0.45900000  0.33110000  0.10677000  1.0 0.2825187891
H  H143  1  0.66890000  0.12790000  0.77343000  1.0 0.2825187891
H  H144  1  0.87210000  0.54100000  0.44010000  1.0 0.2825187891
H  H145  1  0.71530000  0.57190000  0.08110000  1.0 0.2825187891
H  H146  1  0.28470000  0.42810000  0.58110000  1.0 0.2825187891
H  H147  1  0.42810000  0.14340000  0.74777000  1.0 0.2825187891
H  H148  1  0.85660000  0.28470000  0.41443000  1.0 0.2825187891
H  H149  1  0.14340000  0.71530000  0.91443000  1.0 0.2825187891
H  H150  1  0.57190000  0.85660000  0.24777000  1.0 0.2825187891
H  H151  1  0.14340000  0.42810000  0.91890000  1.0 0.2825187891
H  H152  1  0.28470000  0.85660000  0.25223000  1.0 0.2825187891
H  H153  1  0.57190000  0.71530000  0.58557000  1.0 0.2825187891
H  H154  1  0.42810000  0.28470000  0.08557000  1.0 0.2825187891
H  H155  1  0.71530000  0.14340000  0.75223000  1.0 0.2825187891
H  H156  1  0.85660000  0.57190000  0.41890000  1.0 0.2825187891
H  H157  1  0.68880000  0.69430000  0.05800000  1.0 0.1080258581
H  H158  1  0.31120000  0.30570000  0.55800000  1.0 0.1080258581
H  H159  1  0.30570000  0.99450000  0.72467000  1.0 0.1080258581
H  H160  1  0.00550000  0.31120000  0.39133000  1.0 0.1080258581
H  H161  1  0.99450000  0.68880000  0.89133000  1.0 0.1080258581
H  H162  1  0.69430000  0.00550000  0.22467000  1.0 0.1080258581
H  H163  1  0.99450000  0.30570000  0.94200000  1.0 0.1080258581
H  H164  1  0.31120000  0.00550000  0.27533000  1.0 0.1080258581
H  H165  1  0.69430000  0.68880000  0.60867000  1.0 0.1080258581
H  H166  1  0.30570000  0.31120000  0.10867000  1.0 0.1080258581
H  H167  1  0.68880000  0.99450000  0.77533000  1.0 0.1080258581
H  H168  1  0.00550000  0.69430000  0.44200000  1.0 0.1080258581
H  H169  1  0.55420000  0.60220000  0.06730000  1.0 0.1396533914
H  H170  1  0.44580000  0.39780000  0.56730000  1.0 0.1396533914
H  H171  1  0.39780000  0.95200000  0.73397000  1.0 0.1396533914
H  H172  1  0.04800000  0.44580000  0.40063000  1.0 0.1396533914
H  H173  1  0.95200000  0.55420000  0.90063000  1.0 0.1396533914
H  H174  1  0.60220000  0.04800000  0.23397000  1.0 0.1396533914
H  H175  1  0.95200000  0.39780000  0.93270000  1.0 0.1396533914
H  H176  1  0.44580000  0.04800000  0.26603000  1.0 0.1396533914
H  H177  1  0.60220000  0.55420000  0.59937000  1.0 0.1396533914
H  H178  1  0.39780000  0.44580000  0.09937000  1.0 0.1396533914
H  H179  1  0.55420000  0.95200000  0.76603000  1.0 0.1396533914
H  H180  1  0.04800000  0.60220000  0.43270000  1.0 0.1396533914
H  H181  1  0.58740000  0.58590000  0.04200000  1.0 0.1302323018
H  H182  1  0.41260000  0.41410000  0.54200000  1.0 0.1302323018
H  H183  1  0.41410000  0.00150000  0.70867000  1.0 0.1302323018
H  H184  1  0.99850000  0.41260000  0.37533000  1.0 0.1302323018
H  H185  1  0.00150000  0.58740000  0.87533000  1.0 0.1302323018
H  H186  1  0.58590000  0.99850000  0.20867000  1.0 0.1302323018
H  H187  1  0.00150000  0.41410000  0.95800000  1.0 0.1302323018
H  H188  1  0.41260000  0.99850000  0.29133000  1.0 0.1302323018
H  H189  1  0.58590000  0.58740000  0.62467000  1.0 0.1302323018
H  H190  1  0.41410000  0.41260000  0.12467000  1.0 0.1302323018
H  H191  1  0.58740000  0.00150000  0.79133000  1.0 0.1302323018
H  H192  1  0.99850000  0.58590000  0.45800000  1.0 0.1302323018
H  H193  1  0.57750000  0.61810000  0.99830000  1.0 0.1396533914
H  H194  1  0.42250000  0.38190000  0.49830000  1.0 0.1396533914
H  H195  1  0.38190000  0.95940000  0.66497000  1.0 0.1396533914
H  H196  1  0.04060000  0.42250000  0.33163000  1.0 0.1396533914
H  H197  1  0.95940000  0.57750000  0.83163000  1.0 0.1396533914
H  H198  1  0.61810000  0.04060000  0.16497000  1.0 0.1396533914
H  H199  1  0.95940000  0.38190000  0.00170000  1.0 0.1396533914
H  H200  1  0.42250000  0.04060000  0.33503000  1.0 0.1396533914
H  H201  1  0.61810000  0.57750000  0.66837000  1.0 0.1396533914
H  H202  1  0.38190000  0.42250000  0.16837000  1.0 0.1396533914
H  H203  1  0.57750000  0.95940000  0.83503000  1.0 0.1396533914
H  H204  1  0.04060000  0.61810000  0.50170000  1.0 0.1396533914
H  H205  1  0.58720000  0.68540000  0.10910000  1.0 0.1302323018
H  H206  1  0.41280000  0.31460000  0.60910000  1.0 0.1302323018
H  H207  1  0.31460000  0.90180000  0.77577000  1.0 0.1302323018
H  H208  1  0.09820000  0.41280000  0.44243000  1.0 0.1302323018
H  H209  1  0.90180000  0.58720000  0.94243000  1.0 0.1302323018
H  H210  1  0.68540000  0.09820000  0.27577000  1.0 0.1302323018
H  H211  1  0.90180000  0.31460000  0.89090000  1.0 0.1302323018
H  H212  1  0.41280000  0.09820000  0.22423000  1.0 0.1302323018
H  H213  1  0.68540000  0.58720000  0.55757000  1.0 0.1302323018
H  H214  1  0.31460000  0.41280000  0.05757000  1.0 0.1302323018
H  H215  1  0.58720000  0.90180000  0.72423000  1.0 0.1302323018
H  H216  1  0.09820000  0.68540000  0.39090000  1.0 0.1302323018
H  H217  1  0.61190000  0.70580000  0.04210000  1.0 0.1476779186
H  H218  1  0.38810000  0.29420000  0.54210000  1.0 0.1476779186
H  H219  1  0.29420000  0.90610000  0.70877000  1.0 0.1476779186
H  H220  1  0.09390000  0.38810000  0.37543000  1.0 0.1476779186
H  H221  1  0.90610000  0.61190000  0.87543000  1.0 0.1476779186
H  H222  1  0.70580000  0.09390000  0.20877000  1.0 0.1476779186
H  H223  1  0.90610000  0.29420000  0.95790000  1.0 0.1476779186
H  H224  1  0.38810000  0.09390000  0.29123000  1.0 0.1476779186
H  H225  1  0.70580000  0.61190000  0.62457000  1.0 0.1476779186
H  H226  1  0.29420000  0.38810000  0.12457000  1.0 0.1476779186
H  H227  1  0.61190000  0.90610000  0.79123000  1.0 0.1476779186
H  H228  1  0.09390000  0.70580000  0.45790000  1.0 0.1476779186
H  H229  1  0.64000000  0.71880000  0.10760000  1.0 0.1302323018
H  H230  1  0.36000000  0.28120000  0.60760000  1.0 0.1302323018
H  H231  1  0.28120000  0.92120000  0.77427000  1.0 0.1302323018
H  H232  1  0.07880000  0.36000000  0.44093000  1.0 0.1302323018
H  H233  1  0.92120000  0.64000000  0.94093000  1.0 0.1302323018
H  H234  1  0.71880000  0.07880000  0.27427000  1.0 0.1302323018
H  H235  1  0.92120000  0.28120000  0.89240000  1.0 0.1302323018
H  H236  1  0.36000000  0.07880000  0.22573000  1.0 0.1302323018
H  H237  1  0.71880000  0.64000000  0.55907000  1.0 0.1302323018
H  H238  1  0.28120000  0.36000000  0.05907000  1.0 0.1302323018
H  H239  1  0.64000000  0.92120000  0.72573000  1.0 0.1302323018
H  H240  1  0.07880000  0.71880000  0.39240000  1.0 0.1302323018
H  H241  1  0.81390000  0.83190000  0.25420000  1.0 0.2825187891
H  H242  1  0.18610000  0.16810000  0.75420000  1.0 0.2825187891
H  H243  1  0.16810000  0.98200000  0.92087000  1.0 0.2825187891
H  H244  1  0.01800000  0.18610000  0.58753000  1.0 0.2825187891
H  H245  1  0.98200000  0.81390000  0.08753000  1.0 0.2825187891
H  H246  1  0.83190000  0.01800000  0.42087000  1.0 0.2825187891
H  H247  1  0.98200000  0.16810000  0.74580000  1.0 0.2825187891
H  H248  1  0.18610000  0.01800000  0.07913000  1.0 0.2825187891
H  H249  1  0.83190000  0.81390000  0.41247000  1.0 0.2825187891
H  H250  1  0.16810000  0.18610000  0.91247000  1.0 0.2825187891
H  H251  1  0.81390000  0.98200000  0.57913000  1.0 0.2825187891
H  H252  1  0.01800000  0.83190000  0.24580000  1.0 0.2825187891
H  H253  1  0.84080000  0.81040000  0.26850000  1.0 0.271163643
H  H254  1  0.15920000  0.18960000  0.76850000  1.0 0.271163643
H  H255  1  0.18960000  0.03040000  0.93517000  1.0 0.271163643
H  H256  1  0.96960000  0.15920000  0.60183000  1.0 0.271163643
H  H257  1  0.03040000  0.84080000  0.10183000  1.0 0.271163643
H  H258  1  0.81040000  0.96960000  0.43517000  1.0 0.271163643
H  H259  1  0.03040000  0.18960000  0.73150000  1.0 0.271163643
H  H260  1  0.15920000  0.96960000  0.06483000  1.0 0.271163643
H  H261  1  0.81040000  0.84080000  0.39817000  1.0 0.271163643
H  H262  1  0.18960000  0.15920000  0.89817000  1.0 0.271163643
H  H263  1  0.84080000  0.03040000  0.56483000  1.0 0.271163643
H  H264  1  0.96960000  0.81040000  0.23150000  1.0 0.271163643
H  H265  1  0.77790000  0.78960000  0.18390000  1.0 0.1080258581
H  H266  1  0.22210000  0.21040000  0.68390000  1.0 0.1080258581
H  H267  1  0.21040000  0.98830000  0.85057000  1.0 0.1080258581
H  H268  1  0.01170000  0.22210000  0.51723000  1.0 0.1080258581
H  H269  1  0.98830000  0.77790000  0.01723000  1.0 0.1080258581
H  H270  1  0.78960000  0.01170000  0.35057000  1.0 0.1080258581
H  H271  1  0.98830000  0.21040000  0.81610000  1.0 0.1080258581
H  H272  1  0.22210000  0.01170000  0.14943000  1.0 0.1080258581
H  H273  1  0.78960000  0.77790000  0.48277000  1.0 0.1080258581
H  H274  1  0.21040000  0.22210000  0.98277000  1.0 0.1080258581
H  H275  1  0.77790000  0.98830000  0.64943000  1.0 0.1080258581
H  H276  1  0.01170000  0.78960000  0.31610000  1.0 0.1080258581
H  H277  1  0.83180000  0.74110000  0.25930000  1.0 0.1396533914
H  H278  1  0.16820000  0.25890000  0.75930000  1.0 0.1396533914
H  H279  1  0.25890000  0.09070000  0.92597000  1.0 0.1396533914
H  H280  1  0.90930000  0.16820000  0.59263000  1.0 0.1396533914
H  H281  1  0.09070000  0.83180000  0.09263000  1.0 0.1396533914
H  H282  1  0.74110000  0.90930000  0.42597000  1.0 0.1396533914
H  H283  1  0.09070000  0.25890000  0.74070000  1.0 0.1396533914
H  H284  1  0.16820000  0.90930000  0.07403000  1.0 0.1396533914
H  H285  1  0.74110000  0.83180000  0.40737000  1.0 0.1396533914
H  H286  1  0.25890000  0.16820000  0.90737000  1.0 0.1396533914
H  H287  1  0.83180000  0.09070000  0.57403000  1.0 0.1396533914
H  H288  1  0.90930000  0.74110000  0.24070000  1.0 0.1396533914
H  H289  1  0.83960000  0.73490000  0.18490000  1.0 0.1396533914
H  H290  1  0.16040000  0.26510000  0.68490000  1.0 0.1396533914
H  H291  1  0.26510000  0.10470000  0.85157000  1.0 0.1396533914
H  H292  1  0.89530000  0.16040000  0.51823000  1.0 0.1396533914
H  H293  1  0.10470000  0.83960000  0.01823000  1.0 0.1396533914
H  H294  1  0.73490000  0.89530000  0.35157000  1.0 0.1396533914
H  H295  1  0.10470000  0.26510000  0.81510000  1.0 0.1396533914
H  H296  1  0.16040000  0.89530000  0.14843000  1.0 0.1396533914
H  H297  1  0.73490000  0.83960000  0.48177000  1.0 0.1396533914
H  H298  1  0.26510000  0.16040000  0.98177000  1.0 0.1396533914
H  H299  1  0.83960000  0.10470000  0.64843000  1.0 0.1396533914
H  H300  1  0.89530000  0.73490000  0.31510000  1.0 0.1396533914
H  H301  1  0.80290000  0.69340000  0.22550000  1.0 0.1476779186
H  H302  1  0.19710000  0.30660000  0.72550000  1.0 0.1476779186
H  H303  1  0.30660000  0.10950000  0.89217000  1.0 0.1476779186
H  H304  1  0.89050000  0.19710000  0.55883000  1.0 0.1476779186
H  H305  1  0.10950000  0.80290000  0.05883000  1.0 0.1476779186
H  H306  1  0.69340000  0.89050000  0.39217000  1.0 0.1476779186
H  H307  1  0.10950000  0.30660000  0.77450000  1.0 0.1476779186
H  H308  1  0.19710000  0.89050000  0.10783000  1.0 0.1476779186
H  H309  1  0.69340000  0.80290000  0.44117000  1.0 0.1476779186
H  H310  1  0.30660000  0.19710000  0.94117000  1.0 0.1476779186
H  H311  1  0.80290000  0.10950000  0.60783000  1.0 0.1476779186
H  H312  1  0.89050000  0.69340000  0.27450000  1.0 0.1476779186
H  H313  1  0.74300000  0.71940000  0.13330000  1.0 0.1396533914
H  H314  1  0.25700000  0.28060000  0.63330000  1.0 0.1396533914
H  H315  1  0.28060000  0.02360000  0.79997000  1.0 0.1396533914
H  H316  1  0.97640000  0.25700000  0.46663000  1.0 0.1396533914
H  H317  1  0.02360000  0.74300000  0.96663000  1.0 0.1396533914
H  H318  1  0.71940000  0.97640000  0.29997000  1.0 0.1396533914
H  H319  1  0.02360000  0.28060000  0.86670000  1.0 0.1396533914
H  H320  1  0.25700000  0.97640000  0.20003000  1.0 0.1396533914
H  H321  1  0.71940000  0.74300000  0.53337000  1.0 0.1396533914
H  H322  1  0.28060000  0.25700000  0.03337000  1.0 0.1396533914
H  H323  1  0.74300000  0.02360000  0.70003000  1.0 0.1396533914
H  H324  1  0.97640000  0.71940000  0.36670000  1.0 0.1396533914
H  H325  1  0.75410000  0.68160000  0.15490000  1.0 0.1396533914
H  H326  1  0.24590000  0.31840000  0.65490000  1.0 0.1396533914
H  H327  1  0.31840000  0.07250000  0.82157000  1.0 0.1396533914
H  H328  1  0.92750000  0.24590000  0.48823000  1.0 0.1396533914
H  H329  1  0.07250000  0.75410000  0.98823000  1.0 0.1396533914
H  H330  1  0.68160000  0.92750000  0.32157000  1.0 0.1396533914
H  H331  1  0.07250000  0.31840000  0.84510000  1.0 0.1396533914
H  H332  1  0.24590000  0.92750000  0.17843000  1.0 0.1396533914
H  H333  1  0.68160000  0.75410000  0.51177000  1.0 0.1396533914
H  H334  1  0.31840000  0.24590000  0.01177000  1.0 0.1396533914
H  H335  1  0.75410000  0.07250000  0.67843000  1.0 0.1396533914
H  H336  1  0.92750000  0.68160000  0.34510000  1.0 0.1396533914
H  H337  1  0.78950000  0.72330000  0.11330000  1.0 0.1476779186
H  H338  1  0.21050000  0.27670000  0.61330000  1.0 0.1476779186
H  H339  1  0.27670000  0.06620000  0.77997000  1.0 0.1476779186
H  H340  1  0.93380000  0.21050000  0.44663000  1.0 0.1476779186
H  H341  1  0.06620000  0.78950000  0.94663000  1.0 0.1476779186
H  H342  1  0.72330000  0.93380000  0.27997000  1.0 0.1476779186
H  H343  1  0.06620000  0.27670000  0.88670000  1.0 0.1476779186
H  H344  1  0.21050000  0.93380000  0.22003000  1.0 0.1476779186
H  H345  1  0.72330000  0.78950000  0.55337000  1.0 0.1476779186
H  H346  1  0.27670000  0.21050000  0.05337000  1.0 0.1476779186
H  H347  1  0.78950000  0.06620000  0.72003000  1.0 0.1476779186
H  H348  1  0.93380000  0.72330000  0.38670000  1.0 0.1476779186
H  H349  1  0.65060000  0.50340000  0.14940000  1.0 0.1031219437
H  H350  1  0.34940000  0.49660000  0.64940000  1.0 0.1031219437
H  H351  1  0.49660000  0.14720000  0.81607000  1.0 0.1031219437
H  H352  1  0.85280000  0.34940000  0.48273000  1.0 0.1031219437
H  H353  1  0.14720000  0.65060000  0.98273000  1.0 0.1031219437
H  H354  1  0.50340000  0.85280000  0.31607000  1.0 0.1031219437
H  H355  1  0.14720000  0.49660000  0.85060000  1.0 0.1031219437
H  H356  1  0.34940000  0.85280000  0.18393000  1.0 0.1031219437
H  H357  1  0.50340000  0.65060000  0.51727000  1.0 0.1031219437
H  H358  1  0.49660000  0.34940000  0.01727000  1.0 0.1031219437
H  H359  1  0.65060000  0.14720000  0.68393000  1.0 0.1031219437
H  H360  1  0.85280000  0.50340000  0.35060000  1.0 0.1031219437
H  H361  1  0.75620000  0.60440000  0.16630000  1.0 0.1302323018
H  H362  1  0.24380000  0.39560000  0.66630000  1.0 0.1302323018
H  H363  1  0.39560000  0.15180000  0.83297000  1.0 0.1302323018
H  H364  1  0.84820000  0.24380000  0.49963000  1.0 0.1302323018
H  H365  1  0.15180000  0.75620000  0.99963000  1.0 0.1302323018
H  H366  1  0.60440000  0.84820000  0.33297000  1.0 0.1302323018
H  H367  1  0.15180000  0.39560000  0.83370000  1.0 0.1302323018
H  H368  1  0.24380000  0.84820000  0.16703000  1.0 0.1302323018
H  H369  1  0.60440000  0.75620000  0.50037000  1.0 0.1302323018
H  H370  1  0.39560000  0.24380000  0.00037000  1.0 0.1302323018
H  H371  1  0.75620000  0.15180000  0.66703000  1.0 0.1302323018
H  H372  1  0.84820000  0.60440000  0.33370000  1.0 0.1302323018
H  H373  1  0.77110000  0.57040000  0.19320000  1.0 0.1476779186
H  H374  1  0.22890000  0.42960000  0.69320000  1.0 0.1476779186
H  H375  1  0.42960000  0.20070000  0.85987000  1.0 0.1476779186
H  H376  1  0.79930000  0.22890000  0.52653000  1.0 0.1476779186
H  H377  1  0.20070000  0.77110000  0.02653000  1.0 0.1476779186
H  H378  1  0.57040000  0.79930000  0.35987000  1.0 0.1476779186
H  H379  1  0.20070000  0.42960000  0.80680000  1.0 0.1476779186
H  H380  1  0.22890000  0.79930000  0.14013000  1.0 0.1476779186
H  H381  1  0.57040000  0.77110000  0.47347000  1.0 0.1476779186
H  H382  1  0.42960000  0.22890000  0.97347000  1.0 0.1476779186
H  H383  1  0.77110000  0.20070000  0.64013000  1.0 0.1476779186
H  H384  1  0.79930000  0.57040000  0.30680000  1.0 0.1476779186
H  H385  1  0.76240000  0.60100000  0.24210000  1.0 0.1396533914
H  H386  1  0.23760000  0.39900000  0.74210000  1.0 0.1396533914
H  H387  1  0.39900000  0.16140000  0.90877000  1.0 0.1396533914
H  H388  1  0.83860000  0.23760000  0.57543000  1.0 0.1396533914
H  H389  1  0.16140000  0.76240000  0.07543000  1.0 0.1396533914
H  H390  1  0.60100000  0.83860000  0.40877000  1.0 0.1396533914
H  H391  1  0.16140000  0.39900000  0.75790000  1.0 0.1396533914
H  H392  1  0.23760000  0.83860000  0.09123000  1.0 0.1396533914
H  H393  1  0.60100000  0.76240000  0.42457000  1.0 0.1396533914
H  H394  1  0.39900000  0.23760000  0.92457000  1.0 0.1396533914
H  H395  1  0.76240000  0.16140000  0.59123000  1.0 0.1396533914
H  H396  1  0.83860000  0.60100000  0.25790000  1.0 0.1396533914
H  H397  1  0.66190000  0.49420000  0.25960000  1.0 0.1302323018
H  H398  1  0.33810000  0.50580000  0.75960000  1.0 0.1302323018
H  H399  1  0.50580000  0.16770000  0.92627000  1.0 0.1302323018
H  H400  1  0.83230000  0.33810000  0.59293000  1.0 0.1302323018
H  H401  1  0.16770000  0.66190000  0.09293000  1.0 0.1302323018
H  H402  1  0.49420000  0.83230000  0.42627000  1.0 0.1302323018
H  H403  1  0.16770000  0.50580000  0.74040000  1.0 0.1302323018
H  H404  1  0.33810000  0.83230000  0.07373000  1.0 0.1302323018
H  H405  1  0.49420000  0.66190000  0.40707000  1.0 0.1302323018
H  H406  1  0.50580000  0.33810000  0.90707000  1.0 0.1302323018
H  H407  1  0.66190000  0.16770000  0.57373000  1.0 0.1302323018
H  H408  1  0.83230000  0.49420000  0.24040000  1.0 0.1302323018
H  H409  1  0.70260000  0.53090000  0.30150000  1.0 0.1302323018
H  H410  1  0.29740000  0.46910000  0.80150000  1.0 0.1302323018
H  H411  1  0.46910000  0.17170000  0.96817000  1.0 0.1302323018
H  H412  1  0.82830000  0.29740000  0.63483000  1.0 0.1302323018
H  H413  1  0.17170000  0.70260000  0.13483000  1.0 0.1302323018
H  H414  1  0.53090000  0.82830000  0.46817000  1.0 0.1302323018
H  H415  1  0.17170000  0.46910000  0.69850000  1.0 0.1302323018
H  H416  1  0.29740000  0.82830000  0.03183000  1.0 0.1302323018
H  H417  1  0.53090000  0.70260000  0.36517000  1.0 0.1302323018
H  H418  1  0.46910000  0.29740000  0.86517000  1.0 0.1302323018
H  H419  1  0.70260000  0.17170000  0.53183000  1.0 0.1302323018
H  H420  1  0.82830000  0.53090000  0.19850000  1.0 0.1302323018
H  H421  1  0.71040000  0.49930000  0.25320000  1.0 0.1476779186
H  H422  1  0.28960000  0.50070000  0.75320000  1.0 0.1476779186
H  H423  1  0.50070000  0.21110000  0.91987000  1.0 0.1476779186
H  H424  1  0.78890000  0.28960000  0.58653000  1.0 0.1476779186
H  H425  1  0.21110000  0.71040000  0.08653000  1.0 0.1476779186
H  H426  1  0.49930000  0.78890000  0.41987000  1.0 0.1476779186
H  H427  1  0.21110000  0.50070000  0.74680000  1.0 0.1476779186
H  H428  1  0.28960000  0.78890000  0.08013000  1.0 0.1476779186
H  H429  1  0.49930000  0.71040000  0.41347000  1.0 0.1476779186
H  H430  1  0.50070000  0.28960000  0.91347000  1.0 0.1476779186
H  H431  1  0.71040000  0.21110000  0.58013000  1.0 0.1476779186
H  H432  1  0.78890000  0.49930000  0.24680000  1.0 0.1476779186
H  H433  1  0.70720000  0.48920000  0.44340000  1.0 0.3000232703
H  H434  1  0.29280000  0.51080000  0.94340000  1.0 0.3000232703
H  H435  1  0.51080000  0.21800000  0.11007000  1.0 0.3000232703
H  H436  1  0.78200000  0.29280000  0.77673000  1.0 0.3000232703
H  H437  1  0.21800000  0.70720000  0.27673000  1.0 0.3000232703
H  H438  1  0.48920000  0.78200000  0.61007000  1.0 0.3000232703
H  H439  1  0.21800000  0.51080000  0.55660000  1.0 0.3000232703
H  H440  1  0.29280000  0.78200000  0.88993000  1.0 0.3000232703
H  H441  1  0.48920000  0.70720000  0.22327000  1.0 0.3000232703
H  H442  1  0.51080000  0.29280000  0.72327000  1.0 0.3000232703
H  H443  1  0.70720000  0.21800000  0.38993000  1.0 0.3000232703
H  H444  1  0.78200000  0.48920000  0.05660000  1.0 0.3000232703
H  H445  1  0.68500000  0.49170000  0.50310000  1.0 0.2879234905
H  H446  1  0.31500000  0.50830000  0.00310000  1.0 0.2879234905
H  H447  1  0.50830000  0.19330000  0.16977000  1.0 0.2879234905
H  H448  1  0.80670000  0.31500000  0.83643000  1.0 0.2879234905
H  H449  1  0.19330000  0.68500000  0.33643000  1.0 0.2879234905
H  H450  1  0.49170000  0.80670000  0.66977000  1.0 0.2879234905
H  H451  1  0.19330000  0.50830000  0.49690000  1.0 0.2879234905
H  H452  1  0.31500000  0.80670000  0.83023000  1.0 0.2879234905
H  H453  1  0.49170000  0.68500000  0.16357000  1.0 0.2879234905
H  H454  1  0.50830000  0.31500000  0.66357000  1.0 0.2879234905
H  H455  1  0.68500000  0.19330000  0.33023000  1.0 0.2879234905
H  H456  1  0.80670000  0.49170000  0.99690000  1.0 0.2879234905
H  H457  1  0.64680000  0.45860000  0.38600000  1.0 0.1302323018
H  H458  1  0.35320000  0.54140000  0.88600000  1.0 0.1302323018
H  H459  1  0.54140000  0.18820000  0.05267000  1.0 0.1302323018
H  H460  1  0.81180000  0.35320000  0.71933000  1.0 0.1302323018
H  H461  1  0.18820000  0.64680000  0.21933000  1.0 0.1302323018
H  H462  1  0.45860000  0.81180000  0.55267000  1.0 0.1302323018
H  H463  1  0.18820000  0.54140000  0.61400000  1.0 0.1302323018
H  H464  1  0.35320000  0.81180000  0.94733000  1.0 0.1302323018
H  H465  1  0.45860000  0.64680000  0.28067000  1.0 0.1302323018
H  H466  1  0.54140000  0.35320000  0.78067000  1.0 0.1302323018
H  H467  1  0.64680000  0.18820000  0.44733000  1.0 0.1302323018
H  H468  1  0.81180000  0.45860000  0.11400000  1.0 0.1302323018
H  H469  1  0.57460000  0.48490000  0.51040000  1.0 0.1476779186
H  H470  1  0.42540000  0.51510000  0.01040000  1.0 0.1476779186
H  H471  1  0.51510000  0.08970000  0.17707000  1.0 0.1476779186
H  H472  1  0.91030000  0.42540000  0.84373000  1.0 0.1476779186
H  H473  1  0.08970000  0.57460000  0.34373000  1.0 0.1476779186
H  H474  1  0.48490000  0.91030000  0.67707000  1.0 0.1476779186
H  H475  1  0.08970000  0.51510000  0.48960000  1.0 0.1476779186
H  H476  1  0.42540000  0.91030000  0.82293000  1.0 0.1476779186
H  H477  1  0.48490000  0.57460000  0.15627000  1.0 0.1476779186
H  H478  1  0.51510000  0.42540000  0.65627000  1.0 0.1476779186
H  H479  1  0.57460000  0.08970000  0.32293000  1.0 0.1476779186
H  H480  1  0.91030000  0.48490000  0.98960000  1.0 0.1476779186
H  H481  1  0.62290000  0.49450000  0.53270000  1.0 0.1396533914
H  H482  1  0.37710000  0.50550000  0.03270000  1.0 0.1396533914
H  H483  1  0.50550000  0.12840000  0.19937000  1.0 0.1396533914
H  H484  1  0.87160000  0.37710000  0.86603000  1.0 0.1396533914
H  H485  1  0.12840000  0.62290000  0.36603000  1.0 0.1396533914
H  H486  1  0.49450000  0.87160000  0.69937000  1.0 0.1396533914
H  H487  1  0.12840000  0.50550000  0.46730000  1.0 0.1396533914
H  H488  1  0.37710000  0.87160000  0.80063000  1.0 0.1396533914
H  H489  1  0.49450000  0.62290000  0.13397000  1.0 0.1396533914
H  H490  1  0.50550000  0.37710000  0.63397000  1.0 0.1396533914
H  H491  1  0.62290000  0.12840000  0.30063000  1.0 0.1396533914
H  H492  1  0.87160000  0.49450000  0.96730000  1.0 0.1396533914
H  H493  1  0.58320000  0.44420000  0.52360000  1.0 0.1476779186
H  H494  1  0.41680000  0.55580000  0.02360000  1.0 0.1476779186
H  H495  1  0.55580000  0.13900000  0.19027000  1.0 0.1476779186
H  H496  1  0.86100000  0.41680000  0.85693000  1.0 0.1476779186
H  H497  1  0.13900000  0.58320000  0.35693000  1.0 0.1476779186
H  H498  1  0.44420000  0.86100000  0.69027000  1.0 0.1476779186
H  H499  1  0.13900000  0.55580000  0.47640000  1.0 0.1476779186
H  H500  1  0.41680000  0.86100000  0.80973000  1.0 0.1476779186
H  H501  1  0.44420000  0.58320000  0.14307000  1.0 0.1476779186
H  H502  1  0.55580000  0.41680000  0.64307000  1.0 0.1476779186
H  H503  1  0.58320000  0.13900000  0.30973000  1.0 0.1476779186
H  H504  1  0.86100000  0.44420000  0.97640000  1.0 0.1476779186
H  H505  1  0.54610000  0.45910000  0.40380000  1.0 0.1302323018
H  H506  1  0.45390000  0.54090000  0.90380000  1.0 0.1302323018
H  H507  1  0.54090000  0.08700000  0.07047000  1.0 0.1302323018
H  H508  1  0.91300000  0.45390000  0.73713000  1.0 0.1302323018
H  H509  1  0.08700000  0.54610000  0.23713000  1.0 0.1302323018
H  H510  1  0.45910000  0.91300000  0.57047000  1.0 0.1302323018
H  H511  1  0.08700000  0.54090000  0.59620000  1.0 0.1302323018
H  H512  1  0.45390000  0.91300000  0.92953000  1.0 0.1302323018
H  H513  1  0.45910000  0.54610000  0.26287000  1.0 0.1302323018
H  H514  1  0.54090000  0.45390000  0.76287000  1.0 0.1302323018
H  H515  1  0.54610000  0.08700000  0.42953000  1.0 0.1302323018
H  H516  1  0.91300000  0.45910000  0.09620000  1.0 0.1302323018
H  H517  1  0.55150000  0.41630000  0.41460000  1.0 0.1476779186
H  H518  1  0.44850000  0.58370000  0.91460000  1.0 0.1476779186
H  H519  1  0.58370000  0.13520000  0.08127000  1.0 0.1476779186
H  H520  1  0.86480000  0.44850000  0.74793000  1.0 0.1476779186
H  H521  1  0.13520000  0.55150000  0.24793000  1.0 0.1476779186
H  H522  1  0.41630000  0.86480000  0.58127000  1.0 0.1476779186
H  H523  1  0.13520000  0.58370000  0.58540000  1.0 0.1476779186
H  H524  1  0.44850000  0.86480000  0.91873000  1.0 0.1476779186
H  H525  1  0.41630000  0.55150000  0.25207000  1.0 0.1476779186
H  H526  1  0.58370000  0.44850000  0.75207000  1.0 0.1476779186
H  H527  1  0.55150000  0.13520000  0.41873000  1.0 0.1476779186
H  H528  1  0.86480000  0.41630000  0.08540000  1.0 0.1476779186
H  H529  1  0.57370000  0.44760000  0.35310000  1.0 0.1302323018
H  H530  1  0.42630000  0.55240000  0.85310000  1.0 0.1302323018
H  H531  1  0.55240000  0.12610000  0.01977000  1.0 0.1302323018
H  H532  1  0.87390000  0.42630000  0.68643000  1.0 0.1302323018
H  H533  1  0.12610000  0.57370000  0.18643000  1.0 0.1302323018
H  H534  1  0.44760000  0.87390000  0.51977000  1.0 0.1302323018
H  H535  1  0.12610000  0.55240000  0.64690000  1.0 0.1302323018
H  H536  1  0.42630000  0.87390000  0.98023000  1.0 0.1302323018
H  H537  1  0.44760000  0.57370000  0.31357000  1.0 0.1302323018
H  H538  1  0.55240000  0.42630000  0.81357000  1.0 0.1302323018
H  H539  1  0.57370000  0.12610000  0.48023000  1.0 0.1302323018
H  H540  1  0.87390000  0.44760000  0.14690000  1.0 0.1302323018
H  H541  1  0.46740000  0.41690000  0.31670000  1.0 0.2879234905
H  H542  1  0.53260000  0.58310000  0.81670000  1.0 0.2879234905
H  H543  1  0.58310000  0.05050000  0.98337000  1.0 0.2879234905
H  H544  1  0.94950000  0.53260000  0.65003000  1.0 0.2879234905
H  H545  1  0.05050000  0.46740000  0.15003000  1.0 0.2879234905
H  H546  1  0.41690000  0.94950000  0.48337000  1.0 0.2879234905
H  H547  1  0.05050000  0.58310000  0.68330000  1.0 0.2879234905
H  H548  1  0.53260000  0.94950000  0.01663000  1.0 0.2879234905
H  H549  1  0.41690000  0.46740000  0.34997000  1.0 0.2879234905
H  H550  1  0.58310000  0.53260000  0.84997000  1.0 0.2879234905
H  H551  1  0.46740000  0.05050000  0.51663000  1.0 0.2879234905
H  H552  1  0.94950000  0.41690000  0.18330000  1.0 0.2879234905
H  H553  1  0.45090000  0.43320000  0.26330000  1.0 0.2879234905
H  H554  1  0.54910000  0.56680000  0.76330000  1.0 0.2879234905
H  H555  1  0.56680000  0.01770000  0.92997000  1.0 0.2879234905
H  H556  1  0.98230000  0.54910000  0.59663000  1.0 0.2879234905
H  H557  1  0.01770000  0.45090000  0.09663000  1.0 0.2879234905
H  H558  1  0.43320000  0.98230000  0.42997000  1.0 0.2879234905
H  H559  1  0.01770000  0.56680000  0.73670000  1.0 0.2879234905
H  H560  1  0.54910000  0.98230000  0.07003000  1.0 0.2879234905
H  H561  1  0.43320000  0.45090000  0.40337000  1.0 0.2879234905
H  H562  1  0.56680000  0.54910000  0.90337000  1.0 0.2879234905
H  H563  1  0.45090000  0.01770000  0.57003000  1.0 0.2879234905
H  H564  1  0.98230000  0.43320000  0.23670000  1.0 0.2879234905
H  H565  1  0.53450000  0.43930000  0.26870000  1.0 0.1080258581
H  H566  1  0.46550000  0.56070000  0.76870000  1.0 0.1080258581
H  H567  1  0.56070000  0.09520000  0.93537000  1.0 0.1080258581
H  H568  1  0.90480000  0.46550000  0.60203000  1.0 0.1080258581
H  H569  1  0.09520000  0.53450000  0.10203000  1.0 0.1080258581
H  H570  1  0.43930000  0.90480000  0.43537000  1.0 0.1080258581
H  H571  1  0.09520000  0.56070000  0.73130000  1.0 0.1080258581
H  H572  1  0.46550000  0.90480000  0.06463000  1.0 0.1080258581
H  H573  1  0.43930000  0.53450000  0.39797000  1.0 0.1080258581
H  H574  1  0.56070000  0.46550000  0.89797000  1.0 0.1080258581
H  H575  1  0.53450000  0.09520000  0.56463000  1.0 0.1080258581
H  H576  1  0.90480000  0.43930000  0.23130000  1.0 0.1080258581
H  H577  1  0.50940000  0.51530000  0.14280000  1.0 0.1476779186
H  H578  1  0.49060000  0.48470000  0.64280000  1.0 0.1476779186
H  H579  1  0.48470000  0.99410000  0.80947000  1.0 0.1476779186
H  H580  1  0.00590000  0.49060000  0.47613000  1.0 0.1476779186
H  H581  1  0.99410000  0.50940000  0.97613000  1.0 0.1476779186
H  H582  1  0.51530000  0.00590000  0.30947000  1.0 0.1476779186
H  H583  1  0.99410000  0.48470000  0.85720000  1.0 0.1476779186
H  H584  1  0.49060000  0.00590000  0.19053000  1.0 0.1476779186
H  H585  1  0.51530000  0.50940000  0.52387000  1.0 0.1476779186
H  H586  1  0.48470000  0.49060000  0.02387000  1.0 0.1476779186
H  H587  1  0.50940000  0.99410000  0.69053000  1.0 0.1476779186
H  H588  1  0.00590000  0.51530000  0.35720000  1.0 0.1476779186
H  H589  1  0.47150000  0.48640000  0.19460000  1.0 0.1302323018
H  H590  1  0.52850000  0.51360000  0.69460000  1.0 0.1302323018
H  H591  1  0.51360000  0.98510000  0.86127000  1.0 0.1302323018
H  H592  1  0.01490000  0.52850000  0.52793000  1.0 0.1302323018
H  H593  1  0.98510000  0.47150000  0.02793000  1.0 0.1302323018
H  H594  1  0.48640000  0.01490000  0.36127000  1.0 0.1302323018
H  H595  1  0.98510000  0.51360000  0.80540000  1.0 0.1302323018
H  H596  1  0.52850000  0.01490000  0.13873000  1.0 0.1302323018
H  H597  1  0.48640000  0.47150000  0.47207000  1.0 0.1302323018
H  H598  1  0.51360000  0.52850000  0.97207000  1.0 0.1302323018
H  H599  1  0.47150000  0.98510000  0.63873000  1.0 0.1302323018
H  H600  1  0.01490000  0.48640000  0.30540000  1.0 0.1302323018
H  H601  1  0.47920000  0.46240000  0.13400000  1.0 0.1476779186
H  H602  1  0.52080000  0.53760000  0.63400000  1.0 0.1476779186
H  H603  1  0.53760000  0.01680000  0.80067000  1.0 0.1476779186
H  H604  1  0.98320000  0.52080000  0.46733000  1.0 0.1476779186
H  H605  1  0.01680000  0.47920000  0.96733000  1.0 0.1476779186
H  H606  1  0.46240000  0.98320000  0.30067000  1.0 0.1476779186
H  H607  1  0.01680000  0.53760000  0.86600000  1.0 0.1476779186
H  H608  1  0.52080000  0.98320000  0.19933000  1.0 0.1476779186
H  H609  1  0.46240000  0.47920000  0.53267000  1.0 0.1476779186
H  H610  1  0.53760000  0.52080000  0.03267000  1.0 0.1476779186
H  H611  1  0.47920000  0.01680000  0.69933000  1.0 0.1476779186
H  H612  1  0.98320000  0.46240000  0.36600000  1.0 0.1476779186
H  H613  1  0.58190000  0.51750000  0.14120000  1.0 0.1396533914
H  H614  1  0.41810000  0.48250000  0.64120000  1.0 0.1396533914
H  H615  1  0.48250000  0.06440000  0.80787000  1.0 0.1396533914
H  H616  1  0.93560000  0.41810000  0.47453000  1.0 0.1396533914
H  H617  1  0.06440000  0.58190000  0.97453000  1.0 0.1396533914
H  H618  1  0.51750000  0.93560000  0.30787000  1.0 0.1396533914
H  H619  1  0.06440000  0.48250000  0.85880000  1.0 0.1396533914
H  H620  1  0.41810000  0.93560000  0.19213000  1.0 0.1396533914
H  H621  1  0.51750000  0.58190000  0.52547000  1.0 0.1396533914
H  H622  1  0.48250000  0.41810000  0.02547000  1.0 0.1396533914
H  H623  1  0.58190000  0.06440000  0.69213000  1.0 0.1396533914
H  H624  1  0.93560000  0.51750000  0.35880000  1.0 0.1396533914
H  H625  1  0.56140000  0.46480000  0.13210000  1.0 0.1476779186
H  H626  1  0.43860000  0.53520000  0.63210000  1.0 0.1476779186
H  H627  1  0.53520000  0.09660000  0.79877000  1.0 0.1396533914
H  H628  1  0.90340000  0.43860000  0.46543000  1.0 0.1476779186
H  H629  1  0.09660000  0.56140000  0.96543000  1.0 0.1476779186
H  H630  1  0.46480000  0.90340000  0.29877000  1.0 0.1476779186
H  H631  1  0.09660000  0.53520000  0.86790000  1.0 0.1476779186
H  H632  1  0.43860000  0.90340000  0.20123000  1.0 0.1476779186
H  H633  1  0.46480000  0.56140000  0.53457000  1.0 0.1476779186
H  H634  1  0.53520000  0.43860000  0.03457000  1.0 0.1476779186
H  H635  1  0.56140000  0.09660000  0.70123000  1.0 0.1476779186
H  H636  1  0.90340000  0.46480000  0.36790000  1.0 0.1476779186
H  H637  1  0.59380000  0.48990000  0.19150000  1.0 0.1302323018
H  H638  1  0.40620000  0.51010000  0.69150000  1.0 0.1302323018
H  H639  1  0.51010000  0.10390000  0.85817000  1.0 0.1302323018
H  H640  1  0.89610000  0.40620000  0.52483000  1.0 0.1302323018
H  H641  1  0.10390000  0.59380000  0.02483000  1.0 0.1302323018
H  H642  1  0.48990000  0.89610000  0.35817000  1.0 0.1302323018
H  H643  1  0.10390000  0.51010000  0.80850000  1.0 0.1302323018
H  H644  1  0.40620000  0.89610000  0.14183000  1.0 0.1302323018
H  H645  1  0.48990000  0.59380000  0.47517000  1.0 0.1302323018
H  H646  1  0.51010000  0.40620000  0.97517000  1.0 0.1302323018
H  H647  1  0.59380000  0.10390000  0.64183000  1.0 0.1302323018
H  H648  1  0.89610000  0.48990000  0.30850000  1.0 0.1302323018
C  C1  1  0.65930000  0.78930000  0.23600000  1.0 0.1890041057
C  C2  1  0.34070000  0.21070000  0.73600000  1.0 0.1890041057
C  C3  1  0.21070000  0.87000000  0.90267000  1.0 0.1890041057
C  C4  1  0.13000000  0.34070000  0.56933000  1.0 0.1890041057
C  C5  1  0.87000000  0.65930000  0.06933000  1.0 0.1890041057
C  C6  1  0.78930000  0.13000000  0.40267000  1.0 0.1890041057
C  C7  1  0.87000000  0.21070000  0.76400000  1.0 0.1890041057
C  C8  1  0.34070000  0.13000000  0.09733000  1.0 0.1890041057
C  C9  1  0.78930000  0.65930000  0.43067000  1.0 0.1890041057
C  C10  1  0.21070000  0.34070000  0.93067000  1.0 0.1890041057
C  C11  1  0.65930000  0.87000000  0.59733000  1.0 0.1890041057
C  C12  1  0.13000000  0.78930000  0.26400000  1.0 0.1890041057
C  C13  1  0.62261000  0.65347000  0.07530000  1.0 0.271163643
C  C14  1  0.37739000  0.34653000  0.57530000  1.0 0.271163643
C  C15  1  0.34653000  0.96914000  0.74197000  1.0 0.271163643
C  C16  1  0.03086000  0.37739000  0.40863000  1.0 0.271163643
C  C17  1  0.96914000  0.62261000  0.90863000  1.0 0.271163643
C  C18  1  0.65347000  0.03086000  0.24197000  1.0 0.271163643
C  C19  1  0.96914000  0.34653000  0.92470000  1.0 0.271163643
C  C20  1  0.37739000  0.03086000  0.25803000  1.0 0.271163643
C  C21  1  0.65347000  0.62261000  0.59137000  1.0 0.271163643
C  C22  1  0.34653000  0.37739000  0.09137000  1.0 0.271163643
C  C23  1  0.62261000  0.96914000  0.75803000  1.0 0.271163643
C  C24  1  0.03086000  0.65347000  0.42470000  1.0 0.271163643
C  C25  1  0.78570000  0.73673000  0.20230000  1.0 0.1837125737
C  C26  1  0.21430000  0.26327000  0.70230000  1.0 0.1837125737
C  C27  1  0.26327000  0.04897000  0.86897000  1.0 0.1837125737
C  C28  1  0.95103000  0.21430000  0.53563000  1.0 0.1837125737
C  C29  1  0.04897000  0.78570000  0.03563000  1.0 0.1837125737
C  C30  1  0.73673000  0.95103000  0.36897000  1.0 0.1837125737
C  C31  1  0.04897000  0.26327000  0.79770000  1.0 0.1837125737
C  C32  1  0.21430000  0.95103000  0.13103000  1.0 0.1837125737
C  C33  1  0.73673000  0.78570000  0.46437000  1.0 0.1837125737
C  C34  1  0.26327000  0.21430000  0.96437000  1.0 0.1837125737
C  C35  1  0.78570000  0.04897000  0.63103000  1.0 0.1837125737
C  C36  1  0.95103000  0.73673000  0.29770000  1.0 0.1837125737
C  C37  1  0.63390000  0.79110000  0.18640000  1.0 -0.0538816732
C  C38  1  0.36610000  0.20890000  0.68640000  1.0 -0.0538816732
C  C39  1  0.20890000  0.84280000  0.85307000  1.0 -0.0538816732
C  C40  1  0.15720000  0.36610000  0.51973000  1.0 -0.0538816732
C  C41  1  0.84280000  0.63390000  0.01973000  1.0 -0.0538816732
C  C42  1  0.79110000  0.15720000  0.35307000  1.0 -0.0538816732
C  C43  1  0.84280000  0.20890000  0.81360000  1.0 -0.0538816732
C  C44  1  0.36610000  0.15720000  0.14693000  1.0 -0.0538816732
C  C45  1  0.79110000  0.63390000  0.48027000  1.0 -0.0538816732
C  C46  1  0.20890000  0.36610000  0.98027000  1.0 -0.0538816732
C  C47  1  0.63390000  0.84280000  0.64693000  1.0 -0.0538816732
C  C48  1  0.15720000  0.79110000  0.31360000  1.0 -0.0538816732
C  C49  1  0.65580000  0.81130000  0.29370000  1.0 -0.4283174288
C  C50  1  0.34420000  0.18870000  0.79370000  1.0 -0.4283174288
C  C51  1  0.18870000  0.84450000  0.96037000  1.0 -0.4218397234
C  C52  1  0.15550000  0.34420000  0.62703000  1.0 -0.4218397234
C  C53  1  0.84450000  0.65580000  0.12703000  1.0 -0.4283174288
C  C54  1  0.81130000  0.15550000  0.46037000  1.0 -0.4283174288
C  C55  1  0.84450000  0.18870000  0.70630000  1.0 -0.4283174288
C  C56  1  0.34420000  0.15550000  0.03963000  1.0 -0.4283174288
C  C57  1  0.81130000  0.65580000  0.37297000  1.0 -0.4283174288
C  C58  1  0.18870000  0.34420000  0.87297000  1.0 -0.4218397234
C  C59  1  0.65580000  0.84450000  0.53963000  1.0 -0.4283174288
C  C60  1  0.15550000  0.81130000  0.20630000  1.0 -0.4218397234
C  C61  1  0.70020000  0.79680000  0.21730000  1.0 -0.4112450587
C  C62  1  0.29980000  0.20320000  0.71730000  1.0 -0.4112450587
C  C63  1  0.20320000  0.90340000  0.88397000  1.0 -0.4112450587
C  C64  1  0.09660000  0.29980000  0.55063000  1.0 -0.4112450587
C  C65  1  0.90340000  0.70020000  0.05063000  1.0 -0.4112450587
C  C66  1  0.79680000  0.09660000  0.38397000  1.0 -0.4112450587
C  C67  1  0.90340000  0.20320000  0.78270000  1.0 -0.4112450587
C  C68  1  0.29980000  0.09660000  0.11603000  1.0 -0.4112450587
C  C69  1  0.79680000  0.70020000  0.44937000  1.0 -0.4112450587
C  C70  1  0.20320000  0.29980000  0.94937000  1.0 -0.4112450587
C  C71  1  0.70020000  0.90340000  0.61603000  1.0 -0.4112450587
C  C72  1  0.09660000  0.79680000  0.28270000  1.0 -0.4112450587
C  C73  1  0.66400000  0.66666667  0.03813000  1.0 -0.0559425709
C  C74  1  0.33600000  0.33333333  0.53813000  1.0 -0.0559425709
C  C75  1  0.33333333  0.99733000  0.70480000  1.0 -0.0559425709
C  C76  1  0.00267000  0.33600000  0.37146000  1.0 -0.0559425709
C  C77  1  0.99733000  0.66400000  0.87146000  1.0 -0.0559425709
C  C78  1  0.66666667  0.00267000  0.20480000  1.0 -0.0559425709
C  C79  1  0.99733000  0.33333333  0.96187000  1.0 -0.0559425709
C  C80  1  0.33600000  0.00267000  0.29520000  1.0 -0.0559425709
C  C81  1  0.66666667  0.66400000  0.62854000  1.0 -0.0559425709
C  C82  1  0.33333333  0.33600000  0.12854000  1.0 -0.0559425709
C  C83  1  0.66400000  0.99733000  0.79520000  1.0 -0.0559425709
C  C84  1  0.00267000  0.66666667  0.46187000  1.0 -0.0559425709
C  C85  1  0.58140000  0.61080000  0.04260000  1.0 -0.4434645034
C  C86  1  0.41860000  0.38920000  0.54260000  1.0 -0.4434645034
C  C87  1  0.38920000  0.97060000  0.70927000  1.0 -0.4434645034
C  C88  1  0.02940000  0.41860000  0.37593000  1.0 -0.4434645034
C  C89  1  0.97060000  0.58140000  0.87593000  1.0 -0.4434645034
C  C90  1  0.61080000  0.02940000  0.20927000  1.0 -0.4434645034
C  C91  1  0.97060000  0.38920000  0.95740000  1.0 -0.4434645034
C  C92  1  0.41860000  0.02940000  0.29073000  1.0 -0.4434645034
C  C93  1  0.61080000  0.58140000  0.62407000  1.0 -0.4434645034
C  C94  1  0.38920000  0.41860000  0.12407000  1.0 -0.4434645034
C  C95  1  0.58140000  0.97060000  0.79073000  1.0 -0.4434645034
C  C96  1  0.02940000  0.61080000  0.45740000  1.0 -0.4434645034
C  C97  1  0.61460000  0.69490000  0.08440000  1.0 -0.4434645034
C  C98  1  0.38540000  0.30510000  0.58440000  1.0 -0.4434645034
C  C99  1  0.30510000  0.91970000  0.75107000  1.0 -0.4434645034
C  C100  1  0.08030000  0.38540000  0.41773000  1.0 -0.4434645034
C  C101  1  0.91970000  0.61460000  0.91773000  1.0 -0.4434645034
C  C102  1  0.69490000  0.08030000  0.25107000  1.0 -0.4434645034
C  C103  1  0.91970000  0.30510000  0.91560000  1.0 -0.4434645034
C  C104  1  0.38540000  0.08030000  0.24893000  1.0 -0.4434645034
C  C105  1  0.69490000  0.61460000  0.58227000  1.0 -0.4434645034
C  C106  1  0.30510000  0.38540000  0.08227000  1.0 -0.4434645034
C  C107  1  0.61460000  0.91970000  0.74893000  1.0 -0.4434645034
C  C108  1  0.08030000  0.69490000  0.41560000  1.0 -0.4434645034
C  C109  1  0.80284000  0.78580000  0.20090000  1.0 0.0353788988
C  C110  1  0.19716000  0.21420000  0.70090000  1.0 0.0353788988
C  C111  1  0.21420000  0.01704000  0.86757000  1.0 0.0353788988
C  C112  1  0.98296000  0.19716000  0.53423000  1.0 0.0353788988
C  C113  1  0.01704000  0.80284000  0.03423000  1.0 0.0353788988
C  C114  1  0.78580000  0.98296000  0.36757000  1.0 0.0353788988
C  C115  1  0.01704000  0.21420000  0.79910000  1.0 0.0353788988
C  C116  1  0.19716000  0.98296000  0.13243000  1.0 0.0353788988
C  C117  1  0.78580000  0.80284000  0.46577000  1.0 0.0353788988
C  C118  1  0.21420000  0.19716000  0.96577000  1.0 0.0353788988
C  C119  1  0.80284000  0.01704000  0.63243000  1.0 0.0353788988
C  C120  1  0.98296000  0.78580000  0.29910000  1.0 0.0353788988
C  C121  1  0.81720000  0.72570000  0.21920000  1.0 -0.4434645034
C  C122  1  0.18280000  0.27430000  0.71920000  1.0 -0.4434645034
C  C123  1  0.27430000  0.09150000  0.88587000  1.0 -0.4434645034
C  C124  1  0.90850000  0.18280000  0.55253000  1.0 -0.4434645034
C  C125  1  0.09150000  0.81720000  0.05253000  1.0 -0.4434645034
C  C126  1  0.72570000  0.90850000  0.38587000  1.0 -0.4434645034
C  C127  1  0.09150000  0.27430000  0.78080000  1.0 -0.4434645034
C  C128  1  0.18280000  0.90850000  0.11413000  1.0 -0.4434645034
C  C129  1  0.72570000  0.81720000  0.44747000  1.0 -0.4434645034
C  C130  1  0.27430000  0.18280000  0.94747000  1.0 -0.4434645034
C  C131  1  0.81720000  0.09150000  0.61413000  1.0 -0.4434645034
C  C132  1  0.90850000  0.72570000  0.28080000  1.0 -0.4434645034
C  C133  1  0.76670000  0.71370000  0.14710000  1.0 -0.4283174288
C  C134  1  0.23330000  0.28630000  0.64710000  1.0 -0.4283174288
C  C135  1  0.28630000  0.05300000  0.81377000  1.0 -0.4283174288
C  C136  1  0.94700000  0.23330000  0.48043000  1.0 -0.4283174288
C  C137  1  0.05300000  0.76670000  0.98043000  1.0 -0.4283174288
C  C138  1  0.71370000  0.94700000  0.31377000  1.0 -0.4283174288
C  C139  1  0.05300000  0.28630000  0.85290000  1.0 -0.4283174288
C  C140  1  0.23330000  0.94700000  0.18623000  1.0 -0.4283174288
C  C141  1  0.71370000  0.76670000  0.51957000  1.0 -0.4283174288
C  C142  1  0.28630000  0.23330000  0.01957000  1.0 -0.4283174288
C  C143  1  0.76670000  0.05300000  0.68623000  1.0 -0.4283174288
C  C144  1  0.94700000  0.71370000  0.35290000  1.0 -0.4283174288
C  C145  1  0.70530000  0.54885000  0.20710000  1.0 0.2592825104
C  C146  1  0.29470000  0.45115000  0.70710000  1.0 0.2592825104
C  C147  1  0.45115000  0.15645000  0.87377000  1.0 0.2592825104
C  C148  1  0.84355000  0.29470000  0.54043000  1.0 0.2592825104
C  C149  1  0.15645000  0.70530000  0.04043000  1.0 0.2592825104
C  C150  1  0.54885000  0.84355000  0.37377000  1.0 0.2592825104
C  C151  1  0.15645000  0.45115000  0.79290000  1.0 0.2592825104
C  C152  1  0.29470000  0.84355000  0.12623000  1.0 0.2592825104
C  C153  1  0.54885000  0.70530000  0.45957000  1.0 0.2592825104
C  C154  1  0.45115000  0.29470000  0.95957000  1.0 0.2592825104
C  C155  1  0.70530000  0.15645000  0.62623000  1.0 0.2592825104
C  C156  1  0.84355000  0.54885000  0.29290000  1.0 0.2592825104
C  C157  1  0.60956000  0.47593000  0.43790000  1.0 0.2592825104
C  C158  1  0.39044000  0.52407000  0.93790000  1.0 0.2592825104
C  C159  1  0.52407000  0.13363000  0.10457000  1.0 0.2592825104
C  C160  1  0.86637000  0.39044000  0.77123000  1.0 0.2592825104
C  C161  1  0.13363000  0.60956000  0.27123000  1.0 0.2592825104
C  C162  1  0.47593000  0.86637000  0.60457000  1.0 0.2592825104
C  C163  1  0.13363000  0.52407000  0.56210000  1.0 0.2592825104
C  C164  1  0.39044000  0.86637000  0.89543000  1.0 0.2592825104
C  C165  1  0.47593000  0.60956000  0.22877000  1.0 0.2592825104
C  C166  1  0.52407000  0.39044000  0.72877000  1.0 0.2592825104
C  C167  1  0.60956000  0.13363000  0.39543000  1.0 0.2592825104
C  C168  1  0.86637000  0.47593000  0.06210000  1.0 0.2592825104
C  C169  1  0.52904000  0.47987000  0.20570000  1.0 0.2592825104
C  C170  1  0.47096000  0.52013000  0.70570000  1.0 0.2592825104
C  C171  1  0.52013000  0.04917000  0.87237000  1.0 0.2592825104
C  C172  1  0.95083000  0.47096000  0.53903000  1.0 0.2592825104
C  C173  1  0.04917000  0.52904000  0.03903000  1.0 0.2592825104
C  C174  1  0.47987000  0.95083000  0.37237000  1.0 0.2592825104
C  C175  1  0.04917000  0.52013000  0.79430000  1.0 0.2592825104
C  C176  1  0.47096000  0.95083000  0.12763000  1.0 0.2592825104
C  C177  1  0.47987000  0.52904000  0.46097000  1.0 0.2592825104
C  C178  1  0.52013000  0.47096000  0.96097000  1.0 0.2592825104
C  C179  1  0.52904000  0.04917000  0.62763000  1.0 0.2592825104
C  C180  1  0.95083000  0.47987000  0.29430000  1.0 0.2592825104
C  C181  1  0.64780000  0.84480000  0.16700000  1.0 0.5498976576
C  C182  1  0.35220000  0.15520000  0.66700000  1.0 0.5498976576
C  C183  1  0.15520000  0.80300000  0.83367000  1.0 0.5498976576
C  C184  1  0.19700000  0.35220000  0.50033000  1.0 0.5498976576
C  C185  1  0.80300000  0.64780000  0.00033000  1.0 0.5498976576
C  C186  1  0.84480000  0.19700000  0.33367000  1.0 0.5498976576
C  C187  1  0.80300000  0.15520000  0.83300000  1.0 0.5498976576
C  C188  1  0.35220000  0.19700000  0.16633000  1.0 0.5498976576
C  C189  1  0.84480000  0.64780000  0.49967000  1.0 0.5498976576
C  C190  1  0.15520000  0.35220000  0.99967000  1.0 0.5498976576
C  C191  1  0.64780000  0.80300000  0.66633000  1.0 0.5498976576
C  C192  1  0.19700000  0.84480000  0.33300000  1.0 0.5498976576
C  C193  1  0.68311000  0.52350000  0.14050000  1.0 -0.0929182564
C  C194  1  0.31689000  0.47650000  0.64050000  1.0 -0.0929182564
C  C195  1  0.47650000  0.15961000  0.80717000  1.0 -0.0929182564
C  C196  1  0.84039000  0.31689000  0.47383000  1.0 -0.0929182564
C  C197  1  0.15961000  0.68311000  0.97383000  1.0 -0.0929182564
C  C198  1  0.52350000  0.84039000  0.30717000  1.0 -0.0929182564
C  C199  1  0.15961000  0.47650000  0.85950000  1.0 -0.0929182564
C  C200  1  0.31689000  0.84039000  0.19283000  1.0 -0.0929182564
C  C201  1  0.52350000  0.68311000  0.52617000  1.0 -0.0929182564
C  C202  1  0.47650000  0.31689000  0.02617000  1.0 -0.0929182564
C  C203  1  0.68311000  0.15961000  0.69283000  1.0 -0.0929182564
C  C204  1  0.84039000  0.52350000  0.35950000  1.0 -0.0929182564
C  C205  1  0.65660000  0.67790000  0.96838000  1.0 0.5761326967
C  C206  1  0.34340000  0.32210000  0.46838000  1.0 0.5761326967
C  C207  1  0.32210000  0.97870000  0.63505000  1.0 0.5761326967
C  C208  1  0.02130000  0.34340000  0.30171000  1.0 0.5761326967
C  C209  1  0.97870000  0.65660000  0.80171000  1.0 0.5761326967
C  C210  1  0.67790000  0.02130000  0.13505000  1.0 0.5761326967
C  C211  1  0.97870000  0.32210000  0.03162000  1.0 0.5761326967
C  C212  1  0.34340000  0.02130000  0.36495000  1.0 0.5761326967
C  C213  1  0.67790000  0.65660000  0.69829000  1.0 0.5761326967
C  C214  1  0.32210000  0.34340000  0.19829000  1.0 0.5761326967
C  C215  1  0.65660000  0.97870000  0.86495000  1.0 0.5761326967
C  C216  1  0.02130000  0.67790000  0.53162000  1.0 0.5761326967
C  C217  1  0.84197000  0.81010000  0.15240000  1.0 0.5162402856
C  C218  1  0.15803000  0.18990000  0.65240000  1.0 0.5162402856
C  C219  1  0.18990000  0.03187000  0.81907000  1.0 0.5162402856
C  C220  1  0.96813000  0.15803000  0.48573000  1.0 0.5162402856
C  C221  1  0.03187000  0.84197000  0.98573000  1.0 0.5162402856
C  C222  1  0.81010000  0.96813000  0.31907000  1.0 0.5162402856
C  C223  1  0.03187000  0.18990000  0.84760000  1.0 0.5162402856
C  C224  1  0.15803000  0.96813000  0.18093000  1.0 0.5162402856
C  C225  1  0.81010000  0.84197000  0.51427000  1.0 0.5162402856
C  C226  1  0.18990000  0.15803000  0.01427000  1.0 0.5162402856
C  C227  1  0.84197000  0.03187000  0.68093000  1.0 0.5162402856
C  C228  1  0.96813000  0.81010000  0.34760000  1.0 0.5162402856
C  C229  1  0.75275000  0.58413000  0.20170000  1.0 -0.4495789603
C  C230  1  0.24725000  0.41587000  0.70170000  1.0 -0.4495789603
C  C231  1  0.41587000  0.16862000  0.86837000  1.0 -0.4495789603
C  C232  1  0.83138000  0.24725000  0.53503000  1.0 -0.4495789603
C  C233  1  0.16862000  0.75275000  0.03503000  1.0 -0.4495789603
C  C234  1  0.58413000  0.83138000  0.36837000  1.0 -0.4495789603
C  C235  1  0.16862000  0.41587000  0.79830000  1.0 -0.4495789603
C  C236  1  0.24725000  0.83138000  0.13163000  1.0 -0.4495789603
C  C237  1  0.58413000  0.75275000  0.46497000  1.0 -0.4495789603
C  C238  1  0.41587000  0.24725000  0.96497000  1.0 -0.4495789603
C  C239  1  0.75275000  0.16862000  0.63163000  1.0 -0.4495789603
C  C240  1  0.83138000  0.58413000  0.29830000  1.0 -0.4495789603
C  C241  1  0.69406000  0.51543000  0.25990000  1.0 -0.4495789603
C  C242  1  0.30594000  0.48457000  0.75990000  1.0 -0.4495789603
C  C243  1  0.48457000  0.17863000  0.92657000  1.0 -0.4495789603
C  C244  1  0.82137000  0.30594000  0.59323000  1.0 -0.4495789603
C  C245  1  0.17863000  0.69406000  0.09323000  1.0 -0.4495789603
C  C246  1  0.51543000  0.82137000  0.42657000  1.0 -0.4495789603
C  C247  1  0.17863000  0.48457000  0.74010000  1.0 -0.4495789603
C  C248  1  0.30594000  0.82137000  0.07343000  1.0 -0.4495789603
C  C249  1  0.51543000  0.69406000  0.40677000  1.0 -0.4495789603
C  C250  1  0.48457000  0.30594000  0.90677000  1.0 -0.4495789603
C  C251  1  0.69406000  0.17863000  0.57343000  1.0 -0.4495789603
C  C252  1  0.82137000  0.51543000  0.24010000  1.0 -0.4495789603
C  C253  1  0.64212000  0.46085000  0.43310000  1.0 -0.1388047121
C  C254  1  0.35788000  0.53915000  0.93310000  1.0 -0.1388047121
C  C255  1  0.53915000  0.18127000  0.09977000  1.0 -0.1388047121
C  C256  1  0.81873000  0.35788000  0.76643000  1.0 -0.1388047121
C  C257  1  0.18127000  0.64212000  0.26643000  1.0 -0.1388047121
C  C258  1  0.46085000  0.81873000  0.59977000  1.0 -0.1388047121
C  C259  1  0.18127000  0.53915000  0.56690000  1.0 -0.1388047121
C  C260  1  0.35788000  0.81873000  0.90023000  1.0 -0.1388047121
C  C261  1  0.46085000  0.64212000  0.23357000  1.0 -0.1388047121
C  C262  1  0.53915000  0.35788000  0.73357000  1.0 -0.1388047121
C  C263  1  0.64212000  0.18127000  0.40023000  1.0 -0.1388047121
C  C264  1  0.81873000  0.46085000  0.06690000  1.0 -0.1388047121
C  C265  1  0.59640000  0.47480000  0.50720000  1.0 -0.4434645034
C  C266  1  0.40360000  0.52520000  0.00720000  1.0 -0.4434645034
C  C267  1  0.52520000  0.12160000  0.17387000  1.0 -0.4434645034
C  C268  1  0.87840000  0.40360000  0.84053000  1.0 -0.4434645034
C  C269  1  0.12160000  0.59640000  0.34053000  1.0 -0.4434645034
C  C270  1  0.47480000  0.87840000  0.67387000  1.0 -0.4434645034
C  C271  1  0.12160000  0.52520000  0.49280000  1.0 -0.4434645034
C  C272  1  0.40360000  0.87840000  0.82613000  1.0 -0.4434645034
C  C273  1  0.47480000  0.59640000  0.15947000  1.0 -0.4434645034
C  C274  1  0.52520000  0.40360000  0.65947000  1.0 -0.4434645034
C  C275  1  0.59640000  0.12160000  0.32613000  1.0 -0.4434645034
C  C276  1  0.87840000  0.47480000  0.99280000  1.0 -0.4434645034
C  C277  1  0.56620000  0.44710000  0.39880000  1.0 -0.4495789603
C  C278  1  0.43380000  0.55290000  0.89880000  1.0 -0.4495789603
C  C279  1  0.55290000  0.11910000  0.06547000  1.0 -0.4495789603
C  C280  1  0.88090000  0.43380000  0.73213000  1.0 -0.4495789603
C  C281  1  0.11910000  0.56620000  0.23213000  1.0 -0.4495789603
C  C282  1  0.44710000  0.88090000  0.56547000  1.0 -0.4495789603
C  C283  1  0.11910000  0.55290000  0.60120000  1.0 -0.4495789603
C  C284  1  0.43380000  0.88090000  0.93453000  1.0 -0.4495789603
C  C285  1  0.44710000  0.56620000  0.26787000  1.0 -0.4495789603
C  C286  1  0.55290000  0.43380000  0.76787000  1.0 -0.4495789603
C  C287  1  0.56620000  0.11910000  0.43453000  1.0 -0.4495789603
C  C288  1  0.88090000  0.44710000  0.10120000  1.0 -0.4495789603
C  C289  1  0.51030000  0.43882000  0.24190000  1.0 -0.0784747036
C  C290  1  0.48970000  0.56118000  0.74190000  1.0 -0.0784747036
C  C291  1  0.56118000  0.07148000  0.90857000  1.0 -0.0784747036
C  C292  1  0.92852000  0.48970000  0.57523000  1.0 -0.0784747036
C  C293  1  0.07148000  0.51030000  0.07523000  1.0 -0.0784747036
C  C294  1  0.43882000  0.92852000  0.40857000  1.0 -0.0784747036
C  C295  1  0.07148000  0.56118000  0.75810000  1.0 -0.0784747036
C  C296  1  0.48970000  0.92852000  0.09143000  1.0 -0.0784747036
C  C297  1  0.43882000  0.51030000  0.42477000  1.0 -0.0784747036
C  C298  1  0.56118000  0.48970000  0.92477000  1.0 -0.0784747036
C  C299  1  0.51030000  0.07148000  0.59143000  1.0 -0.0784747036
C  C300  1  0.92852000  0.43882000  0.25810000  1.0 -0.0784747036
C  C301  1  0.49395000  0.48664000  0.16550000  1.0 -0.4582973208
C  C302  1  0.50605000  0.51336000  0.66550000  1.0 -0.4582973208
C  C303  1  0.51336000  0.00731000  0.83217000  1.0 -0.4582973208
C  C304  1  0.99269000  0.50605000  0.49883000  1.0 -0.4582973208
C  C305  1  0.00731000  0.49395000  0.99883000  1.0 -0.4582973208
C  C306  1  0.48664000  0.99269000  0.33217000  1.0 -0.4582973208
C  C307  1  0.00731000  0.51336000  0.83450000  1.0 -0.4582973208
C  C308  1  0.50605000  0.99269000  0.16783000  1.0 -0.4582973208
C  C309  1  0.48664000  0.49395000  0.50117000  1.0 -0.4582973208
C  C310  1  0.51336000  0.50605000  0.00117000  1.0 -0.4582973208
C  C311  1  0.49395000  0.00731000  0.66783000  1.0 -0.4582973208
C  C312  1  0.99269000  0.48664000  0.33450000  1.0 -0.4582973208
C  C313  1  0.57040000  0.48890000  0.16370000  1.0 -0.4495789603
C  C314  1  0.42960000  0.51110000  0.66370000  1.0 -0.4495789603
C  C315  1  0.51110000  0.08150000  0.83037000  1.0 -0.4495789603
C  C316  1  0.91850000  0.42960000  0.49703000  1.0 -0.4495789603
C  C317  1  0.08150000  0.57040000  0.99703000  1.0 -0.4495789603
C  C318  1  0.48890000  0.91850000  0.33037000  1.0 -0.4495789603
C  C319  1  0.08150000  0.51110000  0.83630000  1.0 -0.4495789603
C  C320  1  0.42960000  0.91850000  0.16963000  1.0 -0.4495789603
C  C321  1  0.48890000  0.57040000  0.50297000  1.0 -0.4495789603
C  C322  1  0.51110000  0.42960000  0.00297000  1.0 -0.4495789603
C  C323  1  0.57040000  0.08150000  0.66963000  1.0 -0.4495789603
C  C324  1  0.91850000  0.48890000  0.33630000  1.0 -0.4495789603
C  C325  1  0.70060000  0.49460000  0.12130000  1.0 0.5498976576
C  C326  1  0.29940000  0.50540000  0.62130000  1.0 0.5498976576
C  C327  1  0.50540000  0.20600000  0.78797000  1.0 0.5498976576
C  C328  1  0.79400000  0.29940000  0.45463000  1.0 0.5498976576
C  C329  1  0.20600000  0.70060000  0.95463000  1.0 0.5498976576
C  C330  1  0.49460000  0.79400000  0.28797000  1.0 0.5498976576
C  C331  1  0.20600000  0.50540000  0.87870000  1.0 0.5498976576
C  C332  1  0.29940000  0.79400000  0.21203000  1.0 0.5498976576
C  C333  1  0.49460000  0.70060000  0.54537000  1.0 0.5498976576
C  C334  1  0.50540000  0.29940000  0.04537000  1.0 0.5498976576
C  C335  1  0.70060000  0.20600000  0.71203000  1.0 0.5498976576
C  C336  1  0.79400000  0.49460000  0.37870000  1.0 0.5498976576
C  C337  1  0.62630000  0.41830000  0.45820000  1.0 0.5162402856
C  C338  1  0.37370000  0.58170000  0.95820000  1.0 0.5162402856
C  C339  1  0.58170000  0.20800000  0.12487000  1.0 0.5162402856
C  C340  1  0.79200000  0.37370000  0.79153000  1.0 0.5162402856
C  C341  1  0.20800000  0.62630000  0.29153000  1.0 0.5162402856
C  C342  1  0.41830000  0.79200000  0.62487000  1.0 0.5162402856
C  C343  1  0.20800000  0.58170000  0.54180000  1.0 0.5162402856
C  C344  1  0.37370000  0.79200000  0.87513000  1.0 0.5162402856
C  C345  1  0.41830000  0.62630000  0.20847000  1.0 0.5162402856
C  C346  1  0.58170000  0.37370000  0.70847000  1.0 0.5162402856
C  C347  1  0.62630000  0.20800000  0.37513000  1.0 0.5162402856
C  C348  1  0.79200000  0.41830000  0.04180000  1.0 0.5162402856
C  C349  1  0.49150000  0.39540000  0.19110000  1.0 0.5382553655
C  C350  1  0.50850000  0.60460000  0.69110000  1.0 0.5382553655
C  C351  1  0.60460000  0.09610000  0.85777000  1.0 0.5382553655
C  C352  1  0.90390000  0.50850000  0.52443000  1.0 0.5382553655
C  C353  1  0.09610000  0.49150000  0.02443000  1.0 0.5382553655
C  C354  1  0.39540000  0.90390000  0.35777000  1.0 0.5382553655
C  C355  1  0.09610000  0.60460000  0.80890000  1.0 0.5382553655
C  C356  1  0.50850000  0.90390000  0.14223000  1.0 0.5382553655
C  C357  1  0.39540000  0.49150000  0.47557000  1.0 0.5382553655
C  C358  1  0.60460000  0.50850000  0.97557000  1.0 0.5382553655
C  C359  1  0.49150000  0.09610000  0.64223000  1.0 0.5382553655
C  C360  1  0.90390000  0.39540000  0.30890000  1.0 0.5382553655
S  S1  1  0.63120000  0.72783000  0.26042000  1.0 -0.2986319066
S  S2  1  0.36880000  0.27217000  0.76042000  1.0 -0.2986319066
S  S3  1  0.27217000  0.90337000  0.92709000  1.0 -0.2986319066
S  S4  1  0.09663000  0.36880000  0.59375000  1.0 -0.2986319066
S  S5  1  0.90337000  0.63120000  0.09375000  1.0 -0.2986319066
S  S6  1  0.72783000  0.09663000  0.42709000  1.0 -0.2986319066
S  S7  1  0.90337000  0.27217000  0.73958000  1.0 -0.2986319066
S  S8  1  0.36880000  0.09663000  0.07291000  1.0 -0.2986319066
S  S9  1  0.72783000  0.63120000  0.40625000  1.0 -0.2986319066
S  S10  1  0.27217000  0.36880000  0.90625000  1.0 -0.2986319066
S  S11  1  0.63120000  0.90337000  0.57291000  1.0 -0.2986319066
S  S12  1  0.09663000  0.72783000  0.23958000  1.0 -0.2986319066
S  S13  1  0.63027000  0.63417000  0.15638000  1.0 -0.3705236087
S  S14  1  0.36973000  0.36583000  0.65638000  1.0 -0.3705236087
S  S15  1  0.36583000  0.99610000  0.82305000  1.0 -0.3705236087
S  S16  1  0.00390000  0.36973000  0.48971000  1.0 -0.3705236087
S  S17  1  0.99610000  0.63027000  0.98971000  1.0 -0.3705236087
S  S18  1  0.63417000  0.00390000  0.32305000  1.0 -0.3705236087
S  S19  1  0.99610000  0.36583000  0.84362000  1.0 -0.3705236087
S  S20  1  0.36973000  0.00390000  0.17695000  1.0 -0.3705236087
S  S21  1  0.63417000  0.63027000  0.51029000  1.0 -0.3705236087
S  S22  1  0.36583000  0.36973000  0.01029000  1.0 -0.3705236087
S  S23  1  0.63027000  0.99610000  0.67695000  1.0 -0.3705236087
S  S24  1  0.00390000  0.63417000  0.34362000  1.0 -0.3705236087
S  S25  1  0.73830000  0.71268000  0.26283000  1.0 -0.328073922
S  S26  1  0.26170000  0.28732000  0.76283000  1.0 -0.328073922
S  S27  1  0.28732000  0.02562000  0.92950000  1.0 -0.328073922
S  S28  1  0.97438000  0.26170000  0.59616000  1.0 -0.328073922
S  S29  1  0.02562000  0.73830000  0.09616000  1.0 -0.328073922
S  S30  1  0.71268000  0.97438000  0.42950000  1.0 -0.328073922
S  S31  1  0.02562000  0.28732000  0.73717000  1.0 -0.328073922
S  S32  1  0.26170000  0.97438000  0.07050000  1.0 -0.328073922
S  S33  1  0.71268000  0.73830000  0.40384000  1.0 -0.328073922
S  S34  1  0.28732000  0.26170000  0.90384000  1.0 -0.328073922
S  S35  1  0.73830000  0.02562000  0.57050000  1.0 -0.328073922
S  S36  1  0.97438000  0.71268000  0.23717000  1.0 -0.328073922
S  S37  1  0.67618000  0.58226000  0.22833000  1.0 -0.3478710957
S  S38  1  0.32382000  0.41774000  0.72833000  1.0 -0.3478710957
S  S39  1  0.41774000  0.09392000  0.89500000  1.0 -0.3478710957
S  S40  1  0.90608000  0.32382000  0.56166000  1.0 -0.3478710957
S  S41  1  0.09392000  0.67618000  0.06166000  1.0 -0.3478710957
S  S42  1  0.58226000  0.90608000  0.39500000  1.0 -0.3478710957
S  S43  1  0.09392000  0.41774000  0.77167000  1.0 -0.3478710957
S  S44  1  0.32382000  0.90608000  0.10500000  1.0 -0.3478710957
S  S45  1  0.58226000  0.67618000  0.43834000  1.0 -0.3478710957
S  S46  1  0.41774000  0.32382000  0.93834000  1.0 -0.3478710957
S  S47  1  0.67618000  0.09392000  0.60500000  1.0 -0.3478710957
S  S48  1  0.90608000  0.58226000  0.27167000  1.0 -0.3478710957
S  S49  1  0.63345000  0.53456000  0.40709000  1.0 -0.3705236087
S  S50  1  0.36655000  0.46544000  0.90709000  1.0 -0.3705236087
S  S51  1  0.46544000  0.09889000  0.07376000  1.0 -0.3705236087
S  S52  1  0.90111000  0.36655000  0.74042000  1.0 -0.3705236087
S  S53  1  0.09889000  0.63345000  0.24042000  1.0 -0.3705236087
S  S54  1  0.53456000  0.90111000  0.57376000  1.0 -0.3705236087
S  S55  1  0.09889000  0.46544000  0.59291000  1.0 -0.3705236087
S  S56  1  0.36655000  0.90111000  0.92624000  1.0 -0.3705236087
S  S57  1  0.53456000  0.63345000  0.25958000  1.0 -0.3705236087
S  S58  1  0.46544000  0.36655000  0.75958000  1.0 -0.3705236087
S  S59  1  0.63345000  0.09889000  0.42624000  1.0 -0.3705236087
S  S60  1  0.90111000  0.53456000  0.09291000  1.0 -0.3705236087
S  S61  1  0.55009000  0.52688000  0.26458000  1.0 -0.3478710957
S  S62  1  0.44991000  0.47312000  0.76458000  1.0 -0.3478710957
S  S63  1  0.47312000  0.02321000  0.93125000  1.0 -0.3478710957
S  S64  1  0.97679000  0.44991000  0.59791000  1.0 -0.3478710957
S  S65  1  0.02321000  0.55009000  0.09791000  1.0 -0.3478710957
S  S66  1  0.52688000  0.97679000  0.43125000  1.0 -0.3478710957
S  S67  1  0.02321000  0.47312000  0.73542000  1.0 -0.3478710957
S  S68  1  0.44991000  0.97679000  0.06875000  1.0 -0.3478710957
S  S69  1  0.52688000  0.55009000  0.40209000  1.0 -0.3478710957
S  S70  1  0.47312000  0.44991000  0.90209000  1.0 -0.3478710957
S  S71  1  0.55009000  0.02321000  0.56875000  1.0 -0.3478710957
S  S72  1  0.97679000  0.52688000  0.23542000  1.0 -0.3478710957
N  N1  1  0.58495000  0.76686000  0.19200000  1.0 -0.4792960914
N  N2  1  0.41505000  0.23314000  0.69200000  1.0 -0.4792960914
N  N3  1  0.23314000  0.81809000  0.85867000  1.0 -0.4792960914
N  N4  1  0.18191000  0.41505000  0.52533000  1.0 -0.4792960914
N  N5  1  0.81809000  0.58495000  0.02533000  1.0 -0.4792960914
N  N6  1  0.76686000  0.18191000  0.35867000  1.0 -0.4792960914
N  N7  1  0.81809000  0.23314000  0.80800000  1.0 -0.4792960914
N  N8  1  0.41505000  0.18191000  0.14133000  1.0 -0.4792960914
N  N9  1  0.76686000  0.58495000  0.47467000  1.0 -0.4792960914
N  N10  1  0.23314000  0.41505000  0.97467000  1.0 -0.4792960914
N  N11  1  0.58495000  0.81809000  0.64133000  1.0 -0.4792960914
N  N12  1  0.18191000  0.76686000  0.30800000  1.0 -0.4792960914
N  N13  1  0.68563000  0.49492000  0.45900000  1.0 -0.4495789603
N  N14  1  0.31437000  0.50508000  0.95900000  1.0 -0.4495789603
N  N15  1  0.50508000  0.19071000  0.12567000  1.0 -0.4495789603
N  N16  1  0.80929000  0.31437000  0.79233000  1.0 -0.4495789603
N  N17  1  0.19071000  0.68563000  0.29233000  1.0 -0.4495789603
N  N18  1  0.49492000  0.80929000  0.62567000  1.0 -0.4495789603
N  N19  1  0.19071000  0.50508000  0.54100000  1.0 -0.4495789603
N  N20  1  0.31437000  0.80929000  0.87433000  1.0 -0.4495789603
N  N21  1  0.49492000  0.68563000  0.20767000  1.0 -0.4495789603
N  N22  1  0.50508000  0.31437000  0.70767000  1.0 -0.4495789603
N  N23  1  0.68563000  0.19071000  0.37433000  1.0 -0.4495789603
N  N24  1  0.80929000  0.49492000  0.04100000  1.0 -0.4495789603
N  N25  1  0.67638000  0.63200000  0.03870000  1.0 -0.4695801416
N  N26  1  0.32362000  0.36800000  0.53870000  1.0 -0.4695801416
N  N27  1  0.36800000  0.04438000  0.70537000  1.0 -0.4695801416
N  N28  1  0.95562000  0.32362000  0.37203000  1.0 -0.4695801416
N  N29  1  0.04438000  0.67638000  0.87203000  1.0 -0.4695801416
N  N30  1  0.63200000  0.95562000  0.20537000  1.0 -0.4695801416
N  N31  1  0.04438000  0.36800000  0.96130000  1.0 -0.4695801416
N  N32  1  0.32362000  0.95562000  0.29463000  1.0 -0.4695801416
N  N33  1  0.63200000  0.67638000  0.62797000  1.0 -0.4695801416
N  N34  1  0.36800000  0.32362000  0.12797000  1.0 -0.4695801416
N  N35  1  0.67638000  0.04438000  0.79463000  1.0 -0.4695801416
N  N36  1  0.95562000  0.63200000  0.46130000  1.0 -0.4695801416
N  N37  1  0.68622000  0.55596000  0.09500000  1.0 -0.4695801416
N  N38  1  0.31378000  0.44404000  0.59500000  1.0 -0.4695801416
N  N39  1  0.44404000  0.13026000  0.76167000  1.0 -0.4695801416
N  N40  1  0.86974000  0.31378000  0.42833000  1.0 -0.4695801416
N  N41  1  0.13026000  0.68622000  0.92833000  1.0 -0.4695801416
N  N42  1  0.55596000  0.86974000  0.26167000  1.0 -0.4695801416
N  N43  1  0.13026000  0.44404000  0.90500000  1.0 -0.4695801416
N  N44  1  0.31378000  0.86974000  0.23833000  1.0 -0.4695801416
N  N45  1  0.55596000  0.68622000  0.57167000  1.0 -0.4695801416
N  N46  1  0.44404000  0.31378000  0.07167000  1.0 -0.4695801416
N  N47  1  0.68622000  0.13026000  0.73833000  1.0 -0.4695801416
N  N48  1  0.86974000  0.55596000  0.40500000  1.0 -0.4695801416
N  N49  1  0.81260000  0.80470000  0.25780000  1.0 -0.4218397234
N  N50  1  0.18740000  0.19530000  0.75780000  1.0 -0.4218397234
N  N51  1  0.19530000  0.00790000  0.92447000  1.0 -0.4218397234
N  N52  1  0.99210000  0.18740000  0.59113000  1.0 -0.4218397234
N  N53  1  0.00790000  0.81260000  0.09113000  1.0 -0.4218397234
N  N54  1  0.80470000  0.99210000  0.42447000  1.0 -0.4218397234
N  N55  1  0.00790000  0.19530000  0.74220000  1.0 -0.4218397234
N  N56  1  0.18740000  0.99210000  0.07553000  1.0 -0.4218397234
N  N57  1  0.80470000  0.81260000  0.40887000  1.0 -0.4218397234
N  N58  1  0.19530000  0.18740000  0.90887000  1.0 -0.4218397234
N  N59  1  0.81260000  0.00790000  0.57553000  1.0 -0.4218397234
N  N60  1  0.99210000  0.80470000  0.24220000  1.0 -0.4218397234
N  N61  1  0.47580000  0.43960000  0.28730000  1.0 -0.4903662708
N  N62  1  0.52420000  0.56040000  0.78730000  1.0 -0.4903662708
N  N63  1  0.56040000  0.03620000  0.95397000  1.0 -0.4903662708
N  N64  1  0.96380000  0.52420000  0.62063000  1.0 -0.4903662708
N  N65  1  0.03620000  0.47580000  0.12063000  1.0 -0.4903662708
N  N66  1  0.43960000  0.96380000  0.45397000  1.0 -0.4903662708
N  N67  1  0.03620000  0.56040000  0.71270000  1.0 -0.4903662708
N  N68  1  0.52420000  0.96380000  0.04603000  1.0 -0.4903662708
N  N69  1  0.43960000  0.47580000  0.37937000  1.0 -0.4903662708
N  N70  1  0.56040000  0.52420000  0.87937000  1.0 -0.4903662708
N  N71  1  0.47580000  0.03620000  0.54603000  1.0 -0.4903662708
N  N72  1  0.96380000  0.43960000  0.21270000  1.0 -0.4903662708
Cl  Cl1  1  0.63118000  0.63118000  0.33333333  1.0 -0.2862522956
Cl  Cl2  1  0.36882000  0.36882000  0.83333000  1.0 -0.2849297655
Cl  Cl3  1  0.36882000  0.00000000  0.00000000  1.0 -0.2862522956
Cl  Cl4  1  0.00000000  0.36882000  0.66666667  1.0 -0.2849297655
Cl  Cl5  1  0.00000000  0.63118000  0.16667000  1.0 -0.2862522956
Cl  Cl6  1  0.63118000  0.00000000  0.50000000  1.0 -0.2862522956
O  O1  1  0.62199000  0.85621000  0.19050000  1.0 -0.4903662708
O  O2  1  0.37801000  0.14379000  0.69050000  1.0 -0.4903662708
O  O3  1  0.14379000  0.76578000  0.85717000  1.0 -0.4903662708
O  O4  1  0.23422000  0.37801000  0.52383000  1.0 -0.4903662708
O  O5  1  0.76578000  0.62199000  0.02383000  1.0 -0.4903662708
O  O6  1  0.85621000  0.23422000  0.35717000  1.0 -0.4903662708
O  O7  1  0.76578000  0.14379000  0.80950000  1.0 -0.4903662708
O  O8  1  0.37801000  0.23422000  0.14283000  1.0 -0.4903662708
O  O9  1  0.85621000  0.62199000  0.47617000  1.0 -0.4903662708
O  O10  1  0.14379000  0.37801000  0.97617000  1.0 -0.4903662708
O  O11  1  0.62199000  0.76578000  0.64283000  1.0 -0.4903662708
O  O12  1  0.23422000  0.85621000  0.30950000  1.0 -0.4903662708
O  O13  1  0.68204000  0.86481000  0.13830000  1.0 -0.4495789603
O  O14  1  0.31796000  0.13519000  0.63830000  1.0 -0.4495789603
O  O15  1  0.13519000  0.81723000  0.80497000  1.0 -0.4495789603
O  O16  1  0.18277000  0.31796000  0.47163000  1.0 -0.4495789603
O  O17  1  0.81723000  0.68204000  0.97163000  1.0 -0.4495789603
O  O18  1  0.86481000  0.18277000  0.30497000  1.0 -0.4582973208
O  O19  1  0.81723000  0.13519000  0.86170000  1.0 -0.4495789603
O  O20  1  0.31796000  0.18277000  0.19503000  1.0 -0.4495789603
O  O21  1  0.86481000  0.68204000  0.52837000  1.0 -0.4495789603
O  O22  1  0.13519000  0.31796000  0.02837000  1.0 -0.4495789603
O  O23  1  0.68204000  0.81723000  0.69503000  1.0 -0.4495789603
O  O24  1  0.18277000  0.86481000  0.36170000  1.0 -0.4495789603
O  O25  1  0.64570000  0.64800000  0.92660000  1.0 -0.5511691914
O  O26  1  0.35430000  0.35200000  0.42660000  1.0 -0.5511691914
O  O27  1  0.35200000  0.99770000  0.59327000  1.0 -0.5511691914
O  O28  1  0.00230000  0.35430000  0.25993000  1.0 -0.5511691914
O  O29  1  0.99770000  0.64570000  0.75993000  1.0 -0.5511691914
O  O30  1  0.64800000  0.00230000  0.09327000  1.0 -0.5511691914
O  O31  1  0.99770000  0.35200000  0.07340000  1.0 -0.5511691914
O  O32  1  0.35430000  0.00230000  0.40673000  1.0 -0.5511691914
O  O33  1  0.64800000  0.64570000  0.74007000  1.0 -0.5511691914
O  O34  1  0.35200000  0.35430000  0.24007000  1.0 -0.5511691914
O  O35  1  0.64570000  0.99770000  0.90673000  1.0 -0.5511691914
O  O36  1  0.00230000  0.64800000  0.57340000  1.0 -0.5511691914
O  O37  1  0.67130000  0.72110000  0.96380000  1.0 -0.5667223466
O  O38  1  0.32870000  0.27890000  0.46380000  1.0 -0.5585425468
O  O39  1  0.27890000  0.95020000  0.63047000  1.0 -0.5667223466
O  O40  1  0.04980000  0.32870000  0.29713000  1.0 -0.5667223466
O  O41  1  0.95020000  0.67130000  0.79713000  1.0 -0.5585425468
O  O42  1  0.72110000  0.04980000  0.13047000  1.0 -0.5585425468
O  O43  1  0.95020000  0.27890000  0.03620000  1.0 -0.5585425468
O  O44  1  0.32870000  0.04980000  0.36953000  1.0 -0.5585425468
O  O45  1  0.72110000  0.67130000  0.70287000  1.0 -0.5667223466
O  O46  1  0.27890000  0.32870000  0.20287000  1.0 -0.5667223466
O  O47  1  0.67130000  0.95020000  0.86953000  1.0 -0.5667223466
O  O48  1  0.04980000  0.72110000  0.53620000  1.0 -0.5667223466
O  O49  1  0.87660000  0.82830000  0.17190000  1.0 -0.4434645034
O  O50  1  0.12340000  0.17170000  0.67190000  1.0 -0.4434645034
O  O51  1  0.17170000  0.04830000  0.83857000  1.0 -0.4434645034
O  O52  1  0.95170000  0.12340000  0.50523000  1.0 -0.4434645034
O  O53  1  0.04830000  0.87660000  0.00523000  1.0 -0.4434645034
O  O54  1  0.82830000  0.95170000  0.33857000  1.0 -0.4434645034
O  O55  1  0.04830000  0.17170000  0.82810000  1.0 -0.4434645034
O  O56  1  0.12340000  0.95170000  0.16143000  1.0 -0.4434645034
O  O57  1  0.82830000  0.87660000  0.49477000  1.0 -0.4434645034
O  O58  1  0.17170000  0.12340000  0.99477000  1.0 -0.4434645034
O  O59  1  0.87660000  0.04830000  0.66143000  1.0 -0.4434645034
O  O60  1  0.95170000  0.82830000  0.32810000  1.0 -0.4434645034
O  O61  1  0.83140000  0.81270000  0.09580000  1.0 -0.4695801416
O  O62  1  0.16860000  0.18730000  0.59580000  1.0 -0.4695801416
O  O63  1  0.18730000  0.01870000  0.76247000  1.0 -0.4695801416
O  O64  1  0.98130000  0.16860000  0.42913000  1.0 -0.4695801416
O  O65  1  0.01870000  0.83140000  0.92913000  1.0 -0.4695801416
O  O66  1  0.81270000  0.98130000  0.26247000  1.0 -0.4695801416
O  O67  1  0.01870000  0.18730000  0.90420000  1.0 -0.4695801416
O  O68  1  0.16860000  0.98130000  0.23753000  1.0 -0.4695801416
O  O69  1  0.81270000  0.83140000  0.57087000  1.0 -0.4695801416
O  O70  1  0.18730000  0.16860000  0.07087000  1.0 -0.4695801416
O  O71  1  0.83140000  0.01870000  0.73753000  1.0 -0.4695801416
O  O72  1  0.98130000  0.81270000  0.40420000  1.0 -0.4695801416
O  O73  1  0.73550000  0.51326000  0.08410000  1.0 -0.5585425468
O  O74  1  0.26450000  0.48674000  0.58410000  1.0 -0.5585425468
O  O75  1  0.48674000  0.22224000  0.75077000  1.0 -0.5585425468
O  O76  1  0.77776000  0.26450000  0.41743000  1.0 -0.5585425468
O  O77  1  0.22224000  0.73550000  0.91743000  1.0 -0.5585425468
O  O78  1  0.51326000  0.77776000  0.25077000  1.0 -0.5585425468
O  O79  1  0.22224000  0.48674000  0.91590000  1.0 -0.5585425468
O  O80  1  0.26450000  0.77776000  0.24923000  1.0 -0.5585425468
O  O81  1  0.51326000  0.73550000  0.58257000  1.0 -0.5585425468
O  O82  1  0.48674000  0.26450000  0.08257000  1.0 -0.5511691914
O  O83  1  0.73550000  0.22224000  0.74923000  1.0 -0.5585425468
O  O84  1  0.77776000  0.51326000  0.41590000  1.0 -0.5511691914
O  O85  1  0.68467000  0.45519000  0.14100000  1.0 -0.5169376266
O  O86  1  0.31533000  0.54481000  0.64100000  1.0 -0.5169376266
O  O87  1  0.54481000  0.22948000  0.80767000  1.0 -0.5169376266
O  O88  1  0.77052000  0.31533000  0.47433000  1.0 -0.5169376266
O  O89  1  0.22948000  0.68467000  0.97433000  1.0 -0.5169376266
O  O90  1  0.45519000  0.77052000  0.30767000  1.0 -0.5169376266
O  O91  1  0.22948000  0.54481000  0.85900000  1.0 -0.5169376266
O  O92  1  0.31533000  0.77052000  0.19233000  1.0 -0.5169376266
O  O93  1  0.45519000  0.68467000  0.52567000  1.0 -0.5169376266
O  O94  1  0.54481000  0.31533000  0.02567000  1.0 -0.5169376266
O  O95  1  0.68467000  0.22948000  0.69233000  1.0 -0.5169376266
O  O96  1  0.77052000  0.45519000  0.35900000  1.0 -0.5169376266
O  O97  1  0.64281000  0.42031000  0.52130000  1.0 -0.5780426296
O  O98  1  0.35719000  0.57969000  0.02130000  1.0 -0.5780426296
O  O99  1  0.57969000  0.22250000  0.18797000  1.0 -0.5780426296
O  O100  1  0.77750000  0.35719000  0.85463000  1.0 -0.5780426296
O  O101  1  0.22250000  0.64281000  0.35463000  1.0 -0.5780426296
O  O102  1  0.42031000  0.77750000  0.68797000  1.0 -0.5780426296
O  O103  1  0.22250000  0.57969000  0.47870000  1.0 -0.5780426296
O  O104  1  0.35719000  0.77750000  0.81203000  1.0 -0.5780426296
O  O105  1  0.42031000  0.64281000  0.14537000  1.0 -0.5780426296
O  O106  1  0.57969000  0.35719000  0.64537000  1.0 -0.5780426296
O  O107  1  0.64281000  0.22250000  0.31203000  1.0 -0.5780426296
O  O108  1  0.77750000  0.42031000  0.97870000  1.0 -0.5780426296
O  O109  1  0.60028000  0.38220000  0.43480000  1.0 -0.5386069995
O  O110  1  0.39972000  0.61780000  0.93480000  1.0 -0.5386069995
O  O111  1  0.61780000  0.21808000  0.10147000  1.0 -0.5386069995
O  O112  1  0.78192000  0.39972000  0.76813000  1.0 -0.5386069995
O  O113  1  0.21808000  0.60028000  0.26813000  1.0 -0.5386069995
O  O114  1  0.38220000  0.78192000  0.60147000  1.0 -0.5386069995
O  O115  1  0.21808000  0.61780000  0.56520000  1.0 -0.5386069995
O  O116  1  0.39972000  0.78192000  0.89853000  1.0 -0.5386069995
O  O117  1  0.38220000  0.60028000  0.23187000  1.0 -0.5386069995
O  O118  1  0.61780000  0.39972000  0.73187000  1.0 -0.5386069995
O  O119  1  0.60028000  0.21808000  0.39853000  1.0 -0.5386069995
O  O120  1  0.78192000  0.38220000  0.06520000  1.0 -0.5386069995
O  O121  1  0.45050000  0.37330000  0.19150000  1.0 -0.5101849767
O  O122  1  0.54950000  0.62670000  0.69150000  1.0 -0.5101849767
O  O123  1  0.62670000  0.07720000  0.85817000  1.0 -0.5101849767
O  O124  1  0.92280000  0.54950000  0.52483000  1.0 -0.5101849767
O  O125  1  0.07720000  0.45050000  0.02483000  1.0 -0.5101849767
O  O126  1  0.37330000  0.92280000  0.35817000  1.0 -0.5101849767
O  O127  1  0.07720000  0.62670000  0.80850000  1.0 -0.5101849767
O  O128  1  0.54950000  0.92280000  0.14183000  1.0 -0.5101849767
O  O129  1  0.37330000  0.45050000  0.47517000  1.0 -0.5101849767
O  O130  1  0.62670000  0.54950000  0.97517000  1.0 -0.5101849767
O  O131  1  0.45050000  0.07720000  0.64183000  1.0 -0.5101849767
O  O132  1  0.92280000  0.37330000  0.30850000  1.0 -0.5101849767
O  O133  1  0.52020000  0.39030000  0.16840000  1.0 -0.4112450587
O  O134  1  0.47980000  0.60970000  0.66840000  1.0 -0.4112450587
O  O135  1  0.60970000  0.12990000  0.83507000  1.0 -0.4112450587
O  O136  1  0.87010000  0.47980000  0.50173000  1.0 -0.4112450587
O  O137  1  0.12990000  0.52020000  0.00173000  1.0 -0.4112450587
O  O138  1  0.39030000  0.87010000  0.33507000  1.0 -0.4112450587
O  O139  1  0.12990000  0.60970000  0.83160000  1.0 -0.4112450587
O  O140  1  0.47980000  0.87010000  0.16493000  1.0 -0.4112450587
O  O141  1  0.39030000  0.52020000  0.49827000  1.0 -0.4112450587
O  O142  1  0.60970000  0.47980000  0.99827000  1.0 -0.4112450587
O  O143  1  0.52020000  0.12990000  0.66493000  1.0 -0.4112450587
O  O144  1  0.87010000  0.39030000  0.33160000  1.0 -0.4112450587
O  O145  1  0.68380000  0.41860000  0.64740000  1.0 -0.6022960377
O  O146  1  0.31620000  0.58140000  0.14740000  1.0 -0.594430613
O  O147  1  0.58140000  0.26520000  0.31407000  1.0 -0.594430613
O  O148  1  0.73480000  0.31620000  0.98073000  1.0 -0.6022960377
O  O149  1  0.26520000  0.68380000  0.48073000  1.0 -0.594430613
O  O150  1  0.41860000  0.73480000  0.81407000  1.0 -0.594430613
O  O151  1  0.26520000  0.58140000  0.35260000  1.0 -0.594430613
O  O152  1  0.31620000  0.73480000  0.68593000  1.0 -0.594430613
O  O153  1  0.41860000  0.68380000  0.01927000  1.0 -0.594430613
O  O154  1  0.58140000  0.31620000  0.51927000  1.0 -0.6022960377
O  O155  1  0.68380000  0.26520000  0.18593000  1.0 -0.6081476939
O  O156  1  0.73480000  0.41860000  0.85260000  1.0 -0.6022960377
O  O157  1  0.68510000  0.36510000  0.53540000  1.0 -0.4695801416
O  O158  1  0.31490000  0.63490000  0.03540000  1.0 -0.4695801416
O  O159  1  0.63490000  0.32000000  0.20207000  1.0 -0.4792960914
O  O160  1  0.68000000  0.31490000  0.86873000  1.0 -0.4695801416
O  O161  1  0.32000000  0.68510000  0.36873000  1.0 -0.4695801416
O  O162  1  0.36510000  0.68000000  0.70207000  1.0 -0.4695801416
O  O163  1  0.32000000  0.63490000  0.46460000  1.0 -0.4695801416
O  O164  1  0.31490000  0.68000000  0.79793000  1.0 -0.4695801416
O  O165  1  0.36510000  0.68510000  0.13127000  1.0 -0.4695801416
O  O166  1  0.63490000  0.31490000  0.63127000  1.0 -0.4695801416
O  O167  1  0.68510000  0.32000000  0.29793000  1.0 -0.4695801416
O  O168  1  0.68000000  0.36510000  0.96460000  1.0 -0.4695801416
O  O169  1  0.72010000  0.58110000  0.89840000  1.0 -0.4954503707
O  O170  1  0.27990000  0.41890000  0.39840000  1.0 -0.4792960914
O  O171  1  0.41890000  0.13900000  0.56507000  1.0 -0.4903662708
O  O172  1  0.86100000  0.27990000  0.23173000  1.0 -0.4903662708
O  O173  1  0.13900000  0.72010000  0.73173000  1.0 -0.4792960914
O  O174  1  0.58110000  0.86100000  0.06507000  1.0 -0.4903662708
O  O175  1  0.13900000  0.41890000  0.10160000  1.0 -0.4792960914
O  O176  1  0.27990000  0.86100000  0.43493000  1.0 -0.4792960914
O  O177  1  0.58110000  0.72010000  0.76827000  1.0 -0.4903662708
O  O178  1  0.41890000  0.27990000  0.26827000  1.0 -0.4954503707
O  O179  1  0.72010000  0.13900000  0.93493000  1.0 -0.4792960914
O  O180  1  0.86100000  0.58110000  0.60160000  1.0 -0.4954503707
O  O181  1  0.72570000  0.72570000  0.83333000  1.0 -0.2383742463
O  O182  1  0.27430000  0.27430000  0.33333333  1.0 -0.2472608965
O  O183  1  0.27430000  0.00000000  0.50000000  1.0 -0.2322667521
O  O184  1  0.00000000  0.27430000  0.16667000  1.0 -0.2472608965
O  O185  1  0.00000000  0.72570000  0.66666667  1.0 -0.2322667521
O  O186  1  0.72570000  0.00000000  0.00000000  1.0 -0.2383742463
O  O187  1  0.66430000  0.66430000  0.83333000  1.0 -0.2986319066
O  O188  1  0.33570000  0.33570000  0.33333333  1.0 -0.2986319066
O  O189  1  0.33570000  0.00000000  0.50000000  1.0 -0.3064196092
O  O190  1  0.00000000  0.33570000  0.16667000  1.0 -0.2986319066
O  O191  1  0.00000000  0.66430000  0.66666667  1.0 -0.2986319066
O  O192  1  0.66430000  0.00000000  0.00000000  1.0 -0.3064196092
O  O193  1  0.54160000  0.30720000  0.20190000  1.0 0.1204489705
O  O194  1  0.45840000  0.69280000  0.70190000  1.0 0.1204489705
O  O195  1  0.69280000  0.23440000  0.86857000  1.0 0.1204489705
O  O196  1  0.76560000  0.45840000  0.53523000  1.0 0.1204489705
O  O197  1  0.23440000  0.54160000  0.03523000  1.0 0.1204489705
O  O198  1  0.30720000  0.76560000  0.36857000  1.0 0.1204489705
O  O199  1  0.23440000  0.69280000  0.79810000  1.0 0.1204489705
O  O200  1  0.45840000  0.76560000  0.13143000  1.0 0.1204489705
O  O201  1  0.30720000  0.54160000  0.46477000  1.0 0.1204489705
O  O202  1  0.69280000  0.45840000  0.96477000  1.0 0.1204489705
O  O203  1  0.54160000  0.23440000  0.63143000  1.0 0.1204489705
O  O204  1  0.76560000  0.30720000  0.29810000  1.0 0.1204489705
O  O205  1  0.59370000  0.39630000  0.19040000  1.0 0.0869069068
O  O206  1  0.40630000  0.60370000  0.69040000  1.0 0.0869069068
O  O207  1  0.60370000  0.19740000  0.85707000  1.0 0.0869069068
O  O208  1  0.80260000  0.40630000  0.52373000  1.0 0.0869069068
O  O209  1  0.19740000  0.59370000  0.02373000  1.0 0.0869069068
O  O210  1  0.39630000  0.80260000  0.35707000  1.0 0.0869069068
O  O211  1  0.19740000  0.60370000  0.80960000  1.0 0.0869069068
O  O212  1  0.40630000  0.80260000  0.14293000  1.0 0.0869069068
O  O213  1  0.39630000  0.59370000  0.47627000  1.0 0.0869069068
O  O214  1  0.60370000  0.40630000  0.97627000  1.0 0.0869069068
O  O215  1  0.59370000  0.19740000  0.64293000  1.0 0.0869069068
O  O216  1  0.80260000  0.39630000  0.30960000  1.0 0.0869069068
