# DDEC6 charges by PACMAN v1.1 (https://github.com/mtap-research/PACMAN-charge/)
data_OLICIX_ASR_pacman
_symmetry_space_group_name_H-M   'P 1'
_cell_length_a   26.91810000
_cell_length_b   26.91810000
_cell_length_c   26.91810000
_cell_angle_alpha   60.00000000
_cell_angle_beta   60.00000000
_cell_angle_gamma   60.00000000
_symmetry_Int_Tables_number   1
_chemical_formula_structural   Fe4H16C32N24Cl
_chemical_formula_sum   'Fe24 H96 C192 N144 Cl6'
_cell_volume   13791.71292512
_cell_formula_units_Z   6
loop_
 _symmetry_equiv_pos_site_id
 _symmetry_equiv_pos_as_xyz
  1  'x, y, z'
loop_
 _atom_site_type_symbol
 _atom_site_label
 _atom_site_symmetry_multiplicity
 _atom_site_fract_x
 _atom_site_fract_y
 _atom_site_fract_z
 _atom_site_occupancy
 _atom_site_charge
Fe  Fe1  1  0.07226000  0.43586000  0.92774000  1.0 0.5029934269
Fe  Fe2  1  0.43586000  0.07226000  0.56414000  1.0 0.5029934269
Fe  Fe3  1  0.92774000  0.56414000  0.07226000  1.0 0.5029934269
Fe  Fe4  1  0.56414000  0.92774000  0.43586000  1.0 0.5029934269
Fe  Fe5  1  0.92774000  0.07226000  0.43586000  1.0 0.5029934269
Fe  Fe6  1  0.56414000  0.43586000  0.07226000  1.0 0.5029934269
Fe  Fe7  1  0.07226000  0.92774000  0.56414000  1.0 0.5029934269
Fe  Fe8  1  0.43586000  0.56414000  0.92774000  1.0 0.5029934269
Fe  Fe9  1  0.43586000  0.92774000  0.07226000  1.0 0.5029934269
Fe  Fe10  1  0.07226000  0.56414000  0.43586000  1.0 0.5029934269
Fe  Fe11  1  0.56414000  0.07226000  0.92774000  1.0 0.5029934269
Fe  Fe12  1  0.92774000  0.43586000  0.56414000  1.0 0.5029934269
Fe  Fe13  1  0.42774000  0.06414000  0.93586000  1.0 0.5029934269
Fe  Fe14  1  0.06414000  0.42774000  0.57226000  1.0 0.5029934269
Fe  Fe15  1  0.57226000  0.93586000  0.06414000  1.0 0.505919139
Fe  Fe16  1  0.93586000  0.57226000  0.42774000  1.0 0.5029934269
Fe  Fe17  1  0.57226000  0.42774000  0.93586000  1.0 0.5029934269
Fe  Fe18  1  0.93586000  0.06414000  0.57226000  1.0 0.5029934269
Fe  Fe19  1  0.42774000  0.57226000  0.06414000  1.0 0.5029934269
Fe  Fe20  1  0.06414000  0.93586000  0.42774000  1.0 0.5029934269
Fe  Fe21  1  0.06414000  0.57226000  0.93586000  1.0 0.5029934269
Fe  Fe22  1  0.42774000  0.93586000  0.57226000  1.0 0.5029934269
Fe  Fe23  1  0.93586000  0.42774000  0.06414000  1.0 0.5029934269
Fe  Fe24  1  0.57226000  0.06414000  0.42774000  1.0 0.5029934269
H  H1  1  0.20630000  0.50630000  0.94330000  1.0 0.1282021631
H  H2  1  0.50630000  0.20630000  0.34410000  1.0 0.1282021631
H  H3  1  0.94330000  0.34410000  0.20630000  1.0 0.1282021631
H  H4  1  0.34410000  0.94330000  0.50630000  1.0 0.1282021631
H  H5  1  0.94330000  0.20630000  0.50630000  1.0 0.1282021631
H  H6  1  0.34410000  0.50630000  0.20630000  1.0 0.1282021631
H  H7  1  0.20630000  0.94330000  0.34410000  1.0 0.1282021631
H  H8  1  0.50630000  0.34410000  0.94330000  1.0 0.1282021631
H  H9  1  0.50630000  0.94330000  0.20630000  1.0 0.1282021631
H  H10  1  0.20630000  0.34410000  0.50630000  1.0 0.1282021631
H  H11  1  0.34410000  0.20630000  0.94330000  1.0 0.1282021631
H  H12  1  0.94330000  0.50630000  0.34410000  1.0 0.1282021631
H  H13  1  0.29370000  0.99370000  0.15590000  1.0 0.1282021631
H  H14  1  0.99370000  0.29370000  0.55670000  1.0 0.1282021631
H  H15  1  0.55670000  0.15590000  0.99370000  1.0 0.1282021631
H  H16  1  0.15590000  0.55670000  0.29370000  1.0 0.1282021631
H  H17  1  0.55670000  0.29370000  0.15590000  1.0 0.1282021631
H  H18  1  0.15590000  0.99370000  0.55670000  1.0 0.1282021631
H  H19  1  0.29370000  0.55670000  0.99370000  1.0 0.1282021631
H  H20  1  0.99370000  0.15590000  0.29370000  1.0 0.1282021631
H  H21  1  0.99370000  0.55670000  0.15590000  1.0 0.1282021631
H  H22  1  0.29370000  0.15590000  0.55670000  1.0 0.1282021631
H  H23  1  0.15590000  0.29370000  0.99370000  1.0 0.1282021631
H  H24  1  0.55670000  0.99370000  0.29370000  1.0 0.1282021631
H  H25  1  0.79370000  0.49370000  0.05670000  1.0 0.1282021631
H  H26  1  0.49370000  0.79370000  0.65590000  1.0 0.1282021631
H  H27  1  0.05670000  0.65590000  0.79370000  1.0 0.1282021631
H  H28  1  0.65590000  0.05670000  0.49370000  1.0 0.1282021631
H  H29  1  0.05670000  0.79370000  0.49370000  1.0 0.1282021631
H  H30  1  0.65590000  0.49370000  0.79370000  1.0 0.1282021631
H  H31  1  0.79370000  0.05670000  0.65590000  1.0 0.1282021631
H  H32  1  0.49370000  0.65590000  0.05670000  1.0 0.1282021631
H  H33  1  0.49370000  0.05670000  0.79370000  1.0 0.1282021631
H  H34  1  0.79370000  0.65590000  0.49370000  1.0 0.1282021631
H  H35  1  0.65590000  0.79370000  0.05670000  1.0 0.1282021631
H  H36  1  0.05670000  0.49370000  0.65590000  1.0 0.1282021631
H  H37  1  0.70630000  0.00630000  0.84410000  1.0 0.1282021631
H  H38  1  0.00630000  0.70630000  0.44330000  1.0 0.1282021631
H  H39  1  0.44330000  0.84410000  0.00630000  1.0 0.1282021631
H  H40  1  0.84410000  0.44330000  0.70630000  1.0 0.1282021631
H  H41  1  0.44330000  0.70630000  0.84410000  1.0 0.1282021631
H  H42  1  0.84410000  0.00630000  0.44330000  1.0 0.1282021631
H  H43  1  0.70630000  0.44330000  0.00630000  1.0 0.1282021631
H  H44  1  0.00630000  0.84410000  0.70630000  1.0 0.1282021631
H  H45  1  0.00630000  0.44330000  0.84410000  1.0 0.1282021631
H  H46  1  0.70630000  0.84410000  0.44330000  1.0 0.1282021631
H  H47  1  0.84410000  0.70630000  0.00630000  1.0 0.1282021631
H  H48  1  0.44330000  0.00630000  0.70630000  1.0 0.1282021631
H  H49  1  0.30770000  0.45310000  0.94130000  1.0 0.1227983727
H  H50  1  0.45310000  0.30770000  0.29790000  1.0 0.1227983727
H  H51  1  0.94130000  0.29790000  0.30770000  1.0 0.1227983727
H  H52  1  0.29790000  0.94130000  0.45310000  1.0 0.1227983727
H  H53  1  0.94130000  0.30770000  0.45310000  1.0 0.1227983727
H  H54  1  0.29790000  0.45310000  0.30770000  1.0 0.1227983727
H  H55  1  0.30770000  0.94130000  0.29790000  1.0 0.1227983727
H  H56  1  0.45310000  0.29790000  0.94130000  1.0 0.1227983727
H  H57  1  0.45310000  0.94130000  0.30770000  1.0 0.1227983727
H  H58  1  0.30770000  0.29790000  0.45310000  1.0 0.1227983727
H  H59  1  0.29790000  0.30770000  0.94130000  1.0 0.1227983727
H  H60  1  0.94130000  0.45310000  0.29790000  1.0 0.1227983727
H  H61  1  0.19230000  0.04690000  0.20210000  1.0 0.1227983727
H  H62  1  0.04690000  0.19230000  0.55870000  1.0 0.1227983727
H  H63  1  0.55870000  0.20210000  0.04690000  1.0 0.1227983727
H  H64  1  0.20210000  0.55870000  0.19230000  1.0 0.1227983727
H  H65  1  0.55870000  0.19230000  0.20210000  1.0 0.1227983727
H  H66  1  0.20210000  0.04690000  0.55870000  1.0 0.1227983727
H  H67  1  0.19230000  0.55870000  0.04690000  1.0 0.1227983727
H  H68  1  0.04690000  0.20210000  0.19230000  1.0 0.1227983727
H  H69  1  0.04690000  0.55870000  0.20210000  1.0 0.1227983727
H  H70  1  0.19230000  0.20210000  0.55870000  1.0 0.1227983727
H  H71  1  0.20210000  0.19230000  0.04690000  1.0 0.1227983727
H  H72  1  0.55870000  0.04690000  0.19230000  1.0 0.1227983727
H  H73  1  0.69230000  0.54690000  0.05870000  1.0 0.1227983727
H  H74  1  0.54690000  0.69230000  0.70210000  1.0 0.1227983727
H  H75  1  0.05870000  0.70210000  0.69230000  1.0 0.1227983727
H  H76  1  0.70210000  0.05870000  0.54690000  1.0 0.1227983727
H  H77  1  0.05870000  0.69230000  0.54690000  1.0 0.1227983727
H  H78  1  0.70210000  0.54690000  0.69230000  1.0 0.1227983727
H  H79  1  0.69230000  0.05870000  0.70210000  1.0 0.1227983727
H  H80  1  0.54690000  0.70210000  0.05870000  1.0 0.1227983727
H  H81  1  0.54690000  0.05870000  0.69230000  1.0 0.1227983727
H  H82  1  0.69230000  0.70210000  0.54690000  1.0 0.1227983727
H  H83  1  0.70210000  0.69230000  0.05870000  1.0 0.1227983727
H  H84  1  0.05870000  0.54690000  0.70210000  1.0 0.1227983727
H  H85  1  0.80770000  0.95310000  0.79790000  1.0 0.1227983727
H  H86  1  0.95310000  0.80770000  0.44130000  1.0 0.1227983727
H  H87  1  0.44130000  0.79790000  0.95310000  1.0 0.1227983727
H  H88  1  0.79790000  0.44130000  0.80770000  1.0 0.1227983727
H  H89  1  0.44130000  0.80770000  0.79790000  1.0 0.1227983727
H  H90  1  0.79790000  0.95310000  0.44130000  1.0 0.1227983727
H  H91  1  0.80770000  0.44130000  0.95310000  1.0 0.1227983727
H  H92  1  0.95310000  0.79790000  0.80770000  1.0 0.1227983727
H  H93  1  0.95310000  0.44130000  0.79790000  1.0 0.1227983727
H  H94  1  0.80770000  0.79790000  0.44130000  1.0 0.1227983727
H  H95  1  0.79790000  0.80770000  0.95310000  1.0 0.1227983727
H  H96  1  0.44130000  0.95310000  0.80770000  1.0 0.1227983727
C  C1  1  0.23156000  0.42094000  0.93870000  1.0 0.1105732444
C  C2  1  0.42094000  0.23156000  0.40880000  1.0 0.1105732444
C  C3  1  0.93870000  0.40880000  0.23156000  1.0 0.1105732444
C  C4  1  0.40880000  0.93870000  0.42094000  1.0 0.1105732444
C  C5  1  0.93870000  0.23156000  0.42094000  1.0 0.1105732444
C  C6  1  0.40880000  0.42094000  0.23156000  1.0 0.1105732444
C  C7  1  0.23156000  0.93870000  0.40880000  1.0 0.1105732444
C  C8  1  0.42094000  0.40880000  0.93870000  1.0 0.1105732444
C  C9  1  0.42094000  0.93870000  0.23156000  1.0 0.1105732444
C  C10  1  0.23156000  0.40880000  0.42094000  1.0 0.1105732444
C  C11  1  0.40880000  0.23156000  0.93870000  1.0 0.1105732444
C  C12  1  0.93870000  0.42094000  0.40880000  1.0 0.1105732444
C  C13  1  0.26844000  0.07906000  0.09120000  1.0 0.1105732444
C  C14  1  0.07906000  0.26844000  0.56130000  1.0 0.1105732444
C  C15  1  0.56130000  0.09120000  0.07906000  1.0 0.1105732444
C  C16  1  0.09120000  0.56130000  0.26844000  1.0 0.1105732444
C  C17  1  0.56130000  0.26844000  0.09120000  1.0 0.1105732444
C  C18  1  0.09120000  0.07906000  0.56130000  1.0 0.1105732444
C  C19  1  0.26844000  0.56130000  0.07906000  1.0 0.1105732444
C  C20  1  0.07906000  0.09120000  0.26844000  1.0 0.1105732444
C  C21  1  0.07906000  0.56130000  0.09120000  1.0 0.1105732444
C  C22  1  0.26844000  0.09120000  0.56130000  1.0 0.1105732444
C  C23  1  0.09120000  0.26844000  0.07906000  1.0 0.1105732444
C  C24  1  0.56130000  0.07906000  0.26844000  1.0 0.1105732444
C  C25  1  0.76844000  0.57906000  0.06130000  1.0 0.1105732444
C  C26  1  0.57906000  0.76844000  0.59120000  1.0 0.1105732444
C  C27  1  0.06130000  0.59120000  0.76844000  1.0 0.1105732444
C  C28  1  0.59120000  0.06130000  0.57906000  1.0 0.1105732444
C  C29  1  0.06130000  0.76844000  0.57906000  1.0 0.1105732444
C  C30  1  0.59120000  0.57906000  0.76844000  1.0 0.1105732444
C  C31  1  0.76844000  0.06130000  0.59120000  1.0 0.1105732444
C  C32  1  0.57906000  0.59120000  0.06130000  1.0 0.1105732444
C  C33  1  0.57906000  0.06130000  0.76844000  1.0 0.1105732444
C  C34  1  0.76844000  0.59120000  0.57906000  1.0 0.1105732444
C  C35  1  0.59120000  0.76844000  0.06130000  1.0 0.1105732444
C  C36  1  0.06130000  0.57906000  0.59120000  1.0 0.1105732444
C  C37  1  0.73156000  0.92094000  0.90880000  1.0 0.1105732444
C  C38  1  0.92094000  0.73156000  0.43870000  1.0 0.1105732444
C  C39  1  0.43870000  0.90880000  0.92094000  1.0 0.1105732444
C  C40  1  0.90880000  0.43870000  0.73156000  1.0 0.1105732444
C  C41  1  0.43870000  0.73156000  0.90880000  1.0 0.1105732444
C  C42  1  0.90880000  0.92094000  0.43870000  1.0 0.1105732444
C  C43  1  0.73156000  0.43870000  0.92094000  1.0 0.1105732444
C  C44  1  0.92094000  0.90880000  0.73156000  1.0 0.1105732444
C  C45  1  0.92094000  0.43870000  0.90880000  1.0 0.1105732444
C  C46  1  0.73156000  0.90880000  0.43870000  1.0 0.1105732444
C  C47  1  0.90880000  0.73156000  0.92094000  1.0 0.1105732444
C  C48  1  0.43870000  0.92094000  0.73156000  1.0 0.1105732444
C  C49  1  0.19543000  0.47961000  0.94019000  1.0 -0.0691944639
C  C50  1  0.47961000  0.19543000  0.38477000  1.0 -0.0691944639
C  C51  1  0.94019000  0.38477000  0.19543000  1.0 -0.0691944639
C  C52  1  0.38477000  0.94019000  0.47961000  1.0 -0.0691944639
C  C53  1  0.94019000  0.19543000  0.47961000  1.0 -0.0691944639
C  C54  1  0.38477000  0.47961000  0.19543000  1.0 -0.0691944639
C  C55  1  0.19543000  0.94019000  0.38477000  1.0 -0.0691944639
C  C56  1  0.47961000  0.38477000  0.94019000  1.0 -0.0691944639
C  C57  1  0.47961000  0.94019000  0.19543000  1.0 -0.0691944639
C  C58  1  0.19543000  0.38477000  0.47961000  1.0 -0.0691944639
C  C59  1  0.38477000  0.19543000  0.94019000  1.0 -0.0691944639
C  C60  1  0.94019000  0.47961000  0.38477000  1.0 -0.0691944639
C  C61  1  0.30457000  0.02039000  0.11523000  1.0 -0.0691944639
C  C62  1  0.02039000  0.30457000  0.55981000  1.0 -0.0691944639
C  C63  1  0.55981000  0.11523000  0.02039000  1.0 -0.0691944639
C  C64  1  0.11523000  0.55981000  0.30457000  1.0 -0.0691944639
C  C65  1  0.55981000  0.30457000  0.11523000  1.0 -0.0691944639
C  C66  1  0.11523000  0.02039000  0.55981000  1.0 -0.0691944639
C  C67  1  0.30457000  0.55981000  0.02039000  1.0 -0.0691944639
C  C68  1  0.02039000  0.11523000  0.30457000  1.0 -0.0691944639
C  C69  1  0.02039000  0.55981000  0.11523000  1.0 -0.0691944639
C  C70  1  0.30457000  0.11523000  0.55981000  1.0 -0.0691944639
C  C71  1  0.11523000  0.30457000  0.02039000  1.0 -0.0691944639
C  C72  1  0.55981000  0.02039000  0.30457000  1.0 -0.0691944639
C  C73  1  0.80457000  0.52039000  0.05981000  1.0 -0.0691944639
C  C74  1  0.52039000  0.80457000  0.61523000  1.0 -0.0691944639
C  C75  1  0.05981000  0.61523000  0.80457000  1.0 -0.0691944639
C  C76  1  0.61523000  0.05981000  0.52039000  1.0 -0.0691944639
C  C77  1  0.05981000  0.80457000  0.52039000  1.0 -0.0691944639
C  C78  1  0.61523000  0.52039000  0.80457000  1.0 -0.0691944639
C  C79  1  0.80457000  0.05981000  0.61523000  1.0 -0.0691944639
C  C80  1  0.52039000  0.61523000  0.05981000  1.0 -0.0691944639
C  C81  1  0.52039000  0.05981000  0.80457000  1.0 -0.0691944639
C  C82  1  0.80457000  0.61523000  0.52039000  1.0 -0.0691944639
C  C83  1  0.61523000  0.80457000  0.05981000  1.0 -0.0691944639
C  C84  1  0.05981000  0.52039000  0.61523000  1.0 -0.0691944639
C  C85  1  0.69543000  0.97961000  0.88477000  1.0 -0.0691944639
C  C86  1  0.97961000  0.69543000  0.44019000  1.0 -0.0691944639
C  C87  1  0.44019000  0.88477000  0.97961000  1.0 -0.0691944639
C  C88  1  0.88477000  0.44019000  0.69543000  1.0 -0.0691944639
C  C89  1  0.44019000  0.69543000  0.88477000  1.0 -0.0691944639
C  C90  1  0.88477000  0.97961000  0.44019000  1.0 -0.0691944639
C  C91  1  0.69543000  0.44019000  0.97961000  1.0 -0.0691944639
C  C92  1  0.97961000  0.88477000  0.69543000  1.0 -0.0691944639
C  C93  1  0.97961000  0.44019000  0.88477000  1.0 -0.0691944639
C  C94  1  0.69543000  0.88477000  0.44019000  1.0 -0.0691944639
C  C95  1  0.88477000  0.69543000  0.97961000  1.0 -0.0691944639
C  C96  1  0.44019000  0.97961000  0.69543000  1.0 -0.0691944639
C  C97  1  0.32620000  0.41260000  0.94080000  1.0 -0.1660995826
C  C98  1  0.41260000  0.32620000  0.32040000  1.0 -0.1660995826
C  C99  1  0.94080000  0.32040000  0.32620000  1.0 -0.1649785534
C  C100  1  0.32040000  0.94080000  0.41260000  1.0 -0.1660995826
C  C101  1  0.94080000  0.32620000  0.41260000  1.0 -0.1660995826
C  C102  1  0.32040000  0.41260000  0.32620000  1.0 -0.1660995826
C  C103  1  0.32620000  0.94080000  0.32040000  1.0 -0.1660995826
C  C104  1  0.41260000  0.32040000  0.94080000  1.0 -0.1660995826
C  C105  1  0.41260000  0.94080000  0.32620000  1.0 -0.1660995826
C  C106  1  0.32620000  0.32040000  0.41260000  1.0 -0.1660995826
C  C107  1  0.32040000  0.32620000  0.94080000  1.0 -0.1660995826
C  C108  1  0.94080000  0.41260000  0.32040000  1.0 -0.1660995826
C  C109  1  0.17380000  0.08740000  0.17960000  1.0 -0.1660995826
C  C110  1  0.08740000  0.17380000  0.55920000  1.0 -0.1660995826
C  C111  1  0.55920000  0.17960000  0.08740000  1.0 -0.1660995826
C  C112  1  0.17960000  0.55920000  0.17380000  1.0 -0.1660995826
C  C113  1  0.55920000  0.17380000  0.17960000  1.0 -0.1660995826
C  C114  1  0.17960000  0.08740000  0.55920000  1.0 -0.1660995826
C  C115  1  0.17380000  0.55920000  0.08740000  1.0 -0.1660995826
C  C116  1  0.08740000  0.17960000  0.17380000  1.0 -0.1660995826
C  C117  1  0.08740000  0.55920000  0.17960000  1.0 -0.1649785534
C  C118  1  0.17380000  0.17960000  0.55920000  1.0 -0.1660995826
C  C119  1  0.17960000  0.17380000  0.08740000  1.0 -0.1660995826
C  C120  1  0.55920000  0.08740000  0.17380000  1.0 -0.1660995826
C  C121  1  0.67380000  0.58740000  0.05920000  1.0 -0.1660995826
C  C122  1  0.58740000  0.67380000  0.67960000  1.0 -0.1660995826
C  C123  1  0.05920000  0.67960000  0.67380000  1.0 -0.1660995826
C  C124  1  0.67960000  0.05920000  0.58740000  1.0 -0.1660995826
C  C125  1  0.05920000  0.67380000  0.58740000  1.0 -0.1660995826
C  C126  1  0.67960000  0.58740000  0.67380000  1.0 -0.1660995826
C  C127  1  0.67380000  0.05920000  0.67960000  1.0 -0.1660995826
C  C128  1  0.58740000  0.67960000  0.05920000  1.0 -0.1660995826
C  C129  1  0.58740000  0.05920000  0.67380000  1.0 -0.1660995826
C  C130  1  0.67380000  0.67960000  0.58740000  1.0 -0.1660995826
C  C131  1  0.67960000  0.67380000  0.05920000  1.0 -0.1660995826
C  C132  1  0.05920000  0.58740000  0.67960000  1.0 -0.1660995826
C  C133  1  0.82620000  0.91260000  0.82040000  1.0 -0.1660995826
C  C134  1  0.91260000  0.82620000  0.44080000  1.0 -0.1660995826
C  C135  1  0.44080000  0.82040000  0.91260000  1.0 -0.1660995826
C  C136  1  0.82040000  0.44080000  0.82620000  1.0 -0.1660995826
C  C137  1  0.44080000  0.82620000  0.82040000  1.0 -0.1660995826
C  C138  1  0.82040000  0.91260000  0.44080000  1.0 -0.1660995826
C  C139  1  0.82620000  0.44080000  0.91260000  1.0 -0.1660995826
C  C140  1  0.91260000  0.82040000  0.82620000  1.0 -0.1660995826
C  C141  1  0.91260000  0.44080000  0.82040000  1.0 -0.1660995826
C  C142  1  0.82620000  0.82040000  0.44080000  1.0 -0.1660995826
C  C143  1  0.82040000  0.82620000  0.91260000  1.0 -0.1660995826
C  C144  1  0.44080000  0.91260000  0.82620000  1.0 -0.1660995826
C  C145  1  0.29340000  0.38608000  0.94036000  1.0 0.0776541821
C  C146  1  0.38608000  0.29340000  0.38016000  1.0 0.0776541821
C  C147  1  0.94036000  0.38016000  0.29340000  1.0 0.0776541821
C  C148  1  0.38016000  0.94036000  0.38608000  1.0 0.0776541821
C  C149  1  0.94036000  0.29340000  0.38608000  1.0 0.0776541821
C  C150  1  0.38016000  0.38608000  0.29340000  1.0 0.0776541821
C  C151  1  0.29340000  0.94036000  0.38016000  1.0 0.0776541821
C  C152  1  0.38608000  0.38016000  0.94036000  1.0 0.0776541821
C  C153  1  0.38608000  0.94036000  0.29340000  1.0 0.0776541821
C  C154  1  0.29340000  0.38016000  0.38608000  1.0 0.0776541821
C  C155  1  0.38016000  0.29340000  0.94036000  1.0 0.0776541821
C  C156  1  0.94036000  0.38608000  0.38016000  1.0 0.0776541821
C  C157  1  0.20660000  0.11392000  0.11984000  1.0 0.0776541821
C  C158  1  0.11392000  0.20660000  0.55964000  1.0 0.0776541821
C  C159  1  0.55964000  0.11984000  0.11392000  1.0 0.0776541821
C  C160  1  0.11984000  0.55964000  0.20660000  1.0 0.0776541821
C  C161  1  0.55964000  0.20660000  0.11984000  1.0 0.0776541821
C  C162  1  0.11984000  0.11392000  0.55964000  1.0 0.0776541821
C  C163  1  0.20660000  0.55964000  0.11392000  1.0 0.0776541821
C  C164  1  0.11392000  0.11984000  0.20660000  1.0 0.0776541821
C  C165  1  0.11392000  0.55964000  0.11984000  1.0 0.0776541821
C  C166  1  0.20660000  0.11984000  0.55964000  1.0 0.0776541821
C  C167  1  0.11984000  0.20660000  0.11392000  1.0 0.0776541821
C  C168  1  0.55964000  0.11392000  0.20660000  1.0 0.0776541821
C  C169  1  0.70660000  0.61392000  0.05964000  1.0 0.0776541821
C  C170  1  0.61392000  0.70660000  0.61984000  1.0 0.0776541821
C  C171  1  0.05964000  0.61984000  0.70660000  1.0 0.0776541821
C  C172  1  0.61984000  0.05964000  0.61392000  1.0 0.0776541821
C  C173  1  0.05964000  0.70660000  0.61392000  1.0 0.0776541821
C  C174  1  0.61984000  0.61392000  0.70660000  1.0 0.0776541821
C  C175  1  0.70660000  0.05964000  0.61984000  1.0 0.0776541821
C  C176  1  0.61392000  0.61984000  0.05964000  1.0 0.0776541821
C  C177  1  0.61392000  0.05964000  0.70660000  1.0 0.0776541821
C  C178  1  0.70660000  0.61984000  0.61392000  1.0 0.0776541821
C  C179  1  0.61984000  0.70660000  0.05964000  1.0 0.0776541821
C  C180  1  0.05964000  0.61392000  0.61984000  1.0 0.0776541821
C  C181  1  0.79340000  0.88608000  0.88016000  1.0 0.0776541821
C  C182  1  0.88608000  0.79340000  0.44036000  1.0 0.0776541821
C  C183  1  0.44036000  0.88016000  0.88608000  1.0 0.0776541821
C  C184  1  0.88016000  0.44036000  0.79340000  1.0 0.0776541821
C  C185  1  0.44036000  0.79340000  0.88016000  1.0 0.0776541821
C  C186  1  0.88016000  0.88608000  0.44036000  1.0 0.0776541821
C  C187  1  0.79340000  0.44036000  0.88608000  1.0 0.0776541821
C  C188  1  0.88608000  0.88016000  0.79340000  1.0 0.0776541821
C  C189  1  0.88608000  0.44036000  0.88016000  1.0 0.0776541821
C  C190  1  0.79340000  0.88016000  0.44036000  1.0 0.0776541821
C  C191  1  0.88016000  0.79340000  0.88608000  1.0 0.0776541821
C  C192  1  0.44036000  0.88608000  0.79340000  1.0 0.0776541821
N  N1  1  0.14579000  0.44235000  0.93263000  1.0 -0.001513093
N  N2  1  0.44235000  0.14579000  0.47923000  1.0 -0.001513093
N  N3  1  0.93263000  0.47923000  0.14579000  1.0 -0.001513093
N  N4  1  0.47923000  0.93263000  0.44235000  1.0 0.0005131183
N  N5  1  0.93263000  0.14579000  0.44235000  1.0 -0.001513093
N  N6  1  0.47923000  0.44235000  0.14579000  1.0 -0.001513093
N  N7  1  0.14579000  0.93263000  0.47923000  1.0 0.0005131183
N  N8  1  0.44235000  0.47923000  0.93263000  1.0 0.0005131183
N  N9  1  0.44235000  0.93263000  0.14579000  1.0 0.0005131183
N  N10  1  0.14579000  0.47923000  0.44235000  1.0 -0.001513093
N  N11  1  0.47923000  0.14579000  0.93263000  1.0 0.0005131183
N  N12  1  0.93263000  0.44235000  0.47923000  1.0 0.0005131183
N  N13  1  0.35421000  0.05765000  0.02077000  1.0 -0.001513093
N  N14  1  0.05765000  0.35421000  0.56737000  1.0 -0.001513093
N  N15  1  0.56737000  0.02077000  0.05765000  1.0 -0.001513093
N  N16  1  0.02077000  0.56737000  0.35421000  1.0 0.0005131183
N  N17  1  0.56737000  0.35421000  0.02077000  1.0 0.0005131183
N  N18  1  0.02077000  0.05765000  0.56737000  1.0 -0.001513093
N  N19  1  0.35421000  0.56737000  0.05765000  1.0 -0.001513093
N  N20  1  0.05765000  0.02077000  0.35421000  1.0 -0.001513093
N  N21  1  0.05765000  0.56737000  0.02077000  1.0 0.0005131183
N  N22  1  0.35421000  0.02077000  0.56737000  1.0 -0.001513093
N  N23  1  0.02077000  0.35421000  0.05765000  1.0 -0.001513093
N  N24  1  0.56737000  0.05765000  0.35421000  1.0 0.0005131183
N  N25  1  0.85421000  0.55765000  0.06737000  1.0 -0.001513093
N  N26  1  0.55765000  0.85421000  0.52077000  1.0 0.0005131183
N  N27  1  0.06737000  0.52077000  0.85421000  1.0 0.0005131183
N  N28  1  0.52077000  0.06737000  0.55765000  1.0 0.0005131183
N  N29  1  0.06737000  0.85421000  0.55765000  1.0 -0.001513093
N  N30  1  0.52077000  0.55765000  0.85421000  1.0 -0.001513093
N  N31  1  0.85421000  0.06737000  0.52077000  1.0 -0.001513093
N  N32  1  0.55765000  0.52077000  0.06737000  1.0 -0.001513093
N  N33  1  0.55765000  0.06737000  0.85421000  1.0 0.0005131183
N  N34  1  0.85421000  0.52077000  0.55765000  1.0 -0.001513093
N  N35  1  0.52077000  0.85421000  0.06737000  1.0 0.0005131183
N  N36  1  0.06737000  0.55765000  0.52077000  1.0 0.0005131183
N  N37  1  0.64579000  0.94235000  0.97923000  1.0 -0.001513093
N  N38  1  0.94235000  0.64579000  0.43263000  1.0 0.0005131183
N  N39  1  0.43263000  0.97923000  0.94235000  1.0 0.0005131183
N  N40  1  0.97923000  0.43263000  0.64579000  1.0 0.0005131183
N  N41  1  0.43263000  0.64579000  0.97923000  1.0 -0.001513093
N  N42  1  0.97923000  0.94235000  0.43263000  1.0 -0.001513093
N  N43  1  0.64579000  0.43263000  0.94235000  1.0 -0.001513093
N  N44  1  0.94235000  0.97923000  0.64579000  1.0 -0.001513093
N  N45  1  0.94235000  0.43263000  0.97923000  1.0 -0.001513093
N  N46  1  0.64579000  0.97923000  0.43263000  1.0 0.0005131183
N  N47  1  0.97923000  0.64579000  0.94235000  1.0 -0.001513093
N  N48  1  0.43263000  0.94235000  0.64579000  1.0 0.0005131183
N  N49  1  0.14262000  0.49170000  0.93648000  1.0 -0.1458012557
N  N50  1  0.49170000  0.14262000  0.42920000  1.0 -0.1458012557
N  N51  1  0.93648000  0.42920000  0.14262000  1.0 -0.1458012557
N  N52  1  0.42920000  0.93648000  0.49170000  1.0 -0.1458012557
N  N53  1  0.93648000  0.14262000  0.49170000  1.0 -0.1458012557
N  N54  1  0.42920000  0.49170000  0.14262000  1.0 -0.1458012557
N  N55  1  0.14262000  0.93648000  0.42920000  1.0 -0.1458012557
N  N56  1  0.49170000  0.42920000  0.93648000  1.0 -0.1458012557
N  N57  1  0.49170000  0.93648000  0.14262000  1.0 -0.1458012557
N  N58  1  0.14262000  0.42920000  0.49170000  1.0 -0.1458012557
N  N59  1  0.42920000  0.14262000  0.93648000  1.0 -0.1447637722
N  N60  1  0.93648000  0.49170000  0.42920000  1.0 -0.1458012557
N  N61  1  0.35738000  0.00830000  0.07080000  1.0 -0.1458012557
N  N62  1  0.00830000  0.35738000  0.56352000  1.0 -0.1458012557
N  N63  1  0.56352000  0.07080000  0.00830000  1.0 -0.1458012557
N  N64  1  0.07080000  0.56352000  0.35738000  1.0 -0.1458012557
N  N65  1  0.56352000  0.35738000  0.07080000  1.0 -0.1458012557
N  N66  1  0.07080000  0.00830000  0.56352000  1.0 -0.1458012557
N  N67  1  0.35738000  0.56352000  0.00830000  1.0 -0.1458012557
N  N68  1  0.00830000  0.07080000  0.35738000  1.0 -0.1447637722
N  N69  1  0.00830000  0.56352000  0.07080000  1.0 -0.1458012557
N  N70  1  0.35738000  0.07080000  0.56352000  1.0 -0.1447637722
N  N71  1  0.07080000  0.35738000  0.00830000  1.0 -0.1458012557
N  N72  1  0.56352000  0.00830000  0.35738000  1.0 -0.1458012557
N  N73  1  0.85738000  0.50830000  0.06352000  1.0 -0.1458012557
N  N74  1  0.50830000  0.85738000  0.57080000  1.0 -0.1458012557
N  N75  1  0.06352000  0.57080000  0.85738000  1.0 -0.1447637722
N  N76  1  0.57080000  0.06352000  0.50830000  1.0 -0.1458012557
N  N77  1  0.06352000  0.85738000  0.50830000  1.0 -0.1447637722
N  N78  1  0.57080000  0.50830000  0.85738000  1.0 -0.1447637722
N  N79  1  0.85738000  0.06352000  0.57080000  1.0 -0.1458012557
N  N80  1  0.50830000  0.57080000  0.06352000  1.0 -0.1458012557
N  N81  1  0.50830000  0.06352000  0.85738000  1.0 -0.1447637722
N  N82  1  0.85738000  0.57080000  0.50830000  1.0 -0.1447637722
N  N83  1  0.57080000  0.85738000  0.06352000  1.0 -0.1458012557
N  N84  1  0.06352000  0.50830000  0.57080000  1.0 -0.1458012557
N  N85  1  0.64262000  0.99170000  0.92920000  1.0 -0.1447637722
N  N86  1  0.99170000  0.64262000  0.43648000  1.0 -0.1458012557
N  N87  1  0.43648000  0.92920000  0.99170000  1.0 -0.1458012557
N  N88  1  0.92920000  0.43648000  0.64262000  1.0 -0.1458012557
N  N89  1  0.43648000  0.64262000  0.92920000  1.0 -0.1458012557
N  N90  1  0.92920000  0.99170000  0.43648000  1.0 -0.1447637722
N  N91  1  0.64262000  0.43648000  0.99170000  1.0 -0.1447637722
N  N92  1  0.99170000  0.92920000  0.64262000  1.0 -0.1458012557
N  N93  1  0.99170000  0.43648000  0.92920000  1.0 -0.1447637722
N  N94  1  0.64262000  0.92920000  0.43648000  1.0 -0.1458012557
N  N95  1  0.92920000  0.64262000  0.99170000  1.0 -0.1458012557
N  N96  1  0.43648000  0.99170000  0.64262000  1.0 -0.1458012557
N  N97  1  0.19916000  0.39900000  0.93388000  1.0 -0.2626621309
N  N98  1  0.39900000  0.19916000  0.46796000  1.0 -0.2626621309
N  N99  1  0.93388000  0.46796000  0.19916000  1.0 -0.2626621309
N  N100  1  0.46796000  0.93388000  0.39900000  1.0 -0.2626621309
N  N101  1  0.93388000  0.19916000  0.39900000  1.0 -0.2626621309
N  N102  1  0.46796000  0.39900000  0.19916000  1.0 -0.2626621309
N  N103  1  0.19916000  0.93388000  0.46796000  1.0 -0.2626621309
N  N104  1  0.39900000  0.46796000  0.93388000  1.0 -0.2626621309
N  N105  1  0.39900000  0.93388000  0.19916000  1.0 -0.2626621309
N  N106  1  0.19916000  0.46796000  0.39900000  1.0 -0.2626621309
N  N107  1  0.46796000  0.19916000  0.93388000  1.0 -0.2626621309
N  N108  1  0.93388000  0.39900000  0.46796000  1.0 -0.2626621309
N  N109  1  0.30084000  0.10100000  0.03204000  1.0 -0.2626621309
N  N110  1  0.10100000  0.30084000  0.56612000  1.0 -0.2626621309
N  N111  1  0.56612000  0.03204000  0.10100000  1.0 -0.2626621309
N  N112  1  0.03204000  0.56612000  0.30084000  1.0 -0.2626621309
N  N113  1  0.56612000  0.30084000  0.03204000  1.0 -0.2626621309
N  N114  1  0.03204000  0.10100000  0.56612000  1.0 -0.2626621309
N  N115  1  0.30084000  0.56612000  0.10100000  1.0 -0.2626621309
N  N116  1  0.10100000  0.03204000  0.30084000  1.0 -0.2626621309
N  N117  1  0.10100000  0.56612000  0.03204000  1.0 -0.2626621309
N  N118  1  0.30084000  0.03204000  0.56612000  1.0 -0.2626621309
N  N119  1  0.03204000  0.30084000  0.10100000  1.0 -0.2626621309
N  N120  1  0.56612000  0.10100000  0.30084000  1.0 -0.2626621309
N  N121  1  0.80084000  0.60100000  0.06612000  1.0 -0.2626621309
N  N122  1  0.60100000  0.80084000  0.53204000  1.0 -0.2626621309
N  N123  1  0.06612000  0.53204000  0.80084000  1.0 -0.2626621309
N  N124  1  0.53204000  0.06612000  0.60100000  1.0 -0.2626621309
N  N125  1  0.06612000  0.80084000  0.60100000  1.0 -0.2626621309
N  N126  1  0.53204000  0.60100000  0.80084000  1.0 -0.2626621309
N  N127  1  0.80084000  0.06612000  0.53204000  1.0 -0.2626621309
N  N128  1  0.60100000  0.53204000  0.06612000  1.0 -0.2626621309
N  N129  1  0.60100000  0.06612000  0.80084000  1.0 -0.2626621309
N  N130  1  0.80084000  0.53204000  0.60100000  1.0 -0.2626621309
N  N131  1  0.53204000  0.80084000  0.06612000  1.0 -0.2626621309
N  N132  1  0.06612000  0.60100000  0.53204000  1.0 -0.2626621309
N  N133  1  0.69916000  0.89900000  0.96796000  1.0 -0.2626621309
N  N134  1  0.89900000  0.69916000  0.43388000  1.0 -0.2626621309
N  N135  1  0.43388000  0.96796000  0.89900000  1.0 -0.2626621309
N  N136  1  0.96796000  0.43388000  0.69916000  1.0 -0.2626621309
N  N137  1  0.43388000  0.69916000  0.96796000  1.0 -0.2626621309
N  N138  1  0.96796000  0.89900000  0.43388000  1.0 -0.2626621309
N  N139  1  0.69916000  0.43388000  0.89900000  1.0 -0.2626621309
N  N140  1  0.89900000  0.96796000  0.69916000  1.0 -0.2626621309
N  N141  1  0.89900000  0.43388000  0.96796000  1.0 -0.2626621309
N  N142  1  0.69916000  0.96796000  0.43388000  1.0 -0.2626621309
N  N143  1  0.96796000  0.69916000  0.89900000  1.0 -0.2626621309
N  N144  1  0.43388000  0.89900000  0.69916000  1.0 -0.2626621309
Cl  Cl1  1  0.00000000  0.50000000  0.00000000  1.0 -0.3736611997
Cl  Cl2  1  0.50000000  0.00000000  0.50000000  1.0 -0.3736611997
Cl  Cl3  1  0.00000000  0.00000000  0.50000000  1.0 -0.3736611997
Cl  Cl4  1  0.50000000  0.50000000  0.00000000  1.0 -0.3736611997
Cl  Cl5  1  0.50000000  0.00000000  0.00000000  1.0 -0.3736611997
Cl  Cl6  1  0.00000000  0.50000000  0.50000000  1.0 -0.3736611997
