# DDEC6 charges by PACMAN v1.1 (https://github.com/mtap-research/PACMAN-charge/)
data_OLOGAY_ASR_pacman
_symmetry_space_group_name_H-M   'P 1'
_cell_length_a   16.70730000
_cell_length_b   16.70730000
_cell_length_c   16.70730000
_cell_angle_alpha   109.47100000
_cell_angle_beta   109.47100000
_cell_angle_gamma   109.47100000
_symmetry_Int_Tables_number   1
_chemical_formula_structural   Zn4H60C84O19
_chemical_formula_sum   'Zn4 H60 C84 O19'
_cell_volume   3590.04977309
_cell_formula_units_Z   1
loop_
 _symmetry_equiv_pos_site_id
 _symmetry_equiv_pos_as_xyz
  1  'x, y, z'
loop_
 _atom_site_type_symbol
 _atom_site_label
 _atom_site_symmetry_multiplicity
 _atom_site_fract_x
 _atom_site_fract_y
 _atom_site_fract_z
 _atom_site_occupancy
 _atom_site_charge
Zn  Zn1  1  0.88238000  0.00000000  0.00000000  1.0 0.887265794
Zn  Zn2  1  0.00000000  0.88238000  0.00000000  1.0 0.887265794
Zn  Zn3  1  0.00000000  0.00000000  0.88238000  1.0 0.887265794
Zn  Zn4  1  0.11762000  0.11762000  0.11762000  1.0 0.887265794
H  H1  1  0.71320000  0.10190000  0.81130000  1.0 0.0777880255
H  H2  1  0.29060000  0.90190000  0.18870000  1.0 0.0777880255
H  H3  1  0.70940000  0.89810000  0.61130000  1.0 0.0777880255
H  H4  1  0.28680000  0.09810000  0.38870000  1.0 0.0777880255
H  H5  1  0.81130000  0.71320000  0.10190000  1.0 0.0777880255
H  H6  1  0.18870000  0.29060000  0.90190000  1.0 0.0777880255
H  H7  1  0.61130000  0.70940000  0.89810000  1.0 0.0777880255
H  H8  1  0.38870000  0.28680000  0.09810000  1.0 0.0777880255
H  H9  1  0.10190000  0.81130000  0.71320000  1.0 0.0777880255
H  H10  1  0.90190000  0.18870000  0.29060000  1.0 0.0777880255
H  H11  1  0.89810000  0.61130000  0.70940000  1.0 0.0777880255
H  H12  1  0.09810000  0.38870000  0.28680000  1.0 0.0777880255
H  H13  1  0.59080000  0.08540000  0.67400000  1.0 0.0777880255
H  H14  1  0.41140000  0.91680000  0.32600000  1.0 0.0777880255
H  H15  1  0.58860000  0.91460000  0.50540000  1.0 0.0777880255
H  H16  1  0.40920000  0.08320000  0.49460000  1.0 0.0777880255
H  H17  1  0.67400000  0.59080000  0.08540000  1.0 0.0777880255
H  H18  1  0.32600000  0.41140000  0.91680000  1.0 0.0777880255
H  H19  1  0.50540000  0.58860000  0.91460000  1.0 0.0777880255
H  H20  1  0.49460000  0.40920000  0.08320000  1.0 0.0777880255
H  H21  1  0.08540000  0.67400000  0.59080000  1.0 0.0777880255
H  H22  1  0.91680000  0.32600000  0.41140000  1.0 0.0777880255
H  H23  1  0.91460000  0.50540000  0.58860000  1.0 0.0777880255
H  H24  1  0.08320000  0.49460000  0.40920000  1.0 0.0777880255
H  H25  1  0.62700000  0.12370000  0.74410000  1.0 0.088900961
H  H26  1  0.37960000  0.88290000  0.25590000  1.0 0.088900961
H  H27  1  0.62040000  0.87630000  0.50330000  1.0 0.088900961
H  H28  1  0.37300000  0.11710000  0.49670000  1.0 0.088900961
H  H29  1  0.74410000  0.62700000  0.12370000  1.0 0.088900961
H  H30  1  0.25590000  0.37960000  0.88290000  1.0 0.088900961
H  H31  1  0.50330000  0.62040000  0.87630000  1.0 0.088900961
H  H32  1  0.49670000  0.37300000  0.11710000  1.0 0.088900961
H  H33  1  0.12370000  0.74410000  0.62700000  1.0 0.088900961
H  H34  1  0.88290000  0.25590000  0.37960000  1.0 0.088900961
H  H35  1  0.87630000  0.50330000  0.62040000  1.0 0.088900961
H  H36  1  0.11710000  0.49670000  0.37300000  1.0 0.088900961
H  H37  1  0.74550000  0.10570000  0.84980000  1.0 0.0716903235
H  H38  1  0.25590000  0.89570000  0.15020000  1.0 0.0716903235
H  H39  1  0.74410000  0.89430000  0.63980000  1.0 0.0716903235
H  H40  1  0.25450000  0.10430000  0.36020000  1.0 0.0716903235
H  H41  1  0.84980000  0.74550000  0.10570000  1.0 0.0716903235
H  H42  1  0.15020000  0.25590000  0.89570000  1.0 0.0716903235
H  H43  1  0.63980000  0.74410000  0.89430000  1.0 0.0716903235
H  H44  1  0.36020000  0.25450000  0.10430000  1.0 0.0716903235
H  H45  1  0.10570000  0.84980000  0.74550000  1.0 0.0716903235
H  H46  1  0.89570000  0.15020000  0.25590000  1.0 0.0716903235
H  H47  1  0.89430000  0.63980000  0.74410000  1.0 0.0716903235
H  H48  1  0.10430000  0.36020000  0.25450000  1.0 0.0716903235
H  H49  1  0.47920000  0.99110000  0.49490000  1.0 0.0777880255
H  H50  1  0.49620000  0.98430000  0.50510000  1.0 0.0777880255
H  H51  1  0.50380000  0.00890000  0.48810000  1.0 0.0777880255
H  H52  1  0.52080000  0.01570000  0.51190000  1.0 0.0777880255
H  H53  1  0.49490000  0.47920000  0.99110000  1.0 0.0777880255
H  H54  1  0.50510000  0.49620000  0.98430000  1.0 0.0777880255
H  H55  1  0.48810000  0.50380000  0.00890000  1.0 0.0777880255
H  H56  1  0.51190000  0.52080000  0.01570000  1.0 0.0777880255
H  H57  1  0.99110000  0.49490000  0.47920000  1.0 0.0777880255
H  H58  1  0.98430000  0.50510000  0.49620000  1.0 0.0777880255
H  H59  1  0.00890000  0.48810000  0.50380000  1.0 0.0777880255
H  H60  1  0.01570000  0.51190000  0.52080000  1.0 0.0777880255
C  C1  1  0.81750000  0.00000000  0.81750000  1.0 0.4702289527
C  C2  1  0.18250000  0.00000000  0.18250000  1.0 0.4702289527
C  C3  1  0.81750000  0.81750000  0.00000000  1.0 0.4702289527
C  C4  1  0.18250000  0.18250000  0.00000000  1.0 0.4702289527
C  C5  1  0.00000000  0.81750000  0.81750000  1.0 0.4702289527
C  C6  1  0.00000000  0.18250000  0.18250000  1.0 0.4702289527
C  C7  1  0.73980000  0.00000000  0.73980000  1.0 -0.1380049648
C  C8  1  0.26020000  0.00000000  0.26020000  1.0 -0.1380049648
C  C9  1  0.73980000  0.73980000  0.00000000  1.0 -0.1380049648
C  C10  1  0.26020000  0.26020000  0.00000000  1.0 -0.1380049648
C  C11  1  0.00000000  0.73980000  0.73980000  1.0 -0.1380049648
C  C12  1  0.00000000  0.26020000  0.26020000  1.0 -0.1380049648
C  C13  1  0.69410000  0.05470000  0.74680000  1.0 -0.0668310896
C  C14  1  0.30790000  0.94730000  0.25320000  1.0 -0.0668310896
C  C15  1  0.69210000  0.94530000  0.63940000  1.0 -0.0668310896
C  C16  1  0.30590000  0.05270000  0.36060000  1.0 -0.0668310896
C  C17  1  0.74680000  0.69410000  0.05470000  1.0 -0.0668310896
C  C18  1  0.25320000  0.30790000  0.94730000  1.0 -0.0668310896
C  C19  1  0.63940000  0.69210000  0.94530000  1.0 -0.0668310896
C  C20  1  0.36060000  0.30590000  0.05270000  1.0 -0.0668310896
C  C21  1  0.05470000  0.74680000  0.69410000  1.0 -0.0668310896
C  C22  1  0.94730000  0.25320000  0.30790000  1.0 -0.0668310896
C  C23  1  0.94530000  0.63940000  0.69210000  1.0 -0.0668310896
C  C24  1  0.05270000  0.36060000  0.30590000  1.0 -0.0668310896
C  C25  1  0.62180000  0.04650000  0.66610000  1.0 -0.0257529495
C  C26  1  0.38040000  0.95570000  0.33390000  1.0 -0.0248868521
C  C27  1  0.61960000  0.95350000  0.57530000  1.0 -0.0248868521
C  C28  1  0.37820000  0.04430000  0.42470000  1.0 -0.0257529495
C  C29  1  0.66610000  0.62180000  0.04650000  1.0 -0.0248868521
C  C30  1  0.33390000  0.38040000  0.95570000  1.0 -0.0257529495
C  C31  1  0.57530000  0.61960000  0.95350000  1.0 -0.0257529495
C  C32  1  0.42470000  0.37820000  0.04430000  1.0 -0.0248868521
C  C33  1  0.04650000  0.66610000  0.62180000  1.0 -0.0257529495
C  C34  1  0.95570000  0.33390000  0.38040000  1.0 -0.0248868521
C  C35  1  0.95350000  0.57530000  0.61960000  1.0 -0.0248868521
C  C36  1  0.04430000  0.42470000  0.37820000  1.0 -0.0257529495
C  C37  1  0.59690000  0.97800000  0.57850000  1.0 -0.0571542253
C  C38  1  0.39950000  0.01840000  0.42150000  1.0 -0.0571542253
C  C39  1  0.60050000  0.02200000  0.61890000  1.0 -0.0571542253
C  C40  1  0.40310000  0.98160000  0.38110000  1.0 -0.0571542253
C  C41  1  0.57850000  0.59690000  0.97800000  1.0 -0.0571542253
C  C42  1  0.42150000  0.39950000  0.01840000  1.0 -0.0571542253
C  C43  1  0.61890000  0.60050000  0.02200000  1.0 -0.0571542253
C  C44  1  0.38110000  0.40310000  0.98160000  1.0 -0.0571542253
C  C45  1  0.97800000  0.57850000  0.59690000  1.0 -0.0571542253
C  C46  1  0.01840000  0.42150000  0.39950000  1.0 -0.0571542253
C  C47  1  0.02200000  0.61890000  0.60050000  1.0 -0.0571542253
C  C48  1  0.98160000  0.38110000  0.40310000  1.0 -0.0571542253
C  C49  1  0.64420000  0.07650000  0.71590000  1.0 -0.0668310896
C  C50  1  0.36060000  0.92830000  0.28410000  1.0 -0.0668310896
C  C51  1  0.63940000  0.92350000  0.56770000  1.0 -0.0668310896
C  C52  1  0.35580000  0.07170000  0.43230000  1.0 -0.0668310896
C  C53  1  0.71590000  0.64420000  0.07650000  1.0 -0.0668310896
C  C54  1  0.28410000  0.36060000  0.92830000  1.0 -0.0668310896
C  C55  1  0.56770000  0.63940000  0.92350000  1.0 -0.0668310896
C  C56  1  0.43230000  0.35580000  0.07170000  1.0 -0.0668310896
C  C57  1  0.07650000  0.71590000  0.64420000  1.0 -0.0668310896
C  C58  1  0.92830000  0.28410000  0.36060000  1.0 -0.0668310896
C  C59  1  0.92350000  0.56770000  0.63940000  1.0 -0.0668310896
C  C60  1  0.07170000  0.43230000  0.35580000  1.0 -0.0668310896
C  C61  1  0.71320000  0.93330000  0.64770000  1.0 -0.0571542253
C  C62  1  0.28560000  0.06550000  0.35230000  1.0 -0.0571542253
C  C63  1  0.71440000  0.06670000  0.77990000  1.0 -0.0571542253
C  C64  1  0.28680000  0.93450000  0.22010000  1.0 -0.0571542253
C  C65  1  0.64770000  0.71320000  0.93330000  1.0 -0.0571542253
C  C66  1  0.35230000  0.28560000  0.06550000  1.0 -0.0571542253
C  C67  1  0.77990000  0.71440000  0.06670000  1.0 -0.0571542253
C  C68  1  0.22010000  0.28680000  0.93450000  1.0 -0.0571542253
C  C69  1  0.93330000  0.64770000  0.71320000  1.0 -0.0571542253
C  C70  1  0.06550000  0.35230000  0.28560000  1.0 -0.0571542253
C  C71  1  0.06670000  0.77990000  0.71440000  1.0 -0.0571542253
C  C72  1  0.93450000  0.22010000  0.28680000  1.0 -0.0571542253
C  C73  1  0.51500000  0.96190000  0.48810000  1.0 -0.0079610031
C  C74  1  0.47380000  0.02690000  0.51190000  1.0 -0.0079610031
C  C75  1  0.52620000  0.03810000  0.55310000  1.0 -0.0079610031
C  C76  1  0.48500000  0.97310000  0.44690000  1.0 -0.0079610031
C  C77  1  0.48810000  0.51500000  0.96190000  1.0 -0.0079610031
C  C78  1  0.51190000  0.47380000  0.02690000  1.0 -0.0079610031
C  C79  1  0.55310000  0.52620000  0.03810000  1.0 -0.0079610031
C  C80  1  0.44690000  0.48500000  0.97310000  1.0 -0.0079610031
C  C81  1  0.96190000  0.48810000  0.51500000  1.0 -0.0079610031
C  C82  1  0.02690000  0.51190000  0.47380000  1.0 -0.0079610031
C  C83  1  0.03810000  0.55310000  0.52620000  1.0 -0.0079610031
C  C84  1  0.97310000  0.44690000  0.48500000  1.0 -0.0079610031
O  O1  1  0.00000000  0.00000000  0.00000000  1.0 -1.0053241923
O  O2  1  0.80541000  0.99463000  0.88300000  1.0 -0.4122567996
O  O3  1  0.11163000  0.92241000  0.11700000  1.0 -0.4122567996
O  O4  1  0.88837000  0.00537000  0.81078000  1.0 -0.4122567996
O  O5  1  0.19459000  0.07759000  0.18922000  1.0 -0.4122567996
O  O6  1  0.88300000  0.80541000  0.99463000  1.0 -0.4122567996
O  O7  1  0.11700000  0.11163000  0.92241000  1.0 -0.4122567996
O  O8  1  0.81078000  0.88837000  0.00537000  1.0 -0.4122567996
O  O9  1  0.18922000  0.19459000  0.07759000  1.0 -0.4122567996
O  O10  1  0.99463000  0.88300000  0.80541000  1.0 -0.4122567996
O  O11  1  0.92241000  0.11700000  0.11163000  1.0 -0.4122567996
O  O12  1  0.00537000  0.81078000  0.88837000  1.0 -0.4122567996
O  O13  1  0.07759000  0.18922000  0.19459000  1.0 -0.4122567996
O  O14  1  0.50000000  0.91420000  0.41420000  1.0 -0.1570745409
O  O15  1  0.50000000  0.08580000  0.58580000  1.0 -0.1570745409
O  O16  1  0.41420000  0.50000000  0.91420000  1.0 -0.1570745409
O  O17  1  0.58580000  0.50000000  0.08580000  1.0 -0.1570745409
O  O18  1  0.91420000  0.41420000  0.50000000  1.0 -0.1570745409
O  O19  1  0.08580000  0.58580000  0.50000000  1.0 -0.1570745409
