# DDEC6 charges by PACMAN v1.1 (https://github.com/mtap-research/PACMAN-charge/)
data_OLOMUZ_FSR_pacman
_symmetry_space_group_name_H-M   'P 1'
_cell_length_a   28.10300000
_cell_length_b   28.10300000
_cell_length_c   28.10300000
_cell_angle_alpha   45.82310000
_cell_angle_beta   45.82310000
_cell_angle_gamma   45.82310000
_symmetry_Int_Tables_number   1
_chemical_formula_structural   CaAg3H9C18S4N3O10
_chemical_formula_sum   'Ca12 Ag36 H108 C216 S48 N36 O120'
_cell_volume   10409.21406128
_cell_formula_units_Z   12
loop_
 _symmetry_equiv_pos_site_id
 _symmetry_equiv_pos_as_xyz
  1  'x, y, z'
loop_
 _atom_site_type_symbol
 _atom_site_label
 _atom_site_symmetry_multiplicity
 _atom_site_fract_x
 _atom_site_fract_y
 _atom_site_fract_z
 _atom_site_occupancy
 _atom_site_charge
Ca  Ca1  1  0.14317000  0.53675000  0.03871000  1.0 1.3773681607
Ca  Ca2  1  0.53675000  0.03871000  0.14317000  1.0 1.3773681607
Ca  Ca3  1  0.03871000  0.14317000  0.53675000  1.0 1.3773681607
Ca  Ca4  1  0.96325000  0.35683000  0.46129000  1.0 1.3773681607
Ca  Ca5  1  0.46129000  0.96325000  0.35683000  1.0 1.3773681607
Ca  Ca6  1  0.35683000  0.46129000  0.96325000  1.0 1.3773681607
Ca  Ca7  1  0.85683000  0.46325000  0.96129000  1.0 1.3773681607
Ca  Ca8  1  0.46325000  0.96129000  0.85683000  1.0 1.3773681607
Ca  Ca9  1  0.96129000  0.85683000  0.46325000  1.0 1.3773681607
Ca  Ca10  1  0.03675000  0.64317000  0.53871000  1.0 1.3773681607
Ca  Ca11  1  0.53871000  0.03675000  0.64317000  1.0 1.3773681607
Ca  Ca12  1  0.64317000  0.53871000  0.03675000  1.0 1.3773681607
Ag  Ag1  1  0.31348000  0.43790000  0.26503000  1.0 0.1898885857
Ag  Ag2  1  0.43790000  0.26503000  0.31348000  1.0 0.1898885857
Ag  Ag3  1  0.26503000  0.31348000  0.43790000  1.0 0.1898885857
Ag  Ag4  1  0.06210000  0.18652000  0.23497000  1.0 0.1898885857
Ag  Ag5  1  0.23497000  0.06210000  0.18652000  1.0 0.1898885857
Ag  Ag6  1  0.18652000  0.23497000  0.06210000  1.0 0.1898885857
Ag  Ag7  1  0.68652000  0.56210000  0.73497000  1.0 0.1898885857
Ag  Ag8  1  0.56210000  0.73497000  0.68652000  1.0 0.1898885857
Ag  Ag9  1  0.73497000  0.68652000  0.56210000  1.0 0.1898885857
Ag  Ag10  1  0.93790000  0.81348000  0.76503000  1.0 0.1898885857
Ag  Ag11  1  0.76503000  0.93790000  0.81348000  1.0 0.1898885857
Ag  Ag12  1  0.81348000  0.76503000  0.93790000  1.0 0.1898885857
Ag  Ag13  1  0.21075000  0.38150000  0.33527000  1.0 0.1898885857
Ag  Ag14  1  0.38150000  0.33527000  0.21075000  1.0 0.1898885857
Ag  Ag15  1  0.33527000  0.21075000  0.38150000  1.0 0.1898885857
Ag  Ag16  1  0.11850000  0.28925000  0.16473000  1.0 0.1898885857
Ag  Ag17  1  0.16473000  0.11850000  0.28925000  1.0 0.1898885857
Ag  Ag18  1  0.28925000  0.16473000  0.11850000  1.0 0.1898885857
Ag  Ag19  1  0.78925000  0.61850000  0.66473000  1.0 0.1898885857
Ag  Ag20  1  0.61850000  0.66473000  0.78925000  1.0 0.1898885857
Ag  Ag21  1  0.66473000  0.78925000  0.61850000  1.0 0.1898885857
Ag  Ag22  1  0.88150000  0.71075000  0.83527000  1.0 0.1898885857
Ag  Ag23  1  0.83527000  0.88150000  0.71075000  1.0 0.1898885857
Ag  Ag24  1  0.71075000  0.83527000  0.88150000  1.0 0.1898885857
Ag  Ag25  1  0.01274000  0.88529000  0.05772000  1.0 0.1389787659
Ag  Ag26  1  0.88529000  0.05772000  0.01274000  1.0 0.1389787659
Ag  Ag27  1  0.05772000  0.01274000  0.88529000  1.0 0.1389787659
Ag  Ag28  1  0.61471000  0.48726000  0.44228000  1.0 0.1389787659
Ag  Ag29  1  0.44228000  0.61471000  0.48726000  1.0 0.1389787659
Ag  Ag30  1  0.48726000  0.44228000  0.61471000  1.0 0.1389787659
Ag  Ag31  1  0.98726000  0.11471000  0.94228000  1.0 0.1389787659
Ag  Ag32  1  0.11471000  0.94228000  0.98726000  1.0 0.1389787659
Ag  Ag33  1  0.94228000  0.98726000  0.11471000  1.0 0.1389787659
Ag  Ag34  1  0.38529000  0.51274000  0.55772000  1.0 0.1389787659
Ag  Ag35  1  0.55772000  0.38529000  0.51274000  1.0 0.1389787659
Ag  Ag36  1  0.51274000  0.55772000  0.38529000  1.0 0.1389787659
H  H1  1  0.20240000  0.66830000  0.03150000  1.0 0.1389787659
H  H2  1  0.66830000  0.03150000  0.20240000  1.0 0.1389787659
H  H3  1  0.03150000  0.20240000  0.66830000  1.0 0.1389787659
H  H4  1  0.83170000  0.29760000  0.46850000  1.0 0.1389787659
H  H5  1  0.46850000  0.83170000  0.29760000  1.0 0.1389787659
H  H6  1  0.29760000  0.46850000  0.83170000  1.0 0.1389787659
H  H7  1  0.79760000  0.33170000  0.96850000  1.0 0.1389787659
H  H8  1  0.33170000  0.96850000  0.79760000  1.0 0.1389787659
H  H9  1  0.96850000  0.79760000  0.33170000  1.0 0.1389787659
H  H10  1  0.16830000  0.70240000  0.53150000  1.0 0.1389787659
H  H11  1  0.53150000  0.16830000  0.70240000  1.0 0.1389787659
H  H12  1  0.70240000  0.53150000  0.16830000  1.0 0.1389787659
H  H13  1  0.23400000  0.69430000  0.06630000  1.0 0.1389787659
H  H14  1  0.69430000  0.06630000  0.23400000  1.0 0.1389787659
H  H15  1  0.06630000  0.23400000  0.69430000  1.0 0.1389787659
H  H16  1  0.80570000  0.26600000  0.43370000  1.0 0.1389787659
H  H17  1  0.43370000  0.80570000  0.26600000  1.0 0.1389787659
H  H18  1  0.26600000  0.43370000  0.80570000  1.0 0.1389787659
H  H19  1  0.76600000  0.30570000  0.93370000  1.0 0.1389787659
H  H20  1  0.30570000  0.93370000  0.76600000  1.0 0.1389787659
H  H21  1  0.93370000  0.76600000  0.30570000  1.0 0.1389787659
H  H22  1  0.19430000  0.73400000  0.56630000  1.0 0.1389787659
H  H23  1  0.56630000  0.19430000  0.73400000  1.0 0.1389787659
H  H24  1  0.73400000  0.56630000  0.19430000  1.0 0.1389787659
H  H25  1  0.27990000  0.60340000  0.15330000  1.0 0.1188003873
H  H26  1  0.60340000  0.15330000  0.27990000  1.0 0.1188003873
H  H27  1  0.15330000  0.27990000  0.60340000  1.0 0.1188003873
H  H28  1  0.89660000  0.22010000  0.34670000  1.0 0.1188003873
H  H29  1  0.34670000  0.89660000  0.22010000  1.0 0.1188003873
H  H30  1  0.22010000  0.34670000  0.89660000  1.0 0.1188003873
H  H31  1  0.72010000  0.39660000  0.84670000  1.0 0.1188003873
H  H32  1  0.39660000  0.84670000  0.72010000  1.0 0.1188003873
H  H33  1  0.84670000  0.72010000  0.39660000  1.0 0.1188003873
H  H34  1  0.10340000  0.77990000  0.65330000  1.0 0.1188003873
H  H35  1  0.65330000  0.10340000  0.77990000  1.0 0.1188003873
H  H36  1  0.77990000  0.65330000  0.10340000  1.0 0.1188003873
H  H37  1  0.04260000  0.49060000  0.37380000  1.0 0.1188003873
H  H38  1  0.49060000  0.37380000  0.04260000  1.0 0.1188003873
H  H39  1  0.37380000  0.04260000  0.49060000  1.0 0.1188003873
H  H40  1  0.00940000  0.45740000  0.12620000  1.0 0.1188003873
H  H41  1  0.12620000  0.00940000  0.45740000  1.0 0.1188003873
H  H42  1  0.45740000  0.12620000  0.00940000  1.0 0.1188003873
H  H43  1  0.95740000  0.50940000  0.62620000  1.0 0.1188003873
H  H44  1  0.50940000  0.62620000  0.95740000  1.0 0.1188003873
H  H45  1  0.62620000  0.95740000  0.50940000  1.0 0.1188003873
H  H46  1  0.99060000  0.54260000  0.87380000  1.0 0.1188003873
H  H47  1  0.87380000  0.99060000  0.54260000  1.0 0.1188003873
H  H48  1  0.54260000  0.87380000  0.99060000  1.0 0.1188003873
H  H49  1  0.95270000  0.58230000  0.41280000  1.0 0.1389787659
H  H50  1  0.58230000  0.41280000  0.95270000  1.0 0.1389787659
H  H51  1  0.41280000  0.95270000  0.58230000  1.0 0.1389787659
H  H52  1  0.91770000  0.54730000  0.08720000  1.0 0.1389787659
H  H53  1  0.08720000  0.91770000  0.54730000  1.0 0.1389787659
H  H54  1  0.54730000  0.08720000  0.91770000  1.0 0.1389787659
H  H55  1  0.04730000  0.41770000  0.58720000  1.0 0.1389787659
H  H56  1  0.41770000  0.58720000  0.04730000  1.0 0.1389787659
H  H57  1  0.58720000  0.04730000  0.41770000  1.0 0.1389787659
H  H58  1  0.08230000  0.45270000  0.91280000  1.0 0.1389787659
H  H59  1  0.91280000  0.08230000  0.45270000  1.0 0.1389787659
H  H60  1  0.45270000  0.91280000  0.08230000  1.0 0.1389787659
H  H61  1  0.97810000  0.61270000  0.44820000  1.0 0.1279878504
H  H62  1  0.61270000  0.44820000  0.97810000  1.0 0.1279878504
H  H63  1  0.44820000  0.97810000  0.61270000  1.0 0.1279878504
H  H64  1  0.88730000  0.52190000  0.05180000  1.0 0.1279878504
H  H65  1  0.05180000  0.88730000  0.52190000  1.0 0.1279878504
H  H66  1  0.52190000  0.05180000  0.88730000  1.0 0.1279878504
H  H67  1  0.02190000  0.38730000  0.55180000  1.0 0.1279878504
H  H68  1  0.38730000  0.55180000  0.02190000  1.0 0.1279878504
H  H69  1  0.55180000  0.02190000  0.38730000  1.0 0.1279878504
H  H70  1  0.11270000  0.47810000  0.94820000  1.0 0.1279878504
H  H71  1  0.94820000  0.11270000  0.47810000  1.0 0.1279878504
H  H72  1  0.47810000  0.94820000  0.11270000  1.0 0.1279878504
H  H73  1  0.28250000  0.83270000  0.94870000  1.0 0.1188003873
H  H74  1  0.83270000  0.94870000  0.28250000  1.0 0.1188003873
H  H75  1  0.94870000  0.28250000  0.83270000  1.0 0.1188003873
H  H76  1  0.66730000  0.21750000  0.55130000  1.0 0.1188003873
H  H77  1  0.55130000  0.66730000  0.21750000  1.0 0.1188003873
H  H78  1  0.21750000  0.55130000  0.66730000  1.0 0.1188003873
H  H79  1  0.71750000  0.16730000  0.05130000  1.0 0.1188003873
H  H80  1  0.16730000  0.05130000  0.71750000  1.0 0.1188003873
H  H81  1  0.05130000  0.71750000  0.16730000  1.0 0.1188003873
H  H82  1  0.33270000  0.78250000  0.44870000  1.0 0.1188003873
H  H83  1  0.44870000  0.33270000  0.78250000  1.0 0.1188003873
H  H84  1  0.78250000  0.44870000  0.33270000  1.0 0.1188003873
H  H85  1  0.37150000  0.74160000  0.90880000  1.0 0.1279878504
H  H86  1  0.74160000  0.90880000  0.37150000  1.0 0.1279878504
H  H87  1  0.90880000  0.37150000  0.74160000  1.0 0.1279878504
H  H88  1  0.75840000  0.12850000  0.59120000  1.0 0.1279878504
H  H89  1  0.59120000  0.75840000  0.12850000  1.0 0.1279878504
H  H90  1  0.12850000  0.59120000  0.75840000  1.0 0.1279878504
H  H91  1  0.62850000  0.25840000  0.09120000  1.0 0.1279878504
H  H92  1  0.25840000  0.09120000  0.62850000  1.0 0.1279878504
H  H93  1  0.09120000  0.62850000  0.25840000  1.0 0.1279878504
H  H94  1  0.24160000  0.87150000  0.40880000  1.0 0.1279878504
H  H95  1  0.40880000  0.24160000  0.87150000  1.0 0.1279878504
H  H96  1  0.87150000  0.40880000  0.24160000  1.0 0.1279878504
H  H97  1  0.34440000  0.72040000  0.86440000  1.0 0.1279878504
H  H98  1  0.72040000  0.86440000  0.34440000  1.0 0.1279878504
H  H99  1  0.86440000  0.34440000  0.72040000  1.0 0.1279878504
H  H100  1  0.77960000  0.15560000  0.63560000  1.0 0.1279878504
H  H101  1  0.63560000  0.77960000  0.15560000  1.0 0.1279878504
H  H102  1  0.15560000  0.63560000  0.77960000  1.0 0.1279878504
H  H103  1  0.65560000  0.27960000  0.13560000  1.0 0.1279878504
H  H104  1  0.27960000  0.13560000  0.65560000  1.0 0.1279878504
H  H105  1  0.13560000  0.65560000  0.27960000  1.0 0.1279878504
H  H106  1  0.22040000  0.84440000  0.36440000  1.0 0.1279878504
H  H107  1  0.36440000  0.22040000  0.84440000  1.0 0.1279878504
H  H108  1  0.84440000  0.36440000  0.22040000  1.0 0.1279878504
C  C1  1  0.25344000  0.50894000  0.15824000  1.0 0.2186257776
C  C2  1  0.50894000  0.15824000  0.25344000  1.0 0.2186257776
C  C3  1  0.15824000  0.25344000  0.50894000  1.0 0.2186257776
C  C4  1  0.99106000  0.24656000  0.34176000  1.0 0.2186257776
C  C5  1  0.34176000  0.99106000  0.24656000  1.0 0.2186257776
C  C6  1  0.24656000  0.34176000  0.99106000  1.0 0.2186257776
C  C7  1  0.74656000  0.49106000  0.84176000  1.0 0.2186257776
C  C8  1  0.49106000  0.84176000  0.74656000  1.0 0.2186257776
C  C9  1  0.84176000  0.74656000  0.49106000  1.0 0.2186257776
C  C10  1  0.00894000  0.75344000  0.65824000  1.0 0.2186257776
C  C11  1  0.65824000  0.00894000  0.75344000  1.0 0.2186257776
C  C12  1  0.75344000  0.65824000  0.00894000  1.0 0.2186257776
C  C13  1  0.22480000  0.56160000  0.10410000  1.0 -0.0903594252
C  C14  1  0.56160000  0.10410000  0.22480000  1.0 -0.0903594252
C  C15  1  0.10410000  0.22480000  0.56160000  1.0 -0.0903594252
C  C16  1  0.93840000  0.27520000  0.39590000  1.0 -0.0903594252
C  C17  1  0.39590000  0.93840000  0.27520000  1.0 -0.0903594252
C  C18  1  0.27520000  0.39590000  0.93840000  1.0 -0.0903594252
C  C19  1  0.77520000  0.43840000  0.89590000  1.0 -0.0903594252
C  C20  1  0.43840000  0.89590000  0.77520000  1.0 -0.0903594252
C  C21  1  0.89590000  0.77520000  0.43840000  1.0 -0.0903594252
C  C22  1  0.06160000  0.72480000  0.60410000  1.0 -0.0903594252
C  C23  1  0.60410000  0.06160000  0.72480000  1.0 -0.0903594252
C  C24  1  0.72480000  0.60410000  0.06160000  1.0 -0.0903594252
C  C25  1  0.21914000  0.63244000  0.06814000  1.0 -0.0421415584
C  C26  1  0.63244000  0.06814000  0.21914000  1.0 -0.0421415584
C  C27  1  0.06814000  0.21914000  0.63244000  1.0 -0.0421415584
C  C28  1  0.86756000  0.28086000  0.43186000  1.0 -0.0421415584
C  C29  1  0.43186000  0.86756000  0.28086000  1.0 -0.0421415584
C  C30  1  0.28086000  0.43186000  0.86756000  1.0 -0.0421415584
C  C31  1  0.78086000  0.36756000  0.93186000  1.0 -0.0421415584
C  C32  1  0.36756000  0.93186000  0.78086000  1.0 -0.0421415584
C  C33  1  0.93186000  0.78086000  0.36756000  1.0 -0.0421415584
C  C34  1  0.13244000  0.71914000  0.56814000  1.0 -0.0421415584
C  C35  1  0.56814000  0.13244000  0.71914000  1.0 -0.0421415584
C  C36  1  0.71914000  0.56814000  0.13244000  1.0 -0.0421415584
C  C37  1  0.23885000  0.64755000  0.08825000  1.0 -0.1225614139
C  C38  1  0.64755000  0.08825000  0.23885000  1.0 -0.1225614139
C  C39  1  0.08825000  0.23885000  0.64755000  1.0 -0.1225614139
C  C40  1  0.85245000  0.26115000  0.41175000  1.0 -0.1225614139
C  C41  1  0.41175000  0.85245000  0.26115000  1.0 -0.1225614139
C  C42  1  0.26115000  0.41175000  0.85245000  1.0 -0.1225614139
C  C43  1  0.76115000  0.35245000  0.91175000  1.0 -0.1225614139
C  C44  1  0.35245000  0.91175000  0.76115000  1.0 -0.1225614139
C  C45  1  0.91175000  0.76115000  0.35245000  1.0 -0.1225614139
C  C46  1  0.14755000  0.73885000  0.58825000  1.0 -0.1225614139
C  C47  1  0.58825000  0.14755000  0.73885000  1.0 -0.1225614139
C  C48  1  0.73885000  0.58825000  0.14755000  1.0 -0.1225614139
C  C49  1  0.26576000  0.59276000  0.14106000  1.0 0.0667004597
C  C50  1  0.59276000  0.14106000  0.26576000  1.0 0.0667004597
C  C51  1  0.14106000  0.26576000  0.59276000  1.0 0.0667004597
C  C52  1  0.90724000  0.23424000  0.35894000  1.0 0.0667004597
C  C53  1  0.35894000  0.90724000  0.23424000  1.0 0.0667004597
C  C54  1  0.23424000  0.35894000  0.90724000  1.0 0.0667004597
C  C55  1  0.73424000  0.40724000  0.85894000  1.0 0.0667004597
C  C56  1  0.40724000  0.85894000  0.73424000  1.0 0.0667004597
C  C57  1  0.85894000  0.73424000  0.40724000  1.0 0.0667004597
C  C58  1  0.09276000  0.76576000  0.64106000  1.0 0.0667004597
C  C59  1  0.64106000  0.09276000  0.76576000  1.0 0.0667004597
C  C60  1  0.76576000  0.64106000  0.09276000  1.0 0.0667004597
C  C61  1  0.20005000  0.54685000  0.08435000  1.0 0.5955719537
C  C62  1  0.54685000  0.08435000  0.20005000  1.0 0.5955719537
C  C63  1  0.08435000  0.20005000  0.54685000  1.0 0.5955719537
C  C64  1  0.95315000  0.29995000  0.41565000  1.0 0.5955719537
C  C65  1  0.41565000  0.95315000  0.29995000  1.0 0.5955719537
C  C66  1  0.29995000  0.41565000  0.95315000  1.0 0.5955719537
C  C67  1  0.79995000  0.45315000  0.91565000  1.0 0.5955719537
C  C68  1  0.45315000  0.91565000  0.79995000  1.0 0.5955719537
C  C69  1  0.91565000  0.79995000  0.45315000  1.0 0.5955719537
C  C70  1  0.04685000  0.70005000  0.58435000  1.0 0.5955719537
C  C71  1  0.58435000  0.04685000  0.70005000  1.0 0.5955719537
C  C72  1  0.70005000  0.58435000  0.04685000  1.0 0.5955719537
C  C73  1  0.10093000  0.57553000  0.43643000  1.0 0.5683448103
C  C74  1  0.57553000  0.43643000  0.10093000  1.0 0.5683448103
C  C75  1  0.43643000  0.10093000  0.57553000  1.0 0.5683448103
C  C76  1  0.92447000  0.39907000  0.06357000  1.0 0.5683448103
C  C77  1  0.06357000  0.92447000  0.39907000  1.0 0.5683448103
C  C78  1  0.39907000  0.06357000  0.92447000  1.0 0.5683448103
C  C79  1  0.89907000  0.42447000  0.56357000  1.0 0.5683448103
C  C80  1  0.42447000  0.56357000  0.89907000  1.0 0.5683448103
C  C81  1  0.56357000  0.89907000  0.42447000  1.0 0.5683448103
C  C82  1  0.07553000  0.60093000  0.93643000  1.0 0.5683448103
C  C83  1  0.93643000  0.07553000  0.60093000  1.0 0.5683448103
C  C84  1  0.60093000  0.93643000  0.07553000  1.0 0.5683448103
C  C85  1  0.08537000  0.54537000  0.42137000  1.0 -0.0787030531
C  C86  1  0.54537000  0.42137000  0.08537000  1.0 -0.0787030531
C  C87  1  0.42137000  0.08537000  0.54537000  1.0 -0.0787030531
C  C88  1  0.95463000  0.41463000  0.07863000  1.0 -0.0787030531
C  C89  1  0.07863000  0.95463000  0.41463000  1.0 -0.0787030531
C  C90  1  0.41463000  0.07863000  0.95463000  1.0 -0.0787030531
C  C91  1  0.91463000  0.45463000  0.57863000  1.0 -0.0787030531
C  C92  1  0.45463000  0.57863000  0.91463000  1.0 -0.0787030531
C  C93  1  0.57863000  0.91463000  0.45463000  1.0 -0.0787030531
C  C94  1  0.04537000  0.58537000  0.92137000  1.0 -0.0787030531
C  C95  1  0.92137000  0.04537000  0.58537000  1.0 -0.0787030531
C  C96  1  0.58537000  0.92137000  0.04537000  1.0 -0.0787030531
C  C97  1  0.13921000  0.49071000  0.39351000  1.0 0.2112938699
C  C98  1  0.49071000  0.39351000  0.13921000  1.0 0.2112938699
C  C99  1  0.39351000  0.13921000  0.49071000  1.0 0.2112938699
C  C100  1  0.00929000  0.36079000  0.10649000  1.0 0.2112938699
C  C101  1  0.10649000  0.00929000  0.36079000  1.0 0.2112938699
C  C102  1  0.36079000  0.10649000  0.00929000  1.0 0.2112938699
C  C103  1  0.86079000  0.50929000  0.60649000  1.0 0.2112938699
C  C104  1  0.50929000  0.60649000  0.86079000  1.0 0.2112938699
C  C105  1  0.60649000  0.86079000  0.50929000  1.0 0.2112938699
C  C106  1  0.99071000  0.63921000  0.89351000  1.0 0.2112938699
C  C107  1  0.89351000  0.99071000  0.63921000  1.0 0.2112938699
C  C108  1  0.63921000  0.89351000  0.99071000  1.0 0.2112938699
C  C109  1  0.05381000  0.50531000  0.38511000  1.0 0.0833728623
C  C110  1  0.50531000  0.38511000  0.05381000  1.0 0.0833728623
C  C111  1  0.38511000  0.05381000  0.50531000  1.0 0.0833728623
C  C112  1  0.99469000  0.44619000  0.11489000  1.0 0.0833728623
C  C113  1  0.11489000  0.99469000  0.44619000  1.0 0.0833728623
C  C114  1  0.44619000  0.11489000  0.99469000  1.0 0.0833728623
C  C115  1  0.94619000  0.49469000  0.61489000  1.0 0.0833728623
C  C116  1  0.49469000  0.61489000  0.94619000  1.0 0.0833728623
C  C117  1  0.61489000  0.94619000  0.49469000  1.0 0.0833728623
C  C118  1  0.00531000  0.55381000  0.88511000  1.0 0.0833728623
C  C119  1  0.88511000  0.00531000  0.55381000  1.0 0.0833728623
C  C120  1  0.55381000  0.88511000  0.00531000  1.0 0.0833728623
C  C121  1  0.99906000  0.55926000  0.40976000  1.0 -0.1467141721
C  C122  1  0.55926000  0.40976000  0.99906000  1.0 -0.1467141721
C  C123  1  0.40976000  0.99906000  0.55926000  1.0 -0.1467141721
C  C124  1  0.94074000  0.50094000  0.09024000  1.0 -0.1467141721
C  C125  1  0.09024000  0.94074000  0.50094000  1.0 -0.1467141721
C  C126  1  0.50094000  0.09024000  0.94074000  1.0 -0.1467141721
C  C127  1  0.00094000  0.44074000  0.59024000  1.0 -0.1467141721
C  C128  1  0.44074000  0.59024000  0.00094000  1.0 -0.1467141721
C  C129  1  0.59024000  0.00094000  0.44074000  1.0 -0.1467141721
C  C130  1  0.05926000  0.49906000  0.90976000  1.0 -0.1467141721
C  C131  1  0.90976000  0.05926000  0.49906000  1.0 -0.1467141721
C  C132  1  0.49906000  0.90976000  0.05926000  1.0 -0.1467141721
C  C133  1  0.01476000  0.57786000  0.42916000  1.0 -0.0602087199
C  C134  1  0.57786000  0.42916000  0.01476000  1.0 -0.0602087199
C  C135  1  0.42916000  0.01476000  0.57786000  1.0 -0.0602087199
C  C136  1  0.92214000  0.48524000  0.07084000  1.0 -0.0602087199
C  C137  1  0.07084000  0.92214000  0.48524000  1.0 -0.0602087199
C  C138  1  0.48524000  0.07084000  0.92214000  1.0 -0.0602087199
C  C139  1  0.98524000  0.42214000  0.57084000  1.0 -0.0602087199
C  C140  1  0.42214000  0.57084000  0.98524000  1.0 -0.0602087199
C  C141  1  0.57084000  0.98524000  0.42214000  1.0 -0.0602087199
C  C142  1  0.07786000  0.51476000  0.92916000  1.0 -0.0602087199
C  C143  1  0.92916000  0.07786000  0.51476000  1.0 -0.0602087199
C  C144  1  0.51476000  0.92916000  0.07786000  1.0 -0.0602087199
C  C145  1  0.27140000  0.81900000  0.93660000  1.0 0.0519837791
C  C146  1  0.81900000  0.93660000  0.27140000  1.0 0.0519837791
C  C147  1  0.93660000  0.27140000  0.81900000  1.0 0.0519837791
C  C148  1  0.68100000  0.22860000  0.56340000  1.0 0.0519837791
C  C149  1  0.56340000  0.68100000  0.22860000  1.0 0.0519837791
C  C150  1  0.22860000  0.56340000  0.68100000  1.0 0.0519837791
C  C151  1  0.72860000  0.18100000  0.06340000  1.0 0.0519837791
C  C152  1  0.18100000  0.06340000  0.72860000  1.0 0.0519837791
C  C153  1  0.06340000  0.72860000  0.18100000  1.0 0.0519837791
C  C154  1  0.31900000  0.77140000  0.43660000  1.0 0.0519837791
C  C155  1  0.43660000  0.31900000  0.77140000  1.0 0.0519837791
C  C156  1  0.77140000  0.43660000  0.31900000  1.0 0.0519837791
C  C157  1  0.32540000  0.76660000  0.91070000  1.0 -0.1429652113
C  C158  1  0.76660000  0.91070000  0.32540000  1.0 -0.1429652113
C  C159  1  0.91070000  0.32540000  0.76660000  1.0 -0.1429652113
C  C160  1  0.73340000  0.17460000  0.58930000  1.0 -0.1429652113
C  C161  1  0.58930000  0.73340000  0.17460000  1.0 -0.1429652113
C  C162  1  0.17460000  0.58930000  0.73340000  1.0 -0.1429652113
C  C163  1  0.67460000  0.23340000  0.08930000  1.0 -0.1429652113
C  C164  1  0.23340000  0.08930000  0.67460000  1.0 -0.1429652113
C  C165  1  0.08930000  0.67460000  0.23340000  1.0 -0.1429652113
C  C166  1  0.26660000  0.82540000  0.41070000  1.0 -0.1429652113
C  C167  1  0.41070000  0.26660000  0.82540000  1.0 -0.1429652113
C  C168  1  0.82540000  0.41070000  0.26660000  1.0 -0.1429652113
C  C169  1  0.30790000  0.75240000  0.88690000  1.0 -0.0659508942
C  C170  1  0.75240000  0.88690000  0.30790000  1.0 -0.0659508942
C  C171  1  0.88690000  0.30790000  0.75240000  1.0 -0.0659508942
C  C172  1  0.74760000  0.19210000  0.61310000  1.0 -0.0659508942
C  C173  1  0.61310000  0.74760000  0.19210000  1.0 -0.0659508942
C  C174  1  0.19210000  0.61310000  0.74760000  1.0 -0.0659508942
C  C175  1  0.69210000  0.24760000  0.11310000  1.0 -0.0659508942
C  C176  1  0.24760000  0.11310000  0.69210000  1.0 -0.0659508942
C  C177  1  0.11310000  0.69210000  0.24760000  1.0 -0.0659508942
C  C178  1  0.25240000  0.80790000  0.38690000  1.0 -0.0659508942
C  C179  1  0.38690000  0.25240000  0.80790000  1.0 -0.0659508942
C  C180  1  0.80790000  0.38690000  0.25240000  1.0 -0.0659508942
C  C181  1  0.23680000  0.78520000  0.89640000  1.0 -0.0787030531
C  C182  1  0.78520000  0.89640000  0.23680000  1.0 -0.0787030531
C  C183  1  0.89640000  0.23680000  0.78520000  1.0 -0.0787030531
C  C184  1  0.71480000  0.26320000  0.60360000  1.0 -0.0787030531
C  C185  1  0.60360000  0.71480000  0.26320000  1.0 -0.0787030531
C  C186  1  0.26320000  0.60360000  0.71480000  1.0 -0.0787030531
C  C187  1  0.76320000  0.21480000  0.10360000  1.0 -0.0787030531
C  C188  1  0.21480000  0.10360000  0.76320000  1.0 -0.0787030531
C  C189  1  0.10360000  0.76320000  0.21480000  1.0 -0.0787030531
C  C190  1  0.28520000  0.73680000  0.39640000  1.0 -0.0787030531
C  C191  1  0.39640000  0.28520000  0.73680000  1.0 -0.0787030531
C  C192  1  0.73680000  0.39640000  0.28520000  1.0 -0.0787030531
C  C193  1  0.18320000  0.83840000  0.92710000  1.0 0.1583554384
C  C194  1  0.83840000  0.92710000  0.18320000  1.0 0.1583554384
C  C195  1  0.92710000  0.18320000  0.83840000  1.0 0.1583554384
C  C196  1  0.66160000  0.31680000  0.57290000  1.0 0.1583554384
C  C197  1  0.57290000  0.66160000  0.31680000  1.0 0.1583554384
C  C198  1  0.31680000  0.57290000  0.66160000  1.0 0.1583554384
C  C199  1  0.81680000  0.16160000  0.07290000  1.0 0.1583554384
C  C200  1  0.16160000  0.07290000  0.81680000  1.0 0.1583554384
C  C201  1  0.07290000  0.81680000  0.16160000  1.0 0.1583554384
C  C202  1  0.33840000  0.68320000  0.42710000  1.0 0.1583554384
C  C203  1  0.42710000  0.33840000  0.68320000  1.0 0.1583554384
C  C204  1  0.68320000  0.42710000  0.33840000  1.0 0.1583554384
C  C205  1  0.21580000  0.76190000  0.87920000  1.0 0.538775254
C  C206  1  0.76190000  0.87920000  0.21580000  1.0 0.538775254
C  C207  1  0.87920000  0.21580000  0.76190000  1.0 0.538775254
C  C208  1  0.73810000  0.28420000  0.62080000  1.0 0.538775254
C  C209  1  0.62080000  0.73810000  0.28420000  1.0 0.538775254
C  C210  1  0.28420000  0.62080000  0.73810000  1.0 0.538775254
C  C211  1  0.78420000  0.23810000  0.12080000  1.0 0.538775254
C  C212  1  0.23810000  0.12080000  0.78420000  1.0 0.538775254
C  C213  1  0.12080000  0.78420000  0.23810000  1.0 0.538775254
C  C214  1  0.26190000  0.71580000  0.37920000  1.0 0.538775254
C  C215  1  0.37920000  0.26190000  0.71580000  1.0 0.538775254
C  C216  1  0.71580000  0.37920000  0.26190000  1.0 0.538775254
S  S1  1  0.26087000  0.41987000  0.20316000  1.0 -0.1907461932
S  S2  1  0.41987000  0.20316000  0.26087000  1.0 -0.1907461932
S  S3  1  0.20316000  0.26087000  0.41987000  1.0 -0.1907461932
S  S4  1  0.08013000  0.23913000  0.29684000  1.0 -0.1907461932
S  S5  1  0.29684000  0.08013000  0.23913000  1.0 -0.1907461932
S  S6  1  0.23913000  0.29684000  0.08013000  1.0 -0.1907461932
S  S7  1  0.73913000  0.58013000  0.79684000  1.0 -0.1907461932
S  S8  1  0.58013000  0.79684000  0.73913000  1.0 -0.1907461932
S  S9  1  0.79684000  0.73913000  0.58013000  1.0 -0.1907461932
S  S10  1  0.91987000  0.76087000  0.70316000  1.0 -0.1907461932
S  S11  1  0.70316000  0.91987000  0.76087000  1.0 -0.1907461932
S  S12  1  0.76087000  0.70316000  0.91987000  1.0 -0.1907461932
S  S13  1  0.22893000  0.44524000  0.38415000  1.0 -0.2217884649
S  S14  1  0.44524000  0.38415000  0.22893000  1.0 -0.2217884649
S  S15  1  0.38415000  0.22893000  0.44524000  1.0 -0.2217884649
S  S16  1  0.05476000  0.27107000  0.11585000  1.0 -0.2217884649
S  S17  1  0.11585000  0.05476000  0.27107000  1.0 -0.2217884649
S  S18  1  0.27107000  0.11585000  0.05476000  1.0 -0.2217884649
S  S19  1  0.77107000  0.55476000  0.61585000  1.0 -0.2217884649
S  S20  1  0.55476000  0.61585000  0.77107000  1.0 -0.2217884649
S  S21  1  0.61585000  0.77107000  0.55476000  1.0 -0.2217884649
S  S22  1  0.94524000  0.72893000  0.88415000  1.0 -0.2217884649
S  S23  1  0.88415000  0.94524000  0.72893000  1.0 -0.2217884649
S  S24  1  0.72893000  0.88415000  0.94524000  1.0 -0.2217884649
S  S25  1  0.09451000  0.88121000  0.93761000  1.0 0.0519837791
S  S26  1  0.88121000  0.93761000  0.09451000  1.0 0.0519837791
S  S27  1  0.93761000  0.09451000  0.88121000  1.0 0.0519837791
S  S28  1  0.61879000  0.40549000  0.56239000  1.0 0.0519837791
S  S29  1  0.56239000  0.61879000  0.40549000  1.0 0.0519837791
S  S30  1  0.40549000  0.56239000  0.61879000  1.0 0.0519837791
S  S31  1  0.90549000  0.11879000  0.06239000  1.0 0.0519837791
S  S32  1  0.11879000  0.06239000  0.90549000  1.0 0.0519837791
S  S33  1  0.06239000  0.90549000  0.11879000  1.0 0.0519837791
S  S34  1  0.38121000  0.59451000  0.43761000  1.0 0.0519837791
S  S35  1  0.43761000  0.38121000  0.59451000  1.0 0.0519837791
S  S36  1  0.59451000  0.43761000  0.38121000  1.0 0.0519837791
S  S37  1  0.08840000  0.91010000  0.95830000  1.0 -0.0659508942
S  S38  1  0.91010000  0.95830000  0.08840000  1.0 -0.0659508942
S  S39  1  0.95830000  0.08840000  0.91010000  1.0 -0.0659508942
S  S40  1  0.58990000  0.41160000  0.54170000  1.0 -0.0659508942
S  S41  1  0.54170000  0.58990000  0.41160000  1.0 -0.0659508942
S  S42  1  0.41160000  0.54170000  0.58990000  1.0 -0.0659508942
S  S43  1  0.91160000  0.08990000  0.04170000  1.0 -0.0659508942
S  S44  1  0.08990000  0.04170000  0.91160000  1.0 -0.0659508942
S  S45  1  0.04170000  0.91160000  0.08990000  1.0 -0.0659508942
S  S46  1  0.41010000  0.58840000  0.45830000  1.0 -0.0659508942
S  S47  1  0.45830000  0.41010000  0.58840000  1.0 -0.0659508942
S  S48  1  0.58840000  0.45830000  0.41010000  1.0 -0.0659508942
N  N1  1  0.27223000  0.52513000  0.17543000  1.0 -0.2265360493
N  N2  1  0.52513000  0.17543000  0.27223000  1.0 -0.2265360493
N  N3  1  0.17543000  0.27223000  0.52513000  1.0 -0.2265360493
N  N4  1  0.97487000  0.22777000  0.32457000  1.0 -0.2265360493
N  N5  1  0.32457000  0.97487000  0.22777000  1.0 -0.2265360493
N  N6  1  0.22777000  0.32457000  0.97487000  1.0 -0.2265360493
N  N7  1  0.72777000  0.47487000  0.82457000  1.0 -0.2265360493
N  N8  1  0.47487000  0.82457000  0.72777000  1.0 -0.2265360493
N  N9  1  0.82457000  0.72777000  0.47487000  1.0 -0.2265360493
N  N10  1  0.02513000  0.77223000  0.67543000  1.0 -0.2265360493
N  N11  1  0.67543000  0.02513000  0.77223000  1.0 -0.2265360493
N  N12  1  0.77223000  0.67543000  0.02513000  1.0 -0.2265360493
N  N13  1  0.12199000  0.47239000  0.37619000  1.0 -0.2265360493
N  N14  1  0.47239000  0.37619000  0.12199000  1.0 -0.2265360493
N  N15  1  0.37619000  0.12199000  0.47239000  1.0 -0.2265360493
N  N16  1  0.02761000  0.37801000  0.12381000  1.0 -0.2265360493
N  N17  1  0.12381000  0.02761000  0.37801000  1.0 -0.2265360493
N  N18  1  0.37801000  0.12381000  0.02761000  1.0 -0.2265360493
N  N19  1  0.87801000  0.52761000  0.62381000  1.0 -0.2265360493
N  N20  1  0.52761000  0.62381000  0.87801000  1.0 -0.2265360493
N  N21  1  0.62381000  0.87801000  0.52761000  1.0 -0.2265360493
N  N22  1  0.97239000  0.62199000  0.87619000  1.0 -0.2265360493
N  N23  1  0.87619000  0.97239000  0.62199000  1.0 -0.2265360493
N  N24  1  0.62199000  0.87619000  0.97239000  1.0 -0.2265360493
N  N25  1  0.20251000  0.85211000  0.94571000  1.0 -0.2139304927
N  N26  1  0.85211000  0.94571000  0.20251000  1.0 -0.2139304927
N  N27  1  0.94571000  0.20251000  0.85211000  1.0 -0.2139304927
N  N28  1  0.64789000  0.29749000  0.55429000  1.0 -0.2139304927
N  N29  1  0.55429000  0.64789000  0.29749000  1.0 -0.2139304927
N  N30  1  0.29749000  0.55429000  0.64789000  1.0 -0.2139304927
N  N31  1  0.79749000  0.14789000  0.05429000  1.0 -0.2139304927
N  N32  1  0.14789000  0.05429000  0.79749000  1.0 -0.2139304927
N  N33  1  0.05429000  0.79749000  0.14789000  1.0 -0.2139304927
N  N34  1  0.35211000  0.70251000  0.44571000  1.0 -0.2139304927
N  N35  1  0.44571000  0.35211000  0.70251000  1.0 -0.2139304927
N  N36  1  0.70251000  0.44571000  0.35211000  1.0 -0.2139304927
O  O1  1  0.24514000  0.51614000  0.04324000  1.0 -0.6121574952
O  O2  1  0.51614000  0.04324000  0.24514000  1.0 -0.6121574952
O  O3  1  0.04324000  0.24514000  0.51614000  1.0 -0.6121574952
O  O4  1  0.98386000  0.25486000  0.45676000  1.0 -0.6121574952
O  O5  1  0.45676000  0.98386000  0.25486000  1.0 -0.6121574952
O  O6  1  0.25486000  0.45676000  0.98386000  1.0 -0.6121574952
O  O7  1  0.75486000  0.48386000  0.95676000  1.0 -0.6121574952
O  O8  1  0.48386000  0.95676000  0.75486000  1.0 -0.6121574952
O  O9  1  0.95676000  0.75486000  0.48386000  1.0 -0.6121574952
O  O10  1  0.01614000  0.74514000  0.54324000  1.0 -0.6121574952
O  O11  1  0.54324000  0.01614000  0.74514000  1.0 -0.6121574952
O  O12  1  0.74514000  0.54324000  0.01614000  1.0 -0.6121574952
O  O13  1  0.13409000  0.56569000  0.11089000  1.0 -0.5101257626
O  O14  1  0.56569000  0.11089000  0.13409000  1.0 -0.5101257626
O  O15  1  0.11089000  0.13409000  0.56569000  1.0 -0.5101257626
O  O16  1  0.93431000  0.36591000  0.38911000  1.0 -0.5101257626
O  O17  1  0.38911000  0.93431000  0.36591000  1.0 -0.5101257626
O  O18  1  0.36591000  0.38911000  0.93431000  1.0 -0.5101257626
O  O19  1  0.86591000  0.43431000  0.88911000  1.0 -0.5101257626
O  O20  1  0.43431000  0.88911000  0.86591000  1.0 -0.5101257626
O  O21  1  0.88911000  0.86591000  0.43431000  1.0 -0.5101257626
O  O22  1  0.06569000  0.63409000  0.61089000  1.0 -0.5101257626
O  O23  1  0.61089000  0.06569000  0.63409000  1.0 -0.5101257626
O  O24  1  0.63409000  0.61089000  0.06569000  1.0 -0.5101257626
O  O25  1  0.12821000  0.42891000  0.13751000  1.0 -0.4561210912
O  O26  1  0.42891000  0.13751000  0.12821000  1.0 -0.4543243262
O  O27  1  0.13751000  0.12821000  0.42891000  1.0 -0.4561210912
O  O28  1  0.07109000  0.37179000  0.36249000  1.0 -0.4561210912
O  O29  1  0.36249000  0.07109000  0.37179000  1.0 -0.4561210912
O  O30  1  0.37179000  0.36249000  0.07109000  1.0 -0.4543243262
O  O31  1  0.87179000  0.57109000  0.86249000  1.0 -0.4561210912
O  O32  1  0.57109000  0.86249000  0.87179000  1.0 -0.4561210912
O  O33  1  0.86249000  0.87179000  0.57109000  1.0 -0.4543243262
O  O34  1  0.92891000  0.62821000  0.63751000  1.0 -0.4543243262
O  O35  1  0.63751000  0.92891000  0.62821000  1.0 -0.4543243262
O  O36  1  0.62821000  0.63751000  0.92891000  1.0 -0.4561210912
O  O37  1  0.17113000  0.63853000  0.92973000  1.0 0.1898885857
O  O38  1  0.63853000  0.92973000  0.17113000  1.0 0.1898885857
O  O39  1  0.92973000  0.17113000  0.63853000  1.0 0.1898885857
O  O40  1  0.86147000  0.32887000  0.57027000  1.0 0.1898885857
O  O41  1  0.57027000  0.86147000  0.32887000  1.0 0.1898885857
O  O42  1  0.32887000  0.57027000  0.86147000  1.0 0.1898885857
O  O43  1  0.82887000  0.36147000  0.07027000  1.0 0.1898885857
O  O44  1  0.36147000  0.07027000  0.82887000  1.0 0.1898885857
O  O45  1  0.07027000  0.82887000  0.36147000  1.0 0.1898885857
O  O46  1  0.13853000  0.67113000  0.42973000  1.0 0.1898885857
O  O47  1  0.42973000  0.13853000  0.67113000  1.0 0.1898885857
O  O48  1  0.67113000  0.42973000  0.13853000  1.0 0.1898885857
O  O49  1  0.01842000  0.61132000  0.08832000  1.0 -0.4706458152
O  O50  1  0.61132000  0.08832000  0.01842000  1.0 -0.4706458152
O  O51  1  0.08832000  0.01842000  0.61132000  1.0 -0.4706458152
O  O52  1  0.88868000  0.48158000  0.41168000  1.0 -0.4706458152
O  O53  1  0.41168000  0.88868000  0.48158000  1.0 -0.4706458152
O  O54  1  0.48158000  0.41168000  0.88868000  1.0 -0.4706458152
O  O55  1  0.98158000  0.38868000  0.91168000  1.0 -0.4706458152
O  O56  1  0.38868000  0.91168000  0.98158000  1.0 -0.4706458152
O  O57  1  0.91168000  0.98158000  0.38868000  1.0 -0.4706458152
O  O58  1  0.11132000  0.51842000  0.58832000  1.0 -0.4706458152
O  O59  1  0.58832000  0.11132000  0.51842000  1.0 -0.4706458152
O  O60  1  0.51842000  0.58832000  0.11132000  1.0 -0.4706458152
O  O61  1  0.05234000  0.59684000  0.48384000  1.0 -0.5552580867
O  O62  1  0.59684000  0.48384000  0.05234000  1.0 -0.5552580867
O  O63  1  0.48384000  0.05234000  0.59684000  1.0 -0.5548301253
O  O64  1  0.90316000  0.44766000  0.01616000  1.0 -0.5552580867
O  O65  1  0.01616000  0.90316000  0.44766000  1.0 -0.5548301253
O  O66  1  0.44766000  0.01616000  0.90316000  1.0 -0.5548301253
O  O67  1  0.94766000  0.40316000  0.51616000  1.0 -0.5552580867
O  O68  1  0.40316000  0.51616000  0.94766000  1.0 -0.5548301253
O  O69  1  0.51616000  0.94766000  0.40316000  1.0 -0.5552580867
O  O70  1  0.09684000  0.55234000  0.98384000  1.0 -0.5552580867
O  O71  1  0.98384000  0.09684000  0.55234000  1.0 -0.5552580867
O  O72  1  0.55234000  0.98384000  0.09684000  1.0 -0.5552580867
O  O73  1  0.15886000  0.58576000  0.39326000  1.0 -0.4706458152
O  O74  1  0.58576000  0.39326000  0.15886000  1.0 -0.4706458152
O  O75  1  0.39326000  0.15886000  0.58576000  1.0 -0.4706458152
O  O76  1  0.91424000  0.34114000  0.10674000  1.0 -0.4706458152
O  O77  1  0.10674000  0.91424000  0.34114000  1.0 -0.4706458152
O  O78  1  0.34114000  0.10674000  0.91424000  1.0 -0.4706458152
O  O79  1  0.84114000  0.41424000  0.60674000  1.0 -0.4706458152
O  O80  1  0.41424000  0.60674000  0.84114000  1.0 -0.4706458152
O  O81  1  0.60674000  0.84114000  0.41424000  1.0 -0.4706458152
O  O82  1  0.08576000  0.65886000  0.89326000  1.0 -0.4706458152
O  O83  1  0.89326000  0.08576000  0.65886000  1.0 -0.4706458152
O  O84  1  0.65886000  0.89326000  0.08576000  1.0 -0.4706458152
O  O85  1  0.16810000  0.73610000  0.92870000  1.0 -0.5101257626
O  O86  1  0.73610000  0.92870000  0.16810000  1.0 -0.5101257626
O  O87  1  0.92870000  0.16810000  0.73610000  1.0 -0.5101257626
O  O88  1  0.76390000  0.33190000  0.57130000  1.0 -0.5101257626
O  O89  1  0.57130000  0.76390000  0.33190000  1.0 -0.5101257626
O  O90  1  0.33190000  0.57130000  0.76390000  1.0 -0.5101257626
O  O91  1  0.83190000  0.26390000  0.07130000  1.0 -0.5101257626
O  O92  1  0.26390000  0.07130000  0.83190000  1.0 -0.5101257626
O  O93  1  0.07130000  0.83190000  0.26390000  1.0 -0.5101257626
O  O94  1  0.23610000  0.66810000  0.42870000  1.0 -0.5101257626
O  O95  1  0.42870000  0.23610000  0.66810000  1.0 -0.5101257626
O  O96  1  0.66810000  0.42870000  0.23610000  1.0 -0.5101257626
O  O97  1  0.23720000  0.78320000  0.81250000  1.0 -0.4974186832
O  O98  1  0.78320000  0.81250000  0.23720000  1.0 -0.4974186832
O  O99  1  0.81250000  0.23720000  0.78320000  1.0 -0.4974186832
O  O100  1  0.71680000  0.26280000  0.68750000  1.0 -0.4974186832
O  O101  1  0.68750000  0.71680000  0.26280000  1.0 -0.4974186832
O  O102  1  0.26280000  0.68750000  0.71680000  1.0 -0.4974186832
O  O103  1  0.76280000  0.21680000  0.18750000  1.0 -0.4974186832
O  O104  1  0.21680000  0.18750000  0.76280000  1.0 -0.4974186832
O  O105  1  0.18750000  0.76280000  0.21680000  1.0 -0.4974186832
O  O106  1  0.28320000  0.73720000  0.31250000  1.0 -0.4974186832
O  O107  1  0.31250000  0.28320000  0.73720000  1.0 -0.4974186832
O  O108  1  0.73720000  0.31250000  0.28320000  1.0 -0.4974186832
O  O109  1  0.04970000  0.50760000  0.25490000  1.0 0.2670811724
O  O110  1  0.50760000  0.25490000  0.04970000  1.0 0.2670811724
O  O111  1  0.25490000  0.04970000  0.50760000  1.0 0.2670811724
O  O112  1  0.99240000  0.45030000  0.24510000  1.0 0.2670811724
O  O113  1  0.24510000  0.99240000  0.45030000  1.0 0.2670811724
O  O114  1  0.45030000  0.24510000  0.99240000  1.0 0.2670811724
O  O115  1  0.95030000  0.49240000  0.74510000  1.0 0.2670811724
O  O116  1  0.49240000  0.74510000  0.95030000  1.0 0.2670811724
O  O117  1  0.74510000  0.95030000  0.49240000  1.0 0.2670811724
O  O118  1  0.00760000  0.54970000  0.75490000  1.0 0.2670811724
O  O119  1  0.75490000  0.00760000  0.54970000  1.0 0.2670811724
O  O120  1  0.54970000  0.75490000  0.00760000  1.0 0.2670811724
