# DDEC6 charges by PACMAN v1.1 (https://github.com/mtap-research/PACMAN-charge/)
data_OLOPUC_ASR_pacman
_symmetry_space_group_name_H-M   'P 1'
_cell_length_a   14.28940000
_cell_length_b   14.28940000
_cell_length_c   14.28940000
_cell_angle_alpha   107.08400000
_cell_angle_beta   107.08400000
_cell_angle_gamma   107.08400000
_symmetry_Int_Tables_number   1
_chemical_formula_structural   Zn3H2(C4O3)2
_chemical_formula_sum   'Zn18 H12 C48 O36'
_cell_volume   2424.30653802
_cell_formula_units_Z   6
loop_
 _symmetry_equiv_pos_site_id
 _symmetry_equiv_pos_as_xyz
  1  'x, y, z'
loop_
 _atom_site_type_symbol
 _atom_site_label
 _atom_site_symmetry_multiplicity
 _atom_site_fract_x
 _atom_site_fract_y
 _atom_site_fract_z
 _atom_site_occupancy
 _atom_site_charge
Zn  Zn1  1  0.17838000  0.75000000  0.32162000  1.0 0.9330290845
Zn  Zn2  1  0.75000000  0.32162000  0.17838000  1.0 0.9330290845
Zn  Zn3  1  0.32162000  0.17838000  0.75000000  1.0 0.9330290845
Zn  Zn4  1  0.82162000  0.25000000  0.67838000  1.0 0.9330290845
Zn  Zn5  1  0.25000000  0.67838000  0.82162000  1.0 0.9330290845
Zn  Zn6  1  0.67838000  0.82162000  0.25000000  1.0 0.9330290845
Zn  Zn7  1  0.31461000  0.71971000  0.19455000  1.0 0.5463350704
Zn  Zn8  1  0.71971000  0.19455000  0.31461000  1.0 0.5463350704
Zn  Zn9  1  0.19455000  0.31461000  0.71971000  1.0 0.5463350704
Zn  Zn10  1  0.18539000  0.30545000  0.78029000  1.0 0.5463350704
Zn  Zn11  1  0.78029000  0.18539000  0.30545000  1.0 0.5463350704
Zn  Zn12  1  0.30545000  0.78029000  0.18539000  1.0 0.5463350704
Zn  Zn13  1  0.68539000  0.28029000  0.80545000  1.0 0.5463350704
Zn  Zn14  1  0.28029000  0.80545000  0.68539000  1.0 0.5463350704
Zn  Zn15  1  0.80545000  0.68539000  0.28029000  1.0 0.5463350704
Zn  Zn16  1  0.81461000  0.69455000  0.21971000  1.0 0.5463350704
Zn  Zn17  1  0.21971000  0.81461000  0.69455000  1.0 0.5463350704
Zn  Zn18  1  0.69455000  0.21971000  0.81461000  1.0 0.5463350704
H  H1  1  0.00250000  0.45670000  0.83130000  1.0 0.1329768117
H  H2  1  0.45670000  0.83130000  0.00250000  1.0 0.1329768117
H  H3  1  0.83130000  0.00250000  0.45670000  1.0 0.1329768117
H  H4  1  0.49750000  0.66870000  0.04330000  1.0 0.1329768117
H  H5  1  0.04330000  0.49750000  0.66870000  1.0 0.1329768117
H  H6  1  0.66870000  0.04330000  0.49750000  1.0 0.1329768117
H  H7  1  0.99750000  0.54330000  0.16870000  1.0 0.1329768117
H  H8  1  0.54330000  0.16870000  0.99750000  1.0 0.1329768117
H  H9  1  0.16870000  0.99750000  0.54330000  1.0 0.1329768117
H  H10  1  0.50250000  0.33130000  0.95670000  1.0 0.1329768117
H  H11  1  0.95670000  0.50250000  0.33130000  1.0 0.1329768117
H  H12  1  0.33130000  0.95670000  0.50250000  1.0 0.1329768117
C  C1  1  0.08260000  0.56990000  0.98570000  1.0 -0.1743021021
C  C2  1  0.56990000  0.98570000  0.08260000  1.0 -0.1743021021
C  C3  1  0.98570000  0.08260000  0.56990000  1.0 -0.1743021021
C  C4  1  0.41740000  0.51430000  0.93010000  1.0 -0.1743021021
C  C5  1  0.93010000  0.41740000  0.51430000  1.0 -0.1743021021
C  C6  1  0.51430000  0.93010000  0.41740000  1.0 -0.1743021021
C  C7  1  0.91740000  0.43010000  0.01430000  1.0 -0.1743021021
C  C8  1  0.43010000  0.01430000  0.91740000  1.0 -0.1743021021
C  C9  1  0.01430000  0.91740000  0.43010000  1.0 -0.1743021021
C  C10  1  0.58260000  0.48570000  0.06990000  1.0 -0.1743021021
C  C11  1  0.06990000  0.58260000  0.48570000  1.0 -0.1743021021
C  C12  1  0.48570000  0.06990000  0.58260000  1.0 -0.1743021021
C  C13  1  0.00190000  0.47390000  0.89900000  1.0 -0.2242509868
C  C14  1  0.47390000  0.89900000  0.00190000  1.0 -0.2242509868
C  C15  1  0.89900000  0.00190000  0.47390000  1.0 -0.2242509868
C  C16  1  0.49810000  0.60100000  0.02610000  1.0 -0.2242509868
C  C17  1  0.02610000  0.49810000  0.60100000  1.0 -0.2242509868
C  C18  1  0.60100000  0.02610000  0.49810000  1.0 -0.2242509868
C  C19  1  0.99810000  0.52610000  0.10100000  1.0 -0.2242509868
C  C20  1  0.52610000  0.10100000  0.99810000  1.0 -0.2242509868
C  C21  1  0.10100000  0.99810000  0.52610000  1.0 -0.2242509868
C  C22  1  0.50190000  0.39900000  0.97390000  1.0 -0.2242509868
C  C23  1  0.97390000  0.50190000  0.39900000  1.0 -0.2242509868
C  C24  1  0.39900000  0.97390000  0.50190000  1.0 -0.2242509868
C  C25  1  0.16570000  0.63820000  0.96330000  1.0 0.5795662096
C  C26  1  0.63820000  0.96330000  0.16570000  1.0 0.5795662096
C  C27  1  0.96330000  0.16570000  0.63820000  1.0 0.5795662096
C  C28  1  0.33430000  0.53670000  0.86180000  1.0 0.5795662096
C  C29  1  0.86180000  0.33430000  0.53670000  1.0 0.5795662096
C  C30  1  0.53670000  0.86180000  0.33430000  1.0 0.5795662096
C  C31  1  0.83430000  0.36180000  0.03670000  1.0 0.5795662096
C  C32  1  0.36180000  0.03670000  0.83430000  1.0 0.5795662096
C  C33  1  0.03670000  0.83430000  0.36180000  1.0 0.5795662096
C  C34  1  0.66570000  0.46330000  0.13820000  1.0 0.5795662096
C  C35  1  0.13820000  0.66570000  0.46330000  1.0 0.5795662096
C  C36  1  0.46330000  0.13820000  0.66570000  1.0 0.5795662096
C  C37  1  0.07930000  0.59620000  0.08720000  1.0 0.261022691
C  C38  1  0.59620000  0.08720000  0.07930000  1.0 0.261022691
C  C39  1  0.08720000  0.07930000  0.59620000  1.0 0.261022691
C  C40  1  0.42070000  0.41280000  0.90380000  1.0 0.261022691
C  C41  1  0.90380000  0.42070000  0.41280000  1.0 0.261022691
C  C42  1  0.41280000  0.90380000  0.42070000  1.0 0.261022691
C  C43  1  0.92070000  0.40380000  0.91280000  1.0 0.261022691
C  C44  1  0.40380000  0.91280000  0.92070000  1.0 0.261022691
C  C45  1  0.91280000  0.92070000  0.40380000  1.0 0.261022691
C  C46  1  0.57930000  0.58720000  0.09620000  1.0 0.261022691
C  C47  1  0.09620000  0.57930000  0.58720000  1.0 0.261022691
C  C48  1  0.58720000  0.09620000  0.57930000  1.0 0.261022691
O  O1  1  0.15510000  0.68930000  0.17090000  1.0 -0.5588803897
O  O2  1  0.68930000  0.17090000  0.15510000  1.0 -0.5588803897
O  O3  1  0.17090000  0.15510000  0.68930000  1.0 -0.5588803897
O  O4  1  0.34490000  0.32910000  0.81070000  1.0 -0.5588803897
O  O5  1  0.81070000  0.34490000  0.32910000  1.0 -0.5588803897
O  O6  1  0.32910000  0.81070000  0.34490000  1.0 -0.5588803897
O  O7  1  0.84490000  0.31070000  0.82910000  1.0 -0.5588803897
O  O8  1  0.31070000  0.82910000  0.84490000  1.0 -0.5588803897
O  O9  1  0.82910000  0.84490000  0.31070000  1.0 -0.5588803897
O  O10  1  0.65510000  0.67090000  0.18930000  1.0 -0.5588803897
O  O11  1  0.18930000  0.65510000  0.67090000  1.0 -0.5588803897
O  O12  1  0.67090000  0.18930000  0.65510000  1.0 -0.5588803897
O  O13  1  0.25920000  0.69660000  0.03400000  1.0 -0.4999436845
O  O14  1  0.69660000  0.03400000  0.25920000  1.0 -0.4999436845
O  O15  1  0.03400000  0.25920000  0.69660000  1.0 -0.4999436845
O  O16  1  0.24080000  0.46600000  0.80340000  1.0 -0.4999436845
O  O17  1  0.80340000  0.24080000  0.46600000  1.0 -0.4999436845
O  O18  1  0.46600000  0.80340000  0.24080000  1.0 -0.4999436845
O  O19  1  0.74080000  0.30340000  0.96600000  1.0 -0.4999436845
O  O20  1  0.30340000  0.96600000  0.74080000  1.0 -0.4999436845
O  O21  1  0.96600000  0.74080000  0.30340000  1.0 -0.4999436845
O  O22  1  0.75920000  0.53400000  0.19660000  1.0 -0.4999436845
O  O23  1  0.19660000  0.75920000  0.53400000  1.0 -0.4999436845
O  O24  1  0.53400000  0.19660000  0.75920000  1.0 -0.4999436845
O  O25  1  0.13830000  0.63120000  0.86810000  1.0 -0.529038162
O  O26  1  0.63120000  0.86810000  0.13830000  1.0 -0.529038162
O  O27  1  0.86810000  0.13830000  0.63120000  1.0 -0.529038162
O  O28  1  0.36170000  0.63190000  0.86880000  1.0 -0.529038162
O  O29  1  0.86880000  0.36170000  0.63190000  1.0 -0.529038162
O  O30  1  0.63190000  0.86880000  0.36170000  1.0 -0.529038162
O  O31  1  0.86170000  0.36880000  0.13190000  1.0 -0.529038162
O  O32  1  0.36880000  0.13190000  0.86170000  1.0 -0.529038162
O  O33  1  0.13190000  0.86170000  0.36880000  1.0 -0.529038162
O  O34  1  0.63830000  0.36810000  0.13120000  1.0 -0.529038162
O  O35  1  0.13120000  0.63830000  0.36810000  1.0 -0.529038162
O  O36  1  0.36810000  0.13120000  0.63830000  1.0 -0.529038162
