# DDEC6 charges by PACMAN v1.1 (https://github.com/mtap-research/PACMAN-charge/)
data_OLOPEM_FSR_pacman
_symmetry_space_group_name_H-M   'P 1'
_cell_length_a   14.07620000
_cell_length_b   14.07620000
_cell_length_c   23.29300000
_cell_angle_alpha   81.38470000
_cell_angle_beta   98.61530000
_cell_angle_gamma   146.84200000
_symmetry_Int_Tables_number   1
_chemical_formula_structural   ZnH15C21N2O5
_chemical_formula_sum   'Zn4 H60 C84 N8 O20'
_cell_volume   2493.29209817
_cell_formula_units_Z   4
loop_
 _symmetry_equiv_pos_site_id
 _symmetry_equiv_pos_as_xyz
  1  'x, y, z'
loop_
 _atom_site_type_symbol
 _atom_site_label
 _atom_site_symmetry_multiplicity
 _atom_site_fract_x
 _atom_site_fract_y
 _atom_site_fract_z
 _atom_site_occupancy
 _atom_site_charge
Zn  Zn1  1  0.83542000  0.91504000  0.99836000  1.0 0.8200205947
Zn  Zn2  1  0.91504000  0.83542000  0.50164000  1.0 0.8200205947
Zn  Zn3  1  0.16458000  0.08496000  0.00164000  1.0 0.8200205947
Zn  Zn4  1  0.08496000  0.16458000  0.49836000  1.0 0.8200205947
H  H1  1  0.99180000  0.72100000  0.89410000  1.0 0.1196568078
H  H2  1  0.72100000  0.99180000  0.60590000  1.0 0.1196568078
H  H3  1  0.00820000  0.27900000  0.10590000  1.0 0.1196568078
H  H4  1  0.27900000  0.00820000  0.39410000  1.0 0.1196568078
H  H5  1  0.84850000  0.50290000  0.83630000  1.0 0.1505290752
H  H6  1  0.50290000  0.84850000  0.66370000  1.0 0.1505290752
H  H7  1  0.15150000  0.49710000  0.16370000  1.0 0.1505290752
H  H8  1  0.49710000  0.15150000  0.33630000  1.0 0.1505290752
H  H9  1  0.40090000  0.25690000  0.85560000  1.0 0.1299194005
H  H10  1  0.25690000  0.40090000  0.64440000  1.0 0.1299194005
H  H11  1  0.59910000  0.74310000  0.14440000  1.0 0.1299194005
H  H12  1  0.74310000  0.59910000  0.35560000  1.0 0.1299194005
H  H13  1  0.54060000  0.47180000  0.91310000  1.0 0.1196568078
H  H14  1  0.47180000  0.54060000  0.58690000  1.0 0.1196568078
H  H15  1  0.45940000  0.52820000  0.08690000  1.0 0.1196568078
H  H16  1  0.52820000  0.45940000  0.41310000  1.0 0.1196568078
H  H17  1  0.29860000  0.96880000  0.75150000  1.0 0.1402371523
H  H18  1  0.96880000  0.29860000  0.74850000  1.0 0.1402371523
H  H19  1  0.70140000  0.03120000  0.24850000  1.0 0.1402371523
H  H20  1  0.03120000  0.70140000  0.25150000  1.0 0.1402371523
H  H21  1  0.14670000  0.90030000  0.66580000  1.0 0.1299194005
H  H22  1  0.90030000  0.14670000  0.83420000  1.0 0.1299194005
H  H23  1  0.85330000  0.09970000  0.33420000  1.0 0.1299194005
H  H24  1  0.09970000  0.85330000  0.16580000  1.0 0.1299194005
H  H25  1  0.41080000  0.36560000  0.65860000  1.0 0.1130714128
H  H26  1  0.36560000  0.41080000  0.84140000  1.0 0.1130714128
H  H27  1  0.58920000  0.63440000  0.34140000  1.0 0.1130714128
H  H28  1  0.63440000  0.58920000  0.15860000  1.0 0.1130714128
H  H29  1  0.56400000  0.43400000  0.74230000  1.0 0.1299194005
H  H30  1  0.43400000  0.56400000  0.75770000  1.0 0.1299194005
H  H31  1  0.43600000  0.56600000  0.25770000  1.0 0.1299194005
H  H32  1  0.56600000  0.43600000  0.24230000  1.0 0.1299194005
H  H33  1  0.66280000  0.94260000  0.03080000  1.0 0.1196568078
H  H34  1  0.94260000  0.66280000  0.46920000  1.0 0.1196568078
H  H35  1  0.33720000  0.05740000  0.96920000  1.0 0.1196568078
H  H36  1  0.05740000  0.33720000  0.53080000  1.0 0.1196568078
H  H37  1  0.39710000  0.79530000  0.02210000  1.0 0.1402371523
H  H38  1  0.79530000  0.39710000  0.47790000  1.0 0.1402371523
H  H39  1  0.60290000  0.20470000  0.97790000  1.0 0.1402371523
H  H40  1  0.20470000  0.60290000  0.52210000  1.0 0.1402371523
H  H41  1  0.22260000  0.45400000  0.92800000  1.0 0.1299194005
H  H42  1  0.45400000  0.22260000  0.57200000  1.0 0.1299194005
H  H43  1  0.77740000  0.54600000  0.07200000  1.0 0.1299194005
H  H44  1  0.54600000  0.77740000  0.42800000  1.0 0.1299194005
H  H45  1  0.50170000  0.62250000  0.93550000  1.0 0.1196568078
H  H46  1  0.62250000  0.50170000  0.56450000  1.0 0.1196568078
H  H47  1  0.49830000  0.37750000  0.06450000  1.0 0.1196568078
H  H48  1  0.37750000  0.49830000  0.43550000  1.0 0.1196568078
H  H49  1  0.97570000  0.37410000  0.89730000  1.0 0.1505290752
H  H50  1  0.37410000  0.97570000  0.60270000  1.0 0.1505290752
H  H51  1  0.02430000  0.62590000  0.10270000  1.0 0.1505290752
H  H52  1  0.62590000  0.02430000  0.39730000  1.0 0.1505290752
H  H53  1  0.97000000  0.27900000  0.94560000  1.0 0.1505290752
H  H54  1  0.27900000  0.97000000  0.55440000  1.0 0.1505290752
H  H55  1  0.03000000  0.72100000  0.05440000  1.0 0.1505290752
H  H56  1  0.72100000  0.03000000  0.44560000  1.0 0.1505290752
H  H57  1  0.85170000  0.26950000  0.94900000  1.0 0.1402371523
H  H58  1  0.26950000  0.85170000  0.55100000  1.0 0.1402371523
H  H59  1  0.14830000  0.73050000  0.05100000  1.0 0.1402371523
H  H60  1  0.73050000  0.14830000  0.44900000  1.0 0.1402371523
C  C1  1  0.87012000  0.76168000  0.94440000  1.0 0.5696805725
C  C2  1  0.76168000  0.87012000  0.55560000  1.0 0.5696805725
C  C3  1  0.12988000  0.23832000  0.05560000  1.0 0.5696805725
C  C4  1  0.23832000  0.12988000  0.44440000  1.0 0.5696805725
C  C5  1  0.78122000  0.62138000  0.90880000  1.0 -0.0501224203
C  C6  1  0.62138000  0.78122000  0.59120000  1.0 -0.0501224203
C  C7  1  0.21878000  0.37862000  0.09120000  1.0 -0.0501224203
C  C8  1  0.37862000  0.21878000  0.40880000  1.0 -0.0501224203
C  C9  1  0.87290000  0.62890000  0.88590000  1.0 -0.082566469
C  C10  1  0.62890000  0.87290000  0.61410000  1.0 -0.082566469
C  C11  1  0.12710000  0.37110000  0.11410000  1.0 -0.082566469
C  C12  1  0.37110000  0.12710000  0.38590000  1.0 -0.082566469
C  C13  1  0.78720000  0.49920000  0.85080000  1.0 -0.1938938414
C  C14  1  0.49920000  0.78720000  0.64920000  1.0 -0.1938938414
C  C15  1  0.21280000  0.50080000  0.14920000  1.0 -0.1938938414
C  C16  1  0.50080000  0.21280000  0.35080000  1.0 -0.1938938414
C  C17  1  0.62040000  0.37120000  0.83800000  1.0 0.2268668497
C  C18  1  0.37120000  0.62040000  0.66200000  1.0 0.2268668497
C  C19  1  0.37960000  0.62880000  0.16200000  1.0 0.2268668497
C  C20  1  0.62880000  0.37960000  0.33800000  1.0 0.2268668497
C  C21  1  0.52080000  0.35300000  0.86260000  1.0 -0.2005405938
C  C22  1  0.35300000  0.52080000  0.63740000  1.0 -0.2005405938
C  C23  1  0.47920000  0.64700000  0.13740000  1.0 -0.2005405938
C  C24  1  0.64700000  0.47920000  0.36260000  1.0 -0.2005405938
C  C25  1  0.60442000  0.48038000  0.89710000  1.0 -0.0861377036
C  C26  1  0.48038000  0.60442000  0.60290000  1.0 -0.0861377036
C  C27  1  0.39558000  0.51962000  0.10290000  1.0 -0.0861377036
C  C28  1  0.51962000  0.39558000  0.39710000  1.0 -0.0861377036
C  C29  1  0.44420000  0.20600000  0.75420000  1.0 0.2400577004
C  C30  1  0.20600000  0.44420000  0.74580000  1.0 0.2400577004
C  C31  1  0.55580000  0.79400000  0.24580000  1.0 0.2400577004
C  C32  1  0.79400000  0.55580000  0.25420000  1.0 0.2400577004
C  C33  1  0.32160000  0.04920000  0.73230000  1.0 -0.2005405938
C  C34  1  0.04920000  0.32160000  0.76770000  1.0 -0.2005405938
C  C35  1  0.67840000  0.95080000  0.26770000  1.0 -0.2005405938
C  C36  1  0.95080000  0.67840000  0.23230000  1.0 -0.2005405938
C  C37  1  0.22980000  0.00800000  0.68130000  1.0 -0.082566469
C  C38  1  0.00800000  0.22980000  0.81870000  1.0 -0.082566469
C  C39  1  0.77020000  0.99200000  0.31870000  1.0 -0.082566469
C  C40  1  0.99200000  0.77020000  0.18130000  1.0 -0.082566469
C  C41  1  0.25922000  0.12358000  0.65310000  1.0 -0.0731303086
C  C42  1  0.12358000  0.25922000  0.84690000  1.0 -0.0731303086
C  C43  1  0.74078000  0.87642000  0.34690000  1.0 -0.0731303086
C  C44  1  0.87642000  0.74078000  0.15310000  1.0 -0.0731303086
C  C45  1  0.38710000  0.28430000  0.67710000  1.0 -0.0861377036
C  C46  1  0.28430000  0.38710000  0.82290000  1.0 -0.0861377036
C  C47  1  0.61290000  0.71570000  0.32290000  1.0 -0.0861377036
C  C48  1  0.71570000  0.61290000  0.17710000  1.0 -0.0861377036
C  C49  1  0.47880000  0.32560000  0.72690000  1.0 -0.2079400932
C  C50  1  0.32560000  0.47880000  0.77310000  1.0 -0.2079400932
C  C51  1  0.52120000  0.67440000  0.27310000  1.0 -0.2079400932
C  C52  1  0.67440000  0.52120000  0.22690000  1.0 -0.2079400932
C  C53  1  0.16632000  0.08348000  0.59800000  1.0 0.5696805725
C  C54  1  0.08348000  0.16632000  0.90200000  1.0 0.5696805725
C  C55  1  0.83368000  0.91652000  0.40200000  1.0 0.5696805725
C  C56  1  0.91652000  0.83368000  0.09800000  1.0 0.5696805725
C  C57  1  0.57304000  0.84276000  0.00960000  1.0 0.0776995113
C  C58  1  0.84276000  0.57304000  0.49040000  1.0 0.0776995113
C  C59  1  0.42696000  0.15724000  0.99040000  1.0 0.0776995113
C  C60  1  0.15724000  0.42696000  0.50960000  1.0 0.0776995113
C  C61  1  0.41293000  0.75387000  0.00480000  1.0 -0.1661229645
C  C62  1  0.75387000  0.41293000  0.49520000  1.0 -0.1661229645
C  C63  1  0.58707000  0.24613000  0.99520000  1.0 -0.1661229645
C  C64  1  0.24613000  0.58707000  0.50480000  1.0 -0.1661229645
C  C65  1  0.27911000  0.60689000  0.97510000  1.0 0.0742007951
C  C66  1  0.60689000  0.27911000  0.52490000  1.0 0.0742007951
C  C67  1  0.72089000  0.39311000  0.02490000  1.0 0.0742007951
C  C68  1  0.39311000  0.72089000  0.47510000  1.0 0.0742007951
C  C69  1  0.31070000  0.55430000  0.94900000  1.0 -0.1786400182
C  C70  1  0.55430000  0.31070000  0.55100000  1.0 -0.1786400182
C  C71  1  0.68930000  0.44570000  0.05100000  1.0 -0.1786400182
C  C72  1  0.44570000  0.68930000  0.44900000  1.0 -0.1786400182
C  C73  1  0.47920000  0.65560000  0.95460000  1.0 0.1042665253
C  C74  1  0.65560000  0.47920000  0.54540000  1.0 0.1042665253
C  C75  1  0.52080000  0.34440000  0.04540000  1.0 0.1042665253
C  C76  1  0.34440000  0.52080000  0.45460000  1.0 0.1042665253
C  C77  1  0.10219000  0.49981000  0.97200000  1.0 0.2555613229
C  C78  1  0.49981000  0.10219000  0.52800000  1.0 0.2555613229
C  C79  1  0.89781000  0.50019000  0.02800000  1.0 0.2555613229
C  C80  1  0.50019000  0.89781000  0.47200000  1.0 0.2555613229
C  C81  1  0.96260000  0.34180000  0.93800000  1.0 -0.5147549128
C  C82  1  0.34180000  0.96260000  0.56200000  1.0 -0.5147549128
C  C83  1  0.03740000  0.65820000  0.06200000  1.0 -0.5147549128
C  C84  1  0.65820000  0.03740000  0.43800000  1.0 -0.5147549128
N  N1  1  0.60425000  0.79195000  0.98518000  1.0 -0.2079400932
N  N2  1  0.79195000  0.60425000  0.51482000  1.0 -0.2079400932
N  N3  1  0.39575000  0.20805000  0.01482000  1.0 -0.2079400932
N  N4  1  0.20805000  0.39575000  0.48518000  1.0 -0.2079400932
N  N5  1  0.08598000  0.55442000  0.00090000  1.0 -0.2482818505
N  N6  1  0.55442000  0.08598000  0.49910000  1.0 -0.2482818505
N  N7  1  0.91402000  0.44558000  0.99910000  1.0 -0.2482818505
N  N8  1  0.44558000  0.91402000  0.50090000  1.0 -0.2482818505
O  O1  1  0.78055000  0.75265000  0.95847000  1.0 -0.5426019942
O  O2  1  0.75265000  0.78055000  0.54153000  1.0 -0.5426019942
O  O3  1  0.21945000  0.24735000  0.04153000  1.0 -0.5426019942
O  O4  1  0.24735000  0.21945000  0.45847000  1.0 -0.5426019942
O  O5  1  0.02751000  0.87869000  0.95785000  1.0 -0.5296661472
O  O6  1  0.87869000  0.02751000  0.54215000  1.0 -0.5296661472
O  O7  1  0.97249000  0.12131000  0.04215000  1.0 -0.5296661472
O  O8  1  0.12131000  0.97249000  0.45785000  1.0 -0.5296661472
O  O9  1  0.53755000  0.24265000  0.80340000  1.0 -0.2172546415
O  O10  1  0.24265000  0.53755000  0.69660000  1.0 -0.2172546415
O  O11  1  0.46245000  0.75735000  0.19660000  1.0 -0.2172546415
O  O12  1  0.75735000  0.46245000  0.30340000  1.0 -0.2172546415
O  O13  1  0.06614000  0.94386000  0.57661000  1.0 -0.5296661472
O  O14  1  0.94386000  0.06614000  0.92339000  1.0 -0.5296661472
O  O15  1  0.93386000  0.05614000  0.42339000  1.0 -0.5296661472
O  O16  1  0.05614000  0.93386000  0.07661000  1.0 -0.5296661472
O  O17  1  0.19306000  0.19034000  0.57582000  1.0 -0.5232044076
O  O18  1  0.19034000  0.19306000  0.92418000  1.0 -0.5232044076
O  O19  1  0.80694000  0.80966000  0.42418000  1.0 -0.5232044076
O  O20  1  0.80966000  0.80694000  0.07582000  1.0 -0.5232044076
