# DDEC6 charges by PACMAN v1.1 (https://github.com/mtap-research/PACMAN-charge/)
data_OMIPEH_ASR_pacman
_symmetry_space_group_name_H-M   'P 1'
_cell_length_a   31.44800000
_cell_length_b   31.44800000
_cell_length_c   31.44800000
_cell_angle_alpha   60.00000000
_cell_angle_beta   60.00000000
_cell_angle_gamma   60.00000000
_symmetry_Int_Tables_number   1
_chemical_formula_structural   Cu6H9C27N12O13
_chemical_formula_sum   'Cu48 H72 C216 N96 O104'
_cell_volume   21991.96798481
_cell_formula_units_Z   8
loop_
 _symmetry_equiv_pos_site_id
 _symmetry_equiv_pos_as_xyz
  1  'x, y, z'
loop_
 _atom_site_type_symbol
 _atom_site_label
 _atom_site_symmetry_multiplicity
 _atom_site_fract_x
 _atom_site_fract_y
 _atom_site_fract_z
 _atom_site_occupancy
 _atom_site_charge
Cu  Cu1  1  0.00000000  0.00000000  0.33734000  1.0 0.8295631025
Cu  Cu2  1  0.00000000  0.33734000  0.00000000  1.0 0.8295631025
Cu  Cu3  1  0.66266000  0.00000000  0.33734000  1.0 0.8295631025
Cu  Cu4  1  0.00000000  0.66266000  0.33734000  1.0 0.8295631025
Cu  Cu5  1  0.33734000  0.00000000  0.00000000  1.0 0.8244903066
Cu  Cu6  1  0.33734000  0.66266000  0.00000000  1.0 0.8295631025
Cu  Cu7  1  0.66266000  0.33734000  0.00000000  1.0 0.8295631025
Cu  Cu8  1  0.33734000  0.00000000  0.66266000  1.0 0.8295631025
Cu  Cu9  1  0.66266000  0.00000000  0.00000000  1.0 0.8295631025
Cu  Cu10  1  0.00000000  0.66266000  0.00000000  1.0 0.8295631025
Cu  Cu11  1  0.00000000  0.33734000  0.66266000  1.0 0.8295631025
Cu  Cu12  1  0.00000000  0.00000000  0.66266000  1.0 0.8295631025
Cu  Cu13  1  0.00000000  0.00000000  0.25312000  1.0 0.8295631025
Cu  Cu14  1  0.00000000  0.25312000  0.00000000  1.0 0.8295631025
Cu  Cu15  1  0.74688000  0.00000000  0.25312000  1.0 0.8295631025
Cu  Cu16  1  0.00000000  0.74688000  0.25312000  1.0 0.8295631025
Cu  Cu17  1  0.25312000  0.00000000  0.00000000  1.0 0.8295631025
Cu  Cu18  1  0.25312000  0.74688000  0.00000000  1.0 0.8295631025
Cu  Cu19  1  0.74688000  0.25312000  0.00000000  1.0 0.8295631025
Cu  Cu20  1  0.25312000  0.00000000  0.74688000  1.0 0.8295631025
Cu  Cu21  1  0.74688000  0.00000000  0.00000000  1.0 0.8295631025
Cu  Cu22  1  0.00000000  0.74688000  0.00000000  1.0 0.8295631025
Cu  Cu23  1  0.00000000  0.25312000  0.74688000  1.0 0.8295631025
Cu  Cu24  1  0.00000000  0.00000000  0.74688000  1.0 0.8295631025
Cu  Cu25  1  0.97187000  0.27203000  0.37805000  1.0 0.5075807202
Cu  Cu26  1  0.72797000  0.62195000  0.02813000  1.0 0.5075807202
Cu  Cu27  1  0.62195000  0.02813000  0.62195000  1.0 0.5075807202
Cu  Cu28  1  0.72797000  0.62195000  0.62195000  1.0 0.5075807202
Cu  Cu29  1  0.62195000  0.02813000  0.72797000  1.0 0.5075807202
Cu  Cu30  1  0.62195000  0.62195000  0.02813000  1.0 0.5075807202
Cu  Cu31  1  0.62195000  0.62195000  0.72797000  1.0 0.5075807202
Cu  Cu32  1  0.37805000  0.97187000  0.27203000  1.0 0.5075807202
Cu  Cu33  1  0.27203000  0.37805000  0.97187000  1.0 0.5075807202
Cu  Cu34  1  0.37805000  0.27203000  0.37805000  1.0 0.5075807202
Cu  Cu35  1  0.37805000  0.27203000  0.97187000  1.0 0.5075807202
Cu  Cu36  1  0.97187000  0.37805000  0.27203000  1.0 0.5075807202
Cu  Cu37  1  0.97187000  0.37805000  0.37805000  1.0 0.5075807202
Cu  Cu38  1  0.27203000  0.37805000  0.37805000  1.0 0.5075807202
Cu  Cu39  1  0.37805000  0.97187000  0.37805000  1.0 0.5075807202
Cu  Cu40  1  0.37805000  0.37805000  0.27203000  1.0 0.5075807202
Cu  Cu41  1  0.37805000  0.37805000  0.97187000  1.0 0.5075807202
Cu  Cu42  1  0.27203000  0.97187000  0.37805000  1.0 0.5075807202
Cu  Cu43  1  0.02813000  0.72797000  0.62195000  1.0 0.5075807202
Cu  Cu44  1  0.72797000  0.02813000  0.62195000  1.0 0.5075807202
Cu  Cu45  1  0.02813000  0.62195000  0.62195000  1.0 0.5075807202
Cu  Cu46  1  0.62195000  0.72797000  0.02813000  1.0 0.5075807202
Cu  Cu47  1  0.62195000  0.72797000  0.62195000  1.0 0.5075807202
Cu  Cu48  1  0.02813000  0.62195000  0.72797000  1.0 0.5075807202
H  H1  1  0.97238000  0.16224000  0.29084000  1.0 0.1330993278
H  H2  1  0.83776000  0.42546000  0.02762000  1.0 0.1330993278
H  H3  1  0.70916000  0.02762000  0.42546000  1.0 0.1330993278
H  H4  1  0.83776000  0.70916000  0.42546000  1.0 0.1330993278
H  H5  1  0.42546000  0.02762000  0.83776000  1.0 0.1330993278
H  H6  1  0.42546000  0.70916000  0.02762000  1.0 0.1330993278
H  H7  1  0.70916000  0.42546000  0.83776000  1.0 0.1330993278
H  H8  1  0.29084000  0.97238000  0.16224000  1.0 0.1330993278
H  H9  1  0.16224000  0.29084000  0.97238000  1.0 0.1330993278
H  H10  1  0.29084000  0.16224000  0.57454000  1.0 0.1330993278
H  H11  1  0.57454000  0.16224000  0.97238000  1.0 0.1330993278
H  H12  1  0.97238000  0.57454000  0.16224000  1.0 0.1330993278
H  H13  1  0.97238000  0.29084000  0.57454000  1.0 0.1330993278
H  H14  1  0.16224000  0.57454000  0.29084000  1.0 0.1330993278
H  H15  1  0.57454000  0.97238000  0.29084000  1.0 0.1330993278
H  H16  1  0.57454000  0.29084000  0.16224000  1.0 0.1330993278
H  H17  1  0.29084000  0.57454000  0.97238000  1.0 0.1330993278
H  H18  1  0.16224000  0.97238000  0.57454000  1.0 0.1330993278
H  H19  1  0.02762000  0.83776000  0.42546000  1.0 0.1330993278
H  H20  1  0.83776000  0.02762000  0.70916000  1.0 0.1330993278
H  H21  1  0.02762000  0.42546000  0.70916000  1.0 0.1330993278
H  H22  1  0.70916000  0.83776000  0.02762000  1.0 0.1330993278
H  H23  1  0.42546000  0.83776000  0.70916000  1.0 0.1330993278
H  H24  1  0.02762000  0.70916000  0.83776000  1.0 0.1330993278
H  H25  1  0.02762000  0.83776000  0.70916000  1.0 0.1330993278
H  H26  1  0.16224000  0.57454000  0.97238000  1.0 0.1330993278
H  H27  1  0.29084000  0.97238000  0.57454000  1.0 0.1330993278
H  H28  1  0.16224000  0.29084000  0.57454000  1.0 0.1330993278
H  H29  1  0.57454000  0.97238000  0.16224000  1.0 0.1330993278
H  H30  1  0.57454000  0.29084000  0.97238000  1.0 0.1330993278
H  H31  1  0.29084000  0.57454000  0.16224000  1.0 0.1330993278
H  H32  1  0.70916000  0.02762000  0.83776000  1.0 0.1330993278
H  H33  1  0.83776000  0.70916000  0.02762000  1.0 0.1330993278
H  H34  1  0.70916000  0.83776000  0.42546000  1.0 0.1330993278
H  H35  1  0.42546000  0.83776000  0.02762000  1.0 0.1330993278
H  H36  1  0.02762000  0.42546000  0.83776000  1.0 0.1330993278
H  H37  1  0.02762000  0.70916000  0.42546000  1.0 0.1330993278
H  H38  1  0.83776000  0.42546000  0.70916000  1.0 0.1330993278
H  H39  1  0.42546000  0.02762000  0.70916000  1.0 0.1330993278
H  H40  1  0.42546000  0.70916000  0.83776000  1.0 0.1330993278
H  H41  1  0.70916000  0.42546000  0.02762000  1.0 0.1330993278
H  H42  1  0.83776000  0.02762000  0.42546000  1.0 0.1330993278
H  H43  1  0.97238000  0.16224000  0.57454000  1.0 0.1330993278
H  H44  1  0.16224000  0.97238000  0.29084000  1.0 0.1330993278
H  H45  1  0.97238000  0.57454000  0.29084000  1.0 0.1330993278
H  H46  1  0.29084000  0.16224000  0.97238000  1.0 0.1330993278
H  H47  1  0.57454000  0.16224000  0.29084000  1.0 0.1330993278
H  H48  1  0.97238000  0.29084000  0.16224000  1.0 0.1330993278
H  H49  1  0.98601000  0.15955000  0.15955000  1.0 0.1358308268
H  H50  1  0.84045000  0.30511000  0.01399000  1.0 0.1358308268
H  H51  1  0.84045000  0.01399000  0.30511000  1.0 0.1358308268
H  H52  1  0.84045000  0.84045000  0.30511000  1.0 0.1358308268
H  H53  1  0.30511000  0.01399000  0.84045000  1.0 0.1358308268
H  H54  1  0.30511000  0.84045000  0.01399000  1.0 0.1358308268
H  H55  1  0.84045000  0.30511000  0.84045000  1.0 0.1358308268
H  H56  1  0.15955000  0.98601000  0.15955000  1.0 0.1358308268
H  H57  1  0.15955000  0.15955000  0.98601000  1.0 0.1358308268
H  H58  1  0.15955000  0.15955000  0.69489000  1.0 0.1358308268
H  H59  1  0.69489000  0.15955000  0.98601000  1.0 0.1358308268
H  H60  1  0.98601000  0.69489000  0.15955000  1.0 0.1358308268
H  H61  1  0.98601000  0.15955000  0.69489000  1.0 0.1358308268
H  H62  1  0.15955000  0.69489000  0.15955000  1.0 0.1358308268
H  H63  1  0.69489000  0.98601000  0.15955000  1.0 0.1358308268
H  H64  1  0.69489000  0.15955000  0.15955000  1.0 0.1358308268
H  H65  1  0.15955000  0.69489000  0.98601000  1.0 0.1358308268
H  H66  1  0.15955000  0.98601000  0.69489000  1.0 0.1358308268
H  H67  1  0.01399000  0.84045000  0.30511000  1.0 0.1358308268
H  H68  1  0.84045000  0.01399000  0.84045000  1.0 0.1358308268
H  H69  1  0.01399000  0.30511000  0.84045000  1.0 0.1358308268
H  H70  1  0.84045000  0.84045000  0.01399000  1.0 0.1358308268
H  H71  1  0.30511000  0.84045000  0.84045000  1.0 0.1358308268
H  H72  1  0.01399000  0.84045000  0.84045000  1.0 0.1358308268
C  C1  1  0.98148000  0.25600000  0.25600000  1.0 0.3044421354
C  C2  1  0.74400000  0.49348000  0.01852000  1.0 0.3044421354
C  C3  1  0.74400000  0.01852000  0.49348000  1.0 0.3044421354
C  C4  1  0.74400000  0.74400000  0.49348000  1.0 0.3044421354
C  C5  1  0.49348000  0.01852000  0.74400000  1.0 0.3044421354
C  C6  1  0.49348000  0.74400000  0.01852000  1.0 0.3044421354
C  C7  1  0.74400000  0.49348000  0.74400000  1.0 0.3044421354
C  C8  1  0.25600000  0.98148000  0.25600000  1.0 0.305035142
C  C9  1  0.25600000  0.25600000  0.98148000  1.0 0.3044421354
C  C10  1  0.25600000  0.25600000  0.50652000  1.0 0.3044421354
C  C11  1  0.50652000  0.25600000  0.98148000  1.0 0.3044421354
C  C12  1  0.98148000  0.50652000  0.25600000  1.0 0.3044421354
C  C13  1  0.98148000  0.25600000  0.50652000  1.0 0.3044421354
C  C14  1  0.25600000  0.50652000  0.25600000  1.0 0.3044421354
C  C15  1  0.50652000  0.98148000  0.25600000  1.0 0.3044421354
C  C16  1  0.50652000  0.25600000  0.25600000  1.0 0.3044421354
C  C17  1  0.25600000  0.50652000  0.98148000  1.0 0.3044421354
C  C18  1  0.25600000  0.98148000  0.50652000  1.0 0.3044421354
C  C19  1  0.01852000  0.74400000  0.49348000  1.0 0.3044421354
C  C20  1  0.74400000  0.01852000  0.74400000  1.0 0.3044421354
C  C21  1  0.01852000  0.49348000  0.74400000  1.0 0.3044421354
C  C22  1  0.74400000  0.74400000  0.01852000  1.0 0.3044421354
C  C23  1  0.49348000  0.74400000  0.74400000  1.0 0.3044421354
C  C24  1  0.01852000  0.74400000  0.74400000  1.0 0.3044421354
C  C25  1  0.97970000  0.22810000  0.22810000  1.0 0.0482690678
C  C26  1  0.77190000  0.43590000  0.02030000  1.0 0.0482690678
C  C27  1  0.77190000  0.02030000  0.43590000  1.0 0.0482690678
C  C28  1  0.77190000  0.77190000  0.43590000  1.0 0.0482690678
C  C29  1  0.43590000  0.02030000  0.77190000  1.0 0.0482690678
C  C30  1  0.43590000  0.77190000  0.02030000  1.0 0.0482690678
C  C31  1  0.77190000  0.43590000  0.77190000  1.0 0.0482690678
C  C32  1  0.22810000  0.97970000  0.22810000  1.0 0.0482690678
C  C33  1  0.22810000  0.22810000  0.97970000  1.0 0.0482690678
C  C34  1  0.22810000  0.22810000  0.56410000  1.0 0.0482690678
C  C35  1  0.56410000  0.22810000  0.97970000  1.0 0.0482690678
C  C36  1  0.97970000  0.56410000  0.22810000  1.0 0.0482690678
C  C37  1  0.97970000  0.22810000  0.56410000  1.0 0.0482690678
C  C38  1  0.22810000  0.56410000  0.22810000  1.0 0.0482690678
C  C39  1  0.56410000  0.97970000  0.22810000  1.0 0.0482690678
C  C40  1  0.56410000  0.22810000  0.22810000  1.0 0.0482690678
C  C41  1  0.22810000  0.56410000  0.97970000  1.0 0.0482690678
C  C42  1  0.22810000  0.97970000  0.56410000  1.0 0.0482690678
C  C43  1  0.02030000  0.77190000  0.43590000  1.0 0.0482690678
C  C44  1  0.77190000  0.02030000  0.77190000  1.0 0.0482690678
C  C45  1  0.02030000  0.43590000  0.77190000  1.0 0.0482690678
C  C46  1  0.77190000  0.77190000  0.02030000  1.0 0.0482690678
C  C47  1  0.43590000  0.77190000  0.77190000  1.0 0.0482690678
C  C48  1  0.02030000  0.77190000  0.77190000  1.0 0.0482690678
C  C49  1  0.97708000  0.17748000  0.25542000  1.0 -0.0967673806
C  C50  1  0.82252000  0.40998000  0.02292000  1.0 -0.0967673806
C  C51  1  0.74458000  0.02292000  0.40998000  1.0 -0.0967673806
C  C52  1  0.82252000  0.74458000  0.40998000  1.0 -0.0967673806
C  C53  1  0.40998000  0.02292000  0.82252000  1.0 -0.0967673806
C  C54  1  0.40998000  0.74458000  0.02292000  1.0 -0.0967673806
C  C55  1  0.74458000  0.40998000  0.82252000  1.0 -0.0967673806
C  C56  1  0.25542000  0.97708000  0.17748000  1.0 -0.0967673806
C  C57  1  0.17748000  0.25542000  0.97708000  1.0 -0.0967673806
C  C58  1  0.25542000  0.17748000  0.59002000  1.0 -0.0967673806
C  C59  1  0.59002000  0.17748000  0.97708000  1.0 -0.0967673806
C  C60  1  0.97708000  0.59002000  0.17748000  1.0 -0.0967673806
C  C61  1  0.97708000  0.25542000  0.59002000  1.0 -0.0967673806
C  C62  1  0.17748000  0.59002000  0.25542000  1.0 -0.0967673806
C  C63  1  0.59002000  0.97708000  0.25542000  1.0 -0.0967673806
C  C64  1  0.59002000  0.25542000  0.17748000  1.0 -0.0967673806
C  C65  1  0.25542000  0.59002000  0.97708000  1.0 -0.0967673806
C  C66  1  0.17748000  0.97708000  0.59002000  1.0 -0.0967673806
C  C67  1  0.02292000  0.82252000  0.40998000  1.0 -0.0967673806
C  C68  1  0.82252000  0.02292000  0.74458000  1.0 -0.0967673806
C  C69  1  0.02292000  0.40998000  0.74458000  1.0 -0.0967673806
C  C70  1  0.74458000  0.82252000  0.02292000  1.0 -0.0967673806
C  C71  1  0.40998000  0.82252000  0.74458000  1.0 -0.0967673806
C  C72  1  0.02292000  0.74458000  0.82252000  1.0 -0.0967673806
C  C73  1  0.02292000  0.82252000  0.74458000  1.0 -0.0967673806
C  C74  1  0.17748000  0.59002000  0.97708000  1.0 -0.0967673806
C  C75  1  0.25542000  0.97708000  0.59002000  1.0 -0.0967673806
C  C76  1  0.17748000  0.25542000  0.59002000  1.0 -0.0967673806
C  C77  1  0.59002000  0.97708000  0.17748000  1.0 -0.0967673806
C  C78  1  0.59002000  0.25542000  0.97708000  1.0 -0.0967673806
C  C79  1  0.25542000  0.59002000  0.17748000  1.0 -0.0967673806
C  C80  1  0.74458000  0.02292000  0.82252000  1.0 -0.0967673806
C  C81  1  0.82252000  0.74458000  0.02292000  1.0 -0.0967673806
C  C82  1  0.74458000  0.82252000  0.40998000  1.0 -0.0967673806
C  C83  1  0.40998000  0.82252000  0.02292000  1.0 -0.0967673806
C  C84  1  0.02292000  0.40998000  0.82252000  1.0 -0.0967673806
C  C85  1  0.02292000  0.74458000  0.40998000  1.0 -0.0967673806
C  C86  1  0.82252000  0.40998000  0.74458000  1.0 -0.0967673806
C  C87  1  0.40998000  0.02292000  0.74458000  1.0 -0.0967673806
C  C88  1  0.40998000  0.74458000  0.82252000  1.0 -0.0967673806
C  C89  1  0.74458000  0.40998000  0.02292000  1.0 -0.0967673806
C  C90  1  0.82252000  0.02292000  0.40998000  1.0 -0.0967673806
C  C91  1  0.97708000  0.17748000  0.59002000  1.0 -0.0967673806
C  C92  1  0.17748000  0.97708000  0.25542000  1.0 -0.0967673806
C  C93  1  0.97708000  0.59002000  0.25542000  1.0 -0.0967673806
C  C94  1  0.25542000  0.17748000  0.97708000  1.0 -0.0967673806
C  C95  1  0.59002000  0.17748000  0.25542000  1.0 -0.0967673806
C  C96  1  0.97708000  0.25542000  0.17748000  1.0 -0.0967673806
C  C97  1  0.98155000  0.15141000  0.22901000  1.0 -0.0227811339
C  C98  1  0.84859000  0.36197000  0.01845000  1.0 -0.0227811339
C  C99  1  0.77099000  0.01845000  0.36197000  1.0 -0.0227811339
C  C100  1  0.84859000  0.77099000  0.36197000  1.0 -0.0227811339
C  C101  1  0.36197000  0.01845000  0.84859000  1.0 -0.0227811339
C  C102  1  0.36197000  0.77099000  0.01845000  1.0 -0.0227811339
C  C103  1  0.77099000  0.36197000  0.84859000  1.0 -0.0227811339
C  C104  1  0.22901000  0.98155000  0.15141000  1.0 -0.0227811339
C  C105  1  0.15141000  0.22901000  0.98155000  1.0 -0.0227811339
C  C106  1  0.22901000  0.15141000  0.63803000  1.0 -0.0227811339
C  C107  1  0.63803000  0.15141000  0.98155000  1.0 -0.0227811339
C  C108  1  0.98155000  0.63803000  0.15141000  1.0 -0.0227811339
C  C109  1  0.98155000  0.22901000  0.63803000  1.0 -0.0227811339
C  C110  1  0.15141000  0.63803000  0.22901000  1.0 -0.0227811339
C  C111  1  0.63803000  0.98155000  0.22901000  1.0 -0.0227811339
C  C112  1  0.63803000  0.22901000  0.15141000  1.0 -0.0227811339
C  C113  1  0.22901000  0.63803000  0.98155000  1.0 -0.0227811339
C  C114  1  0.15141000  0.98155000  0.63803000  1.0 -0.0227811339
C  C115  1  0.01845000  0.84859000  0.36197000  1.0 -0.0227811339
C  C116  1  0.84859000  0.01845000  0.77099000  1.0 -0.0227811339
C  C117  1  0.01845000  0.36197000  0.77099000  1.0 -0.0227811339
C  C118  1  0.77099000  0.84859000  0.01845000  1.0 -0.0227811339
C  C119  1  0.36197000  0.84859000  0.77099000  1.0 -0.0227811339
C  C120  1  0.01845000  0.77099000  0.84859000  1.0 -0.0227811339
C  C121  1  0.01845000  0.84859000  0.77099000  1.0 -0.0227811339
C  C122  1  0.15141000  0.63803000  0.98155000  1.0 -0.0227811339
C  C123  1  0.22901000  0.98155000  0.63803000  1.0 -0.0227811339
C  C124  1  0.15141000  0.22901000  0.63803000  1.0 -0.0227811339
C  C125  1  0.63803000  0.98155000  0.15141000  1.0 -0.0227811339
C  C126  1  0.63803000  0.22901000  0.98155000  1.0 -0.0227811339
C  C127  1  0.22901000  0.63803000  0.15141000  1.0 -0.0227811339
C  C128  1  0.77099000  0.01845000  0.84859000  1.0 -0.0227811339
C  C129  1  0.84859000  0.77099000  0.01845000  1.0 -0.0227811339
C  C130  1  0.77099000  0.84859000  0.36197000  1.0 -0.0227811339
C  C131  1  0.36197000  0.84859000  0.01845000  1.0 -0.0227811339
C  C132  1  0.01845000  0.36197000  0.84859000  1.0 -0.0227811339
C  C133  1  0.01845000  0.77099000  0.36197000  1.0 -0.0227811339
C  C134  1  0.84859000  0.36197000  0.77099000  1.0 -0.0227811339
C  C135  1  0.36197000  0.01845000  0.77099000  1.0 -0.0227811339
C  C136  1  0.36197000  0.77099000  0.84859000  1.0 -0.0227811339
C  C137  1  0.77099000  0.36197000  0.01845000  1.0 -0.0227811339
C  C138  1  0.84859000  0.01845000  0.36197000  1.0 -0.0227811339
C  C139  1  0.98155000  0.15141000  0.63803000  1.0 -0.0227811339
C  C140  1  0.15141000  0.98155000  0.22901000  1.0 -0.0227811339
C  C141  1  0.98155000  0.63803000  0.22901000  1.0 -0.0227811339
C  C142  1  0.22901000  0.15141000  0.98155000  1.0 -0.0227811339
C  C143  1  0.63803000  0.15141000  0.22901000  1.0 -0.0227811339
C  C144  1  0.98155000  0.22901000  0.15141000  1.0 -0.0227811339
C  C145  1  0.98341000  0.17745000  0.17745000  1.0 -0.0967673806
C  C146  1  0.82255000  0.33831000  0.01659000  1.0 -0.0967673806
C  C147  1  0.82255000  0.01659000  0.33831000  1.0 -0.0967673806
C  C148  1  0.82255000  0.82255000  0.33831000  1.0 -0.0967673806
C  C149  1  0.33831000  0.01659000  0.82255000  1.0 -0.0967673806
C  C150  1  0.33831000  0.82255000  0.01659000  1.0 -0.0967673806
C  C151  1  0.82255000  0.33831000  0.82255000  1.0 -0.0967673806
C  C152  1  0.17745000  0.98341000  0.17745000  1.0 -0.0967673806
C  C153  1  0.17745000  0.17745000  0.98341000  1.0 -0.0967673806
C  C154  1  0.17745000  0.17745000  0.66169000  1.0 -0.0967673806
C  C155  1  0.66169000  0.17745000  0.98341000  1.0 -0.0967673806
C  C156  1  0.98341000  0.66169000  0.17745000  1.0 -0.0967673806
C  C157  1  0.98341000  0.17745000  0.66169000  1.0 -0.0967673806
C  C158  1  0.17745000  0.66169000  0.17745000  1.0 -0.0967673806
C  C159  1  0.66169000  0.98341000  0.17745000  1.0 -0.0967673806
C  C160  1  0.66169000  0.17745000  0.17745000  1.0 -0.0967673806
C  C161  1  0.17745000  0.66169000  0.98341000  1.0 -0.0967673806
C  C162  1  0.17745000  0.98341000  0.66169000  1.0 -0.0967673806
C  C163  1  0.01659000  0.82255000  0.33831000  1.0 -0.0967673806
C  C164  1  0.82255000  0.01659000  0.82255000  1.0 -0.0967673806
C  C165  1  0.01659000  0.33831000  0.82255000  1.0 -0.0967673806
C  C166  1  0.82255000  0.82255000  0.01659000  1.0 -0.0967673806
C  C167  1  0.33831000  0.82255000  0.82255000  1.0 -0.0967673806
C  C168  1  0.01659000  0.82255000  0.82255000  1.0 -0.0967673806
C  C169  1  0.98613000  0.09395000  0.25569000  1.0 0.5697315687
C  C170  1  0.90605000  0.33577000  0.01387000  1.0 0.5697315687
C  C171  1  0.74431000  0.01387000  0.33577000  1.0 0.5697315687
C  C172  1  0.90605000  0.74431000  0.33577000  1.0 0.5697315687
C  C173  1  0.33577000  0.01387000  0.90605000  1.0 0.5697315687
C  C174  1  0.33577000  0.74431000  0.01387000  1.0 0.5697315687
C  C175  1  0.74431000  0.33577000  0.90605000  1.0 0.5697315687
C  C176  1  0.25569000  0.98613000  0.09395000  1.0 0.5697315687
C  C177  1  0.09395000  0.25569000  0.98613000  1.0 0.5697315687
C  C178  1  0.25569000  0.09395000  0.66423000  1.0 0.5697315687
C  C179  1  0.66423000  0.09395000  0.98613000  1.0 0.5697315687
C  C180  1  0.98613000  0.66423000  0.09395000  1.0 0.5697315687
C  C181  1  0.98613000  0.25569000  0.66423000  1.0 0.5697315687
C  C182  1  0.09395000  0.66423000  0.25569000  1.0 0.5697315687
C  C183  1  0.66423000  0.98613000  0.25569000  1.0 0.5697315687
C  C184  1  0.66423000  0.25569000  0.09395000  1.0 0.5697315687
C  C185  1  0.25569000  0.66423000  0.98613000  1.0 0.5697315687
C  C186  1  0.09395000  0.98613000  0.66423000  1.0 0.5697315687
C  C187  1  0.01387000  0.90605000  0.33577000  1.0 0.5697315687
C  C188  1  0.90605000  0.01387000  0.74431000  1.0 0.5697315687
C  C189  1  0.01387000  0.33577000  0.74431000  1.0 0.5697315687
C  C190  1  0.74431000  0.90605000  0.01387000  1.0 0.5697315687
C  C191  1  0.33577000  0.90605000  0.74431000  1.0 0.5697315687
C  C192  1  0.01387000  0.74431000  0.90605000  1.0 0.5697315687
C  C193  1  0.01387000  0.90605000  0.74431000  1.0 0.5697315687
C  C194  1  0.09395000  0.66423000  0.98613000  1.0 0.5697315687
C  C195  1  0.25569000  0.98613000  0.66423000  1.0 0.5697315687
C  C196  1  0.09395000  0.25569000  0.66423000  1.0 0.5697315687
C  C197  1  0.66423000  0.98613000  0.09395000  1.0 0.5697315687
C  C198  1  0.66423000  0.25569000  0.98613000  1.0 0.5697315687
C  C199  1  0.25569000  0.66423000  0.09395000  1.0 0.5697315687
C  C200  1  0.74431000  0.01387000  0.90605000  1.0 0.5697315687
C  C201  1  0.90605000  0.74431000  0.01387000  1.0 0.5697315687
C  C202  1  0.74431000  0.90605000  0.33577000  1.0 0.5697315687
C  C203  1  0.33577000  0.90605000  0.01387000  1.0 0.5697315687
C  C204  1  0.01387000  0.33577000  0.90605000  1.0 0.5697315687
C  C205  1  0.01387000  0.74431000  0.33577000  1.0 0.5697315687
C  C206  1  0.90605000  0.33577000  0.74431000  1.0 0.5697315687
C  C207  1  0.33577000  0.01387000  0.74431000  1.0 0.5697315687
C  C208  1  0.33577000  0.74431000  0.90605000  1.0 0.5697315687
C  C209  1  0.74431000  0.33577000  0.01387000  1.0 0.5697315687
C  C210  1  0.90605000  0.01387000  0.33577000  1.0 0.5697315687
C  C211  1  0.98613000  0.09395000  0.66423000  1.0 0.5697315687
C  C212  1  0.09395000  0.98613000  0.25569000  1.0 0.5697315687
C  C213  1  0.98613000  0.66423000  0.25569000  1.0 0.5697315687
C  C214  1  0.25569000  0.09395000  0.98613000  1.0 0.5697315687
C  C215  1  0.66423000  0.09395000  0.25569000  1.0 0.5697315687
C  C216  1  0.98613000  0.25569000  0.09395000  1.0 0.5697315687
N  N1  1  0.97149000  0.23555000  0.30633000  1.0 -0.3096773627
N  N2  1  0.76445000  0.51337000  0.02851000  1.0 -0.3096773627
N  N3  1  0.69367000  0.02851000  0.51337000  1.0 -0.3096773627
N  N4  1  0.76445000  0.69367000  0.51337000  1.0 -0.3096773627
N  N5  1  0.51337000  0.02851000  0.76445000  1.0 -0.3096773627
N  N6  1  0.51337000  0.69367000  0.02851000  1.0 -0.3096773627
N  N7  1  0.69367000  0.51337000  0.76445000  1.0 -0.3096773627
N  N8  1  0.30633000  0.97149000  0.23555000  1.0 -0.3096773627
N  N9  1  0.23555000  0.30633000  0.97149000  1.0 -0.3096773627
N  N10  1  0.30633000  0.23555000  0.48663000  1.0 -0.3096773627
N  N11  1  0.48663000  0.23555000  0.97149000  1.0 -0.3096773627
N  N12  1  0.97149000  0.48663000  0.23555000  1.0 -0.3096773627
N  N13  1  0.97149000  0.30633000  0.48663000  1.0 -0.3096773627
N  N14  1  0.23555000  0.48663000  0.30633000  1.0 -0.3096773627
N  N15  1  0.48663000  0.97149000  0.30633000  1.0 -0.3096773627
N  N16  1  0.48663000  0.30633000  0.23555000  1.0 -0.3096773627
N  N17  1  0.30633000  0.48663000  0.97149000  1.0 -0.3096773627
N  N18  1  0.23555000  0.97149000  0.48663000  1.0 -0.3096773627
N  N19  1  0.02851000  0.76445000  0.51337000  1.0 -0.3096773627
N  N20  1  0.76445000  0.02851000  0.69367000  1.0 -0.3096773627
N  N21  1  0.02851000  0.51337000  0.69367000  1.0 -0.3096773627
N  N22  1  0.69367000  0.76445000  0.02851000  1.0 -0.3096773627
N  N23  1  0.51337000  0.76445000  0.69367000  1.0 -0.3096773627
N  N24  1  0.02851000  0.69367000  0.76445000  1.0 -0.3096773627
N  N25  1  0.02851000  0.76445000  0.69367000  1.0 -0.3096773627
N  N26  1  0.23555000  0.48663000  0.97149000  1.0 -0.3096773627
N  N27  1  0.30633000  0.97149000  0.48663000  1.0 -0.3096773627
N  N28  1  0.23555000  0.30633000  0.48663000  1.0 -0.3096773627
N  N29  1  0.48663000  0.97149000  0.23555000  1.0 -0.3096773627
N  N30  1  0.48663000  0.30633000  0.97149000  1.0 -0.3096773627
N  N31  1  0.30633000  0.48663000  0.23555000  1.0 -0.3096773627
N  N32  1  0.69367000  0.02851000  0.76445000  1.0 -0.3096773627
N  N33  1  0.76445000  0.69367000  0.02851000  1.0 -0.3096773627
N  N34  1  0.69367000  0.76445000  0.51337000  1.0 -0.3096773627
N  N35  1  0.51337000  0.76445000  0.02851000  1.0 -0.3096773627
N  N36  1  0.02851000  0.51337000  0.76445000  1.0 -0.3096773627
N  N37  1  0.02851000  0.69367000  0.51337000  1.0 -0.3096773627
N  N38  1  0.76445000  0.51337000  0.69367000  1.0 -0.3096773627
N  N39  1  0.51337000  0.02851000  0.69367000  1.0 -0.3096773627
N  N40  1  0.51337000  0.69367000  0.76445000  1.0 -0.3096773627
N  N41  1  0.69367000  0.51337000  0.02851000  1.0 -0.3096773627
N  N42  1  0.76445000  0.02851000  0.51337000  1.0 -0.3096773627
N  N43  1  0.97149000  0.23555000  0.48663000  1.0 -0.3096773627
N  N44  1  0.23555000  0.97149000  0.30633000  1.0 -0.3096773627
N  N45  1  0.97149000  0.48663000  0.30633000  1.0 -0.3096773627
N  N46  1  0.30633000  0.23555000  0.97149000  1.0 -0.3096773627
N  N47  1  0.48663000  0.23555000  0.30633000  1.0 -0.3096773627
N  N48  1  0.97149000  0.30633000  0.23555000  1.0 -0.3096773627
N  N49  1  0.97886000  0.27264000  0.31248000  1.0 0.0003185363
N  N50  1  0.72736000  0.56398000  0.02114000  1.0 0.0003185363
N  N51  1  0.68752000  0.02114000  0.56398000  1.0 0.0003185363
N  N52  1  0.72736000  0.68752000  0.56398000  1.0 -0.0008670096
N  N53  1  0.56398000  0.02114000  0.72736000  1.0 -0.0008670096
N  N54  1  0.56398000  0.68752000  0.02114000  1.0 0.0003185363
N  N55  1  0.68752000  0.56398000  0.72736000  1.0 -0.0008670096
N  N56  1  0.31248000  0.97886000  0.27264000  1.0 -0.0008670096
N  N57  1  0.27264000  0.31248000  0.97886000  1.0 -0.0008670096
N  N58  1  0.31248000  0.27264000  0.43602000  1.0 0.0003185363
N  N59  1  0.43602000  0.27264000  0.97886000  1.0 -0.0008670096
N  N60  1  0.97886000  0.43602000  0.27264000  1.0 0.0003185363
N  N61  1  0.97886000  0.31248000  0.43602000  1.0 0.0003185363
N  N62  1  0.27264000  0.43602000  0.31248000  1.0 -0.0008670096
N  N63  1  0.43602000  0.97886000  0.31248000  1.0 -0.0008670096
N  N64  1  0.43602000  0.31248000  0.27264000  1.0 0.0003185363
N  N65  1  0.31248000  0.43602000  0.97886000  1.0 -0.0008670096
N  N66  1  0.27264000  0.97886000  0.43602000  1.0 -0.0008670096
N  N67  1  0.02114000  0.72736000  0.56398000  1.0 -0.0008670096
N  N68  1  0.72736000  0.02114000  0.68752000  1.0 0.0003185363
N  N69  1  0.02114000  0.56398000  0.68752000  1.0 -0.0008670096
N  N70  1  0.68752000  0.72736000  0.02114000  1.0 0.0003185363
N  N71  1  0.56398000  0.72736000  0.68752000  1.0 -0.0008670096
N  N72  1  0.02114000  0.68752000  0.72736000  1.0 -0.0008670096
N  N73  1  0.02114000  0.72736000  0.68752000  1.0 -0.0008670096
N  N74  1  0.27264000  0.43602000  0.97886000  1.0 -0.0008670096
N  N75  1  0.31248000  0.97886000  0.43602000  1.0 -0.0008670096
N  N76  1  0.27264000  0.31248000  0.43602000  1.0 0.0003185363
N  N77  1  0.43602000  0.97886000  0.27264000  1.0 -0.0008670096
N  N78  1  0.43602000  0.31248000  0.97886000  1.0 -0.0008670096
N  N79  1  0.31248000  0.43602000  0.27264000  1.0 0.0003185363
N  N80  1  0.68752000  0.02114000  0.72736000  1.0 -0.0008670096
N  N81  1  0.72736000  0.68752000  0.02114000  1.0 0.0003185363
N  N82  1  0.68752000  0.72736000  0.56398000  1.0 -0.0008670096
N  N83  1  0.56398000  0.72736000  0.02114000  1.0 0.0003185363
N  N84  1  0.02114000  0.56398000  0.72736000  1.0 -0.0008670096
N  N85  1  0.02114000  0.68752000  0.56398000  1.0 -0.0008670096
N  N86  1  0.72736000  0.56398000  0.68752000  1.0 -0.0008670096
N  N87  1  0.56398000  0.02114000  0.68752000  1.0 0.0003185363
N  N88  1  0.56398000  0.68752000  0.72736000  1.0 -0.0008670096
N  N89  1  0.68752000  0.56398000  0.02114000  1.0 0.0003185363
N  N90  1  0.72736000  0.02114000  0.56398000  1.0 0.0003185363
N  N91  1  0.97886000  0.27264000  0.43602000  1.0 0.0003185363
N  N92  1  0.27264000  0.97886000  0.31248000  1.0 -0.0008670096
N  N93  1  0.97886000  0.43602000  0.31248000  1.0 0.0003185363
N  N94  1  0.31248000  0.27264000  0.97886000  1.0 -0.0008670096
N  N95  1  0.43602000  0.27264000  0.31248000  1.0 0.0003185363
N  N96  1  0.97886000  0.31248000  0.27264000  1.0 0.0003185363
O  O1  1  0.98647000  0.07513000  0.22847000  1.0 -0.5239811586
O  O2  1  0.92487000  0.29007000  0.01353000  1.0 -0.5239811586
O  O3  1  0.77153000  0.01353000  0.29007000  1.0 -0.5239811586
O  O4  1  0.92487000  0.77153000  0.29007000  1.0 -0.5239811586
O  O5  1  0.29007000  0.01353000  0.92487000  1.0 -0.5239811586
O  O6  1  0.29007000  0.77153000  0.01353000  1.0 -0.5239811586
O  O7  1  0.77153000  0.29007000  0.92487000  1.0 -0.5239811586
O  O8  1  0.22847000  0.98647000  0.07513000  1.0 -0.5239811586
O  O9  1  0.07513000  0.22847000  0.98647000  1.0 -0.5239811586
O  O10  1  0.22847000  0.07513000  0.70993000  1.0 -0.5239811586
O  O11  1  0.70993000  0.07513000  0.98647000  1.0 -0.5239811586
O  O12  1  0.98647000  0.70993000  0.07513000  1.0 -0.5239811586
O  O13  1  0.98647000  0.22847000  0.70993000  1.0 -0.5239811586
O  O14  1  0.07513000  0.70993000  0.22847000  1.0 -0.5239811586
O  O15  1  0.70993000  0.98647000  0.22847000  1.0 -0.5239811586
O  O16  1  0.70993000  0.22847000  0.07513000  1.0 -0.5239811586
O  O17  1  0.22847000  0.70993000  0.98647000  1.0 -0.5239811586
O  O18  1  0.07513000  0.98647000  0.70993000  1.0 -0.5239811586
O  O19  1  0.01353000  0.92487000  0.29007000  1.0 -0.5239811586
O  O20  1  0.92487000  0.01353000  0.77153000  1.0 -0.5239811586
O  O21  1  0.01353000  0.29007000  0.77153000  1.0 -0.5239811586
O  O22  1  0.77153000  0.92487000  0.01353000  1.0 -0.5239811586
O  O23  1  0.29007000  0.92487000  0.77153000  1.0 -0.5239811586
O  O24  1  0.01353000  0.77153000  0.92487000  1.0 -0.5239811586
O  O25  1  0.01353000  0.92487000  0.77153000  1.0 -0.5239811586
O  O26  1  0.07513000  0.70993000  0.98647000  1.0 -0.5239811586
O  O27  1  0.22847000  0.98647000  0.70993000  1.0 -0.5239811586
O  O28  1  0.07513000  0.22847000  0.70993000  1.0 -0.5239811586
O  O29  1  0.70993000  0.98647000  0.07513000  1.0 -0.5239811586
O  O30  1  0.70993000  0.22847000  0.98647000  1.0 -0.5239811586
O  O31  1  0.22847000  0.70993000  0.07513000  1.0 -0.5239811586
O  O32  1  0.77153000  0.01353000  0.92487000  1.0 -0.5239811586
O  O33  1  0.92487000  0.77153000  0.01353000  1.0 -0.5239811586
O  O34  1  0.77153000  0.92487000  0.29007000  1.0 -0.5239811586
O  O35  1  0.29007000  0.92487000  0.01353000  1.0 -0.5239811586
O  O36  1  0.01353000  0.29007000  0.92487000  1.0 -0.5239811586
O  O37  1  0.01353000  0.77153000  0.29007000  1.0 -0.5239811586
O  O38  1  0.92487000  0.29007000  0.77153000  1.0 -0.5239811586
O  O39  1  0.29007000  0.01353000  0.77153000  1.0 -0.5239811586
O  O40  1  0.29007000  0.77153000  0.92487000  1.0 -0.5239811586
O  O41  1  0.77153000  0.29007000  0.01353000  1.0 -0.5239811586
O  O42  1  0.92487000  0.01353000  0.29007000  1.0 -0.5239811586
O  O43  1  0.98647000  0.07513000  0.70993000  1.0 -0.5239811586
O  O44  1  0.07513000  0.98647000  0.22847000  1.0 -0.5239811586
O  O45  1  0.98647000  0.70993000  0.22847000  1.0 -0.5239811586
O  O46  1  0.22847000  0.07513000  0.98647000  1.0 -0.5239811586
O  O47  1  0.70993000  0.07513000  0.22847000  1.0 -0.5239811586
O  O48  1  0.98647000  0.22847000  0.07513000  1.0 -0.5239811586
O  O49  1  0.98695000  0.07423000  0.30009000  1.0 -0.4890472724
O  O50  1  0.92577000  0.36127000  0.01305000  1.0 -0.4890472724
O  O51  1  0.69991000  0.01305000  0.36127000  1.0 -0.4890472724
O  O52  1  0.92577000  0.69991000  0.36127000  1.0 -0.4890472724
O  O53  1  0.36127000  0.01305000  0.92577000  1.0 -0.4890472724
O  O54  1  0.36127000  0.69991000  0.01305000  1.0 -0.4890472724
O  O55  1  0.69991000  0.36127000  0.92577000  1.0 -0.4890472724
O  O56  1  0.30009000  0.98695000  0.07423000  1.0 -0.4890472724
O  O57  1  0.07423000  0.30009000  0.98695000  1.0 -0.4890472724
O  O58  1  0.30009000  0.07423000  0.63873000  1.0 -0.4890472724
O  O59  1  0.63873000  0.07423000  0.98695000  1.0 -0.4890472724
O  O60  1  0.98695000  0.63873000  0.07423000  1.0 -0.4890472724
O  O61  1  0.98695000  0.30009000  0.63873000  1.0 -0.4890472724
O  O62  1  0.07423000  0.63873000  0.30009000  1.0 -0.4890472724
O  O63  1  0.63873000  0.98695000  0.30009000  1.0 -0.4890472724
O  O64  1  0.63873000  0.30009000  0.07423000  1.0 -0.4890472724
O  O65  1  0.30009000  0.63873000  0.98695000  1.0 -0.4890472724
O  O66  1  0.07423000  0.98695000  0.63873000  1.0 -0.4890472724
O  O67  1  0.01305000  0.92577000  0.36127000  1.0 -0.4890472724
O  O68  1  0.92577000  0.01305000  0.69991000  1.0 -0.4890472724
O  O69  1  0.01305000  0.36127000  0.69991000  1.0 -0.4890472724
O  O70  1  0.69991000  0.92577000  0.01305000  1.0 -0.4890472724
O  O71  1  0.36127000  0.92577000  0.69991000  1.0 -0.4890472724
O  O72  1  0.01305000  0.69991000  0.92577000  1.0 -0.4890472724
O  O73  1  0.01305000  0.92577000  0.69991000  1.0 -0.4890472724
O  O74  1  0.07423000  0.63873000  0.98695000  1.0 -0.4890472724
O  O75  1  0.30009000  0.98695000  0.63873000  1.0 -0.4890472724
O  O76  1  0.07423000  0.30009000  0.63873000  1.0 -0.4890472724
O  O77  1  0.63873000  0.98695000  0.07423000  1.0 -0.4890472724
O  O78  1  0.63873000  0.30009000  0.98695000  1.0 -0.4890472724
O  O79  1  0.30009000  0.63873000  0.07423000  1.0 -0.4890472724
O  O80  1  0.69991000  0.01305000  0.92577000  1.0 -0.4890472724
O  O81  1  0.92577000  0.69991000  0.01305000  1.0 -0.4890472724
O  O82  1  0.69991000  0.92577000  0.36127000  1.0 -0.4890472724
O  O83  1  0.36127000  0.92577000  0.01305000  1.0 -0.4890472724
O  O84  1  0.01305000  0.36127000  0.92577000  1.0 -0.4890472724
O  O85  1  0.01305000  0.69991000  0.36127000  1.0 -0.4890472724
O  O86  1  0.92577000  0.36127000  0.69991000  1.0 -0.4890472724
O  O87  1  0.36127000  0.01305000  0.69991000  1.0 -0.4890472724
O  O88  1  0.36127000  0.69991000  0.92577000  1.0 -0.4890472724
O  O89  1  0.69991000  0.36127000  0.01305000  1.0 -0.4890472724
O  O90  1  0.92577000  0.01305000  0.36127000  1.0 -0.4890472724
O  O91  1  0.98695000  0.07423000  0.63873000  1.0 -0.4890472724
O  O92  1  0.07423000  0.98695000  0.30009000  1.0 -0.4890472724
O  O93  1  0.98695000  0.63873000  0.30009000  1.0 -0.4890472724
O  O94  1  0.30009000  0.07423000  0.98695000  1.0 -0.4890472724
O  O95  1  0.63873000  0.07423000  0.30009000  1.0 -0.4890472724
O  O96  1  0.98695000  0.30009000  0.07423000  1.0 -0.4890472724
O  O97  1  0.98210000  0.33930000  0.33930000  1.0 -0.7475649736
O  O98  1  0.66070000  0.66070000  0.01790000  1.0 -0.7475649736
O  O99  1  0.66070000  0.01790000  0.66070000  1.0 -0.7475649736
O  O100  1  0.66070000  0.66070000  0.66070000  1.0 -0.7475649736
O  O101  1  0.33930000  0.98210000  0.33930000  1.0 -0.7475649736
O  O102  1  0.33930000  0.33930000  0.98210000  1.0 -0.7475649736
O  O103  1  0.33930000  0.33930000  0.33930000  1.0 -0.7475649736
O  O104  1  0.01790000  0.66070000  0.66070000  1.0 -0.7475649736
