# DDEC6 charges by PACMAN v1.1 (https://github.com/mtap-research/PACMAN-charge/)
data_OMITUB_ASR_pacman
_symmetry_space_group_name_H-M   'P 1'
_cell_length_a   31.54690000
_cell_length_b   31.54690000
_cell_length_c   31.54690000
_cell_angle_alpha   60.00000000
_cell_angle_beta   60.00000000
_cell_angle_gamma   60.00000000
_symmetry_Int_Tables_number   1
_chemical_formula_structural   Cu6H9C27N12O13
_chemical_formula_sum   'Cu48 H72 C216 N96 O104'
_cell_volume   22200.10709601
_cell_formula_units_Z   8
loop_
 _symmetry_equiv_pos_site_id
 _symmetry_equiv_pos_as_xyz
  1  'x, y, z'
loop_
 _atom_site_type_symbol
 _atom_site_label
 _atom_site_symmetry_multiplicity
 _atom_site_fract_x
 _atom_site_fract_y
 _atom_site_fract_z
 _atom_site_occupancy
 _atom_site_charge
Cu  Cu1  1  0.00000000  0.00000000  0.33676000  1.0 0.8523339861
Cu  Cu2  1  0.00000000  0.00000000  0.66324000  1.0 0.8523339861
Cu  Cu3  1  0.66324000  0.33676000  0.00000000  1.0 0.8523339861
Cu  Cu4  1  0.33676000  0.66324000  0.00000000  1.0 0.8523339861
Cu  Cu5  1  0.33676000  0.00000000  0.00000000  1.0 0.8523339861
Cu  Cu6  1  0.00000000  0.33676000  0.00000000  1.0 0.8523339861
Cu  Cu7  1  0.00000000  0.33676000  0.66324000  1.0 0.8523339861
Cu  Cu8  1  0.00000000  0.66324000  0.00000000  1.0 0.8523339861
Cu  Cu9  1  0.66324000  0.00000000  0.00000000  1.0 0.8523339861
Cu  Cu10  1  0.33676000  0.00000000  0.66324000  1.0 0.8523339861
Cu  Cu11  1  0.00000000  0.66324000  0.33676000  1.0 0.8523339861
Cu  Cu12  1  0.66324000  0.00000000  0.33676000  1.0 0.8523339861
Cu  Cu13  1  0.00000000  0.00000000  0.25294000  1.0 0.8523339861
Cu  Cu14  1  0.00000000  0.00000000  0.74706000  1.0 0.8523339861
Cu  Cu15  1  0.74706000  0.25294000  0.00000000  1.0 0.8523339861
Cu  Cu16  1  0.25294000  0.74706000  0.00000000  1.0 0.8523339861
Cu  Cu17  1  0.25294000  0.00000000  0.00000000  1.0 0.8523339861
Cu  Cu18  1  0.00000000  0.25294000  0.00000000  1.0 0.8523339861
Cu  Cu19  1  0.00000000  0.25294000  0.74706000  1.0 0.8523339861
Cu  Cu20  1  0.00000000  0.74706000  0.00000000  1.0 0.8523339861
Cu  Cu21  1  0.74706000  0.00000000  0.00000000  1.0 0.8523339861
Cu  Cu22  1  0.25294000  0.00000000  0.74706000  1.0 0.8523339861
Cu  Cu23  1  0.00000000  0.74706000  0.25294000  1.0 0.8523339861
Cu  Cu24  1  0.74706000  0.00000000  0.25294000  1.0 0.8523339861
Cu  Cu25  1  0.02480000  0.72948000  0.62286000  1.0 0.4871915193
Cu  Cu26  1  0.72948000  0.02480000  0.62286000  1.0 0.4871915193
Cu  Cu27  1  0.62286000  0.62286000  0.72948000  1.0 0.4871915193
Cu  Cu28  1  0.62286000  0.62286000  0.02480000  1.0 0.4842507485
Cu  Cu29  1  0.62286000  0.02480000  0.72948000  1.0 0.4871915193
Cu  Cu30  1  0.72948000  0.62286000  0.02480000  1.0 0.4871915193
Cu  Cu31  1  0.02480000  0.62286000  0.62286000  1.0 0.4871915193
Cu  Cu32  1  0.02480000  0.62286000  0.72948000  1.0 0.4871915193
Cu  Cu33  1  0.62286000  0.72948000  0.02480000  1.0 0.4842507485
Cu  Cu34  1  0.62286000  0.72948000  0.62286000  1.0 0.4871915193
Cu  Cu35  1  0.72948000  0.62286000  0.62286000  1.0 0.4871915193
Cu  Cu36  1  0.62286000  0.02480000  0.62286000  1.0 0.4871915193
Cu  Cu37  1  0.27052000  0.97520000  0.37714000  1.0 0.4842507485
Cu  Cu38  1  0.97520000  0.27052000  0.37714000  1.0 0.4871915193
Cu  Cu39  1  0.37714000  0.37714000  0.27052000  1.0 0.4842507485
Cu  Cu40  1  0.37714000  0.37714000  0.97520000  1.0 0.4842507485
Cu  Cu41  1  0.97520000  0.37714000  0.27052000  1.0 0.4871915193
Cu  Cu42  1  0.37714000  0.27052000  0.97520000  1.0 0.4871915193
Cu  Cu43  1  0.37714000  0.97520000  0.37714000  1.0 0.4842507485
Cu  Cu44  1  0.37714000  0.97520000  0.27052000  1.0 0.4842507485
Cu  Cu45  1  0.27052000  0.37714000  0.97520000  1.0 0.4871915193
Cu  Cu46  1  0.27052000  0.37714000  0.37714000  1.0 0.4871915193
Cu  Cu47  1  0.37714000  0.27052000  0.37714000  1.0 0.4871915193
Cu  Cu48  1  0.97520000  0.37714000  0.37714000  1.0 0.4871915193
H  H1  1  0.02340000  0.83780000  0.42740000  1.0 0.1303253364
H  H2  1  0.83780000  0.02340000  0.71140000  1.0 0.1303253364
H  H3  1  0.71140000  0.42740000  0.83780000  1.0 0.1303253364
H  H4  1  0.42740000  0.71140000  0.02340000  1.0 0.1303253364
H  H5  1  0.42740000  0.02340000  0.83780000  1.0 0.1303253364
H  H6  1  0.83780000  0.42740000  0.02340000  1.0 0.1303253364
H  H7  1  0.02340000  0.42740000  0.71140000  1.0 0.1303253364
H  H8  1  0.02340000  0.71140000  0.83780000  1.0 0.1303253364
H  H9  1  0.71140000  0.83780000  0.02340000  1.0 0.1303253364
H  H10  1  0.42740000  0.83780000  0.71140000  1.0 0.1303253364
H  H11  1  0.83780000  0.71140000  0.42740000  1.0 0.1303253364
H  H12  1  0.71140000  0.02340000  0.42740000  1.0 0.1303253364
H  H13  1  0.16220000  0.97660000  0.57260000  1.0 0.1303253364
H  H14  1  0.97660000  0.16220000  0.28860000  1.0 0.1303253364
H  H15  1  0.57260000  0.28860000  0.16220000  1.0 0.1303253364
H  H16  1  0.28860000  0.57260000  0.97660000  1.0 0.1303253364
H  H17  1  0.97660000  0.57260000  0.16220000  1.0 0.1303253364
H  H18  1  0.57260000  0.16220000  0.97660000  1.0 0.1303253364
H  H19  1  0.57260000  0.97660000  0.28860000  1.0 0.1303253364
H  H20  1  0.28860000  0.97660000  0.16220000  1.0 0.1303253364
H  H21  1  0.16220000  0.28860000  0.97660000  1.0 0.1303253364
H  H22  1  0.16220000  0.57260000  0.28860000  1.0 0.1303253364
H  H23  1  0.28860000  0.16220000  0.57260000  1.0 0.1303253364
H  H24  1  0.97660000  0.28860000  0.57260000  1.0 0.1303253364
H  H25  1  0.97660000  0.16220000  0.57260000  1.0 0.1303253364
H  H26  1  0.16220000  0.97660000  0.28860000  1.0 0.1303253364
H  H27  1  0.28860000  0.57260000  0.16220000  1.0 0.1303253364
H  H28  1  0.57260000  0.28860000  0.97660000  1.0 0.1303253364
H  H29  1  0.57260000  0.97660000  0.16220000  1.0 0.1303253364
H  H30  1  0.16220000  0.57260000  0.97660000  1.0 0.1303253364
H  H31  1  0.97660000  0.57260000  0.28860000  1.0 0.1303253364
H  H32  1  0.97660000  0.28860000  0.16220000  1.0 0.1303253364
H  H33  1  0.28860000  0.16220000  0.97660000  1.0 0.1303253364
H  H34  1  0.57260000  0.16220000  0.28860000  1.0 0.1303253364
H  H35  1  0.16220000  0.28860000  0.57260000  1.0 0.1303253364
H  H36  1  0.28860000  0.97660000  0.57260000  1.0 0.1303253364
H  H37  1  0.83780000  0.02340000  0.42740000  1.0 0.1303253364
H  H38  1  0.02340000  0.83780000  0.71140000  1.0 0.1303253364
H  H39  1  0.42740000  0.71140000  0.83780000  1.0 0.1303253364
H  H40  1  0.71140000  0.42740000  0.02340000  1.0 0.1303253364
H  H41  1  0.02340000  0.42740000  0.83780000  1.0 0.1303253364
H  H42  1  0.42740000  0.83780000  0.02340000  1.0 0.1303253364
H  H43  1  0.42740000  0.02340000  0.71140000  1.0 0.1303253364
H  H44  1  0.71140000  0.02340000  0.83780000  1.0 0.1303253364
H  H45  1  0.83780000  0.71140000  0.02340000  1.0 0.1303253364
H  H46  1  0.83780000  0.42740000  0.71140000  1.0 0.1303253364
H  H47  1  0.71140000  0.83780000  0.42740000  1.0 0.1303253364
H  H48  1  0.02340000  0.71140000  0.42740000  1.0 0.1303253364
H  H49  1  0.01550000  0.84050000  0.30350000  1.0 0.1303253364
H  H50  1  0.84050000  0.01550000  0.84050000  1.0 0.1303253364
H  H51  1  0.84050000  0.30350000  0.84050000  1.0 0.1303253364
H  H52  1  0.30350000  0.84050000  0.01550000  1.0 0.1303253364
H  H53  1  0.30350000  0.01550000  0.84050000  1.0 0.1303253364
H  H54  1  0.84050000  0.30350000  0.01550000  1.0 0.1303253364
H  H55  1  0.01550000  0.30350000  0.84050000  1.0 0.1303253364
H  H56  1  0.01550000  0.84050000  0.84050000  1.0 0.1303253364
H  H57  1  0.84050000  0.84050000  0.01550000  1.0 0.1303253364
H  H58  1  0.30350000  0.84050000  0.84050000  1.0 0.1303253364
H  H59  1  0.84050000  0.84050000  0.30350000  1.0 0.1303253364
H  H60  1  0.84050000  0.01550000  0.30350000  1.0 0.1303253364
H  H61  1  0.15950000  0.98450000  0.69650000  1.0 0.1303253364
H  H62  1  0.98450000  0.15950000  0.15950000  1.0 0.1303253364
H  H63  1  0.69650000  0.15950000  0.15950000  1.0 0.1303253364
H  H64  1  0.15950000  0.69650000  0.98450000  1.0 0.1303253364
H  H65  1  0.98450000  0.69650000  0.15950000  1.0 0.1303253364
H  H66  1  0.69650000  0.15950000  0.98450000  1.0 0.1303253364
H  H67  1  0.69650000  0.98450000  0.15950000  1.0 0.1303253364
H  H68  1  0.15950000  0.98450000  0.15950000  1.0 0.1303253364
H  H69  1  0.15950000  0.15950000  0.98450000  1.0 0.1303253364
H  H70  1  0.15950000  0.69650000  0.15950000  1.0 0.1303253364
H  H71  1  0.15950000  0.15950000  0.69650000  1.0 0.1303253364
H  H72  1  0.98450000  0.15950000  0.69650000  1.0 0.1303253364
C  C1  1  0.01403000  0.90423000  0.33567000  1.0 0.5793202602
C  C2  1  0.90423000  0.01403000  0.74607000  1.0 0.5793202602
C  C3  1  0.74607000  0.33567000  0.90423000  1.0 0.5793202602
C  C4  1  0.33567000  0.74607000  0.01403000  1.0 0.5793202602
C  C5  1  0.33567000  0.01403000  0.90423000  1.0 0.5793202602
C  C6  1  0.90423000  0.33567000  0.01403000  1.0 0.5793202602
C  C7  1  0.01403000  0.33567000  0.74607000  1.0 0.5793202602
C  C8  1  0.01403000  0.74607000  0.90423000  1.0 0.5793202602
C  C9  1  0.74607000  0.90423000  0.01403000  1.0 0.5793202602
C  C10  1  0.33567000  0.90423000  0.74607000  1.0 0.5793202602
C  C11  1  0.90423000  0.74607000  0.33567000  1.0 0.5793202602
C  C12  1  0.74607000  0.01403000  0.33567000  1.0 0.5793202602
C  C13  1  0.09577000  0.98597000  0.66433000  1.0 0.5793202602
C  C14  1  0.98597000  0.09577000  0.25393000  1.0 0.5793202602
C  C15  1  0.66433000  0.25393000  0.09577000  1.0 0.5793202602
C  C16  1  0.25393000  0.66433000  0.98597000  1.0 0.5793202602
C  C17  1  0.98597000  0.66433000  0.09577000  1.0 0.5793202602
C  C18  1  0.66433000  0.09577000  0.98597000  1.0 0.5793202602
C  C19  1  0.66433000  0.98597000  0.25393000  1.0 0.5793202602
C  C20  1  0.25393000  0.98597000  0.09577000  1.0 0.5793202602
C  C21  1  0.09577000  0.25393000  0.98597000  1.0 0.5793202602
C  C22  1  0.09577000  0.66433000  0.25393000  1.0 0.5793202602
C  C23  1  0.25393000  0.09577000  0.66433000  1.0 0.5793202602
C  C24  1  0.98597000  0.25393000  0.66433000  1.0 0.5793202602
C  C25  1  0.98597000  0.09577000  0.66433000  1.0 0.5793202602
C  C26  1  0.09577000  0.98597000  0.25393000  1.0 0.5793202602
C  C27  1  0.25393000  0.66433000  0.09577000  1.0 0.5793202602
C  C28  1  0.66433000  0.25393000  0.98597000  1.0 0.5793202602
C  C29  1  0.66433000  0.98597000  0.09577000  1.0 0.5793202602
C  C30  1  0.09577000  0.66433000  0.98597000  1.0 0.5793202602
C  C31  1  0.98597000  0.66433000  0.25393000  1.0 0.5793202602
C  C32  1  0.98597000  0.25393000  0.09577000  1.0 0.5793202602
C  C33  1  0.25393000  0.09577000  0.98597000  1.0 0.5793202602
C  C34  1  0.66433000  0.09577000  0.25393000  1.0 0.5793202602
C  C35  1  0.09577000  0.25393000  0.66433000  1.0 0.5793202602
C  C36  1  0.25393000  0.98597000  0.66433000  1.0 0.5793202602
C  C37  1  0.90423000  0.01403000  0.33567000  1.0 0.5793202602
C  C38  1  0.01403000  0.90423000  0.74607000  1.0 0.5793202602
C  C39  1  0.33567000  0.74607000  0.90423000  1.0 0.5793202602
C  C40  1  0.74607000  0.33567000  0.01403000  1.0 0.5793202602
C  C41  1  0.01403000  0.33567000  0.90423000  1.0 0.5793202602
C  C42  1  0.33567000  0.90423000  0.01403000  1.0 0.5793202602
C  C43  1  0.33567000  0.01403000  0.74607000  1.0 0.5793202602
C  C44  1  0.74607000  0.01403000  0.90423000  1.0 0.5793202602
C  C45  1  0.90423000  0.74607000  0.01403000  1.0 0.5793202602
C  C46  1  0.90423000  0.33567000  0.74607000  1.0 0.5793202602
C  C47  1  0.74607000  0.90423000  0.33567000  1.0 0.5793202602
C  C48  1  0.01403000  0.74607000  0.33567000  1.0 0.5793202602
C  C49  1  0.01795000  0.84839000  0.36157000  1.0 -0.0312964231
C  C50  1  0.84839000  0.01795000  0.77209000  1.0 -0.0312964231
C  C51  1  0.77209000  0.36157000  0.84839000  1.0 -0.0312964231
C  C52  1  0.36157000  0.77209000  0.01795000  1.0 -0.0312964231
C  C53  1  0.36157000  0.01795000  0.84839000  1.0 -0.0312964231
C  C54  1  0.84839000  0.36157000  0.01795000  1.0 -0.0312964231
C  C55  1  0.01795000  0.36157000  0.77209000  1.0 -0.0312964231
C  C56  1  0.01795000  0.77209000  0.84839000  1.0 -0.0312964231
C  C57  1  0.77209000  0.84839000  0.01795000  1.0 -0.0312964231
C  C58  1  0.36157000  0.84839000  0.77209000  1.0 -0.0312964231
C  C59  1  0.84839000  0.77209000  0.36157000  1.0 -0.0312964231
C  C60  1  0.77209000  0.01795000  0.36157000  1.0 -0.0312964231
C  C61  1  0.15161000  0.98205000  0.63843000  1.0 -0.0312964231
C  C62  1  0.98205000  0.15161000  0.22791000  1.0 -0.0312964231
C  C63  1  0.63843000  0.22791000  0.15161000  1.0 -0.0312964231
C  C64  1  0.22791000  0.63843000  0.98205000  1.0 -0.0312964231
C  C65  1  0.98205000  0.63843000  0.15161000  1.0 -0.0312964231
C  C66  1  0.63843000  0.15161000  0.98205000  1.0 -0.0312964231
C  C67  1  0.63843000  0.98205000  0.22791000  1.0 -0.0312964231
C  C68  1  0.22791000  0.98205000  0.15161000  1.0 -0.0312964231
C  C69  1  0.15161000  0.22791000  0.98205000  1.0 -0.0312964231
C  C70  1  0.15161000  0.63843000  0.22791000  1.0 -0.0312964231
C  C71  1  0.22791000  0.15161000  0.63843000  1.0 -0.0312964231
C  C72  1  0.98205000  0.22791000  0.63843000  1.0 -0.0312964231
C  C73  1  0.98205000  0.15161000  0.63843000  1.0 -0.0312964231
C  C74  1  0.15161000  0.98205000  0.22791000  1.0 -0.0312964231
C  C75  1  0.22791000  0.63843000  0.15161000  1.0 -0.0312964231
C  C76  1  0.63843000  0.22791000  0.98205000  1.0 -0.0312964231
C  C77  1  0.63843000  0.98205000  0.15161000  1.0 -0.0312964231
C  C78  1  0.15161000  0.63843000  0.98205000  1.0 -0.0312964231
C  C79  1  0.98205000  0.63843000  0.22791000  1.0 -0.0312964231
C  C80  1  0.98205000  0.22791000  0.15161000  1.0 -0.0312964231
C  C81  1  0.22791000  0.15161000  0.98205000  1.0 -0.0312964231
C  C82  1  0.63843000  0.15161000  0.22791000  1.0 -0.0312964231
C  C83  1  0.15161000  0.22791000  0.63843000  1.0 -0.0312964231
C  C84  1  0.22791000  0.98205000  0.63843000  1.0 -0.0312964231
C  C85  1  0.84839000  0.01795000  0.36157000  1.0 -0.0312964231
C  C86  1  0.01795000  0.84839000  0.77209000  1.0 -0.0312964231
C  C87  1  0.36157000  0.77209000  0.84839000  1.0 -0.0312964231
C  C88  1  0.77209000  0.36157000  0.01795000  1.0 -0.0312964231
C  C89  1  0.01795000  0.36157000  0.84839000  1.0 -0.0312964231
C  C90  1  0.36157000  0.84839000  0.01795000  1.0 -0.0312964231
C  C91  1  0.36157000  0.01795000  0.77209000  1.0 -0.0312964231
C  C92  1  0.77209000  0.01795000  0.84839000  1.0 -0.0312964231
C  C93  1  0.84839000  0.77209000  0.01795000  1.0 -0.0312964231
C  C94  1  0.84839000  0.36157000  0.77209000  1.0 -0.0312964231
C  C95  1  0.77209000  0.84839000  0.36157000  1.0 -0.0312964231
C  C96  1  0.01795000  0.77209000  0.36157000  1.0 -0.0312964231
C  C97  1  0.02102000  0.82164000  0.41112000  1.0 -0.091391681
C  C98  1  0.82164000  0.02102000  0.74622000  1.0 -0.091391681
C  C99  1  0.74622000  0.41112000  0.82164000  1.0 -0.091391681
C  C100  1  0.41112000  0.74622000  0.02102000  1.0 -0.091391681
C  C101  1  0.41112000  0.02102000  0.82164000  1.0 -0.091391681
C  C102  1  0.82164000  0.41112000  0.02102000  1.0 -0.091391681
C  C103  1  0.02102000  0.41112000  0.74622000  1.0 -0.091391681
C  C104  1  0.02102000  0.74622000  0.82164000  1.0 -0.091391681
C  C105  1  0.74622000  0.82164000  0.02102000  1.0 -0.091391681
C  C106  1  0.41112000  0.82164000  0.74622000  1.0 -0.091391681
C  C107  1  0.82164000  0.74622000  0.41112000  1.0 -0.091391681
C  C108  1  0.74622000  0.02102000  0.41112000  1.0 -0.091391681
C  C109  1  0.17836000  0.97898000  0.58888000  1.0 -0.091391681
C  C110  1  0.97898000  0.17836000  0.25378000  1.0 -0.091391681
C  C111  1  0.58888000  0.25378000  0.17836000  1.0 -0.091391681
C  C112  1  0.25378000  0.58888000  0.97898000  1.0 -0.091391681
C  C113  1  0.97898000  0.58888000  0.17836000  1.0 -0.091391681
C  C114  1  0.58888000  0.17836000  0.97898000  1.0 -0.091391681
C  C115  1  0.58888000  0.97898000  0.25378000  1.0 -0.091391681
C  C116  1  0.25378000  0.97898000  0.17836000  1.0 -0.091391681
C  C117  1  0.17836000  0.25378000  0.97898000  1.0 -0.091391681
C  C118  1  0.17836000  0.58888000  0.25378000  1.0 -0.091391681
C  C119  1  0.25378000  0.17836000  0.58888000  1.0 -0.091391681
C  C120  1  0.97898000  0.25378000  0.58888000  1.0 -0.091391681
C  C121  1  0.97898000  0.17836000  0.58888000  1.0 -0.091391681
C  C122  1  0.17836000  0.97898000  0.25378000  1.0 -0.091391681
C  C123  1  0.25378000  0.58888000  0.17836000  1.0 -0.091391681
C  C124  1  0.58888000  0.25378000  0.97898000  1.0 -0.091391681
C  C125  1  0.58888000  0.97898000  0.17836000  1.0 -0.091391681
C  C126  1  0.17836000  0.58888000  0.97898000  1.0 -0.091391681
C  C127  1  0.97898000  0.58888000  0.25378000  1.0 -0.091391681
C  C128  1  0.97898000  0.25378000  0.17836000  1.0 -0.091391681
C  C129  1  0.25378000  0.17836000  0.97898000  1.0 -0.091391681
C  C130  1  0.58888000  0.17836000  0.25378000  1.0 -0.091391681
C  C131  1  0.17836000  0.25378000  0.58888000  1.0 -0.091391681
C  C132  1  0.25378000  0.97898000  0.58888000  1.0 -0.091391681
C  C133  1  0.82164000  0.02102000  0.41112000  1.0 -0.091391681
C  C134  1  0.02102000  0.82164000  0.74622000  1.0 -0.091391681
C  C135  1  0.41112000  0.74622000  0.82164000  1.0 -0.091391681
C  C136  1  0.74622000  0.41112000  0.02102000  1.0 -0.091391681
C  C137  1  0.02102000  0.41112000  0.82164000  1.0 -0.091391681
C  C138  1  0.41112000  0.82164000  0.02102000  1.0 -0.091391681
C  C139  1  0.41112000  0.02102000  0.74622000  1.0 -0.091391681
C  C140  1  0.74622000  0.02102000  0.82164000  1.0 -0.091391681
C  C141  1  0.82164000  0.74622000  0.02102000  1.0 -0.091391681
C  C142  1  0.82164000  0.41112000  0.74622000  1.0 -0.091391681
C  C143  1  0.74622000  0.82164000  0.41112000  1.0 -0.091391681
C  C144  1  0.02102000  0.74622000  0.41112000  1.0 -0.091391681
C  C145  1  0.02050000  0.77160000  0.43630000  1.0 0.0299509674
C  C146  1  0.77160000  0.02050000  0.77160000  1.0 0.0299509674
C  C147  1  0.77160000  0.43630000  0.77160000  1.0 0.0299509674
C  C148  1  0.43630000  0.77160000  0.02050000  1.0 0.0299509674
C  C149  1  0.43630000  0.02050000  0.77160000  1.0 0.0299509674
C  C150  1  0.77160000  0.43630000  0.02050000  1.0 0.0299509674
C  C151  1  0.02050000  0.43630000  0.77160000  1.0 0.0299509674
C  C152  1  0.02050000  0.77160000  0.77160000  1.0 0.0299509674
C  C153  1  0.77160000  0.77160000  0.02050000  1.0 0.0299509674
C  C154  1  0.43630000  0.77160000  0.77160000  1.0 0.0299509674
C  C155  1  0.77160000  0.77160000  0.43630000  1.0 0.0299509674
C  C156  1  0.77160000  0.02050000  0.43630000  1.0 0.0299509674
C  C157  1  0.22840000  0.97950000  0.56370000  1.0 0.0299509674
C  C158  1  0.97950000  0.22840000  0.22840000  1.0 0.0299509674
C  C159  1  0.56370000  0.22840000  0.22840000  1.0 0.0299509674
C  C160  1  0.22840000  0.56370000  0.97950000  1.0 0.0299509674
C  C161  1  0.97950000  0.56370000  0.22840000  1.0 0.0299509674
C  C162  1  0.56370000  0.22840000  0.97950000  1.0 0.0299509674
C  C163  1  0.56370000  0.97950000  0.22840000  1.0 0.0299509674
C  C164  1  0.22840000  0.97950000  0.22840000  1.0 0.0299509674
C  C165  1  0.22840000  0.22840000  0.97950000  1.0 0.0299509674
C  C166  1  0.22840000  0.56370000  0.22840000  1.0 0.0299509674
C  C167  1  0.22840000  0.22840000  0.56370000  1.0 0.0299509674
C  C168  1  0.97950000  0.22840000  0.56370000  1.0 0.0299509674
C  C169  1  0.01693000  0.82303000  0.33701000  1.0 -0.091391681
C  C170  1  0.82303000  0.01693000  0.82303000  1.0 -0.091391681
C  C171  1  0.82303000  0.33701000  0.82303000  1.0 -0.091391681
C  C172  1  0.33701000  0.82303000  0.01693000  1.0 -0.091391681
C  C173  1  0.33701000  0.01693000  0.82303000  1.0 -0.091391681
C  C174  1  0.82303000  0.33701000  0.01693000  1.0 -0.091391681
C  C175  1  0.01693000  0.33701000  0.82303000  1.0 -0.091391681
C  C176  1  0.01693000  0.82303000  0.82303000  1.0 -0.091391681
C  C177  1  0.82303000  0.82303000  0.01693000  1.0 -0.091391681
C  C178  1  0.33701000  0.82303000  0.82303000  1.0 -0.091391681
C  C179  1  0.82303000  0.82303000  0.33701000  1.0 -0.091391681
C  C180  1  0.82303000  0.01693000  0.33701000  1.0 -0.091391681
C  C181  1  0.17697000  0.98307000  0.66299000  1.0 -0.091391681
C  C182  1  0.98307000  0.17697000  0.17697000  1.0 -0.091391681
C  C183  1  0.66299000  0.17697000  0.17697000  1.0 -0.091391681
C  C184  1  0.17697000  0.66299000  0.98307000  1.0 -0.091391681
C  C185  1  0.98307000  0.66299000  0.17697000  1.0 -0.091391681
C  C186  1  0.66299000  0.17697000  0.98307000  1.0 -0.091391681
C  C187  1  0.66299000  0.98307000  0.17697000  1.0 -0.091391681
C  C188  1  0.17697000  0.98307000  0.17697000  1.0 -0.091391681
C  C189  1  0.17697000  0.17697000  0.98307000  1.0 -0.091391681
C  C190  1  0.17697000  0.66299000  0.17697000  1.0 -0.091391681
C  C191  1  0.17697000  0.17697000  0.66299000  1.0 -0.091391681
C  C192  1  0.98307000  0.17697000  0.66299000  1.0 -0.091391681
C  C193  1  0.02314000  0.74320000  0.49046000  1.0 0.2620888969
C  C194  1  0.74320000  0.02314000  0.74320000  1.0 0.2620888969
C  C195  1  0.74320000  0.49046000  0.74320000  1.0 0.2620888969
C  C196  1  0.49046000  0.74320000  0.02314000  1.0 0.2620888969
C  C197  1  0.49046000  0.02314000  0.74320000  1.0 0.2620888969
C  C198  1  0.74320000  0.49046000  0.02314000  1.0 0.2620888969
C  C199  1  0.02314000  0.49046000  0.74320000  1.0 0.2620888969
C  C200  1  0.02314000  0.74320000  0.74320000  1.0 0.2620888969
C  C201  1  0.74320000  0.74320000  0.02314000  1.0 0.2620888969
C  C202  1  0.49046000  0.74320000  0.74320000  1.0 0.2620888969
C  C203  1  0.74320000  0.74320000  0.49046000  1.0 0.2620888969
C  C204  1  0.74320000  0.02314000  0.49046000  1.0 0.2620888969
C  C205  1  0.25680000  0.97686000  0.50954000  1.0 0.2620888969
C  C206  1  0.97686000  0.25680000  0.25680000  1.0 0.2620888969
C  C207  1  0.50954000  0.25680000  0.25680000  1.0 0.2620888969
C  C208  1  0.25680000  0.50954000  0.97686000  1.0 0.2620888969
C  C209  1  0.97686000  0.50954000  0.25680000  1.0 0.2620888969
C  C210  1  0.50954000  0.25680000  0.97686000  1.0 0.2620888969
C  C211  1  0.50954000  0.97686000  0.25680000  1.0 0.2620888969
C  C212  1  0.25680000  0.97686000  0.25680000  1.0 0.2620888969
C  C213  1  0.25680000  0.25680000  0.97686000  1.0 0.2620888969
C  C214  1  0.25680000  0.50954000  0.25680000  1.0 0.2620888969
C  C215  1  0.25680000  0.25680000  0.50954000  1.0 0.2620888969
C  C216  1  0.97686000  0.25680000  0.50954000  1.0 0.2620888969
N  N1  1  0.02275000  0.72761000  0.56253000  1.0 0.0370773746
N  N2  1  0.72761000  0.02275000  0.68711000  1.0 0.0370773746
N  N3  1  0.68711000  0.56253000  0.72761000  1.0 0.0370773746
N  N4  1  0.56253000  0.68711000  0.02275000  1.0 0.0370773746
N  N5  1  0.56253000  0.02275000  0.72761000  1.0 0.0370773746
N  N6  1  0.72761000  0.56253000  0.02275000  1.0 0.0370773746
N  N7  1  0.02275000  0.56253000  0.68711000  1.0 0.0370773746
N  N8  1  0.02275000  0.68711000  0.72761000  1.0 0.0370773746
N  N9  1  0.68711000  0.72761000  0.02275000  1.0 0.0370773746
N  N10  1  0.56253000  0.72761000  0.68711000  1.0 0.0370773746
N  N11  1  0.72761000  0.68711000  0.56253000  1.0 0.0370773746
N  N12  1  0.68711000  0.02275000  0.56253000  1.0 0.0370773746
N  N13  1  0.27239000  0.97725000  0.43747000  1.0 0.0370773746
N  N14  1  0.97725000  0.27239000  0.31289000  1.0 0.0370773746
N  N15  1  0.43747000  0.31289000  0.27239000  1.0 0.0370773746
N  N16  1  0.31289000  0.43747000  0.97725000  1.0 0.0489120417
N  N17  1  0.97725000  0.43747000  0.27239000  1.0 0.0370773746
N  N18  1  0.43747000  0.27239000  0.97725000  1.0 0.0370773746
N  N19  1  0.43747000  0.97725000  0.31289000  1.0 0.0370773746
N  N20  1  0.31289000  0.97725000  0.27239000  1.0 0.0370773746
N  N21  1  0.27239000  0.31289000  0.97725000  1.0 0.0370773746
N  N22  1  0.27239000  0.43747000  0.31289000  1.0 0.0370773746
N  N23  1  0.31289000  0.27239000  0.43747000  1.0 0.0370773746
N  N24  1  0.97725000  0.31289000  0.43747000  1.0 0.0370773746
N  N25  1  0.97725000  0.27239000  0.43747000  1.0 0.0370773746
N  N26  1  0.27239000  0.97725000  0.31289000  1.0 0.0370773746
N  N27  1  0.31289000  0.43747000  0.27239000  1.0 0.0370773746
N  N28  1  0.43747000  0.31289000  0.97725000  1.0 0.0370773746
N  N29  1  0.43747000  0.97725000  0.27239000  1.0 0.0370773746
N  N30  1  0.27239000  0.43747000  0.97725000  1.0 0.0299509674
N  N31  1  0.97725000  0.43747000  0.31289000  1.0 0.0370773746
N  N32  1  0.97725000  0.31289000  0.27239000  1.0 0.0370773746
N  N33  1  0.31289000  0.27239000  0.97725000  1.0 0.0370773746
N  N34  1  0.43747000  0.27239000  0.31289000  1.0 0.0370773746
N  N35  1  0.27239000  0.31289000  0.43747000  1.0 0.0370773746
N  N36  1  0.31289000  0.97725000  0.43747000  1.0 0.0370773746
N  N37  1  0.72761000  0.02275000  0.56253000  1.0 0.0370773746
N  N38  1  0.02275000  0.72761000  0.68711000  1.0 0.0370773746
N  N39  1  0.56253000  0.68711000  0.72761000  1.0 0.0370773746
N  N40  1  0.68711000  0.56253000  0.02275000  1.0 0.0370773746
N  N41  1  0.02275000  0.56253000  0.72761000  1.0 0.0370773746
N  N42  1  0.56253000  0.72761000  0.02275000  1.0 0.0370773746
N  N43  1  0.56253000  0.02275000  0.68711000  1.0 0.0370773746
N  N44  1  0.68711000  0.02275000  0.72761000  1.0 0.0370773746
N  N45  1  0.72761000  0.68711000  0.02275000  1.0 0.0370773746
N  N46  1  0.72761000  0.56253000  0.68711000  1.0 0.0370773746
N  N47  1  0.68711000  0.72761000  0.56253000  1.0 0.0370773746
N  N48  1  0.02275000  0.68711000  0.56253000  1.0 0.0370773746
N  N49  1  0.02316000  0.76454000  0.51718000  1.0 -0.2816783076
N  N50  1  0.76454000  0.02316000  0.69512000  1.0 -0.2816783076
N  N51  1  0.69512000  0.51718000  0.76454000  1.0 -0.2816783076
N  N52  1  0.51718000  0.69512000  0.02316000  1.0 -0.2816783076
N  N53  1  0.51718000  0.02316000  0.76454000  1.0 -0.2816783076
N  N54  1  0.76454000  0.51718000  0.02316000  1.0 -0.2816783076
N  N55  1  0.02316000  0.51718000  0.69512000  1.0 -0.2816783076
N  N56  1  0.02316000  0.69512000  0.76454000  1.0 -0.2816783076
N  N57  1  0.69512000  0.76454000  0.02316000  1.0 -0.2816783076
N  N58  1  0.51718000  0.76454000  0.69512000  1.0 -0.2816783076
N  N59  1  0.76454000  0.69512000  0.51718000  1.0 -0.2816783076
N  N60  1  0.69512000  0.02316000  0.51718000  1.0 -0.2816783076
N  N61  1  0.23546000  0.97684000  0.48282000  1.0 -0.2816783076
N  N62  1  0.97684000  0.23546000  0.30488000  1.0 -0.2816783076
N  N63  1  0.48282000  0.30488000  0.23546000  1.0 -0.2816783076
N  N64  1  0.30488000  0.48282000  0.97684000  1.0 -0.2816783076
N  N65  1  0.97684000  0.48282000  0.23546000  1.0 -0.2816783076
N  N66  1  0.48282000  0.23546000  0.97684000  1.0 -0.2816783076
N  N67  1  0.48282000  0.97684000  0.30488000  1.0 -0.2816783076
N  N68  1  0.30488000  0.97684000  0.23546000  1.0 -0.2816783076
N  N69  1  0.23546000  0.30488000  0.97684000  1.0 -0.2816783076
N  N70  1  0.23546000  0.48282000  0.30488000  1.0 -0.2816783076
N  N71  1  0.30488000  0.23546000  0.48282000  1.0 -0.2816783076
N  N72  1  0.97684000  0.30488000  0.48282000  1.0 -0.2816783076
N  N73  1  0.97684000  0.23546000  0.48282000  1.0 -0.2816783076
N  N74  1  0.23546000  0.97684000  0.30488000  1.0 -0.2816783076
N  N75  1  0.30488000  0.48282000  0.23546000  1.0 -0.2816783076
N  N76  1  0.48282000  0.30488000  0.97684000  1.0 -0.2816783076
N  N77  1  0.48282000  0.97684000  0.23546000  1.0 -0.2816783076
N  N78  1  0.23546000  0.48282000  0.97684000  1.0 -0.2816783076
N  N79  1  0.97684000  0.48282000  0.30488000  1.0 -0.2816783076
N  N80  1  0.97684000  0.30488000  0.23546000  1.0 -0.2816783076
N  N81  1  0.30488000  0.23546000  0.97684000  1.0 -0.2816783076
N  N82  1  0.48282000  0.23546000  0.30488000  1.0 -0.2816783076
N  N83  1  0.23546000  0.30488000  0.48282000  1.0 -0.2816783076
N  N84  1  0.30488000  0.97684000  0.48282000  1.0 -0.2816783076
N  N85  1  0.76454000  0.02316000  0.51718000  1.0 -0.2816783076
N  N86  1  0.02316000  0.76454000  0.69512000  1.0 -0.2816783076
N  N87  1  0.51718000  0.69512000  0.76454000  1.0 -0.2816783076
N  N88  1  0.69512000  0.51718000  0.02316000  1.0 -0.2816783076
N  N89  1  0.02316000  0.51718000  0.76454000  1.0 -0.2816783076
N  N90  1  0.51718000  0.76454000  0.02316000  1.0 -0.2816783076
N  N91  1  0.51718000  0.02316000  0.69512000  1.0 -0.2816783076
N  N92  1  0.69512000  0.02316000  0.76454000  1.0 -0.2816783076
N  N93  1  0.76454000  0.69512000  0.02316000  1.0 -0.2816783076
N  N94  1  0.76454000  0.51718000  0.69512000  1.0 -0.2816783076
N  N95  1  0.69512000  0.76454000  0.51718000  1.0 -0.2816783076
N  N96  1  0.02316000  0.69512000  0.51718000  1.0 -0.2816783076
O  O1  1  0.01252000  0.92572000  0.36122000  1.0 -0.5228311523
O  O2  1  0.92572000  0.01252000  0.70054000  1.0 -0.5228311523
O  O3  1  0.70054000  0.36122000  0.92572000  1.0 -0.5228311523
O  O4  1  0.36122000  0.70054000  0.01252000  1.0 -0.5228311523
O  O5  1  0.36122000  0.01252000  0.92572000  1.0 -0.5228311523
O  O6  1  0.92572000  0.36122000  0.01252000  1.0 -0.5228311523
O  O7  1  0.01252000  0.36122000  0.70054000  1.0 -0.5228311523
O  O8  1  0.01252000  0.70054000  0.92572000  1.0 -0.5228311523
O  O9  1  0.70054000  0.92572000  0.01252000  1.0 -0.5228311523
O  O10  1  0.36122000  0.92572000  0.70054000  1.0 -0.5228311523
O  O11  1  0.92572000  0.70054000  0.36122000  1.0 -0.5228311523
O  O12  1  0.70054000  0.01252000  0.36122000  1.0 -0.5228311523
O  O13  1  0.07428000  0.98748000  0.63878000  1.0 -0.5228311523
O  O14  1  0.98748000  0.07428000  0.29946000  1.0 -0.5228311523
O  O15  1  0.63878000  0.29946000  0.07428000  1.0 -0.5228311523
O  O16  1  0.29946000  0.63878000  0.98748000  1.0 -0.5228311523
O  O17  1  0.98748000  0.63878000  0.07428000  1.0 -0.5228311523
O  O18  1  0.63878000  0.07428000  0.98748000  1.0 -0.5228311523
O  O19  1  0.63878000  0.98748000  0.29946000  1.0 -0.5228311523
O  O20  1  0.29946000  0.98748000  0.07428000  1.0 -0.5228311523
O  O21  1  0.07428000  0.29946000  0.98748000  1.0 -0.5228311523
O  O22  1  0.07428000  0.63878000  0.29946000  1.0 -0.5228311523
O  O23  1  0.29946000  0.07428000  0.63878000  1.0 -0.5228311523
O  O24  1  0.98748000  0.29946000  0.63878000  1.0 -0.5228311523
O  O25  1  0.98748000  0.07428000  0.63878000  1.0 -0.5228311523
O  O26  1  0.07428000  0.98748000  0.29946000  1.0 -0.5228311523
O  O27  1  0.29946000  0.63878000  0.07428000  1.0 -0.5228311523
O  O28  1  0.63878000  0.29946000  0.98748000  1.0 -0.5228311523
O  O29  1  0.63878000  0.98748000  0.07428000  1.0 -0.5228311523
O  O30  1  0.07428000  0.63878000  0.98748000  1.0 -0.5228311523
O  O31  1  0.98748000  0.63878000  0.29946000  1.0 -0.5228311523
O  O32  1  0.98748000  0.29946000  0.07428000  1.0 -0.5228311523
O  O33  1  0.29946000  0.07428000  0.98748000  1.0 -0.5228311523
O  O34  1  0.63878000  0.07428000  0.29946000  1.0 -0.5228311523
O  O35  1  0.07428000  0.29946000  0.63878000  1.0 -0.5228311523
O  O36  1  0.29946000  0.98748000  0.63878000  1.0 -0.5228311523
O  O37  1  0.92572000  0.01252000  0.36122000  1.0 -0.5228311523
O  O38  1  0.01252000  0.92572000  0.70054000  1.0 -0.5228311523
O  O39  1  0.36122000  0.70054000  0.92572000  1.0 -0.5228311523
O  O40  1  0.70054000  0.36122000  0.01252000  1.0 -0.5228311523
O  O41  1  0.01252000  0.36122000  0.92572000  1.0 -0.5228311523
O  O42  1  0.36122000  0.92572000  0.01252000  1.0 -0.5228311523
O  O43  1  0.36122000  0.01252000  0.70054000  1.0 -0.5228311523
O  O44  1  0.70054000  0.01252000  0.92572000  1.0 -0.5228311523
O  O45  1  0.92572000  0.70054000  0.01252000  1.0 -0.5228311523
O  O46  1  0.92572000  0.36122000  0.70054000  1.0 -0.5228311523
O  O47  1  0.70054000  0.92572000  0.36122000  1.0 -0.5228311523
O  O48  1  0.01252000  0.70054000  0.36122000  1.0 -0.5228311523
O  O49  1  0.01254000  0.92576000  0.29020000  1.0 -0.5284650491
O  O50  1  0.92576000  0.01254000  0.77150000  1.0 -0.5284650491
O  O51  1  0.77150000  0.29020000  0.92576000  1.0 -0.5284650491
O  O52  1  0.29020000  0.77150000  0.01254000  1.0 -0.5284650491
O  O53  1  0.29020000  0.01254000  0.92576000  1.0 -0.5284650491
O  O54  1  0.92576000  0.29020000  0.01254000  1.0 -0.5284650491
O  O55  1  0.01254000  0.29020000  0.77150000  1.0 -0.5284650491
O  O56  1  0.01254000  0.77150000  0.92576000  1.0 -0.5284650491
O  O57  1  0.77150000  0.92576000  0.01254000  1.0 -0.5284650491
O  O58  1  0.29020000  0.92576000  0.77150000  1.0 -0.5284650491
O  O59  1  0.92576000  0.77150000  0.29020000  1.0 -0.5284650491
O  O60  1  0.77150000  0.01254000  0.29020000  1.0 -0.5284650491
O  O61  1  0.07424000  0.98746000  0.70980000  1.0 -0.5284650491
O  O62  1  0.98746000  0.07424000  0.22850000  1.0 -0.5284650491
O  O63  1  0.70980000  0.22850000  0.07424000  1.0 -0.5284650491
O  O64  1  0.22850000  0.70980000  0.98746000  1.0 -0.5284650491
O  O65  1  0.98746000  0.70980000  0.07424000  1.0 -0.5284650491
O  O66  1  0.70980000  0.07424000  0.98746000  1.0 -0.5284650491
O  O67  1  0.70980000  0.98746000  0.22850000  1.0 -0.5284650491
O  O68  1  0.22850000  0.98746000  0.07424000  1.0 -0.5284650491
O  O69  1  0.07424000  0.22850000  0.98746000  1.0 -0.5284650491
O  O70  1  0.07424000  0.70980000  0.22850000  1.0 -0.5284650491
O  O71  1  0.22850000  0.07424000  0.70980000  1.0 -0.5284650491
O  O72  1  0.98746000  0.22850000  0.70980000  1.0 -0.5284650491
O  O73  1  0.98746000  0.07424000  0.70980000  1.0 -0.5284650491
O  O74  1  0.07424000  0.98746000  0.22850000  1.0 -0.5284650491
O  O75  1  0.22850000  0.70980000  0.07424000  1.0 -0.5284650491
O  O76  1  0.70980000  0.22850000  0.98746000  1.0 -0.5284650491
O  O77  1  0.70980000  0.98746000  0.07424000  1.0 -0.5284650491
O  O78  1  0.07424000  0.70980000  0.98746000  1.0 -0.5284650491
O  O79  1  0.98746000  0.70980000  0.22850000  1.0 -0.5284650491
O  O80  1  0.98746000  0.22850000  0.07424000  1.0 -0.5284650491
O  O81  1  0.22850000  0.07424000  0.98746000  1.0 -0.5284650491
O  O82  1  0.70980000  0.07424000  0.22850000  1.0 -0.5284650491
O  O83  1  0.07424000  0.22850000  0.70980000  1.0 -0.5284650491
O  O84  1  0.22850000  0.98746000  0.70980000  1.0 -0.5284650491
O  O85  1  0.92576000  0.01254000  0.29020000  1.0 -0.5284650491
O  O86  1  0.01254000  0.92576000  0.77150000  1.0 -0.5284650491
O  O87  1  0.29020000  0.77150000  0.92576000  1.0 -0.5284650491
O  O88  1  0.77150000  0.29020000  0.01254000  1.0 -0.5284650491
O  O89  1  0.01254000  0.29020000  0.92576000  1.0 -0.5284650491
O  O90  1  0.29020000  0.92576000  0.01254000  1.0 -0.5284650491
O  O91  1  0.29020000  0.01254000  0.77150000  1.0 -0.5284650491
O  O92  1  0.77150000  0.01254000  0.92576000  1.0 -0.5284650491
O  O93  1  0.92576000  0.77150000  0.01254000  1.0 -0.5284650491
O  O94  1  0.92576000  0.29020000  0.77150000  1.0 -0.5284650491
O  O95  1  0.77150000  0.92576000  0.29020000  1.0 -0.5284650491
O  O96  1  0.01254000  0.77150000  0.29020000  1.0 -0.5284650491
O  O97  1  0.00443000  0.66519000  0.66519000  1.0 -0.7560257244
O  O98  1  0.66519000  0.00443000  0.66519000  1.0 -0.7560257244
O  O99  1  0.66519000  0.66519000  0.66519000  1.0 -0.7560257244
O  O100  1  0.66519000  0.66519000  0.00443000  1.0 -0.7560257244
O  O101  1  0.33481000  0.99557000  0.33481000  1.0 -0.7560257244
O  O102  1  0.99557000  0.33481000  0.33481000  1.0 -0.7560257244
O  O103  1  0.33481000  0.33481000  0.33481000  1.0 -0.7560257244
O  O104  1  0.33481000  0.33481000  0.99557000  1.0 -0.754816576
