# DDEC6 charges by PACMAN v1.1 (https://github.com/mtap-research/PACMAN-charge/)
data_OMUHUB_FSR_pacman
_symmetry_space_group_name_H-M   'P 1'
_cell_length_a   23.90630000
_cell_length_b   27.40590000
_cell_length_c   30.32100000
_cell_angle_alpha   90.00000000
_cell_angle_beta   90.00000000
_cell_angle_gamma   90.00000000
_symmetry_Int_Tables_number   1
_chemical_formula_structural   Yb7H126(C41O11)4
_chemical_formula_sum   'Yb28 H504 C656 O176'
_cell_volume   19865.52076226
_cell_formula_units_Z   4
loop_
 _symmetry_equiv_pos_site_id
 _symmetry_equiv_pos_as_xyz
  1  'x, y, z'
loop_
 _atom_site_type_symbol
 _atom_site_label
 _atom_site_symmetry_multiplicity
 _atom_site_fract_x
 _atom_site_fract_y
 _atom_site_fract_z
 _atom_site_occupancy
 _atom_site_charge
Yb  Yb1  1  0.25664000  0.24127000  0.63826000  1.0 2.0432834003
Yb  Yb2  1  0.74336000  0.75873000  0.13826000  1.0 2.0432834003
Yb  Yb3  1  0.25664000  0.25873000  0.36174000  1.0 2.0432834003
Yb  Yb4  1  0.74336000  0.74127000  0.86174000  1.0 2.0432834003
Yb  Yb5  1  0.74336000  0.75873000  0.36174000  1.0 2.0432834003
Yb  Yb6  1  0.25664000  0.24127000  0.86174000  1.0 2.0432834003
Yb  Yb7  1  0.74336000  0.74127000  0.63826000  1.0 2.0432834003
Yb  Yb8  1  0.25664000  0.25873000  0.13826000  1.0 2.0432834003
Yb  Yb9  1  0.37599000  0.72856000  0.25000000  1.0 0.9895191166
Yb  Yb10  1  0.62401000  0.27144000  0.75000000  1.0 0.9895191166
Yb  Yb11  1  0.37599000  0.77144000  0.75000000  1.0 0.9895191166
Yb  Yb12  1  0.62401000  0.22856000  0.25000000  1.0 0.9895191166
Yb  Yb13  1  0.11904000  0.69860000  0.75000000  1.0 0.9486125532
Yb  Yb14  1  0.88096000  0.30140000  0.25000000  1.0 0.9486125532
Yb  Yb15  1  0.11904000  0.80140000  0.25000000  1.0 0.9486125532
Yb  Yb16  1  0.88096000  0.19860000  0.75000000  1.0 0.9486125532
Yb  Yb17  1  0.72601000  0.65221000  0.75000000  1.0 2.0335332129
Yb  Yb18  1  0.27399000  0.34779000  0.25000000  1.0 2.0335332129
Yb  Yb19  1  0.72601000  0.84779000  0.25000000  1.0 2.0335332129
Yb  Yb20  1  0.27399000  0.15221000  0.75000000  1.0 2.0335332129
Yb  Yb21  1  0.14730000  0.67710000  0.75000000  1.0 0.5464743573
Yb  Yb22  1  0.85270000  0.32290000  0.25000000  1.0 0.5464743573
Yb  Yb23  1  0.14730000  0.82290000  0.25000000  1.0 0.5464743573
Yb  Yb24  1  0.85270000  0.17710000  0.75000000  1.0 0.5464743573
Yb  Yb25  1  0.36530000  0.71550000  0.25000000  1.0 0.868566123
Yb  Yb26  1  0.63470000  0.28450000  0.75000000  1.0 0.868566123
Yb  Yb27  1  0.36530000  0.78450000  0.75000000  1.0 0.868566123
Yb  Yb28  1  0.63470000  0.21550000  0.25000000  1.0 0.868566123
H  H1  1  0.39490000  0.41320000  0.50330000  1.0 0.1118453649
H  H2  1  0.60510000  0.58680000  0.00330000  1.0 0.1118453649
H  H3  1  0.39490000  0.08680000  0.49670000  1.0 0.1118453649
H  H4  1  0.60510000  0.91320000  0.99670000  1.0 0.1118453649
H  H5  1  0.60510000  0.58680000  0.49670000  1.0 0.1118453649
H  H6  1  0.39490000  0.41320000  0.99670000  1.0 0.1118453649
H  H7  1  0.60510000  0.91320000  0.50330000  1.0 0.1118453649
H  H8  1  0.39490000  0.08680000  0.00330000  1.0 0.1118453649
H  H9  1  0.90170000  0.58880000  0.54600000  1.0 0.1118453649
H  H10  1  0.09830000  0.41120000  0.04600000  1.0 0.1118453649
H  H11  1  0.90170000  0.91120000  0.45400000  1.0 0.1118453649
H  H12  1  0.09830000  0.08880000  0.95400000  1.0 0.1118453649
H  H13  1  0.09830000  0.41120000  0.45400000  1.0 0.1118453649
H  H14  1  0.90170000  0.58880000  0.95400000  1.0 0.1118453649
H  H15  1  0.09830000  0.08880000  0.54600000  1.0 0.1118453649
H  H16  1  0.90170000  0.91120000  0.04600000  1.0 0.1118453649
H  H17  1  0.27030000  0.09840000  0.59810000  1.0 0.1183954488
H  H18  1  0.72970000  0.90160000  0.09810000  1.0 0.1183954488
H  H19  1  0.27030000  0.40160000  0.40190000  1.0 0.1183954488
H  H20  1  0.72970000  0.59840000  0.90190000  1.0 0.1183954488
H  H21  1  0.72970000  0.90160000  0.40190000  1.0 0.1183954488
H  H22  1  0.27030000  0.09840000  0.90190000  1.0 0.1183954488
H  H23  1  0.72970000  0.59840000  0.59810000  1.0 0.1183954488
H  H24  1  0.27030000  0.40160000  0.09810000  1.0 0.1183954488
H  H25  1  0.47150000  0.50970000  0.59700000  1.0 0.1183954488
H  H26  1  0.52850000  0.49030000  0.09700000  1.0 0.1183954488
H  H27  1  0.47150000  0.99030000  0.40300000  1.0 0.1183954488
H  H28  1  0.52850000  0.00970000  0.90300000  1.0 0.1183954488
H  H29  1  0.52850000  0.49030000  0.40300000  1.0 0.1183954488
H  H30  1  0.47150000  0.50970000  0.90300000  1.0 0.1183954488
H  H31  1  0.52850000  0.00970000  0.59700000  1.0 0.1118453649
H  H32  1  0.47150000  0.99030000  0.09700000  1.0 0.1183954488
H  H33  1  0.99170000  0.39820000  0.49980000  1.0 0.1183954488
H  H34  1  0.00830000  0.60180000  0.99980000  1.0 0.1183954488
H  H35  1  0.99170000  0.10180000  0.50020000  1.0 0.1183954488
H  H36  1  0.00830000  0.89820000  0.00020000  1.0 0.1183954488
H  H37  1  0.00830000  0.60180000  0.50020000  1.0 0.1183954488
H  H38  1  0.99170000  0.39820000  0.00020000  1.0 0.1183954488
H  H39  1  0.00830000  0.89820000  0.49980000  1.0 0.1183954488
H  H40  1  0.99170000  0.10180000  0.99980000  1.0 0.1183954488
H  H41  1  0.19830000  0.95020000  0.56760000  1.0 0.1183954488
H  H42  1  0.80170000  0.04980000  0.06760000  1.0 0.1183954488
H  H43  1  0.19830000  0.54980000  0.43240000  1.0 0.1183954488
H  H44  1  0.80170000  0.45020000  0.93240000  1.0 0.1183954488
H  H45  1  0.80170000  0.04980000  0.43240000  1.0 0.1183954488
H  H46  1  0.19830000  0.95020000  0.93240000  1.0 0.1183954488
H  H47  1  0.80170000  0.45020000  0.56760000  1.0 0.1183954488
H  H48  1  0.19830000  0.54980000  0.06760000  1.0 0.1183954488
H  H49  1  0.86130000  0.64900000  0.58830000  1.0 0.1290897873
H  H50  1  0.13870000  0.35100000  0.08830000  1.0 0.1290897873
H  H51  1  0.86130000  0.85100000  0.41170000  1.0 0.1290897873
H  H52  1  0.13870000  0.14900000  0.91170000  1.0 0.1290897873
H  H53  1  0.13870000  0.35100000  0.41170000  1.0 0.1290897873
H  H54  1  0.86130000  0.64900000  0.91170000  1.0 0.1290897873
H  H55  1  0.13870000  0.14900000  0.58830000  1.0 0.1290897873
H  H56  1  0.86130000  0.85100000  0.08830000  1.0 0.1290897873
H  H57  1  0.26630000  0.01620000  0.58580000  1.0 0.1118453649
H  H58  1  0.73370000  0.98380000  0.08580000  1.0 0.1118453649
H  H59  1  0.26630000  0.48380000  0.41420000  1.0 0.1118453649
H  H60  1  0.73370000  0.51620000  0.91420000  1.0 0.1118453649
H  H61  1  0.73370000  0.98380000  0.41420000  1.0 0.1118453649
H  H62  1  0.26630000  0.01620000  0.91420000  1.0 0.1118453649
H  H63  1  0.73370000  0.51620000  0.58580000  1.0 0.1118453649
H  H64  1  0.26630000  0.48380000  0.08580000  1.0 0.1118453649
H  H65  1  0.23610000  0.12440000  0.47150000  1.0 0.1183954488
H  H66  1  0.76390000  0.87560000  0.97150000  1.0 0.1183954488
H  H67  1  0.23610000  0.37560000  0.52850000  1.0 0.1183954488
H  H68  1  0.76390000  0.62440000  0.02850000  1.0 0.1183954488
H  H69  1  0.76390000  0.87560000  0.52850000  1.0 0.1183954488
H  H70  1  0.23610000  0.12440000  0.02850000  1.0 0.1183954488
H  H71  1  0.76390000  0.62440000  0.47150000  1.0 0.1183954488
H  H72  1  0.23610000  0.37560000  0.97150000  1.0 0.1183954488
H  H73  1  0.49000000  0.60770000  0.50000000  1.0 0.1118453649
H  H74  1  0.51000000  0.39230000  0.00000000  1.0 0.1118453649
H  H75  1  0.49000000  0.89230000  0.50000000  1.0 0.1118453649
H  H76  1  0.51000000  0.10770000  0.00000000  1.0 0.1118453649
H  H77  1  0.51000000  0.39230000  0.50000000  1.0 0.1118453649
H  H78  1  0.49000000  0.60770000  0.00000000  1.0 0.1118453649
H  H79  1  0.51000000  0.10770000  0.50000000  1.0 0.1118453649
H  H80  1  0.49000000  0.89230000  0.00000000  1.0 0.1118453649
H  H81  1  0.88470000  0.50940000  0.50930000  1.0 0.1183954488
H  H82  1  0.11530000  0.49060000  0.00930000  1.0 0.1183954488
H  H83  1  0.88470000  0.99060000  0.49070000  1.0 0.1183954488
H  H84  1  0.11530000  0.00940000  0.99070000  1.0 0.1183954488
H  H85  1  0.11530000  0.49060000  0.49070000  1.0 0.1183954488
H  H86  1  0.88470000  0.50940000  0.99070000  1.0 0.1183954488
H  H87  1  0.11530000  0.00940000  0.50930000  1.0 0.1183954488
H  H88  1  0.88470000  0.99060000  0.00930000  1.0 0.1183954488
H  H89  1  0.98300000  0.47360000  0.61200000  1.0 0.1290897873
H  H90  1  0.01700000  0.52640000  0.11200000  1.0 0.1183954488
H  H91  1  0.98300000  0.02640000  0.38800000  1.0 0.1183954488
H  H92  1  0.01700000  0.97360000  0.88800000  1.0 0.1290897873
H  H93  1  0.01700000  0.52640000  0.38800000  1.0 0.1290897873
H  H94  1  0.98300000  0.47360000  0.88800000  1.0 0.1290897873
H  H95  1  0.01700000  0.97360000  0.61200000  1.0 0.1290897873
H  H96  1  0.98300000  0.02640000  0.11200000  1.0 0.1183954488
H  H97  1  0.38380000  0.49560000  0.48460000  1.0 0.1183954488
H  H98  1  0.61620000  0.50440000  0.98460000  1.0 0.1183954488
H  H99  1  0.38380000  0.00440000  0.51540000  1.0 0.1183954488
H  H100  1  0.61620000  0.99560000  0.01540000  1.0 0.1183954488
H  H101  1  0.61620000  0.50440000  0.51540000  1.0 0.1183954488
H  H102  1  0.38380000  0.49560000  0.01540000  1.0 0.1183954488
H  H103  1  0.61620000  0.99560000  0.48460000  1.0 0.1183954488
H  H104  1  0.38380000  0.00440000  0.98460000  1.0 0.1183954488
H  H105  1  0.08490000  0.34320000  0.66320000  1.0 0.1625451549
H  H106  1  0.91510000  0.65680000  0.16320000  1.0 0.1625451549
H  H107  1  0.08490000  0.15680000  0.33680000  1.0 0.1625451549
H  H108  1  0.91510000  0.84320000  0.83680000  1.0 0.1625451549
H  H109  1  0.91510000  0.65680000  0.33680000  1.0 0.1625451549
H  H110  1  0.08490000  0.34320000  0.83680000  1.0 0.1625451549
H  H111  1  0.91510000  0.84320000  0.66320000  1.0 0.1625451549
H  H112  1  0.08490000  0.15680000  0.16320000  1.0 0.1625451549
H  H113  1  0.89330000  0.49720000  0.64690000  1.0 0.1118453649
H  H114  1  0.10670000  0.50280000  0.14690000  1.0 0.1118453649
H  H115  1  0.89330000  0.00280000  0.35310000  1.0 0.1118453649
H  H116  1  0.10670000  0.99720000  0.85310000  1.0 0.1118453649
H  H117  1  0.10670000  0.50280000  0.35310000  1.0 0.1118453649
H  H118  1  0.89330000  0.49720000  0.85310000  1.0 0.1118453649
H  H119  1  0.10670000  0.99720000  0.64690000  1.0 0.1118453649
H  H120  1  0.89330000  0.00280000  0.14690000  1.0 0.1118453649
H  H121  1  0.23020000  0.04120000  0.45960000  1.0 0.1183954488
H  H122  1  0.76980000  0.95880000  0.95960000  1.0 0.1183954488
H  H123  1  0.23020000  0.45880000  0.54040000  1.0 0.1183954488
H  H124  1  0.76980000  0.54120000  0.04040000  1.0 0.1183954488
H  H125  1  0.76980000  0.95880000  0.54040000  1.0 0.1183954488
H  H126  1  0.23020000  0.04120000  0.04040000  1.0 0.1183954488
H  H127  1  0.76980000  0.54120000  0.45960000  1.0 0.1183954488
H  H128  1  0.23020000  0.45880000  0.95960000  1.0 0.1183954488
H  H129  1  0.24240000  0.83150000  0.50050000  1.0 0.1290897873
H  H130  1  0.75760000  0.16850000  0.00050000  1.0 0.1290897873
H  H131  1  0.24240000  0.66850000  0.49950000  1.0 0.1290897873
H  H132  1  0.75760000  0.33150000  0.99950000  1.0 0.1290897873
H  H133  1  0.75760000  0.16850000  0.49950000  1.0 0.1290897873
H  H134  1  0.24240000  0.83150000  0.99950000  1.0 0.1290897873
H  H135  1  0.75760000  0.33150000  0.50050000  1.0 0.1290897873
H  H136  1  0.24240000  0.66850000  0.00050000  1.0 0.1290897873
H  H137  1  0.35770000  0.34150000  0.52960000  1.0 0.1183954488
H  H138  1  0.64230000  0.65850000  0.02960000  1.0 0.1183954488
H  H139  1  0.35770000  0.15850000  0.47040000  1.0 0.1183954488
H  H140  1  0.64230000  0.84150000  0.97040000  1.0 0.1183954488
H  H141  1  0.64230000  0.65850000  0.47040000  1.0 0.1183954488
H  H142  1  0.35770000  0.34150000  0.97040000  1.0 0.1183954488
H  H143  1  0.64230000  0.84150000  0.52960000  1.0 0.1183954488
H  H144  1  0.35770000  0.15850000  0.02960000  1.0 0.1183954488
H  H145  1  0.28710000  0.96470000  0.45540000  1.0 0.1183954488
H  H146  1  0.71290000  0.03530000  0.95540000  1.0 0.1183954488
H  H147  1  0.28710000  0.53530000  0.54460000  1.0 0.1183954488
H  H148  1  0.71290000  0.46470000  0.04460000  1.0 0.1183954488
H  H149  1  0.71290000  0.03530000  0.54460000  1.0 0.1183954488
H  H150  1  0.28710000  0.96470000  0.04460000  1.0 0.1183954488
H  H151  1  0.71290000  0.46470000  0.45540000  1.0 0.1183954488
H  H152  1  0.28710000  0.53530000  0.95540000  1.0 0.1183954488
H  H153  1  0.30700000  0.58890000  0.38020000  1.0 0.1183954488
H  H154  1  0.69300000  0.41110000  0.88020000  1.0 0.1183954488
H  H155  1  0.30700000  0.91110000  0.61980000  1.0 0.1183954488
H  H156  1  0.69300000  0.08890000  0.11980000  1.0 0.1183954488
H  H157  1  0.69300000  0.41110000  0.61980000  1.0 0.1183954488
H  H158  1  0.30700000  0.58890000  0.11980000  1.0 0.1183954488
H  H159  1  0.69300000  0.08890000  0.38020000  1.0 0.1183954488
H  H160  1  0.30700000  0.91110000  0.88020000  1.0 0.1183954488
H  H161  1  0.84900000  0.55630000  0.68900000  1.0 0.1290897873
H  H162  1  0.15100000  0.44370000  0.18900000  1.0 0.1290897873
H  H163  1  0.84900000  0.94370000  0.31100000  1.0 0.1290897873
H  H164  1  0.15100000  0.05630000  0.81100000  1.0 0.1290897873
H  H165  1  0.15100000  0.44370000  0.31100000  1.0 0.1290897873
H  H166  1  0.84900000  0.55630000  0.81100000  1.0 0.1290897873
H  H167  1  0.15100000  0.05630000  0.68900000  1.0 0.1290897873
H  H168  1  0.84900000  0.94370000  0.18900000  1.0 0.1290897873
H  H169  1  0.39560000  0.46870000  0.62490000  1.0 0.1118453649
H  H170  1  0.60440000  0.53130000  0.12490000  1.0 0.1118453649
H  H171  1  0.39560000  0.03130000  0.37510000  1.0 0.1118453649
H  H172  1  0.60440000  0.96870000  0.87510000  1.0 0.1118453649
H  H173  1  0.60440000  0.53130000  0.37510000  1.0 0.1118453649
H  H174  1  0.39560000  0.46870000  0.87510000  1.0 0.1118453649
H  H175  1  0.60440000  0.96870000  0.62490000  1.0 0.1118453649
H  H176  1  0.39560000  0.03130000  0.12490000  1.0 0.1118453649
H  H177  1  0.58900000  0.69270000  0.59510000  1.0 0.137269136
H  H178  1  0.41100000  0.30730000  0.09510000  1.0 0.137269136
H  H179  1  0.58900000  0.80730000  0.40490000  1.0 0.137269136
H  H180  1  0.41100000  0.19270000  0.90490000  1.0 0.137269136
H  H181  1  0.41100000  0.30730000  0.40490000  1.0 0.137269136
H  H182  1  0.58900000  0.69270000  0.90490000  1.0 0.137269136
H  H183  1  0.41100000  0.19270000  0.59510000  1.0 0.137269136
H  H184  1  0.58900000  0.80730000  0.09510000  1.0 0.137269136
H  H185  1  0.46040000  0.63980000  0.35880000  1.0 0.1183954488
H  H186  1  0.53960000  0.36020000  0.85880000  1.0 0.1183954488
H  H187  1  0.46040000  0.86020000  0.64120000  1.0 0.1183954488
H  H188  1  0.53960000  0.13980000  0.14120000  1.0 0.1183954488
H  H189  1  0.53960000  0.36020000  0.64120000  1.0 0.1183954488
H  H190  1  0.46040000  0.63980000  0.14120000  1.0 0.1183954488
H  H191  1  0.53960000  0.13980000  0.35880000  1.0 0.1183954488
H  H192  1  0.46040000  0.86020000  0.85880000  1.0 0.1183954488
H  H193  1  0.35160000  0.39930000  0.65050000  1.0 0.137269136
H  H194  1  0.64840000  0.60070000  0.15050000  1.0 0.137269136
H  H195  1  0.35160000  0.10070000  0.34950000  1.0 0.137269136
H  H196  1  0.64840000  0.89930000  0.84950000  1.0 0.137269136
H  H197  1  0.64840000  0.60070000  0.34950000  1.0 0.137269136
H  H198  1  0.35160000  0.39930000  0.84950000  1.0 0.137269136
H  H199  1  0.64840000  0.89930000  0.65050000  1.0 0.137269136
H  H200  1  0.35160000  0.10070000  0.15050000  1.0 0.137269136
H  H201  1  0.12060000  0.88760000  0.58410000  1.0 0.1118453649
H  H202  1  0.87940000  0.11240000  0.08410000  1.0 0.1118453649
H  H203  1  0.12060000  0.61240000  0.41590000  1.0 0.1118453649
H  H204  1  0.87940000  0.38760000  0.91590000  1.0 0.1118453649
H  H205  1  0.87940000  0.11240000  0.41590000  1.0 0.1118453649
H  H206  1  0.12060000  0.88760000  0.91590000  1.0 0.1118453649
H  H207  1  0.87940000  0.38760000  0.58410000  1.0 0.1118453649
H  H208  1  0.12060000  0.61240000  0.08410000  1.0 0.1118453649
H  H209  1  0.08420000  0.83120000  0.63390000  1.0 0.1183954488
H  H210  1  0.91580000  0.16880000  0.13390000  1.0 0.1183954488
H  H211  1  0.08420000  0.66880000  0.36610000  1.0 0.1183954488
H  H212  1  0.91580000  0.33120000  0.86610000  1.0 0.1183954488
H  H213  1  0.91580000  0.16880000  0.36610000  1.0 0.1183954488
H  H214  1  0.08420000  0.83120000  0.86610000  1.0 0.1183954488
H  H215  1  0.91580000  0.33120000  0.63390000  1.0 0.1183954488
H  H216  1  0.08420000  0.66880000  0.13390000  1.0 0.1183954488
H  H217  1  0.56200000  0.52790000  0.61030000  1.0 0.1118453649
H  H218  1  0.43800000  0.47210000  0.11030000  1.0 0.1118453649
H  H219  1  0.56200000  0.97210000  0.38970000  1.0 0.1118453649
H  H220  1  0.43800000  0.02790000  0.88970000  1.0 0.1118453649
H  H221  1  0.43800000  0.47210000  0.38970000  1.0 0.1118453649
H  H222  1  0.56200000  0.52790000  0.88970000  1.0 0.1118453649
H  H223  1  0.43800000  0.02790000  0.61030000  1.0 0.1118453649
H  H224  1  0.56200000  0.97210000  0.11030000  1.0 0.1118453649
H  H225  1  0.52210000  0.65510000  0.55470000  1.0 0.1183954488
H  H226  1  0.47790000  0.34490000  0.05470000  1.0 0.1183954488
H  H227  1  0.52210000  0.84490000  0.44530000  1.0 0.1183954488
H  H228  1  0.47790000  0.15510000  0.94530000  1.0 0.1183954488
H  H229  1  0.47790000  0.34490000  0.44530000  1.0 0.1183954488
H  H230  1  0.52210000  0.65510000  0.94530000  1.0 0.1183954488
H  H231  1  0.47790000  0.15510000  0.55470000  1.0 0.1183954488
H  H232  1  0.52210000  0.84490000  0.05470000  1.0 0.1183954488
H  H233  1  0.33780000  0.55390000  0.44560000  1.0 0.1038560925
H  H234  1  0.66220000  0.44610000  0.94560000  1.0 0.1038560925
H  H235  1  0.33780000  0.94610000  0.55440000  1.0 0.1038560925
H  H236  1  0.66220000  0.05390000  0.05440000  1.0 0.1038560925
H  H237  1  0.66220000  0.44610000  0.55440000  1.0 0.1038560925
H  H238  1  0.33780000  0.55390000  0.05440000  1.0 0.1038560925
H  H239  1  0.66220000  0.05390000  0.44560000  1.0 0.1038560925
H  H240  1  0.33780000  0.94610000  0.94560000  1.0 0.1038560925
H  H241  1  0.49310000  0.60260000  0.42230000  1.0 0.1118453649
H  H242  1  0.50690000  0.39740000  0.92230000  1.0 0.1118453649
H  H243  1  0.49310000  0.89740000  0.57770000  1.0 0.1118453649
H  H244  1  0.50690000  0.10260000  0.07770000  1.0 0.1118453649
H  H245  1  0.50690000  0.39740000  0.57770000  1.0 0.1118453649
H  H246  1  0.49310000  0.60260000  0.07770000  1.0 0.1118453649
H  H247  1  0.50690000  0.10260000  0.42230000  1.0 0.1118453649
H  H248  1  0.49310000  0.89740000  0.92230000  1.0 0.1118453649
H  H249  1  0.01670000  0.39410000  0.64050000  1.0 0.1118453649
H  H250  1  0.98330000  0.60590000  0.14050000  1.0 0.1118453649
H  H251  1  0.01670000  0.10590000  0.35950000  1.0 0.1118453649
H  H252  1  0.98330000  0.89410000  0.85950000  1.0 0.1118453649
H  H253  1  0.98330000  0.60590000  0.35950000  1.0 0.1118453649
H  H254  1  0.01670000  0.39410000  0.85950000  1.0 0.1118453649
H  H255  1  0.98330000  0.89410000  0.64050000  1.0 0.1118453649
H  H256  1  0.01670000  0.10590000  0.14050000  1.0 0.1118453649
H  H257  1  0.71150000  0.55230000  0.77290000  1.0 0.385698219
H  H258  1  0.28850000  0.44770000  0.27290000  1.0 0.385698219
H  H259  1  0.71150000  0.94770000  0.22710000  1.0 0.385698219
H  H260  1  0.28850000  0.05230000  0.72710000  1.0 0.385698219
H  H261  1  0.28850000  0.44770000  0.22710000  1.0 0.385698219
H  H262  1  0.71150000  0.55230000  0.72710000  1.0 0.385698219
H  H263  1  0.28850000  0.05230000  0.77290000  1.0 0.385698219
H  H264  1  0.71150000  0.94770000  0.27290000  1.0 0.385698219
H  H265  1  0.95140000  0.37380000  0.36580000  1.0 0.137269136
H  H266  1  0.04860000  0.62620000  0.86580000  1.0 0.137269136
H  H267  1  0.95140000  0.12620000  0.63420000  1.0 0.137269136
H  H268  1  0.04860000  0.87380000  0.13420000  1.0 0.137269136
H  H269  1  0.04860000  0.62620000  0.63420000  1.0 0.137269136
H  H270  1  0.95140000  0.37380000  0.13420000  1.0 0.137269136
H  H271  1  0.04860000  0.87380000  0.36580000  1.0 0.137269136
H  H272  1  0.95140000  0.12620000  0.86580000  1.0 0.137269136
H  H273  1  0.85380000  0.48080000  0.44610000  1.0 0.1183954488
H  H274  1  0.14620000  0.51920000  0.94610000  1.0 0.1183954488
H  H275  1  0.85380000  0.01920000  0.55390000  1.0 0.1183954488
H  H276  1  0.14620000  0.98080000  0.05390000  1.0 0.1183954488
H  H277  1  0.14620000  0.51920000  0.55390000  1.0 0.1183954488
H  H278  1  0.85380000  0.48080000  0.05390000  1.0 0.1183954488
H  H279  1  0.14620000  0.98080000  0.44610000  1.0 0.1183954488
H  H280  1  0.85380000  0.01920000  0.94610000  1.0 0.1183954488
H  H281  1  0.98750000  0.40660000  0.43110000  1.0 0.1038560925
H  H282  1  0.01250000  0.59340000  0.93110000  1.0 0.1038560925
H  H283  1  0.98750000  0.09340000  0.56890000  1.0 0.1038560925
H  H284  1  0.01250000  0.90660000  0.06890000  1.0 0.1038560925
H  H285  1  0.01250000  0.59340000  0.56890000  1.0 0.1038560925
H  H286  1  0.98750000  0.40660000  0.06890000  1.0 0.1038560925
H  H287  1  0.01250000  0.90660000  0.43110000  1.0 0.1038560925
H  H288  1  0.98750000  0.09340000  0.93110000  1.0 0.1038560925
H  H289  1  0.81480000  0.44550000  0.38290000  1.0 0.1183954488
H  H290  1  0.18520000  0.55450000  0.88290000  1.0 0.1183954488
H  H291  1  0.81480000  0.05450000  0.61710000  1.0 0.1183954488
H  H292  1  0.18520000  0.94550000  0.11710000  1.0 0.1183954488
H  H293  1  0.18520000  0.55450000  0.61710000  1.0 0.1183954488
H  H294  1  0.81480000  0.44550000  0.11710000  1.0 0.1183954488
H  H295  1  0.18520000  0.94550000  0.38290000  1.0 0.1183954488
H  H296  1  0.81480000  0.05450000  0.88290000  1.0 0.1183954488
H  H297  1  0.62590000  0.56990000  0.65530000  1.0 0.1183954488
H  H298  1  0.37410000  0.43010000  0.15530000  1.0 0.1183954488
H  H299  1  0.62590000  0.93010000  0.34470000  1.0 0.1183954488
H  H300  1  0.37410000  0.06990000  0.84470000  1.0 0.1183954488
H  H301  1  0.37410000  0.43010000  0.34470000  1.0 0.1183954488
H  H302  1  0.62590000  0.56990000  0.84470000  1.0 0.1183954488
H  H303  1  0.37410000  0.06990000  0.65530000  1.0 0.1183954488
H  H304  1  0.62590000  0.93010000  0.15530000  1.0 0.1183954488
H  H305  1  0.40560000  0.85710000  0.37200000  1.0 0.1183954488
H  H306  1  0.59440000  0.14290000  0.87200000  1.0 0.1183954488
H  H307  1  0.40560000  0.64290000  0.62800000  1.0 0.1183954488
H  H308  1  0.59440000  0.35710000  0.12800000  1.0 0.1183954488
H  H309  1  0.59440000  0.14290000  0.62800000  1.0 0.1183954488
H  H310  1  0.40560000  0.85710000  0.12800000  1.0 0.1183954488
H  H311  1  0.59440000  0.35710000  0.37200000  1.0 0.1183954488
H  H312  1  0.40560000  0.64290000  0.87200000  1.0 0.1183954488
H  H313  1  0.21940000  0.83860000  0.41350000  1.0 0.1118453649
H  H314  1  0.78060000  0.16140000  0.91350000  1.0 0.1118453649
H  H315  1  0.21940000  0.66140000  0.58650000  1.0 0.1118453649
H  H316  1  0.78060000  0.33860000  0.08650000  1.0 0.1118453649
H  H317  1  0.78060000  0.16140000  0.58650000  1.0 0.1118453649
H  H318  1  0.21940000  0.83860000  0.08650000  1.0 0.1118453649
H  H319  1  0.78060000  0.33860000  0.41350000  1.0 0.1118453649
H  H320  1  0.21940000  0.66140000  0.91350000  1.0 0.1118453649
H  H321  1  0.25020000  0.80310000  0.35020000  1.0 0.1183954488
H  H322  1  0.74980000  0.19690000  0.85020000  1.0 0.1183954488
H  H323  1  0.25020000  0.69690000  0.64980000  1.0 0.1183954488
H  H324  1  0.74980000  0.30310000  0.14980000  1.0 0.1183954488
H  H325  1  0.74980000  0.19690000  0.64980000  1.0 0.1183954488
H  H326  1  0.25020000  0.80310000  0.14980000  1.0 0.1183954488
H  H327  1  0.74980000  0.30310000  0.35020000  1.0 0.1183954488
H  H328  1  0.25020000  0.69690000  0.85020000  1.0 0.1183954488
H  H329  1  0.26450000  0.81900000  0.58370000  1.0 0.1183954488
H  H330  1  0.73550000  0.18100000  0.08370000  1.0 0.1183954488
H  H331  1  0.26450000  0.68100000  0.41630000  1.0 0.1183954488
H  H332  1  0.73550000  0.31900000  0.91630000  1.0 0.1183954488
H  H333  1  0.73550000  0.18100000  0.41630000  1.0 0.1183954488
H  H334  1  0.26450000  0.81900000  0.91630000  1.0 0.1183954488
H  H335  1  0.73550000  0.31900000  0.58370000  1.0 0.1183954488
H  H336  1  0.26450000  0.68100000  0.08370000  1.0 0.1183954488
H  H337  1  0.23580000  0.77060000  0.64240000  1.0 0.1118453649
H  H338  1  0.76420000  0.22940000  0.14240000  1.0 0.1118453649
H  H339  1  0.23580000  0.72940000  0.35760000  1.0 0.1118453649
H  H340  1  0.76420000  0.27060000  0.85760000  1.0 0.1118453649
H  H341  1  0.76420000  0.22940000  0.35760000  1.0 0.1118453649
H  H342  1  0.23580000  0.77060000  0.85760000  1.0 0.1118453649
H  H343  1  0.76420000  0.27060000  0.64240000  1.0 0.1118453649
H  H344  1  0.23580000  0.72940000  0.14240000  1.0 0.1118453649
H  H345  1  0.36750000  0.90240000  0.43270000  1.0 0.1183954488
H  H346  1  0.63250000  0.09760000  0.93270000  1.0 0.1183954488
H  H347  1  0.36750000  0.59760000  0.56730000  1.0 0.1183954488
H  H348  1  0.63250000  0.40240000  0.06730000  1.0 0.1183954488
H  H349  1  0.63250000  0.09760000  0.56730000  1.0 0.1183954488
H  H350  1  0.36750000  0.90240000  0.06730000  1.0 0.1183954488
H  H351  1  0.63250000  0.40240000  0.43270000  1.0 0.1183954488
H  H352  1  0.36750000  0.59760000  0.93270000  1.0 0.1183954488
H  H353  1  0.14430000  0.33900000  0.54180000  1.0 0.1290897873
H  H354  1  0.85570000  0.66100000  0.04180000  1.0 0.1290897873
H  H355  1  0.14430000  0.16100000  0.45820000  1.0 0.1290897873
H  H356  1  0.85570000  0.83900000  0.95820000  1.0 0.1290897873
H  H357  1  0.85570000  0.66100000  0.45820000  1.0 0.1290897873
H  H358  1  0.14430000  0.33900000  0.95820000  1.0 0.1290897873
H  H359  1  0.85570000  0.83900000  0.54180000  1.0 0.1290897873
H  H360  1  0.14430000  0.16100000  0.04180000  1.0 0.1290897873
H  H361  1  0.08310000  0.39890000  0.52310000  1.0 0.1118453649
H  H362  1  0.91690000  0.60110000  0.02310000  1.0 0.1118453649
H  H363  1  0.08310000  0.10110000  0.47690000  1.0 0.1118453649
H  H364  1  0.91690000  0.89890000  0.97690000  1.0 0.1118453649
H  H365  1  0.91690000  0.60110000  0.47690000  1.0 0.1118453649
H  H366  1  0.08310000  0.39890000  0.97690000  1.0 0.1118453649
H  H367  1  0.91690000  0.89890000  0.52310000  1.0 0.1118453649
H  H368  1  0.08310000  0.10110000  0.02310000  1.0 0.1118453649
H  H369  1  0.24370000  0.31990000  0.77980000  1.0 0.0528831181
H  H370  1  0.75630000  0.68010000  0.27980000  1.0 0.0528831181
H  H371  1  0.24370000  0.18010000  0.22020000  1.0 0.0528831181
H  H372  1  0.75630000  0.81990000  0.72020000  1.0 0.0528831181
H  H373  1  0.75630000  0.68010000  0.22020000  1.0 0.0528831181
H  H374  1  0.24370000  0.31990000  0.72020000  1.0 0.0528831181
H  H375  1  0.75630000  0.81990000  0.77980000  1.0 0.0528831181
H  H376  1  0.24370000  0.18010000  0.27980000  1.0 0.0528831181
H  H377  1  0.21420000  0.31650000  0.73380000  1.0 0.0710086099
H  H378  1  0.78580000  0.68350000  0.23380000  1.0 0.0710086099
H  H379  1  0.21420000  0.18350000  0.26620000  1.0 0.0710086099
H  H380  1  0.78580000  0.81650000  0.76620000  1.0 0.0710086099
H  H381  1  0.78580000  0.68350000  0.26620000  1.0 0.0710086099
H  H382  1  0.21420000  0.31650000  0.76620000  1.0 0.0710086099
H  H383  1  0.78580000  0.81650000  0.73380000  1.0 0.0710086099
H  H384  1  0.21420000  0.18350000  0.23380000  1.0 0.0710086099
H  H385  1  0.27910000  0.32400000  0.73640000  1.0 0.0805883427
H  H386  1  0.72090000  0.67600000  0.23640000  1.0 0.0805883427
H  H387  1  0.27910000  0.17600000  0.26360000  1.0 0.0805883427
H  H388  1  0.72090000  0.82400000  0.76360000  1.0 0.0805883427
H  H389  1  0.72090000  0.67600000  0.26360000  1.0 0.0805883427
H  H390  1  0.27910000  0.32400000  0.76360000  1.0 0.0805883427
H  H391  1  0.72090000  0.82400000  0.73640000  1.0 0.0805883427
H  H392  1  0.27910000  0.17600000  0.23640000  1.0 0.0805883427
H  H393  1  0.01090000  0.68890000  0.77590000  1.0 0.1290897873
H  H394  1  0.98910000  0.31110000  0.27590000  1.0 0.1290897873
H  H395  1  0.01090000  0.81110000  0.22410000  1.0 0.1290897873
H  H396  1  0.98910000  0.18890000  0.72410000  1.0 0.1290897873
H  H397  1  0.98910000  0.31110000  0.22410000  1.0 0.1290897873
H  H398  1  0.01090000  0.68890000  0.72410000  1.0 0.1290897873
H  H399  1  0.98910000  0.18890000  0.77590000  1.0 0.1290897873
H  H400  1  0.01090000  0.81110000  0.27590000  1.0 0.1290897873
H  H401  1  0.00830000  0.67260000  0.73260000  1.0 0.0386673865
H  H402  1  0.99170000  0.32740000  0.23260000  1.0 0.0386673865
H  H403  1  0.00830000  0.82740000  0.26740000  1.0 0.0386673865
H  H404  1  0.99170000  0.17260000  0.76740000  1.0 0.0386673865
H  H405  1  0.99170000  0.32740000  0.26740000  1.0 0.0386673865
H  H406  1  0.00830000  0.67260000  0.76740000  1.0 0.0386673865
H  H407  1  0.99170000  0.17260000  0.73260000  1.0 0.0386673865
H  H408  1  0.00830000  0.82740000  0.23260000  1.0 0.0386673865
H  H409  1  0.26710000  0.70950000  0.23000000  1.0 0.1118453649
H  H410  1  0.73290000  0.29050000  0.73000000  1.0 0.1118453649
H  H411  1  0.26710000  0.79050000  0.77000000  1.0 0.1118453649
H  H412  1  0.73290000  0.20950000  0.27000000  1.0 0.1118453649
H  H413  1  0.73290000  0.29050000  0.77000000  1.0 0.1118453649
H  H414  1  0.26710000  0.70950000  0.27000000  1.0 0.1118453649
H  H415  1  0.73290000  0.20950000  0.23000000  1.0 0.1118453649
H  H416  1  0.26710000  0.79050000  0.73000000  1.0 0.1118453649
H  H417  1  0.27010000  0.70050000  0.27490000  1.0 0.1625451549
H  H418  1  0.72990000  0.29950000  0.77490000  1.0 0.1625451549
H  H419  1  0.27010000  0.79950000  0.72510000  1.0 0.1625451549
H  H420  1  0.72990000  0.20050000  0.22510000  1.0 0.1625451549
H  H421  1  0.72990000  0.29950000  0.72510000  1.0 0.1625451549
H  H422  1  0.27010000  0.70050000  0.22510000  1.0 0.1625451549
H  H423  1  0.72990000  0.20050000  0.27490000  1.0 0.1625451549
H  H424  1  0.27010000  0.79950000  0.77490000  1.0 0.1625451549
H  H425  1  0.48920000  0.73090000  0.27290000  1.0 0.2412971083
H  H426  1  0.51080000  0.26910000  0.77290000  1.0 0.2412971083
H  H427  1  0.48920000  0.76910000  0.72710000  1.0 0.2412971083
H  H428  1  0.51080000  0.23090000  0.22710000  1.0 0.2412971083
H  H429  1  0.51080000  0.26910000  0.72710000  1.0 0.2412971083
H  H430  1  0.48920000  0.73090000  0.22710000  1.0 0.2412971083
H  H431  1  0.51080000  0.23090000  0.27290000  1.0 0.2412971083
H  H432  1  0.48920000  0.76910000  0.77290000  1.0 0.2412971083
H  H433  1  0.01330000  0.67370000  0.72960000  1.0 0.0805883427
H  H434  1  0.98670000  0.32630000  0.22960000  1.0 0.0805883427
H  H435  1  0.01330000  0.82630000  0.27040000  1.0 0.0805883427
H  H436  1  0.98670000  0.17370000  0.77040000  1.0 0.0805883427
H  H437  1  0.98670000  0.32630000  0.27040000  1.0 0.0805883427
H  H438  1  0.01330000  0.67370000  0.77040000  1.0 0.0805883427
H  H439  1  0.98670000  0.17370000  0.72960000  1.0 0.0805883427
H  H440  1  0.01330000  0.82630000  0.22960000  1.0 0.0805883427
H  H441  1  0.63940000  0.71670000  0.75730000  1.0 0.1754662815
H  H442  1  0.36060000  0.28330000  0.25730000  1.0 0.1754662815
H  H443  1  0.63940000  0.78330000  0.24270000  1.0 0.1754662815
H  H444  1  0.36060000  0.21670000  0.74270000  1.0 0.1754662815
H  H445  1  0.36060000  0.28330000  0.24270000  1.0 0.1754662815
H  H446  1  0.63940000  0.71670000  0.74270000  1.0 0.1754662815
H  H447  1  0.36060000  0.21670000  0.75730000  1.0 0.1754662815
H  H448  1  0.63940000  0.78330000  0.25730000  1.0 0.1754662815
H  H449  1  0.26520000  0.70760000  0.22990000  1.0 0.1118453649
H  H450  1  0.73480000  0.29240000  0.72990000  1.0 0.1118453649
H  H451  1  0.26520000  0.79240000  0.77010000  1.0 0.1118453649
H  H452  1  0.73480000  0.20760000  0.27010000  1.0 0.1118453649
H  H453  1  0.73480000  0.29240000  0.77010000  1.0 0.1118453649
H  H454  1  0.26520000  0.70760000  0.27010000  1.0 0.1118453649
H  H455  1  0.73480000  0.20760000  0.22990000  1.0 0.1118453649
H  H456  1  0.26520000  0.79240000  0.72990000  1.0 0.1118453649
H  H457  1  0.22840000  0.67840000  0.76950000  1.0 0.1511259723
H  H458  1  0.77160000  0.32160000  0.26950000  1.0 0.1511259723
H  H459  1  0.22840000  0.82160000  0.23050000  1.0 0.1511259723
H  H460  1  0.77160000  0.17840000  0.73050000  1.0 0.1511259723
H  H461  1  0.77160000  0.32160000  0.23050000  1.0 0.1511259723
H  H462  1  0.22840000  0.67840000  0.73050000  1.0 0.1511259723
H  H463  1  0.77160000  0.17840000  0.76950000  1.0 0.1511259723
H  H464  1  0.22840000  0.82160000  0.26950000  1.0 0.1511259723
H  H465  1  0.22340000  0.66840000  0.72480000  1.0 0.2412971083
H  H466  1  0.77660000  0.33160000  0.22480000  1.0 0.2412971083
H  H467  1  0.22340000  0.83160000  0.27520000  1.0 0.2412971083
H  H468  1  0.77660000  0.16840000  0.77520000  1.0 0.2412971083
H  H469  1  0.77660000  0.33160000  0.27520000  1.0 0.2412971083
H  H470  1  0.22340000  0.66840000  0.77520000  1.0 0.2412971083
H  H471  1  0.77660000  0.16840000  0.72480000  1.0 0.2412971083
H  H472  1  0.22340000  0.83160000  0.22480000  1.0 0.2412971083
H  H473  1  0.01260000  0.68200000  0.77470000  1.0 0.1694433988
H  H474  1  0.98740000  0.31800000  0.27470000  1.0 0.1694433988
H  H475  1  0.01260000  0.81800000  0.22530000  1.0 0.1694433988
H  H476  1  0.98740000  0.18200000  0.72530000  1.0 0.1694433988
H  H477  1  0.98740000  0.31800000  0.22530000  1.0 0.1694433988
H  H478  1  0.01260000  0.68200000  0.72530000  1.0 0.1694433988
H  H479  1  0.98740000  0.18200000  0.77470000  1.0 0.1694433988
H  H480  1  0.01260000  0.81800000  0.27470000  1.0 0.1694433988
H  H481  1  0.26940000  0.69910000  0.27490000  1.0 0.1694433988
H  H482  1  0.73060000  0.30090000  0.77490000  1.0 0.1694433988
H  H483  1  0.26940000  0.80090000  0.72510000  1.0 0.1694433988
H  H484  1  0.73060000  0.19910000  0.22510000  1.0 0.1694433988
H  H485  1  0.73060000  0.30090000  0.72510000  1.0 0.1694433988
H  H486  1  0.26940000  0.69910000  0.22510000  1.0 0.1694433988
H  H487  1  0.73060000  0.19910000  0.27490000  1.0 0.1694433988
H  H488  1  0.26940000  0.80090000  0.77490000  1.0 0.1694433988
H  H489  1  0.62270000  0.68470000  0.72440000  1.0 0.1940703898
H  H490  1  0.37730000  0.31530000  0.22440000  1.0 0.1940703898
H  H491  1  0.62270000  0.81530000  0.27560000  1.0 0.1940703898
H  H492  1  0.37730000  0.18470000  0.77560000  1.0 0.1940703898
H  H493  1  0.37730000  0.31530000  0.27560000  1.0 0.1940703898
H  H494  1  0.62270000  0.68470000  0.77560000  1.0 0.1950053993
H  H495  1  0.37730000  0.18470000  0.72440000  1.0 0.1940703898
H  H496  1  0.62270000  0.81530000  0.22440000  1.0 0.1940703898
H  H497  1  0.48940000  0.72830000  0.27290000  1.0 0.2412971083
H  H498  1  0.51060000  0.27170000  0.77290000  1.0 0.2412971083
H  H499  1  0.48940000  0.77170000  0.72710000  1.0 0.2412971083
H  H500  1  0.51060000  0.22830000  0.22710000  1.0 0.2412971083
H  H501  1  0.51060000  0.27170000  0.72710000  1.0 0.2412971083
H  H502  1  0.48940000  0.72830000  0.22710000  1.0 0.2412971083
H  H503  1  0.51060000  0.22830000  0.27290000  1.0 0.2412971083
H  H504  1  0.48940000  0.77170000  0.77290000  1.0 0.2412971083
C  C1  1  0.24740000  0.30860000  0.75000000  1.0 -0.3961473134
C  C2  1  0.75260000  0.69140000  0.25000000  1.0 -0.3961473134
C  C3  1  0.24740000  0.19140000  0.25000000  1.0 -0.3938189175
C  C4  1  0.75260000  0.80860000  0.75000000  1.0 -0.3961473134
C  C5  1  0.25530000  0.25670000  0.75000000  1.0 0.6458786998
C  C6  1  0.74470000  0.74330000  0.25000000  1.0 0.6458786998
C  C7  1  0.25530000  0.24330000  0.25000000  1.0 0.6458786998
C  C8  1  0.74470000  0.75670000  0.75000000  1.0 0.6458786998
C  C9  1  0.85020000  0.60870000  0.64330000  1.0 -0.0340463965
C  C10  1  0.14980000  0.39130000  0.14330000  1.0 -0.0340463965
C  C11  1  0.85020000  0.89130000  0.35670000  1.0 -0.0340463965
C  C12  1  0.14980000  0.10870000  0.85670000  1.0 -0.0340463965
C  C13  1  0.14980000  0.39130000  0.35670000  1.0 -0.0340463965
C  C14  1  0.85020000  0.60870000  0.85670000  1.0 -0.0340463965
C  C15  1  0.14980000  0.10870000  0.64330000  1.0 -0.0340463965
C  C16  1  0.85020000  0.89130000  0.14330000  1.0 -0.0340463965
C  C17  1  0.16840000  0.30130000  0.61800000  1.0 0.5447094414
C  C18  1  0.83160000  0.69870000  0.11800000  1.0 0.5447094414
C  C19  1  0.16840000  0.19870000  0.38200000  1.0 0.5464743573
C  C20  1  0.83160000  0.80130000  0.88200000  1.0 0.5464743573
C  C21  1  0.83160000  0.69870000  0.38200000  1.0 0.5464743573
C  C22  1  0.16840000  0.30130000  0.88200000  1.0 0.5464743573
C  C23  1  0.83160000  0.80130000  0.61800000  1.0 0.5447094414
C  C24  1  0.16840000  0.19870000  0.11800000  1.0 0.5447094414
C  C25  1  0.41810000  0.57550000  0.44180000  1.0 0.0710086099
C  C26  1  0.58190000  0.42450000  0.94180000  1.0 0.0710086099
C  C27  1  0.41810000  0.92450000  0.55820000  1.0 0.0710086099
C  C28  1  0.58190000  0.07550000  0.05820000  1.0 0.0710086099
C  C29  1  0.58190000  0.42450000  0.55820000  1.0 0.0710086099
C  C30  1  0.41810000  0.57550000  0.05820000  1.0 0.0710086099
C  C31  1  0.58190000  0.07550000  0.44180000  1.0 0.0710086099
C  C32  1  0.41810000  0.92450000  0.94180000  1.0 0.0710086099
C  C33  1  0.38710000  0.41050000  0.53330000  1.0 -0.1610045343
C  C34  1  0.61290000  0.58950000  0.03330000  1.0 -0.1610045343
C  C35  1  0.38710000  0.08950000  0.46670000  1.0 -0.1610045343
C  C36  1  0.61290000  0.91050000  0.96670000  1.0 -0.1610045343
C  C37  1  0.61290000  0.58950000  0.46670000  1.0 -0.1610045343
C  C38  1  0.38710000  0.41050000  0.96670000  1.0 -0.1610045343
C  C39  1  0.61290000  0.91050000  0.53330000  1.0 -0.1610045343
C  C40  1  0.38710000  0.08950000  0.03330000  1.0 -0.1610045343
C  C41  1  0.88020000  0.40560000  0.36850000  1.0 0.0023081783
C  C42  1  0.11980000  0.59440000  0.86850000  1.0 0.0023081783
C  C43  1  0.88020000  0.09440000  0.63150000  1.0 0.0023081783
C  C44  1  0.11980000  0.90560000  0.13150000  1.0 0.0023081783
C  C45  1  0.11980000  0.59440000  0.63150000  1.0 0.0023081783
C  C46  1  0.88020000  0.40560000  0.13150000  1.0 0.0023081783
C  C47  1  0.11980000  0.90560000  0.36850000  1.0 0.0023081783
C  C48  1  0.88020000  0.09440000  0.86850000  1.0 0.0023081783
C  C49  1  0.48890000  0.56220000  0.55320000  1.0 0.0805883427
C  C50  1  0.51110000  0.43780000  0.05320000  1.0 0.0805883427
C  C51  1  0.48890000  0.93780000  0.44680000  1.0 0.0805883427
C  C52  1  0.51110000  0.06220000  0.94680000  1.0 0.0805883427
C  C53  1  0.51110000  0.43780000  0.44680000  1.0 0.0805883427
C  C54  1  0.48890000  0.56220000  0.94680000  1.0 0.0805883427
C  C55  1  0.51110000  0.06220000  0.55320000  1.0 0.0805883427
C  C56  1  0.48890000  0.93780000  0.05320000  1.0 0.0805883427
C  C57  1  0.39840000  0.44900000  0.56000000  1.0 0.0601311902
C  C58  1  0.60160000  0.55100000  0.06000000  1.0 0.0601311902
C  C59  1  0.39840000  0.05100000  0.44000000  1.0 0.0601311902
C  C60  1  0.60160000  0.94900000  0.94000000  1.0 0.0601311902
C  C61  1  0.60160000  0.55100000  0.44000000  1.0 0.0601311902
C  C62  1  0.39840000  0.44900000  0.94000000  1.0 0.0601311902
C  C63  1  0.60160000  0.94900000  0.56000000  1.0 0.0601311902
C  C64  1  0.39840000  0.05100000  0.06000000  1.0 0.0601311902
C  C65  1  0.89170000  0.58220000  0.57500000  1.0 -0.1610045343
C  C66  1  0.10830000  0.41780000  0.07500000  1.0 -0.1610045343
C  C67  1  0.89170000  0.91780000  0.42500000  1.0 -0.1610045343
C  C68  1  0.10830000  0.08220000  0.92500000  1.0 -0.1610045343
C  C69  1  0.10830000  0.41780000  0.42500000  1.0 -0.1610045343
C  C70  1  0.89170000  0.58220000  0.92500000  1.0 -0.1610045343
C  C71  1  0.10830000  0.08220000  0.57500000  1.0 -0.1610045343
C  C72  1  0.89170000  0.91780000  0.07500000  1.0 -0.1610045343
C  C73  1  0.26260000  0.08690000  0.56990000  1.0 -0.092626497
C  C74  1  0.73740000  0.91310000  0.06990000  1.0 -0.092626497
C  C75  1  0.26260000  0.41310000  0.43010000  1.0 -0.092626497
C  C76  1  0.73740000  0.58690000  0.93010000  1.0 -0.092626497
C  C77  1  0.73740000  0.91310000  0.43010000  1.0 -0.092626497
C  C78  1  0.26260000  0.08690000  0.93010000  1.0 -0.092626497
C  C79  1  0.73740000  0.58690000  0.56990000  1.0 -0.092626497
C  C80  1  0.26260000  0.41310000  0.06990000  1.0 -0.092626497
C  C81  1  0.46300000  0.52080000  0.56880000  1.0 -0.1995365308
C  C82  1  0.53700000  0.47920000  0.06880000  1.0 -0.1995365308
C  C83  1  0.46300000  0.97920000  0.43120000  1.0 -0.1995365308
C  C84  1  0.53700000  0.02080000  0.93120000  1.0 -0.1995365308
C  C85  1  0.53700000  0.47920000  0.43120000  1.0 -0.1995365308
C  C86  1  0.46300000  0.52080000  0.93120000  1.0 -0.1995365308
C  C87  1  0.53700000  0.02080000  0.56880000  1.0 -0.1995365308
C  C88  1  0.46300000  0.97920000  0.06880000  1.0 -0.1995365308
C  C89  1  0.92850000  0.49780000  0.56500000  1.0 0.0805883427
C  C90  1  0.07150000  0.50220000  0.06500000  1.0 0.0805883427
C  C91  1  0.92850000  0.00220000  0.43500000  1.0 0.0805883427
C  C92  1  0.07150000  0.99780000  0.93500000  1.0 0.0805883427
C  C93  1  0.07150000  0.50220000  0.43500000  1.0 0.0805883427
C  C94  1  0.92850000  0.49780000  0.93500000  1.0 0.0805883427
C  C95  1  0.07150000  0.99780000  0.56500000  1.0 0.0805883427
C  C96  1  0.92850000  0.00220000  0.06500000  1.0 0.0805883427
C  C97  1  0.97560000  0.42330000  0.51610000  1.0 -0.1995365308
C  C98  1  0.02440000  0.57670000  0.01610000  1.0 -0.1995365308
C  C99  1  0.97560000  0.07670000  0.48390000  1.0 -0.1995365308
C  C100  1  0.02440000  0.92330000  0.98390000  1.0 -0.1995365308
C  C101  1  0.02440000  0.57670000  0.48390000  1.0 -0.1995365308
C  C102  1  0.97560000  0.42330000  0.98390000  1.0 -0.1995365308
C  C103  1  0.02440000  0.92330000  0.51610000  1.0 -0.1995365308
C  C104  1  0.97560000  0.07670000  0.01610000  1.0 -0.1995365308
C  C105  1  0.21650000  0.93590000  0.54370000  1.0 -0.1995365308
C  C106  1  0.78350000  0.06410000  0.04370000  1.0 -0.1995365308
C  C107  1  0.21650000  0.56410000  0.45630000  1.0 -0.1995365308
C  C108  1  0.78350000  0.43590000  0.95630000  1.0 -0.1995365308
C  C109  1  0.78350000  0.06410000  0.45630000  1.0 -0.1995365308
C  C110  1  0.21650000  0.93590000  0.95630000  1.0 -0.1995365308
C  C111  1  0.78350000  0.43590000  0.54370000  1.0 -0.1995365308
C  C112  1  0.21650000  0.56410000  0.04370000  1.0 -0.1995365308
C  C113  1  0.25690000  0.17350000  0.54560000  1.0 0.5930190656
C  C114  1  0.74310000  0.82650000  0.04560000  1.0 0.5930190656
C  C115  1  0.25690000  0.32650000  0.45440000  1.0 0.5930190656
C  C116  1  0.74310000  0.67350000  0.95440000  1.0 0.5930190656
C  C117  1  0.74310000  0.82650000  0.45440000  1.0 0.5930190656
C  C118  1  0.25690000  0.17350000  0.95440000  1.0 0.5930190656
C  C119  1  0.74310000  0.67350000  0.54560000  1.0 0.5930190656
C  C120  1  0.25690000  0.32650000  0.04560000  1.0 0.5930190656
C  C121  1  0.24710000  0.01950000  0.52020000  1.0 0.0601311902
C  C122  1  0.75290000  0.98050000  0.02020000  1.0 0.0601311902
C  C123  1  0.24710000  0.48050000  0.47980000  1.0 0.0601311902
C  C124  1  0.75290000  0.51950000  0.97980000  1.0 0.0601311902
C  C125  1  0.75290000  0.98050000  0.47980000  1.0 0.0601311902
C  C126  1  0.24710000  0.01950000  0.97980000  1.0 0.0601311902
C  C127  1  0.75290000  0.51950000  0.52020000  1.0 0.0601311902
C  C128  1  0.24710000  0.48050000  0.02020000  1.0 0.0601311902
C  C129  1  0.86690000  0.61820000  0.60030000  1.0 -0.0797896477
C  C130  1  0.13310000  0.38180000  0.10030000  1.0 -0.0797896477
C  C131  1  0.86690000  0.88180000  0.39970000  1.0 -0.0797896477
C  C132  1  0.13310000  0.11820000  0.89970000  1.0 -0.0797896477
C  C133  1  0.13310000  0.38180000  0.39970000  1.0 -0.0797896477
C  C134  1  0.86690000  0.61820000  0.89970000  1.0 -0.0797896477
C  C135  1  0.13310000  0.11820000  0.60030000  1.0 -0.0797896477
C  C136  1  0.86690000  0.88180000  0.10030000  1.0 -0.0797896477
C  C137  1  0.90180000  0.53690000  0.59230000  1.0 0.0601311902
C  C138  1  0.09820000  0.46310000  0.09230000  1.0 0.0601311902
C  C139  1  0.90180000  0.96310000  0.40770000  1.0 0.0601311902
C  C140  1  0.09820000  0.03690000  0.90770000  1.0 0.0601311902
C  C141  1  0.09820000  0.46310000  0.40770000  1.0 0.0601311902
C  C142  1  0.90180000  0.53690000  0.90770000  1.0 0.0601311902
C  C143  1  0.09820000  0.03690000  0.59230000  1.0 0.0601311902
C  C144  1  0.90180000  0.96310000  0.09230000  1.0 0.0601311902
C  C145  1  0.25980000  0.03780000  0.56270000  1.0 -0.1610045343
C  C146  1  0.74020000  0.96220000  0.06270000  1.0 -0.1610045343
C  C147  1  0.25980000  0.46220000  0.43730000  1.0 -0.1610045343
C  C148  1  0.74020000  0.53780000  0.93730000  1.0 -0.1610045343
C  C149  1  0.74020000  0.96220000  0.43730000  1.0 -0.1610045343
C  C150  1  0.25980000  0.03780000  0.93730000  1.0 -0.1610045343
C  C151  1  0.74020000  0.53780000  0.56270000  1.0 -0.1610045343
C  C152  1  0.25980000  0.46220000  0.06270000  1.0 -0.1610045343
C  C153  1  0.37970000  0.62050000  0.36370000  1.0 -0.0220881158
C  C154  1  0.62030000  0.37950000  0.86370000  1.0 -0.0220881158
C  C155  1  0.37970000  0.87950000  0.63630000  1.0 -0.0220881158
C  C156  1  0.62030000  0.12050000  0.13630000  1.0 -0.0220881158
C  C157  1  0.62030000  0.37950000  0.63630000  1.0 -0.0220881158
C  C158  1  0.37970000  0.62050000  0.13630000  1.0 -0.0220881158
C  C159  1  0.62030000  0.12050000  0.36370000  1.0 -0.0220881158
C  C160  1  0.37970000  0.87950000  0.86370000  1.0 -0.0220881158
C  C161  1  0.32250000  0.31780000  0.61050000  1.0 0.5464743573
C  C162  1  0.67750000  0.68220000  0.11050000  1.0 0.5464743573
C  C163  1  0.32250000  0.18220000  0.38950000  1.0 0.5464743573
C  C164  1  0.67750000  0.81780000  0.88950000  1.0 0.5464743573
C  C165  1  0.67750000  0.68220000  0.38950000  1.0 0.5464743573
C  C166  1  0.32250000  0.31780000  0.88950000  1.0 0.5464743573
C  C167  1  0.67750000  0.81780000  0.61050000  1.0 0.5464743573
C  C168  1  0.32250000  0.18220000  0.11050000  1.0 0.5464743573
C  C169  1  0.91540000  0.43890000  0.45170000  1.0 0.0710086099
C  C170  1  0.08460000  0.56110000  0.95170000  1.0 0.0710086099
C  C171  1  0.91540000  0.06110000  0.54830000  1.0 0.0710086099
C  C172  1  0.08460000  0.93890000  0.04830000  1.0 0.0710086099
C  C173  1  0.08460000  0.56110000  0.54830000  1.0 0.0710086099
C  C174  1  0.91540000  0.43890000  0.04830000  1.0 0.0710086099
C  C175  1  0.08460000  0.93890000  0.45170000  1.0 0.0710086099
C  C176  1  0.91540000  0.06110000  0.95170000  1.0 0.0710086099
C  C177  1  0.24200000  0.10250000  0.49450000  1.0 -0.092626497
C  C178  1  0.75800000  0.89750000  0.99450000  1.0 -0.092626497
C  C179  1  0.24200000  0.39750000  0.50550000  1.0 -0.092626497
C  C180  1  0.75800000  0.60250000  0.00550000  1.0 -0.092626497
C  C181  1  0.75800000  0.89750000  0.50550000  1.0 -0.092626497
C  C182  1  0.24200000  0.10250000  0.00550000  1.0 -0.092626497
C  C183  1  0.75800000  0.60250000  0.49450000  1.0 -0.092626497
C  C184  1  0.24200000  0.39750000  0.99450000  1.0 -0.092626497
C  C185  1  0.47340000  0.57950000  0.51090000  1.0 -0.1995365308
C  C186  1  0.52660000  0.42050000  0.01090000  1.0 -0.1995365308
C  C187  1  0.47340000  0.92050000  0.48910000  1.0 -0.1995365308
C  C188  1  0.52660000  0.07950000  0.98910000  1.0 -0.1995365308
C  C189  1  0.52660000  0.42050000  0.48910000  1.0 -0.1995365308
C  C190  1  0.47340000  0.57950000  0.98910000  1.0 -0.1995365308
C  C191  1  0.52660000  0.07950000  0.51090000  1.0 -0.1995365308
C  C192  1  0.47340000  0.92050000  0.01090000  1.0 -0.1995365308
C  C193  1  0.21560000  0.88590000  0.53970000  1.0 0.0900845286
C  C194  1  0.78440000  0.11410000  0.03970000  1.0 0.0900845286
C  C195  1  0.21560000  0.61410000  0.46030000  1.0 0.0900845286
C  C196  1  0.78440000  0.38590000  0.96030000  1.0 0.0900845286
C  C197  1  0.78440000  0.11410000  0.46030000  1.0 0.0900845286
C  C198  1  0.21560000  0.88590000  0.96030000  1.0 0.0900845286
C  C199  1  0.78440000  0.38590000  0.53970000  1.0 0.0900845286
C  C200  1  0.21560000  0.61410000  0.03970000  1.0 0.0900845286
C  C201  1  0.91190000  0.48950000  0.52170000  1.0 -0.1995365308
C  C202  1  0.08810000  0.51050000  0.02170000  1.0 -0.1995365308
C  C203  1  0.91190000  0.01050000  0.47830000  1.0 -0.1995365308
C  C204  1  0.08810000  0.98950000  0.97830000  1.0 -0.1995365308
C  C205  1  0.08810000  0.51050000  0.47830000  1.0 -0.1995365308
C  C206  1  0.91190000  0.48950000  0.97830000  1.0 -0.1995365308
C  C207  1  0.08810000  0.98950000  0.52170000  1.0 -0.1995365308
C  C208  1  0.91190000  0.01050000  0.02170000  1.0 -0.1995365308
C  C209  1  0.24330000  0.96590000  0.51370000  1.0 0.0710086099
C  C210  1  0.75670000  0.03410000  0.01370000  1.0 0.0710086099
C  C211  1  0.24330000  0.53410000  0.48630000  1.0 0.0710086099
C  C212  1  0.75670000  0.46590000  0.98630000  1.0 0.0710086099
C  C213  1  0.75670000  0.03410000  0.48630000  1.0 0.0710086099
C  C214  1  0.24330000  0.96590000  0.98630000  1.0 0.0710086099
C  C215  1  0.75670000  0.46590000  0.51370000  1.0 0.0710086099
C  C216  1  0.24330000  0.53410000  0.01370000  1.0 0.0710086099
C  C217  1  0.12210000  0.33500000  0.60500000  1.0 -0.0109406651
C  C218  1  0.87790000  0.66500000  0.10500000  1.0 -0.0109406651
C  C219  1  0.12210000  0.16500000  0.39500000  1.0 -0.0109406651
C  C220  1  0.87790000  0.83500000  0.89500000  1.0 -0.0109406651
C  C221  1  0.87790000  0.66500000  0.39500000  1.0 -0.0109406651
C  C222  1  0.12210000  0.33500000  0.89500000  1.0 -0.0109406651
C  C223  1  0.87790000  0.83500000  0.60500000  1.0 -0.0109406651
C  C224  1  0.12210000  0.16500000  0.10500000  1.0 -0.0109406651
C  C225  1  0.03890000  0.39830000  0.57680000  1.0 0.0601311902
C  C226  1  0.96110000  0.60170000  0.07680000  1.0 0.0601311902
C  C227  1  0.03890000  0.10170000  0.42320000  1.0 0.0601311902
C  C228  1  0.96110000  0.89830000  0.92320000  1.0 0.0601311902
C  C229  1  0.96110000  0.60170000  0.42320000  1.0 0.0601311902
C  C230  1  0.03890000  0.39830000  0.92320000  1.0 0.0601311902
C  C231  1  0.96110000  0.89830000  0.57680000  1.0 0.0601311902
C  C232  1  0.03890000  0.10170000  0.07680000  1.0 0.0601311902
C  C233  1  0.97060000  0.46780000  0.58340000  1.0 -0.1995365308
C  C234  1  0.02940000  0.53220000  0.08340000  1.0 -0.1995365308
C  C235  1  0.97060000  0.03220000  0.41660000  1.0 -0.1995365308
C  C236  1  0.02940000  0.96780000  0.91660000  1.0 -0.1995365308
C  C237  1  0.02940000  0.53220000  0.41660000  1.0 -0.1995365308
C  C238  1  0.97060000  0.46780000  0.91660000  1.0 -0.1995365308
C  C239  1  0.02940000  0.96780000  0.58340000  1.0 -0.1995365308
C  C240  1  0.97060000  0.03220000  0.08340000  1.0 -0.1995365308
C  C241  1  0.40970000  0.51250000  0.50160000  1.0 -0.1942187984
C  C242  1  0.59030000  0.48750000  0.00160000  1.0 -0.1942187984
C  C243  1  0.40970000  0.98750000  0.49840000  1.0 -0.1942187984
C  C244  1  0.59030000  0.01250000  0.99840000  1.0 -0.1942187984
C  C245  1  0.59030000  0.48750000  0.49840000  1.0 -0.1942187984
C  C246  1  0.40970000  0.51250000  0.99840000  1.0 -0.1942187984
C  C247  1  0.59030000  0.01250000  0.50160000  1.0 -0.1942187984
C  C248  1  0.40970000  0.98750000  0.00160000  1.0 -0.1942187984
C  C249  1  0.42420000  0.49480000  0.54330000  1.0 0.0805883427
C  C250  1  0.57580000  0.50520000  0.04330000  1.0 0.0805883427
C  C251  1  0.42420000  0.00520000  0.45670000  1.0 0.0805883427
C  C252  1  0.57580000  0.99480000  0.95670000  1.0 0.0805883427
C  C253  1  0.57580000  0.50520000  0.45670000  1.0 0.0805883427
C  C254  1  0.42420000  0.49480000  0.95670000  1.0 0.0805883427
C  C255  1  0.57580000  0.99480000  0.54330000  1.0 0.0805883427
C  C256  1  0.42420000  0.00520000  0.04330000  1.0 0.0805883427
C  C257  1  0.08340000  0.35250000  0.63370000  1.0 -0.0730875905
C  C258  1  0.91660000  0.64750000  0.13370000  1.0 -0.0730875905
C  C259  1  0.08340000  0.14750000  0.36630000  1.0 -0.0730875905
C  C260  1  0.91660000  0.85250000  0.86630000  1.0 -0.0730875905
C  C261  1  0.91660000  0.64750000  0.36630000  1.0 -0.0730875905
C  C262  1  0.08340000  0.35250000  0.86630000  1.0 -0.0730875905
C  C263  1  0.91660000  0.85250000  0.63370000  1.0 -0.0730875905
C  C264  1  0.08340000  0.14750000  0.13370000  1.0 -0.0730875905
C  C265  1  0.34770000  0.79370000  0.31630000  1.0 0.5291250471
C  C266  1  0.65230000  0.20630000  0.81630000  1.0 0.5291250471
C  C267  1  0.34770000  0.70630000  0.68370000  1.0 0.5291250471
C  C268  1  0.65230000  0.29370000  0.18370000  1.0 0.5291250471
C  C269  1  0.65230000  0.20630000  0.68370000  1.0 0.5291250471
C  C270  1  0.34770000  0.79370000  0.18370000  1.0 0.5291250471
C  C271  1  0.65230000  0.29370000  0.31630000  1.0 0.5291250471
C  C272  1  0.34770000  0.70630000  0.81630000  1.0 0.5291250471
C  C273  1  0.53110000  0.58830000  0.57970000  1.0 0.0710086099
C  C274  1  0.46890000  0.41170000  0.07970000  1.0 0.0710086099
C  C275  1  0.53110000  0.91170000  0.42030000  1.0 0.0710086099
C  C276  1  0.46890000  0.08830000  0.92030000  1.0 0.0710086099
C  C277  1  0.46890000  0.41170000  0.42030000  1.0 0.0710086099
C  C278  1  0.53110000  0.58830000  0.92030000  1.0 0.0710086099
C  C279  1  0.46890000  0.08830000  0.57970000  1.0 0.0710086099
C  C280  1  0.53110000  0.91170000  0.07970000  1.0 0.0710086099
C  C281  1  0.99350000  0.43010000  0.55970000  1.0 0.0900845286
C  C282  1  0.00650000  0.56990000  0.05970000  1.0 0.0805883427
C  C283  1  0.99350000  0.06990000  0.44030000  1.0 0.0805883427
C  C284  1  0.00650000  0.93010000  0.94030000  1.0 0.0900845286
C  C285  1  0.00650000  0.56990000  0.44030000  1.0 0.0805883427
C  C286  1  0.99350000  0.43010000  0.94030000  1.0 0.0805883427
C  C287  1  0.00650000  0.93010000  0.55970000  1.0 0.0805883427
C  C288  1  0.99350000  0.06990000  0.05970000  1.0 0.0805883427
C  C289  1  0.19330000  0.85510000  0.57590000  1.0 0.0601311902
C  C290  1  0.80670000  0.14490000  0.07590000  1.0 0.0601311902
C  C291  1  0.19330000  0.64490000  0.42410000  1.0 0.0601311902
C  C292  1  0.80670000  0.35510000  0.92410000  1.0 0.0601311902
C  C293  1  0.80670000  0.14490000  0.42410000  1.0 0.0601311902
C  C294  1  0.19330000  0.85510000  0.92410000  1.0 0.0601311902
C  C295  1  0.80670000  0.35510000  0.57590000  1.0 0.0601311902
C  C296  1  0.19330000  0.64490000  0.07590000  1.0 0.0601311902
C  C297  1  0.88620000  0.52770000  0.63470000  1.0 -0.1610045343
C  C298  1  0.11380000  0.47230000  0.13470000  1.0 -0.1610045343
C  C299  1  0.88620000  0.97230000  0.36530000  1.0 -0.1610045343
C  C300  1  0.11380000  0.02770000  0.86530000  1.0 -0.1610045343
C  C301  1  0.11380000  0.47230000  0.36530000  1.0 -0.1610045343
C  C302  1  0.88620000  0.52770000  0.86530000  1.0 -0.1610045343
C  C303  1  0.11380000  0.02770000  0.63470000  1.0 -0.1610045343
C  C304  1  0.88620000  0.97230000  0.13470000  1.0 -0.1610045343
C  C305  1  0.23870000  0.05250000  0.48770000  1.0 -0.1497075235
C  C306  1  0.76130000  0.94750000  0.98770000  1.0 -0.1497075235
C  C307  1  0.23870000  0.44750000  0.51230000  1.0 -0.1497075235
C  C308  1  0.76130000  0.55250000  0.01230000  1.0 -0.1497075235
C  C309  1  0.76130000  0.94750000  0.51230000  1.0 -0.1497075235
C  C310  1  0.23870000  0.05250000  0.01230000  1.0 -0.1497075235
C  C311  1  0.76130000  0.55250000  0.48770000  1.0 -0.1497075235
C  C312  1  0.23870000  0.44750000  0.98770000  1.0 -0.1497075235
C  C313  1  0.24160000  0.86530000  0.50320000  1.0 -0.2069362745
C  C314  1  0.75840000  0.13470000  0.00320000  1.0 -0.2069362745
C  C315  1  0.24160000  0.63470000  0.49680000  1.0 -0.2069362745
C  C316  1  0.75840000  0.36530000  0.99680000  1.0 -0.2069362745
C  C317  1  0.75840000  0.13470000  0.49680000  1.0 -0.2069362745
C  C318  1  0.24160000  0.86530000  0.99680000  1.0 -0.2069362745
C  C319  1  0.75840000  0.36530000  0.50320000  1.0 -0.2069362745
C  C320  1  0.24160000  0.63470000  0.00320000  1.0 -0.2069362745
C  C321  1  0.35120000  0.36250000  0.59390000  1.0 -0.0109406651
C  C322  1  0.64880000  0.63750000  0.09390000  1.0 -0.0109406651
C  C323  1  0.35120000  0.13750000  0.40610000  1.0 -0.0109406651
C  C324  1  0.64880000  0.86250000  0.90610000  1.0 -0.0109406651
C  C325  1  0.64880000  0.63750000  0.40610000  1.0 -0.0109406651
C  C326  1  0.35120000  0.36250000  0.90610000  1.0 -0.0109406651
C  C327  1  0.64880000  0.86250000  0.59390000  1.0 -0.0109406651
C  C328  1  0.35120000  0.13750000  0.09390000  1.0 -0.0109406651
C  C329  1  0.36430000  0.36730000  0.54890000  1.0 -0.092626497
C  C330  1  0.63570000  0.63270000  0.04890000  1.0 -0.092626497
C  C331  1  0.36430000  0.13270000  0.45110000  1.0 -0.092626497
C  C332  1  0.63570000  0.86730000  0.95110000  1.0 -0.092626497
C  C333  1  0.63570000  0.63270000  0.45110000  1.0 -0.092626497
C  C334  1  0.36430000  0.36730000  0.95110000  1.0 -0.092626497
C  C335  1  0.63570000  0.86730000  0.54890000  1.0 -0.092626497
C  C336  1  0.36430000  0.13270000  0.04890000  1.0 -0.092626497
C  C337  1  0.81860000  0.64600000  0.66870000  1.0 0.63186079
C  C338  1  0.18140000  0.35400000  0.16870000  1.0 0.63186079
C  C339  1  0.81860000  0.85400000  0.33130000  1.0 0.63186079
C  C340  1  0.18140000  0.14600000  0.83130000  1.0 0.63186079
C  C341  1  0.18140000  0.35400000  0.33130000  1.0 0.63186079
C  C342  1  0.81860000  0.64600000  0.83130000  1.0 0.63186079
C  C343  1  0.18140000  0.14600000  0.66870000  1.0 0.63186079
C  C344  1  0.81860000  0.85400000  0.16870000  1.0 0.63186079
C  C345  1  0.14250000  0.76520000  0.68400000  1.0 0.5143783662
C  C346  1  0.85750000  0.23480000  0.18400000  1.0 0.5143783662
C  C347  1  0.14250000  0.73480000  0.31600000  1.0 0.5143783662
C  C348  1  0.85750000  0.26520000  0.81600000  1.0 0.515460727
C  C349  1  0.85750000  0.23480000  0.31600000  1.0 0.515460727
C  C350  1  0.14250000  0.76520000  0.81600000  1.0 0.515460727
C  C351  1  0.85750000  0.26520000  0.68400000  1.0 0.515460727
C  C352  1  0.14250000  0.73480000  0.18400000  1.0 0.5143783662
C  C353  1  0.35470000  0.64650000  0.32400000  1.0 0.6023633975
C  C354  1  0.64530000  0.35350000  0.82400000  1.0 0.6023633975
C  C355  1  0.35470000  0.85350000  0.67600000  1.0 0.6023633975
C  C356  1  0.64530000  0.14650000  0.17600000  1.0 0.6023633975
C  C357  1  0.64530000  0.35350000  0.67600000  1.0 0.6023633975
C  C358  1  0.35470000  0.64650000  0.17600000  1.0 0.6023633975
C  C359  1  0.64530000  0.14650000  0.32400000  1.0 0.6023633975
C  C360  1  0.35470000  0.85350000  0.82400000  1.0 0.6023633975
C  C361  1  0.26900000  0.94490000  0.47590000  1.0 -0.1995365308
C  C362  1  0.73100000  0.05510000  0.97590000  1.0 -0.1995365308
C  C363  1  0.26900000  0.55510000  0.52410000  1.0 -0.1995365308
C  C364  1  0.73100000  0.44490000  0.02410000  1.0 -0.1995365308
C  C365  1  0.73100000  0.05510000  0.52410000  1.0 -0.1995365308
C  C366  1  0.26900000  0.94490000  0.02410000  1.0 -0.1995365308
C  C367  1  0.73100000  0.44490000  0.47590000  1.0 -0.1995365308
C  C368  1  0.26900000  0.55510000  0.97590000  1.0 -0.1995365308
C  C369  1  0.25450000  0.11880000  0.53690000  1.0 -0.0220881158
C  C370  1  0.74550000  0.88120000  0.03690000  1.0 -0.0220881158
C  C371  1  0.25450000  0.38120000  0.46310000  1.0 -0.0220881158
C  C372  1  0.74550000  0.61880000  0.96310000  1.0 -0.0220881158
C  C373  1  0.74550000  0.88120000  0.46310000  1.0 -0.0220881158
C  C374  1  0.25450000  0.11880000  0.96310000  1.0 -0.0220881158
C  C375  1  0.74550000  0.61880000  0.53690000  1.0 -0.0220881158
C  C376  1  0.25450000  0.38120000  0.03690000  1.0 -0.0220881158
C  C377  1  0.43380000  0.55530000  0.48540000  1.0 0.0805883427
C  C378  1  0.56620000  0.44470000  0.98540000  1.0 0.0805883427
C  C379  1  0.43380000  0.94470000  0.51460000  1.0 0.0805883427
C  C380  1  0.56620000  0.05530000  0.01460000  1.0 0.0805883427
C  C381  1  0.56620000  0.44470000  0.51460000  1.0 0.0805883427
C  C382  1  0.43380000  0.55530000  0.01460000  1.0 0.0805883427
C  C383  1  0.56620000  0.05530000  0.48540000  1.0 0.0805883427
C  C384  1  0.43380000  0.94470000  0.98540000  1.0 0.0805883427
C  C385  1  0.34390000  0.59310000  0.38910000  1.0 -0.1111582305
C  C386  1  0.65610000  0.40690000  0.88910000  1.0 -0.1111582305
C  C387  1  0.34390000  0.90690000  0.61090000  1.0 -0.1111582305
C  C388  1  0.65610000  0.09310000  0.11090000  1.0 -0.1111582305
C  C389  1  0.65610000  0.40690000  0.61090000  1.0 -0.1111582305
C  C390  1  0.34390000  0.59310000  0.11090000  1.0 -0.1111582305
C  C391  1  0.65610000  0.09310000  0.38910000  1.0 -0.1111582305
C  C392  1  0.34390000  0.90690000  0.88910000  1.0 -0.1111582305
C  C393  1  0.85990000  0.56350000  0.66030000  1.0 -0.092626497
C  C394  1  0.14010000  0.43650000  0.16030000  1.0 -0.092626497
C  C395  1  0.85990000  0.93650000  0.33970000  1.0 -0.092626497
C  C396  1  0.14010000  0.06350000  0.83970000  1.0 -0.092626497
C  C397  1  0.14010000  0.43650000  0.33970000  1.0 -0.092626497
C  C398  1  0.85990000  0.56350000  0.83970000  1.0 -0.092626497
C  C399  1  0.14010000  0.06350000  0.66030000  1.0 -0.092626497
C  C400  1  0.85990000  0.93650000  0.16030000  1.0 -0.092626497
C  C401  1  0.15880000  0.79750000  0.64670000  1.0 -0.0109406651
C  C402  1  0.84120000  0.20250000  0.14670000  1.0 -0.0109406651
C  C403  1  0.15880000  0.70250000  0.35330000  1.0 -0.0109406651
C  C404  1  0.84120000  0.29750000  0.85330000  1.0 -0.0109406651
C  C405  1  0.84120000  0.20250000  0.35330000  1.0 -0.0109406651
C  C406  1  0.15880000  0.79750000  0.85330000  1.0 -0.0109406651
C  C407  1  0.84120000  0.29750000  0.64670000  1.0 -0.0109406651
C  C408  1  0.15880000  0.70250000  0.14670000  1.0 -0.0109406651
C  C409  1  0.38660000  0.44370000  0.60540000  1.0 -0.1666449021
C  C410  1  0.61340000  0.55630000  0.10540000  1.0 -0.1666449021
C  C411  1  0.38660000  0.05630000  0.39460000  1.0 -0.1666449021
C  C412  1  0.61340000  0.94370000  0.89460000  1.0 -0.1666449021
C  C413  1  0.61340000  0.55630000  0.39460000  1.0 -0.1666449021
C  C414  1  0.38660000  0.44370000  0.89460000  1.0 -0.1666449021
C  C415  1  0.61340000  0.94370000  0.60540000  1.0 -0.1666449021
C  C416  1  0.38660000  0.05630000  0.10540000  1.0 -0.1666449021
C  C417  1  0.58190000  0.65980000  0.60030000  1.0 -0.0797896477
C  C418  1  0.41810000  0.34020000  0.10030000  1.0 -0.0797896477
C  C419  1  0.58190000  0.84020000  0.39970000  1.0 -0.0797896477
C  C420  1  0.41810000  0.15980000  0.89970000  1.0 -0.0797896477
C  C421  1  0.41810000  0.34020000  0.39970000  1.0 -0.0797896477
C  C422  1  0.58190000  0.65980000  0.89970000  1.0 -0.0797896477
C  C423  1  0.41810000  0.15980000  0.60030000  1.0 -0.0797896477
C  C424  1  0.58190000  0.84020000  0.10030000  1.0 -0.0797896477
C  C425  1  0.93540000  0.45170000  0.49600000  1.0 0.0900845286
C  C426  1  0.06460000  0.54830000  0.99600000  1.0 0.0900845286
C  C427  1  0.93540000  0.04830000  0.50400000  1.0 0.0900845286
C  C428  1  0.06460000  0.95170000  0.00400000  1.0 0.0900845286
C  C429  1  0.06460000  0.54830000  0.50400000  1.0 0.0900845286
C  C430  1  0.93540000  0.45170000  0.00400000  1.0 0.0900845286
C  C431  1  0.06460000  0.95170000  0.49600000  1.0 0.0900845286
C  C432  1  0.93540000  0.04830000  0.99600000  1.0 0.0900845286
C  C433  1  0.43530000  0.62280000  0.37660000  1.0 -0.1111582305
C  C434  1  0.56470000  0.37720000  0.87660000  1.0 -0.1111582305
C  C435  1  0.43530000  0.87720000  0.62340000  1.0 -0.1111582305
C  C436  1  0.56470000  0.12280000  0.12340000  1.0 -0.1111582305
C  C437  1  0.56470000  0.37720000  0.62340000  1.0 -0.1111582305
C  C438  1  0.43530000  0.62280000  0.12340000  1.0 -0.1111582305
C  C439  1  0.56470000  0.12280000  0.37660000  1.0 -0.1111582305
C  C440  1  0.43530000  0.87720000  0.87660000  1.0 -0.1111582305
C  C441  1  0.36160000  0.40130000  0.62090000  1.0 -0.0797896477
C  C442  1  0.63840000  0.59870000  0.12090000  1.0 -0.0797896477
C  C443  1  0.36160000  0.09870000  0.37910000  1.0 -0.0797896477
C  C444  1  0.63840000  0.90130000  0.87910000  1.0 -0.0797896477
C  C445  1  0.63840000  0.59870000  0.37910000  1.0 -0.0797896477
C  C446  1  0.36160000  0.40130000  0.87910000  1.0 -0.0797896477
C  C447  1  0.63840000  0.90130000  0.62090000  1.0 -0.0797896477
C  C448  1  0.36160000  0.09870000  0.12090000  1.0 -0.0797896477
C  C449  1  0.14250000  0.86160000  0.59360000  1.0 -0.1497075235
C  C450  1  0.85750000  0.13840000  0.09360000  1.0 -0.1497075235
C  C451  1  0.14250000  0.63840000  0.40640000  1.0 -0.1497075235
C  C452  1  0.85750000  0.36160000  0.90640000  1.0 -0.1497075235
C  C453  1  0.85750000  0.13840000  0.40640000  1.0 -0.1497075235
C  C454  1  0.14250000  0.86160000  0.90640000  1.0 -0.1497075235
C  C455  1  0.85750000  0.36160000  0.59360000  1.0 -0.1497075235
C  C456  1  0.14250000  0.63840000  0.09360000  1.0 -0.1497075235
C  C457  1  0.61070000  0.63750000  0.63140000  1.0 -0.0397073355
C  C458  1  0.38930000  0.36250000  0.13140000  1.0 -0.0397073355
C  C459  1  0.61070000  0.86250000  0.36860000  1.0 -0.0397073355
C  C460  1  0.38930000  0.13750000  0.86860000  1.0 -0.0397073355
C  C461  1  0.38930000  0.36250000  0.36860000  1.0 -0.0397073355
C  C462  1  0.61070000  0.63750000  0.86860000  1.0 -0.0397073355
C  C463  1  0.38930000  0.13750000  0.63140000  1.0 -0.0397073355
C  C464  1  0.61070000  0.86250000  0.13140000  1.0 -0.0397073355
C  C465  1  0.12170000  0.83040000  0.62610000  1.0 -0.100851856
C  C466  1  0.87830000  0.16960000  0.12610000  1.0 -0.100851856
C  C467  1  0.12170000  0.66960000  0.37390000  1.0 -0.100851856
C  C468  1  0.87830000  0.33040000  0.87390000  1.0 -0.100851856
C  C469  1  0.87830000  0.16960000  0.37390000  1.0 -0.100851856
C  C470  1  0.12170000  0.83040000  0.87390000  1.0 -0.100851856
C  C471  1  0.87830000  0.33040000  0.62610000  1.0 -0.100851856
C  C472  1  0.12170000  0.66960000  0.12610000  1.0 -0.100851856
C  C473  1  0.56510000  0.56170000  0.60860000  1.0 -0.1610045343
C  C474  1  0.43490000  0.43830000  0.10860000  1.0 -0.1610045343
C  C475  1  0.56510000  0.93830000  0.39140000  1.0 -0.1610045343
C  C476  1  0.43490000  0.06170000  0.89140000  1.0 -0.1610045343
C  C477  1  0.43490000  0.43830000  0.39140000  1.0 -0.1610045343
C  C478  1  0.56510000  0.56170000  0.89140000  1.0 -0.1610045343
C  C479  1  0.43490000  0.06170000  0.60860000  1.0 -0.1610045343
C  C480  1  0.56510000  0.93830000  0.10860000  1.0 -0.1610045343
C  C481  1  0.54210000  0.63700000  0.57520000  1.0 -0.1497075235
C  C482  1  0.45790000  0.36300000  0.07520000  1.0 -0.1497075235
C  C483  1  0.54210000  0.86300000  0.42480000  1.0 -0.1497075235
C  C484  1  0.45790000  0.13700000  0.92480000  1.0 -0.1497075235
C  C485  1  0.45790000  0.36300000  0.42480000  1.0 -0.1497075235
C  C486  1  0.54210000  0.63700000  0.92480000  1.0 -0.1497075235
C  C487  1  0.45790000  0.13700000  0.57520000  1.0 -0.1497075235
C  C488  1  0.54210000  0.86300000  0.07520000  1.0 -0.1497075235
C  C489  1  0.26690000  0.89420000  0.46970000  1.0 0.0805883427
C  C490  1  0.73310000  0.10580000  0.96970000  1.0 0.0805883427
C  C491  1  0.26690000  0.60580000  0.53030000  1.0 0.0805883427
C  C492  1  0.73310000  0.39420000  0.03030000  1.0 0.0805883427
C  C493  1  0.73310000  0.10580000  0.53030000  1.0 0.0805883427
C  C494  1  0.26690000  0.89420000  0.03030000  1.0 0.0805883427
C  C495  1  0.73310000  0.39420000  0.46970000  1.0 0.0805883427
C  C496  1  0.26690000  0.60580000  0.96970000  1.0 0.0805883427
C  C497  1  0.36290000  0.57140000  0.42830000  1.0 -0.1497075235
C  C498  1  0.63710000  0.42860000  0.92830000  1.0 -0.1497075235
C  C499  1  0.36290000  0.92860000  0.57170000  1.0 -0.1497075235
C  C500  1  0.63710000  0.07140000  0.07170000  1.0 -0.1497075235
C  C501  1  0.63710000  0.42860000  0.57170000  1.0 -0.1497075235
C  C502  1  0.36290000  0.57140000  0.07170000  1.0 -0.1497075235
C  C503  1  0.63710000  0.07140000  0.42830000  1.0 -0.1497075235
C  C504  1  0.36290000  0.92860000  0.92830000  1.0 -0.1497075235
C  C505  1  0.45540000  0.60060000  0.41490000  1.0 -0.1497075235
C  C506  1  0.54460000  0.39940000  0.91490000  1.0 -0.1497075235
C  C507  1  0.45540000  0.89940000  0.58510000  1.0 -0.1497075235
C  C508  1  0.54460000  0.10060000  0.08510000  1.0 -0.1497075235
C  C509  1  0.54460000  0.39940000  0.58510000  1.0 -0.1497075235
C  C510  1  0.45540000  0.60060000  0.08510000  1.0 -0.1497075235
C  C511  1  0.54460000  0.10060000  0.41490000  1.0 -0.1497075235
C  C512  1  0.45540000  0.89940000  0.91490000  1.0 -0.1497075235
C  C513  1  0.04290000  0.38300000  0.62010000  1.0 -0.1666449021
C  C514  1  0.95710000  0.61700000  0.12010000  1.0 -0.1666449021
C  C515  1  0.04290000  0.11700000  0.37990000  1.0 -0.1666449021
C  C516  1  0.95710000  0.88300000  0.87990000  1.0 -0.1666449021
C  C517  1  0.95710000  0.61700000  0.37990000  1.0 -0.1666449021
C  C518  1  0.04290000  0.38300000  0.87990000  1.0 -0.1666449021
C  C519  1  0.95710000  0.88300000  0.62010000  1.0 -0.1666449021
C  C520  1  0.04290000  0.11700000  0.12010000  1.0 -0.1666449021
C  C521  1  0.85900000  0.38590000  0.32460000  1.0 0.5744735572
C  C522  1  0.14100000  0.61410000  0.82460000  1.0 0.5744735572
C  C523  1  0.85900000  0.11410000  0.67540000  1.0 0.5752596829
C  C524  1  0.14100000  0.88590000  0.17540000  1.0 0.5744735572
C  C525  1  0.14100000  0.61410000  0.67540000  1.0 0.5744735572
C  C526  1  0.85900000  0.38590000  0.17540000  1.0 0.5744735572
C  C527  1  0.14100000  0.88590000  0.32460000  1.0 0.5744735572
C  C528  1  0.85900000  0.11410000  0.82460000  1.0 0.5752596829
C  C529  1  0.32870000  0.82280000  0.35690000  1.0 0.0023081783
C  C530  1  0.67130000  0.17720000  0.85690000  1.0 0.0023081783
C  C531  1  0.32870000  0.67720000  0.64310000  1.0 0.0023081783
C  C532  1  0.67130000  0.32280000  0.14310000  1.0 0.0023081783
C  C533  1  0.67130000  0.17720000  0.64310000  1.0 0.0023081783
C  C534  1  0.32870000  0.82280000  0.14310000  1.0 0.0023081783
C  C535  1  0.67130000  0.32280000  0.35690000  1.0 0.0023081783
C  C536  1  0.32870000  0.67720000  0.85690000  1.0 0.0023081783
C  C537  1  0.92910000  0.39440000  0.38270000  1.0 -0.1111582305
C  C538  1  0.07090000  0.60560000  0.88270000  1.0 -0.1111582305
C  C539  1  0.92910000  0.10560000  0.61730000  1.0 -0.1111582305
C  C540  1  0.07090000  0.89440000  0.11730000  1.0 -0.1111582305
C  C541  1  0.07090000  0.60560000  0.61730000  1.0 -0.1111582305
C  C542  1  0.92910000  0.39440000  0.11730000  1.0 -0.1111582305
C  C543  1  0.07090000  0.89440000  0.38270000  1.0 -0.1111582305
C  C544  1  0.92910000  0.10560000  0.88270000  1.0 -0.1111582305
C  C545  1  0.87250000  0.45490000  0.43290000  1.0 -0.1497075235
C  C546  1  0.12750000  0.54510000  0.93290000  1.0 -0.1497075235
C  C547  1  0.87250000  0.04510000  0.56710000  1.0 -0.1497075235
C  C548  1  0.12750000  0.95490000  0.06710000  1.0 -0.1497075235
C  C549  1  0.12750000  0.54510000  0.56710000  1.0 -0.1497075235
C  C550  1  0.87250000  0.45490000  0.06710000  1.0 -0.1497075235
C  C551  1  0.12750000  0.95490000  0.43290000  1.0 -0.1497075235
C  C552  1  0.87250000  0.04510000  0.93290000  1.0 -0.1497075235
C  C553  1  0.95040000  0.41240000  0.42330000  1.0 -0.1802387488
C  C554  1  0.04960000  0.58760000  0.92330000  1.0 -0.1802387488
C  C555  1  0.95040000  0.08760000  0.57670000  1.0 -0.1802387488
C  C556  1  0.04960000  0.91240000  0.07670000  1.0 -0.1802387488
C  C557  1  0.04960000  0.58760000  0.57670000  1.0 -0.1802387488
C  C558  1  0.95040000  0.41240000  0.07670000  1.0 -0.1802387488
C  C559  1  0.04960000  0.91240000  0.42330000  1.0 -0.1802387488
C  C560  1  0.95040000  0.08760000  0.92330000  1.0 -0.1802387488
C  C561  1  0.85030000  0.43610000  0.39230000  1.0 -0.1328111839
C  C562  1  0.14970000  0.56390000  0.89230000  1.0 -0.1328111839
C  C563  1  0.85030000  0.06390000  0.60770000  1.0 -0.1328111839
C  C564  1  0.14970000  0.93610000  0.10770000  1.0 -0.1328111839
C  C565  1  0.14970000  0.56390000  0.60770000  1.0 -0.1328111839
C  C566  1  0.85030000  0.43610000  0.10770000  1.0 -0.1328111839
C  C567  1  0.14970000  0.93610000  0.39230000  1.0 -0.1328111839
C  C568  1  0.85030000  0.06390000  0.89230000  1.0 -0.1328111839
C  C569  1  0.60430000  0.58710000  0.63510000  1.0 -0.092626497
C  C570  1  0.39570000  0.41290000  0.13510000  1.0 -0.092626497
C  C571  1  0.60430000  0.91290000  0.36490000  1.0 -0.092626497
C  C572  1  0.39570000  0.08710000  0.86490000  1.0 -0.092626497
C  C573  1  0.39570000  0.41290000  0.36490000  1.0 -0.092626497
C  C574  1  0.60430000  0.58710000  0.86490000  1.0 -0.092626497
C  C575  1  0.39570000  0.08710000  0.63510000  1.0 -0.092626497
C  C576  1  0.60430000  0.91290000  0.13510000  1.0 -0.092626497
C  C577  1  0.36830000  0.85410000  0.38050000  1.0 -0.100851856
C  C578  1  0.63170000  0.14590000  0.88050000  1.0 -0.100851856
C  C579  1  0.36830000  0.64590000  0.61950000  1.0 -0.100851856
C  C580  1  0.63170000  0.35410000  0.11950000  1.0 -0.100851856
C  C581  1  0.63170000  0.14590000  0.61950000  1.0 -0.100851856
C  C582  1  0.36830000  0.85410000  0.11950000  1.0 -0.100851856
C  C583  1  0.63170000  0.35410000  0.38050000  1.0 -0.100851856
C  C584  1  0.36830000  0.64590000  0.88050000  1.0 -0.100851856
C  C585  1  0.25660000  0.84250000  0.40520000  1.0 -0.135954826
C  C586  1  0.74340000  0.15750000  0.90520000  1.0 -0.135954826
C  C587  1  0.25660000  0.65750000  0.59480000  1.0 -0.135954826
C  C588  1  0.74340000  0.34250000  0.09480000  1.0 -0.135954826
C  C589  1  0.74340000  0.15750000  0.59480000  1.0 -0.135954826
C  C590  1  0.25660000  0.84250000  0.09480000  1.0 -0.135954826
C  C591  1  0.74340000  0.34250000  0.40520000  1.0 -0.135954826
C  C592  1  0.25660000  0.65750000  0.90520000  1.0 -0.135954826
C  C593  1  0.29180000  0.87120000  0.43120000  1.0 0.0601311902
C  C594  1  0.70820000  0.12880000  0.93120000  1.0 0.0601311902
C  C595  1  0.29180000  0.62880000  0.56880000  1.0 0.0601311902
C  C596  1  0.70820000  0.37120000  0.06880000  1.0 0.0601311902
C  C597  1  0.70820000  0.12880000  0.56880000  1.0 0.0601311902
C  C598  1  0.29180000  0.87120000  0.06880000  1.0 0.0601311902
C  C599  1  0.70820000  0.37120000  0.43120000  1.0 0.0601311902
C  C600  1  0.29180000  0.62880000  0.93120000  1.0 0.0601311902
C  C601  1  0.27510000  0.82020000  0.36800000  1.0 -0.092626497
C  C602  1  0.72490000  0.17980000  0.86800000  1.0 -0.092626497
C  C603  1  0.27510000  0.67980000  0.63200000  1.0 -0.092626497
C  C604  1  0.72490000  0.32020000  0.13200000  1.0 -0.092626497
C  C605  1  0.72490000  0.17980000  0.63200000  1.0 -0.092626497
C  C606  1  0.27510000  0.82020000  0.13200000  1.0 -0.092626497
C  C607  1  0.72490000  0.32020000  0.36800000  1.0 -0.092626497
C  C608  1  0.27510000  0.67980000  0.86800000  1.0 -0.092626497
C  C609  1  0.65250000  0.66400000  0.65820000  1.0 0.6023633975
C  C610  1  0.34750000  0.33600000  0.15820000  1.0 0.6023633975
C  C611  1  0.65250000  0.83600000  0.34180000  1.0 0.6023633975
C  C612  1  0.34750000  0.16400000  0.84180000  1.0 0.6023633975
C  C613  1  0.34750000  0.33600000  0.34180000  1.0 0.6023633975
C  C614  1  0.65250000  0.66400000  0.84180000  1.0 0.6023633975
C  C615  1  0.34750000  0.16400000  0.65820000  1.0 0.6023633975
C  C616  1  0.65250000  0.83600000  0.15820000  1.0 0.6023633975
C  C617  1  0.22830000  0.82230000  0.59460000  1.0 -0.1497075235
C  C618  1  0.77170000  0.17770000  0.09460000  1.0 -0.1497075235
C  C619  1  0.22830000  0.67770000  0.40540000  1.0 -0.1497075235
C  C620  1  0.77170000  0.32230000  0.90540000  1.0 -0.1497075235
C  C621  1  0.77170000  0.17770000  0.40540000  1.0 -0.1497075235
C  C622  1  0.22830000  0.82230000  0.90540000  1.0 -0.1497075235
C  C623  1  0.77170000  0.32230000  0.59460000  1.0 -0.1497075235
C  C624  1  0.22830000  0.67770000  0.09460000  1.0 -0.1497075235
C  C625  1  0.21110000  0.79310000  0.63020000  1.0 -0.100851856
C  C626  1  0.78890000  0.20690000  0.13020000  1.0 -0.100851856
C  C627  1  0.21110000  0.70690000  0.36980000  1.0 -0.100851856
C  C628  1  0.78890000  0.29310000  0.86980000  1.0 -0.100851856
C  C629  1  0.78890000  0.20690000  0.36980000  1.0 -0.100851856
C  C630  1  0.21110000  0.79310000  0.86980000  1.0 -0.100851856
C  C631  1  0.78890000  0.29310000  0.63020000  1.0 -0.100851856
C  C632  1  0.21110000  0.70690000  0.13020000  1.0 -0.100851856
C  C633  1  0.34560000  0.87980000  0.41770000  1.0 -0.1497075235
C  C634  1  0.65440000  0.12020000  0.91770000  1.0 -0.1497075235
C  C635  1  0.34560000  0.62020000  0.58230000  1.0 -0.1497075235
C  C636  1  0.65440000  0.37980000  0.08230000  1.0 -0.1497075235
C  C637  1  0.65440000  0.12020000  0.58230000  1.0 -0.1497075235
C  C638  1  0.34560000  0.87980000  0.08230000  1.0 -0.1497075235
C  C639  1  0.65440000  0.37980000  0.41770000  1.0 -0.1497075235
C  C640  1  0.34560000  0.62020000  0.91770000  1.0 -0.1497075235
C  C641  1  0.11940000  0.35100000  0.56270000  1.0 -0.092626497
C  C642  1  0.88060000  0.64900000  0.06270000  1.0 -0.092626497
C  C643  1  0.11940000  0.14900000  0.43730000  1.0 -0.092626497
C  C644  1  0.88060000  0.85100000  0.93730000  1.0 -0.092626497
C  C645  1  0.88060000  0.64900000  0.43730000  1.0 -0.092626497
C  C646  1  0.11940000  0.35100000  0.93730000  1.0 -0.092626497
C  C647  1  0.88060000  0.85100000  0.56270000  1.0 -0.092626497
C  C648  1  0.11940000  0.14900000  0.06270000  1.0 -0.092626497
C  C649  1  0.08040000  0.38470000  0.55090000  1.0 -0.1666449021
C  C650  1  0.91960000  0.61530000  0.05090000  1.0 -0.1610045343
C  C651  1  0.08040000  0.11530000  0.44910000  1.0 -0.1610045343
C  C652  1  0.91960000  0.88470000  0.94910000  1.0 -0.1610045343
C  C653  1  0.91960000  0.61530000  0.44910000  1.0 -0.1610045343
C  C654  1  0.08040000  0.38470000  0.94910000  1.0 -0.1610045343
C  C655  1  0.91960000  0.88470000  0.55090000  1.0 -0.1666449021
C  C656  1  0.08040000  0.11530000  0.05090000  1.0 -0.1666449021
O  O1  1  0.63680000  0.68680000  0.75000000  1.0 -0.5714429345
O  O2  1  0.36320000  0.31320000  0.25000000  1.0 -0.5714429345
O  O3  1  0.63680000  0.81320000  0.25000000  1.0 -0.5714429345
O  O4  1  0.36320000  0.18680000  0.75000000  1.0 -0.5714429345
O  O5  1  0.25860000  0.23340000  0.71470000  1.0 -0.7161128547
O  O6  1  0.74140000  0.76660000  0.21470000  1.0 -0.7161128547
O  O7  1  0.25860000  0.26660000  0.28530000  1.0 -0.7161128547
O  O8  1  0.74140000  0.73340000  0.78530000  1.0 -0.7161128547
O  O9  1  0.74140000  0.76660000  0.28530000  1.0 -0.7161128547
O  O10  1  0.25860000  0.23340000  0.78530000  1.0 -0.7161128547
O  O11  1  0.74140000  0.73340000  0.71470000  1.0 -0.7161128547
O  O12  1  0.25860000  0.26660000  0.21470000  1.0 -0.7161128547
O  O13  1  0.38670000  0.67220000  0.30410000  1.0 -0.6696742551
O  O14  1  0.61330000  0.32780000  0.80410000  1.0 -0.6696742551
O  O15  1  0.38670000  0.82780000  0.69590000  1.0 -0.6696742551
O  O16  1  0.61330000  0.17220000  0.19590000  1.0 -0.6696742551
O  O17  1  0.61330000  0.32780000  0.69590000  1.0 -0.6696742551
O  O18  1  0.38670000  0.67220000  0.19590000  1.0 -0.6696742551
O  O19  1  0.61330000  0.17220000  0.30410000  1.0 -0.6696742551
O  O20  1  0.38670000  0.82780000  0.80410000  1.0 -0.6696742551
O  O21  1  0.26470000  0.18540000  0.58510000  1.0 -0.6878521134
O  O22  1  0.73530000  0.81460000  0.08510000  1.0 -0.6878521134
O  O23  1  0.26470000  0.31460000  0.41490000  1.0 -0.6878521134
O  O24  1  0.73530000  0.68540000  0.91490000  1.0 -0.6878521134
O  O25  1  0.73530000  0.81460000  0.41490000  1.0 -0.6878521134
O  O26  1  0.26470000  0.18540000  0.91490000  1.0 -0.6878521134
O  O27  1  0.73530000  0.68540000  0.58510000  1.0 -0.6878521134
O  O28  1  0.26470000  0.31460000  0.08510000  1.0 -0.6878521134
O  O29  1  0.02360000  0.69300000  0.75000000  1.0 -0.3688298117
O  O30  1  0.97640000  0.30700000  0.25000000  1.0 -0.3688298117
O  O31  1  0.02360000  0.80700000  0.25000000  1.0 -0.3688298117
O  O32  1  0.97640000  0.19300000  0.75000000  1.0 -0.3688298117
O  O33  1  0.18300000  0.29740000  0.65730000  1.0 -0.5901207131
O  O34  1  0.81700000  0.70260000  0.15730000  1.0 -0.5901207131
O  O35  1  0.18300000  0.20260000  0.34270000  1.0 -0.5901207131
O  O36  1  0.81700000  0.79740000  0.84270000  1.0 -0.5901207131
O  O37  1  0.81700000  0.70260000  0.34270000  1.0 -0.5901207131
O  O38  1  0.18300000  0.29740000  0.84270000  1.0 -0.5901207131
O  O39  1  0.81700000  0.79740000  0.65730000  1.0 -0.5901207131
O  O40  1  0.18300000  0.20260000  0.15730000  1.0 -0.5901207131
O  O41  1  0.19310000  0.27650000  0.58900000  1.0 -0.5824507054
O  O42  1  0.80690000  0.72350000  0.08900000  1.0 -0.5824507054
O  O43  1  0.19310000  0.22350000  0.41100000  1.0 -0.5824507054
O  O44  1  0.80690000  0.77650000  0.91100000  1.0 -0.5824507054
O  O45  1  0.80690000  0.72350000  0.41100000  1.0 -0.5824507054
O  O46  1  0.19310000  0.27650000  0.91100000  1.0 -0.5824507054
O  O47  1  0.80690000  0.77650000  0.58900000  1.0 -0.5824507054
O  O48  1  0.19310000  0.22350000  0.08900000  1.0 -0.5824507054
O  O49  1  0.81400000  0.68850000  0.65220000  1.0 -0.6696742551
O  O50  1  0.18600000  0.31150000  0.15220000  1.0 -0.6696742551
O  O51  1  0.81400000  0.81150000  0.34780000  1.0 -0.6696742551
O  O52  1  0.18600000  0.18850000  0.84780000  1.0 -0.6696742551
O  O53  1  0.18600000  0.31150000  0.34780000  1.0 -0.6696742551
O  O54  1  0.81400000  0.68850000  0.84780000  1.0 -0.6696742551
O  O55  1  0.18600000  0.18850000  0.65220000  1.0 -0.6696742551
O  O56  1  0.81400000  0.81150000  0.15220000  1.0 -0.6696742551
O  O57  1  0.30550000  0.31620000  0.65020000  1.0 -0.6457716998
O  O58  1  0.69450000  0.68380000  0.15020000  1.0 -0.6457716998
O  O59  1  0.30550000  0.18380000  0.34980000  1.0 -0.6457716998
O  O60  1  0.69450000  0.81620000  0.84980000  1.0 -0.6457716998
O  O61  1  0.69450000  0.68380000  0.34980000  1.0 -0.6457716998
O  O62  1  0.30550000  0.31620000  0.84980000  1.0 -0.6457716998
O  O63  1  0.69450000  0.81620000  0.65020000  1.0 -0.6457716998
O  O64  1  0.30550000  0.18380000  0.15020000  1.0 -0.6457716998
O  O65  1  0.88670000  0.35610000  0.30510000  1.0 -0.5824507054
O  O66  1  0.11330000  0.64390000  0.80510000  1.0 -0.5824507054
O  O67  1  0.88670000  0.14390000  0.69490000  1.0 -0.5824507054
O  O68  1  0.11330000  0.85610000  0.19490000  1.0 -0.5824507054
O  O69  1  0.11330000  0.64390000  0.69490000  1.0 -0.5824507054
O  O70  1  0.88670000  0.35610000  0.19490000  1.0 -0.5824507054
O  O71  1  0.11330000  0.85610000  0.30510000  1.0 -0.5824507054
O  O72  1  0.88670000  0.14390000  0.80510000  1.0 -0.5824507054
O  O73  1  0.20850000  0.66450000  0.75000000  1.0 -0.5455261495
O  O74  1  0.79150000  0.33550000  0.25000000  1.0 -0.5445746806
O  O75  1  0.20850000  0.83550000  0.25000000  1.0 -0.5455261495
O  O76  1  0.79150000  0.16450000  0.75000000  1.0 -0.5445746806
O  O77  1  0.18060000  0.74190000  0.70340000  1.0 -0.6128501322
O  O78  1  0.81940000  0.25810000  0.20340000  1.0 -0.6128501322
O  O79  1  0.18060000  0.75810000  0.29660000  1.0 -0.6128501322
O  O80  1  0.81940000  0.24190000  0.79660000  1.0 -0.6128501322
O  O81  1  0.81940000  0.25810000  0.29660000  1.0 -0.6128501322
O  O82  1  0.18060000  0.74190000  0.79660000  1.0 -0.6128501322
O  O83  1  0.81940000  0.24190000  0.70340000  1.0 -0.6128501322
O  O84  1  0.18060000  0.75810000  0.20340000  1.0 -0.6128501322
O  O85  1  0.28470000  0.69420000  0.25000000  1.0 -0.425372186
O  O86  1  0.71530000  0.30580000  0.75000000  1.0 -0.425372186
O  O87  1  0.28470000  0.80580000  0.75000000  1.0 -0.425372186
O  O88  1  0.71530000  0.19420000  0.25000000  1.0 -0.425372186
O  O89  1  0.39520000  0.79250000  0.30640000  1.0 -0.5135676142
O  O90  1  0.60480000  0.20750000  0.80640000  1.0 -0.5135676142
O  O91  1  0.39520000  0.70750000  0.69360000  1.0 -0.5135676142
O  O92  1  0.60480000  0.29250000  0.19360000  1.0 -0.5135676142
O  O93  1  0.60480000  0.20750000  0.69360000  1.0 -0.5135676142
O  O94  1  0.39520000  0.79250000  0.19360000  1.0 -0.5135676142
O  O95  1  0.60480000  0.29250000  0.30640000  1.0 -0.5135676142
O  O96  1  0.39520000  0.70750000  0.80640000  1.0 -0.5135676142
O  O97  1  0.65850000  0.70840000  0.65290000  1.0 -0.6173677173
O  O98  1  0.34150000  0.29160000  0.15290000  1.0 -0.6173677173
O  O99  1  0.65850000  0.79160000  0.34710000  1.0 -0.6173677173
O  O100  1  0.34150000  0.20840000  0.84710000  1.0 -0.6173677173
O  O101  1  0.34150000  0.29160000  0.34710000  1.0 -0.6173677173
O  O102  1  0.65850000  0.70840000  0.84710000  1.0 -0.6173677173
O  O103  1  0.34150000  0.20840000  0.65290000  1.0 -0.6173677173
O  O104  1  0.65850000  0.79160000  0.15290000  1.0 -0.6173677173
O  O105  1  0.09300000  0.76340000  0.69780000  1.0 -0.5219055589
O  O106  1  0.90700000  0.23660000  0.19780000  1.0 -0.5219055589
O  O107  1  0.09300000  0.73660000  0.30220000  1.0 -0.5219055589
O  O108  1  0.90700000  0.26340000  0.80220000  1.0 -0.5219055589
O  O109  1  0.90700000  0.23660000  0.30220000  1.0 -0.5219055589
O  O110  1  0.09300000  0.76340000  0.80220000  1.0 -0.5219055589
O  O111  1  0.90700000  0.26340000  0.69780000  1.0 -0.5219055589
O  O112  1  0.09300000  0.73660000  0.19780000  1.0 -0.5219055589
O  O113  1  0.31360000  0.28240000  0.58470000  1.0 -0.5824507054
O  O114  1  0.68640000  0.71760000  0.08470000  1.0 -0.5824507054
O  O115  1  0.31360000  0.21760000  0.41530000  1.0 -0.5824507054
O  O116  1  0.68640000  0.78240000  0.91530000  1.0 -0.5824507054
O  O117  1  0.68640000  0.71760000  0.41530000  1.0 -0.5824507054
O  O118  1  0.31360000  0.28240000  0.91530000  1.0 -0.5824507054
O  O119  1  0.68640000  0.78240000  0.58470000  1.0 -0.5824507054
O  O120  1  0.31360000  0.21760000  0.08470000  1.0 -0.5824507054
O  O121  1  0.25320000  0.20200000  0.51450000  1.0 -0.41717049
O  O122  1  0.74680000  0.79800000  0.01450000  1.0 -0.41717049
O  O123  1  0.25320000  0.29800000  0.48550000  1.0 -0.41717049
O  O124  1  0.74680000  0.70200000  0.98550000  1.0 -0.41717049
O  O125  1  0.74680000  0.79800000  0.48550000  1.0 -0.41717049
O  O126  1  0.25320000  0.20200000  0.98550000  1.0 -0.41717049
O  O127  1  0.74680000  0.70200000  0.51450000  1.0 -0.41717049
O  O128  1  0.25320000  0.29800000  0.01450000  1.0 -0.41717049
O  O129  1  0.46890000  0.72840000  0.25000000  1.0 -0.6173677173
O  O130  1  0.53110000  0.27160000  0.75000000  1.0 -0.6173677173
O  O131  1  0.46890000  0.77160000  0.75000000  1.0 -0.6173677173
O  O132  1  0.53110000  0.22840000  0.25000000  1.0 -0.6173677173
O  O133  1  0.31200000  0.76990000  0.29660000  1.0 -0.5824507054
O  O134  1  0.68800000  0.23010000  0.79660000  1.0 -0.5824507054
O  O135  1  0.31200000  0.73010000  0.70340000  1.0 -0.5824507054
O  O136  1  0.68800000  0.26990000  0.20340000  1.0 -0.5824507054
O  O137  1  0.68800000  0.23010000  0.70340000  1.0 -0.5824507054
O  O138  1  0.31200000  0.76990000  0.20340000  1.0 -0.5824507054
O  O139  1  0.68800000  0.26990000  0.29660000  1.0 -0.5824507054
O  O140  1  0.31200000  0.73010000  0.79660000  1.0 -0.5824507054
O  O141  1  0.79820000  0.63410000  0.70530000  1.0 -0.6696742551
O  O142  1  0.20180000  0.36590000  0.20530000  1.0 -0.6696742551
O  O143  1  0.79820000  0.86590000  0.29470000  1.0 -0.6696742551
O  O144  1  0.20180000  0.13410000  0.79470000  1.0 -0.6696742551
O  O145  1  0.20180000  0.36590000  0.29470000  1.0 -0.6696742551
O  O146  1  0.79820000  0.63410000  0.79470000  1.0 -0.6696742551
O  O147  1  0.20180000  0.13410000  0.70530000  1.0 -0.6696742551
O  O148  1  0.79820000  0.86590000  0.20530000  1.0 -0.6696742551
O  O149  1  0.30490000  0.63570000  0.31510000  1.0 -0.5219055589
O  O150  1  0.69510000  0.36430000  0.81510000  1.0 -0.5219055589
O  O151  1  0.30490000  0.86430000  0.68490000  1.0 -0.5219055589
O  O152  1  0.69510000  0.13570000  0.18490000  1.0 -0.5219055589
O  O153  1  0.69510000  0.36430000  0.68490000  1.0 -0.5219055589
O  O154  1  0.30490000  0.63570000  0.18490000  1.0 -0.5219055589
O  O155  1  0.69510000  0.13570000  0.31510000  1.0 -0.5219055589
O  O156  1  0.30490000  0.86430000  0.81510000  1.0 -0.5219055589
O  O157  1  0.68260000  0.63890000  0.68370000  1.0 -0.6878521134
O  O158  1  0.31740000  0.36110000  0.18370000  1.0 -0.6878521134
O  O159  1  0.68260000  0.86110000  0.31630000  1.0 -0.6878521134
O  O160  1  0.31740000  0.13890000  0.81630000  1.0 -0.6878521134
O  O161  1  0.31740000  0.36110000  0.31630000  1.0 -0.6878521134
O  O162  1  0.68260000  0.63890000  0.81630000  1.0 -0.6878521134
O  O163  1  0.31740000  0.13890000  0.68370000  1.0 -0.6878521134
O  O164  1  0.68260000  0.86110000  0.18370000  1.0 -0.6878521134
O  O165  1  0.81070000  0.39830000  0.31330000  1.0 -0.4708840426
O  O166  1  0.18930000  0.60170000  0.81330000  1.0 -0.4708840426
O  O167  1  0.81070000  0.10170000  0.68670000  1.0 -0.4708840426
O  O168  1  0.18930000  0.89830000  0.18670000  1.0 -0.4708840426
O  O169  1  0.18930000  0.60170000  0.68670000  1.0 -0.4708840426
O  O170  1  0.81070000  0.39830000  0.18670000  1.0 -0.4708840426
O  O171  1  0.18930000  0.89830000  0.31330000  1.0 -0.4708840426
O  O172  1  0.81070000  0.10170000  0.81330000  1.0 -0.4708840426
O  O173  1  0.71420000  0.57010000  0.75000000  1.0 -0.7782754328
O  O174  1  0.28580000  0.42990000  0.25000000  1.0 -0.7782754328
O  O175  1  0.71420000  0.92990000  0.25000000  1.0 -0.7782754328
O  O176  1  0.28580000  0.07010000  0.75000000  1.0 -0.7782754328
