# DDEC6 charges by PACMAN v1.1 (https://github.com/mtap-research/PACMAN-charge/)
data_OMULIU_FSR_pacman
_symmetry_space_group_name_H-M   'P 1'
_cell_length_a   15.99920000
_cell_length_b   16.41630000
_cell_length_c   24.79260000
_cell_angle_alpha   90.00000000
_cell_angle_beta   90.00000000
_cell_angle_gamma   90.00000000
_symmetry_Int_Tables_number   1
_chemical_formula_structural   CaH80(C35N3)2
_chemical_formula_sum   'Ca4 H320 C280 N24'
_cell_volume   6511.71854787
_cell_formula_units_Z   4
loop_
 _symmetry_equiv_pos_site_id
 _symmetry_equiv_pos_as_xyz
  1  'x, y, z'
loop_
 _atom_site_type_symbol
 _atom_site_label
 _atom_site_symmetry_multiplicity
 _atom_site_fract_x
 _atom_site_fract_y
 _atom_site_fract_z
 _atom_site_occupancy
 _atom_site_charge
Ca  Ca1  1  0.87436000  0.44750000  0.82658000  1.0 1.1231220108
Ca  Ca2  1  0.37436000  0.94750000  0.67342000  1.0 1.1231220108
Ca  Ca3  1  0.12564000  0.94750000  0.17342000  1.0 1.1231220108
Ca  Ca4  1  0.62564000  0.44750000  0.32658000  1.0 1.1231220108
H  H1  1  0.70613000  0.30246000  0.00440000  1.0 0.1190753311
H  H2  1  0.69459000  0.29087000  0.09870000  1.0 0.0988020281
H  H3  1  0.77383000  0.37016000  0.15594000  1.0 0.1107520464
H  H4  1  0.89626000  0.47784000  0.16575000  1.0 0.1107520464
H  H5  1  0.98412000  0.56533000  0.12144000  1.0 0.1107520464
H  H6  1  0.99126000  0.57181000  0.02703000  1.0 0.1296772015
H  H7  1  0.68197000  0.13866000  0.89020000  1.0 0.1107520464
H  H8  1  0.54696000  0.18793000  0.90120000  1.0 0.1190753311
H  H9  1  0.52387000  0.32606000  0.90896000  1.0 0.135688227
H  H10  1  0.85860000  0.25805000  0.86152000  1.0 0.0617145714
H  H11  1  0.88166000  0.26440000  0.95527000  1.0 0.1107520464
H  H12  1  0.93561000  0.19174000  0.92997000  1.0 0.0988020281
H  H13  1  0.85110000  0.17212000  0.96197000  1.0 0.0988020281
H  H14  1  0.79040000  0.13245000  0.82730000  1.0 0.1107520464
H  H15  1  0.81979000  0.09034000  0.88234000  1.0 0.1190753311
H  H16  1  0.88786000  0.12488000  0.84094000  1.0 0.1190753311
H  H17  1  0.67843000  0.48581000  0.90989000  1.0 0.0903562769
H  H18  1  0.58112000  0.46859000  0.83413000  1.0 0.1107520464
H  H19  1  0.54301000  0.53292000  0.87594000  1.0 0.0502357501
H  H20  1  0.50950000  0.44107000  0.87534000  1.0 0.0502357501
H  H21  1  0.53777000  0.41996000  0.97172000  1.0 0.0988020281
H  H22  1  0.56572000  0.51335000  0.97592000  1.0 0.0404710991
H  H23  1  0.62629000  0.44303000  0.99760000  1.0 0.0802878582
H  H24  1  0.20456000  0.52528000  0.95209000  1.0 0.0694918596
H  H25  1  0.20267000  0.66568000  0.93582000  1.0 0.0802878582
H  H26  1  0.07762000  0.73009000  0.91180000  1.0 0.0903562769
H  H27  1  0.03452000  0.38683000  0.94389000  1.0 0.0404710991
H  H28  1  0.14511000  0.38958000  0.87325000  1.0 0.0694918596
H  H29  1  0.15891000  0.31841000  0.91646000  1.0 0.0694918596
H  H30  1  0.21230000  0.40062000  0.92050000  1.0 0.0988020281
H  H31  1  0.07832000  0.43594000  0.03116000  1.0 0.0694918596
H  H32  1  0.17221000  0.44697000  0.01013000  1.0 0.0694918596
H  H33  1  0.13398000  0.35759000  0.01756000  1.0 0.0694918596
H  H34  1  0.89631000  0.63791000  0.87190000  1.0 0.0802878582
H  H35  1  0.84936000  0.62699000  0.96070000  1.0 0.1190753311
H  H36  1  0.81675000  0.71230000  0.93760000  1.0 0.0694918596
H  H37  1  0.89536000  0.70977000  0.97748000  1.0 0.0617145714
H  H38  1  0.98003000  0.75386000  0.84407000  1.0 0.0694918596
H  H39  1  0.95718000  0.79639000  0.90025000  1.0 0.0694918596
H  H40  1  0.88497000  0.77625000  0.85762000  1.0 0.0617145714
H  H41  1  0.74811000  0.60348000  0.86853000  1.0 0.0988020281
H  H42  1  0.66134000  0.70363000  0.84139000  1.0 0.1296772015
H  H43  1  0.68605000  0.61521000  0.68802000  1.0 0.1107520464
H  H44  1  0.77519000  0.52033000  0.72120000  1.0 0.0903562769
H  H45  1  0.48989000  0.88913000  0.77715000  1.0 0.0988020281
H  H46  1  0.58447000  0.80042000  0.80966000  1.0 0.1190753311
H  H47  1  0.59152000  0.69448000  0.66232000  1.0 0.1190753311
H  H48  1  0.49956000  0.78936000  0.63286000  1.0 0.0988020281
H  H49  1  0.07254000  0.48803000  0.81521000  1.0 0.0988020281
H  H50  1  0.17166000  0.58641000  0.80391000  1.0 0.1190753311
H  H51  1  0.00467000  0.71746000  0.71944000  1.0 0.1296772015
H  H52  1  0.90652000  0.61943000  0.73769000  1.0 0.0903562769
H  H53  1  0.36118000  0.76775000  0.75817000  1.0 0.0988020281
H  H54  1  0.26568000  0.66817000  0.77793000  1.0 0.1296772015
H  H55  1  0.08400000  0.82068000  0.72833000  1.0 0.1296772015
H  H56  1  0.18504000  0.91551000  0.71118000  1.0 0.0903562769
H  H57  1  0.68241000  0.47813000  0.90686000  1.0 0.0903562769
H  H58  1  0.58071000  0.46407000  0.83385000  1.0 0.1190753311
H  H59  1  0.58132000  0.54865000  0.86594000  1.0 0.0694918596
H  H60  1  0.51087000  0.48209000  0.87849000  1.0 0.0404710991
H  H61  1  0.59703000  0.54597000  0.96692000  1.0 0.0903562769
H  H62  1  0.63591000  0.46833000  0.99682000  1.0 0.0903562769
H  H63  1  0.54105000  0.46646000  0.97638000  1.0 0.0404710991
H  H64  1  0.19503000  0.56425000  0.94022000  1.0 0.0802878582
H  H65  1  0.17559000  0.70362000  0.92491000  1.0 0.0802878582
H  H66  1  0.04255000  0.75363000  0.90390000  1.0 0.0694918596
H  H67  1  0.03610000  0.42122000  0.93023000  1.0 0.0694918596
H  H68  1  0.15622000  0.44515000  0.87341000  1.0 0.0694918596
H  H69  1  0.12626000  0.35560000  0.89004000  1.0 0.0694918596
H  H70  1  0.20375000  0.39688000  0.92035000  1.0 0.1107520464
H  H71  1  0.03412000  0.38521000  0.01245000  1.0 0.0694918596
H  H72  1  0.12848000  0.41251000  0.02393000  1.0 0.0617145714
H  H73  1  0.10999000  0.33440000  0.98720000  1.0 0.0694918596
H  H74  1  0.87216000  0.62442000  0.86564000  1.0 0.0502357501
H  H75  1  0.85311000  0.62941000  0.96754000  1.0 0.1190753311
H  H76  1  0.77840000  0.66194000  0.93042000  1.0 0.0694918596
H  H77  1  0.84141000  0.72515000  0.95802000  1.0 0.0694918596
H  H78  1  0.92448000  0.74748000  0.82847000  1.0 0.0694918596
H  H79  1  0.92001000  0.79163000  0.88595000  1.0 0.0694918596
H  H80  1  0.83571000  0.76718000  0.85521000  1.0 0.0802878582
H  H81  1  0.20613000  0.80246000  0.49560000  1.0 0.1190753311
H  H82  1  0.19459000  0.79087000  0.40130000  1.0 0.0988020281
H  H83  1  0.27383000  0.87016000  0.34406000  1.0 0.1107520464
H  H84  1  0.39626000  0.97784000  0.33425000  1.0 0.1190753311
H  H85  1  0.48412000  0.06533000  0.37856000  1.0 0.1107520464
H  H86  1  0.49126000  0.07181000  0.47297000  1.0 0.1296772015
H  H87  1  0.18197000  0.63866000  0.60980000  1.0 0.1107520464
H  H88  1  0.04696000  0.68793000  0.59880000  1.0 0.1190753311
H  H89  1  0.02387000  0.82606000  0.59104000  1.0 0.135688227
H  H90  1  0.35860000  0.75805000  0.63848000  1.0 0.0617145714
H  H91  1  0.38166000  0.76440000  0.54473000  1.0 0.1107520464
H  H92  1  0.43561000  0.69174000  0.57003000  1.0 0.0988020281
H  H93  1  0.35110000  0.67212000  0.53803000  1.0 0.0988020281
H  H94  1  0.29040000  0.63245000  0.67270000  1.0 0.1107520464
H  H95  1  0.31979000  0.59034000  0.61766000  1.0 0.1190753311
H  H96  1  0.38786000  0.62488000  0.65906000  1.0 0.1190753311
H  H97  1  0.17843000  0.98581000  0.59011000  1.0 0.0903562769
H  H98  1  0.08112000  0.96859000  0.66587000  1.0 0.1107520464
H  H99  1  0.04301000  0.03292000  0.62406000  1.0 0.0502357501
H  H100  1  0.00950000  0.94107000  0.62466000  1.0 0.0502357501
H  H101  1  0.03777000  0.91996000  0.52828000  1.0 0.0988020281
H  H102  1  0.06572000  0.01335000  0.52408000  1.0 0.0404710991
H  H103  1  0.12629000  0.94303000  0.50240000  1.0 0.0802878582
H  H104  1  0.70456000  0.02528000  0.54791000  1.0 0.0694918596
H  H105  1  0.70267000  0.16568000  0.56418000  1.0 0.0802878582
H  H106  1  0.57762000  0.23009000  0.58820000  1.0 0.0903562769
H  H107  1  0.53452000  0.88683000  0.55611000  1.0 0.0404710991
H  H108  1  0.64511000  0.88958000  0.62675000  1.0 0.0694918596
H  H109  1  0.65891000  0.81841000  0.58354000  1.0 0.0694918596
H  H110  1  0.71230000  0.90062000  0.57950000  1.0 0.0988020281
H  H111  1  0.57832000  0.93594000  0.46884000  1.0 0.0694918596
H  H112  1  0.67221000  0.94697000  0.48987000  1.0 0.0694918596
H  H113  1  0.63398000  0.85759000  0.48244000  1.0 0.0694918596
H  H114  1  0.39631000  0.13791000  0.62810000  1.0 0.0802878582
H  H115  1  0.34936000  0.12699000  0.53930000  1.0 0.1190753311
H  H116  1  0.31675000  0.21230000  0.56240000  1.0 0.0694918596
H  H117  1  0.39536000  0.20977000  0.52252000  1.0 0.0617145714
H  H118  1  0.48003000  0.25386000  0.65593000  1.0 0.0694918596
H  H119  1  0.45718000  0.29639000  0.59975000  1.0 0.0694918596
H  H120  1  0.38497000  0.27625000  0.64238000  1.0 0.0617145714
H  H121  1  0.24811000  0.10348000  0.63147000  1.0 0.0988020281
H  H122  1  0.16134000  0.20363000  0.65861000  1.0 0.1296772015
H  H123  1  0.18605000  0.11521000  0.81198000  1.0 0.1107520464
H  H124  1  0.27519000  0.02033000  0.77880000  1.0 0.0903562769
H  H125  1  0.98989000  0.38913000  0.72285000  1.0 0.0988020281
H  H126  1  0.08447000  0.30042000  0.69034000  1.0 0.1190753311
H  H127  1  0.09152000  0.19448000  0.83768000  1.0 0.1190753311
H  H128  1  0.99956000  0.28936000  0.86714000  1.0 0.0988020281
H  H129  1  0.57254000  0.98803000  0.68479000  1.0 0.0988020281
H  H130  1  0.67166000  0.08641000  0.69609000  1.0 0.1190753311
H  H131  1  0.50467000  0.21746000  0.78056000  1.0 0.1296772015
H  H132  1  0.40652000  0.11943000  0.76231000  1.0 0.0903562769
H  H133  1  0.86118000  0.26775000  0.74183000  1.0 0.0988020281
H  H134  1  0.76568000  0.16817000  0.72207000  1.0 0.1296772015
H  H135  1  0.58400000  0.32068000  0.77167000  1.0 0.1296772015
H  H136  1  0.68504000  0.41551000  0.78882000  1.0 0.0903562769
H  H137  1  0.18241000  0.97813000  0.59314000  1.0 0.0903562769
H  H138  1  0.08071000  0.96407000  0.66615000  1.0 0.1190753311
H  H139  1  0.08132000  0.04865000  0.63406000  1.0 0.0694918596
H  H140  1  0.01087000  0.98209000  0.62151000  1.0 0.0404710991
H  H141  1  0.09703000  0.04597000  0.53308000  1.0 0.0903562769
H  H142  1  0.13591000  0.96833000  0.50318000  1.0 0.0903562769
H  H143  1  0.04105000  0.96646000  0.52362000  1.0 0.0404710991
H  H144  1  0.69503000  0.06425000  0.55978000  1.0 0.0802878582
H  H145  1  0.67559000  0.20362000  0.57509000  1.0 0.0802878582
H  H146  1  0.54255000  0.25363000  0.59610000  1.0 0.0694918596
H  H147  1  0.53610000  0.92122000  0.56977000  1.0 0.0694918596
H  H148  1  0.65622000  0.94515000  0.62659000  1.0 0.0694918596
H  H149  1  0.62626000  0.85560000  0.60996000  1.0 0.0694918596
H  H150  1  0.70375000  0.89688000  0.57965000  1.0 0.1107520464
H  H151  1  0.53412000  0.88521000  0.48755000  1.0 0.0694918596
H  H152  1  0.62848000  0.91251000  0.47607000  1.0 0.0617145714
H  H153  1  0.60999000  0.83440000  0.51280000  1.0 0.0694918596
H  H154  1  0.37216000  0.12442000  0.63436000  1.0 0.0502357501
H  H155  1  0.35311000  0.12941000  0.53246000  1.0 0.1190753311
H  H156  1  0.27840000  0.16194000  0.56958000  1.0 0.0694918596
H  H157  1  0.34141000  0.22515000  0.54198000  1.0 0.0694918596
H  H158  1  0.42448000  0.24748000  0.67153000  1.0 0.0694918596
H  H159  1  0.42001000  0.29163000  0.61405000  1.0 0.0694918596
H  H160  1  0.33571000  0.26718000  0.64479000  1.0 0.0802878582
H  H161  1  0.29387000  0.80246000  0.99560000  1.0 0.1190753311
H  H162  1  0.30541000  0.79087000  0.90130000  1.0 0.0988020281
H  H163  1  0.22617000  0.87016000  0.84406000  1.0 0.1107520464
H  H164  1  0.10374000  0.97784000  0.83425000  1.0 0.1107520464
H  H165  1  0.01588000  0.06533000  0.87856000  1.0 0.1107520464
H  H166  1  0.00874000  0.07181000  0.97297000  1.0 0.1296772015
H  H167  1  0.31803000  0.63866000  0.10980000  1.0 0.1107520464
H  H168  1  0.45304000  0.68793000  0.09880000  1.0 0.1190753311
H  H169  1  0.47613000  0.82606000  0.09104000  1.0 0.135688227
H  H170  1  0.14140000  0.75805000  0.13848000  1.0 0.0617145714
H  H171  1  0.11834000  0.76440000  0.04473000  1.0 0.1107520464
H  H172  1  0.06439000  0.69174000  0.07003000  1.0 0.0988020281
H  H173  1  0.14890000  0.67212000  0.03803000  1.0 0.0988020281
H  H174  1  0.20960000  0.63245000  0.17270000  1.0 0.1107520464
H  H175  1  0.18021000  0.59034000  0.11766000  1.0 0.1190753311
H  H176  1  0.11214000  0.62488000  0.15906000  1.0 0.1190753311
H  H177  1  0.32157000  0.98581000  0.09011000  1.0 0.0903562769
H  H178  1  0.41888000  0.96859000  0.16587000  1.0 0.1107520464
H  H179  1  0.45699000  0.03292000  0.12406000  1.0 0.0502357501
H  H180  1  0.49050000  0.94107000  0.12466000  1.0 0.0502357501
H  H181  1  0.46223000  0.91996000  0.02828000  1.0 0.0903562769
H  H182  1  0.43428000  0.01335000  0.02408000  1.0 0.0404710991
H  H183  1  0.37371000  0.94303000  0.00240000  1.0 0.0802878582
H  H184  1  0.79544000  0.02528000  0.04791000  1.0 0.0694918596
H  H185  1  0.79733000  0.16568000  0.06418000  1.0 0.0802878582
H  H186  1  0.92238000  0.23009000  0.08820000  1.0 0.0903562769
H  H187  1  0.96548000  0.88683000  0.05611000  1.0 0.0404710991
H  H188  1  0.85489000  0.88958000  0.12675000  1.0 0.0694918596
H  H189  1  0.84109000  0.81841000  0.08354000  1.0 0.0694918596
H  H190  1  0.78770000  0.90062000  0.07950000  1.0 0.0988020281
H  H191  1  0.92168000  0.93594000  0.96884000  1.0 0.0694918596
H  H192  1  0.82779000  0.94697000  0.98987000  1.0 0.0694918596
H  H193  1  0.86602000  0.85759000  0.98244000  1.0 0.0694918596
H  H194  1  0.10369000  0.13791000  0.12810000  1.0 0.0802878582
H  H195  1  0.15064000  0.12699000  0.03930000  1.0 0.1190753311
H  H196  1  0.18325000  0.21230000  0.06240000  1.0 0.0694918596
H  H197  1  0.10464000  0.20977000  0.02252000  1.0 0.0617145714
H  H198  1  0.01997000  0.25386000  0.15593000  1.0 0.0694918596
H  H199  1  0.04282000  0.29639000  0.09975000  1.0 0.0694918596
H  H200  1  0.11503000  0.27625000  0.14238000  1.0 0.0617145714
H  H201  1  0.25189000  0.10348000  0.13147000  1.0 0.0988020281
H  H202  1  0.33866000  0.20363000  0.15861000  1.0 0.1296772015
H  H203  1  0.31395000  0.11521000  0.31198000  1.0 0.1107520464
H  H204  1  0.22481000  0.02033000  0.27880000  1.0 0.0903562769
H  H205  1  0.51011000  0.38913000  0.22285000  1.0 0.0988020281
H  H206  1  0.41553000  0.30042000  0.19034000  1.0 0.1190753311
H  H207  1  0.40848000  0.19448000  0.33768000  1.0 0.1190753311
H  H208  1  0.50044000  0.28936000  0.36714000  1.0 0.0988020281
H  H209  1  0.92746000  0.98803000  0.18479000  1.0 0.0988020281
H  H210  1  0.82834000  0.08641000  0.19609000  1.0 0.1190753311
H  H211  1  0.99533000  0.21746000  0.28056000  1.0 0.1296772015
H  H212  1  0.09348000  0.11943000  0.26231000  1.0 0.0903562769
H  H213  1  0.63882000  0.26775000  0.24183000  1.0 0.0988020281
H  H214  1  0.73432000  0.16817000  0.22207000  1.0 0.1296772015
H  H215  1  0.91600000  0.32068000  0.27167000  1.0 0.1296772015
H  H216  1  0.81496000  0.41551000  0.28882000  1.0 0.0903562769
H  H217  1  0.31759000  0.97813000  0.09314000  1.0 0.0903562769
H  H218  1  0.41929000  0.96407000  0.16615000  1.0 0.1190753311
H  H219  1  0.41868000  0.04865000  0.13406000  1.0 0.0694918596
H  H220  1  0.48913000  0.98209000  0.12151000  1.0 0.0404710991
H  H221  1  0.40297000  0.04597000  0.03308000  1.0 0.0903562769
H  H222  1  0.36409000  0.96833000  0.00318000  1.0 0.0903562769
H  H223  1  0.45895000  0.96646000  0.02362000  1.0 0.0404710991
H  H224  1  0.80497000  0.06425000  0.05978000  1.0 0.0802878582
H  H225  1  0.82441000  0.20362000  0.07509000  1.0 0.0802878582
H  H226  1  0.95745000  0.25363000  0.09610000  1.0 0.0694918596
H  H227  1  0.96390000  0.92122000  0.06977000  1.0 0.0694918596
H  H228  1  0.84378000  0.94515000  0.12659000  1.0 0.0694918596
H  H229  1  0.87374000  0.85560000  0.10996000  1.0 0.0694918596
H  H230  1  0.79625000  0.89688000  0.07965000  1.0 0.1107520464
H  H231  1  0.96588000  0.88521000  0.98755000  1.0 0.0694918596
H  H232  1  0.87152000  0.91251000  0.97607000  1.0 0.0617145714
H  H233  1  0.89001000  0.83440000  0.01280000  1.0 0.0694918596
H  H234  1  0.12784000  0.12442000  0.13436000  1.0 0.0502357501
H  H235  1  0.14689000  0.12941000  0.03246000  1.0 0.1190753311
H  H236  1  0.22160000  0.16194000  0.06958000  1.0 0.0694918596
H  H237  1  0.15859000  0.22515000  0.04198000  1.0 0.0694918596
H  H238  1  0.07552000  0.24748000  0.17153000  1.0 0.0694918596
H  H239  1  0.07999000  0.29163000  0.11405000  1.0 0.0694918596
H  H240  1  0.16429000  0.26718000  0.14479000  1.0 0.0802878582
H  H241  1  0.79387000  0.30246000  0.50440000  1.0 0.1190753311
H  H242  1  0.80541000  0.29087000  0.59870000  1.0 0.0988020281
H  H243  1  0.72617000  0.37016000  0.65594000  1.0 0.1107520464
H  H244  1  0.60374000  0.47784000  0.66575000  1.0 0.1107520464
H  H245  1  0.51588000  0.56533000  0.62144000  1.0 0.1107520464
H  H246  1  0.50874000  0.57181000  0.52703000  1.0 0.1296772015
H  H247  1  0.81803000  0.13866000  0.39020000  1.0 0.1107520464
H  H248  1  0.95304000  0.18793000  0.40120000  1.0 0.1190753311
H  H249  1  0.97613000  0.32606000  0.40896000  1.0 0.135688227
H  H250  1  0.64140000  0.25805000  0.36152000  1.0 0.0617145714
H  H251  1  0.61834000  0.26440000  0.45527000  1.0 0.1107520464
H  H252  1  0.56439000  0.19174000  0.42997000  1.0 0.0988020281
H  H253  1  0.64890000  0.17212000  0.46197000  1.0 0.0988020281
H  H254  1  0.70960000  0.13245000  0.32730000  1.0 0.1107520464
H  H255  1  0.68021000  0.09034000  0.38234000  1.0 0.1190753311
H  H256  1  0.61214000  0.12488000  0.34094000  1.0 0.1190753311
H  H257  1  0.82157000  0.48581000  0.40989000  1.0 0.0903562769
H  H258  1  0.91888000  0.46859000  0.33413000  1.0 0.1107520464
H  H259  1  0.95699000  0.53292000  0.37594000  1.0 0.0502357501
H  H260  1  0.99050000  0.44107000  0.37534000  1.0 0.0502357501
H  H261  1  0.96223000  0.41996000  0.47172000  1.0 0.0988020281
H  H262  1  0.93428000  0.51335000  0.47592000  1.0 0.0404710991
H  H263  1  0.87371000  0.44303000  0.49760000  1.0 0.0802878582
H  H264  1  0.29544000  0.52528000  0.45209000  1.0 0.0694918596
H  H265  1  0.29733000  0.66568000  0.43582000  1.0 0.0802878582
H  H266  1  0.42238000  0.73009000  0.41180000  1.0 0.0903562769
H  H267  1  0.46548000  0.38683000  0.44389000  1.0 0.0404710991
H  H268  1  0.35489000  0.38958000  0.37325000  1.0 0.0694918596
H  H269  1  0.34109000  0.31841000  0.41646000  1.0 0.0694918596
H  H270  1  0.28770000  0.40062000  0.42050000  1.0 0.0988020281
H  H271  1  0.42168000  0.43594000  0.53116000  1.0 0.0694918596
H  H272  1  0.32779000  0.44697000  0.51013000  1.0 0.0694918596
H  H273  1  0.36602000  0.35759000  0.51756000  1.0 0.0694918596
H  H274  1  0.60369000  0.63791000  0.37190000  1.0 0.0802878582
H  H275  1  0.65064000  0.62699000  0.46070000  1.0 0.1190753311
H  H276  1  0.68325000  0.71230000  0.43760000  1.0 0.0694918596
H  H277  1  0.60464000  0.70977000  0.47748000  1.0 0.0617145714
H  H278  1  0.51997000  0.75386000  0.34407000  1.0 0.0694918596
H  H279  1  0.54282000  0.79639000  0.40025000  1.0 0.0694918596
H  H280  1  0.61503000  0.77625000  0.35762000  1.0 0.0617145714
H  H281  1  0.75189000  0.60348000  0.36853000  1.0 0.0988020281
H  H282  1  0.83866000  0.70363000  0.34139000  1.0 0.1296772015
H  H283  1  0.81395000  0.61521000  0.18802000  1.0 0.1107520464
H  H284  1  0.72481000  0.52033000  0.22120000  1.0 0.0903562769
H  H285  1  0.01011000  0.88913000  0.27715000  1.0 0.0988020281
H  H286  1  0.91553000  0.80042000  0.30966000  1.0 0.1190753311
H  H287  1  0.90848000  0.69448000  0.16232000  1.0 0.1190753311
H  H288  1  0.00044000  0.78936000  0.13286000  1.0 0.0988020281
H  H289  1  0.42746000  0.48803000  0.31521000  1.0 0.0988020281
H  H290  1  0.32834000  0.58641000  0.30391000  1.0 0.1190753311
H  H291  1  0.49533000  0.71746000  0.21944000  1.0 0.1296772015
H  H292  1  0.59348000  0.61943000  0.23769000  1.0 0.0903562769
H  H293  1  0.13882000  0.76775000  0.25817000  1.0 0.0988020281
H  H294  1  0.23432000  0.66817000  0.27793000  1.0 0.1296772015
H  H295  1  0.41600000  0.82068000  0.22833000  1.0 0.1296772015
H  H296  1  0.31496000  0.91551000  0.21118000  1.0 0.0903562769
H  H297  1  0.81759000  0.47813000  0.40686000  1.0 0.0903562769
H  H298  1  0.91929000  0.46407000  0.33385000  1.0 0.1190753311
H  H299  1  0.91868000  0.54865000  0.36594000  1.0 0.0694918596
H  H300  1  0.98913000  0.48209000  0.37849000  1.0 0.0404710991
H  H301  1  0.90297000  0.54597000  0.46692000  1.0 0.0903562769
H  H302  1  0.86409000  0.46833000  0.49682000  1.0 0.0903562769
H  H303  1  0.95895000  0.46646000  0.47638000  1.0 0.0404710991
H  H304  1  0.30497000  0.56425000  0.44022000  1.0 0.0802878582
H  H305  1  0.32441000  0.70362000  0.42491000  1.0 0.0802878582
H  H306  1  0.45745000  0.75363000  0.40390000  1.0 0.0694918596
H  H307  1  0.46390000  0.42122000  0.43023000  1.0 0.0694918596
H  H308  1  0.34378000  0.44515000  0.37341000  1.0 0.0694918596
H  H309  1  0.37374000  0.35560000  0.39004000  1.0 0.0694918596
H  H310  1  0.29625000  0.39688000  0.42035000  1.0 0.1107520464
H  H311  1  0.46588000  0.38521000  0.51245000  1.0 0.0694918596
H  H312  1  0.37152000  0.41251000  0.52393000  1.0 0.0617145714
H  H313  1  0.39001000  0.33440000  0.48720000  1.0 0.0694918596
H  H314  1  0.62784000  0.62442000  0.36564000  1.0 0.0502357501
H  H315  1  0.64689000  0.62941000  0.46754000  1.0 0.1190753311
H  H316  1  0.72160000  0.66194000  0.43042000  1.0 0.0694918596
H  H317  1  0.65859000  0.72515000  0.45802000  1.0 0.0694918596
H  H318  1  0.57552000  0.74748000  0.32847000  1.0 0.0694918596
H  H319  1  0.57999000  0.79163000  0.38595000  1.0 0.0694918596
H  H320  1  0.66429000  0.76718000  0.35521000  1.0 0.0802878582
C  C1  1  0.82250000  0.41220000  0.95010000  1.0 0.0903562769
C  C2  1  0.89110000  0.47010000  0.95530000  1.0 -0.0342475023
C  C3  1  0.90350000  0.48500000  0.01350000  1.0 -0.1101662093
C  C4  1  0.84650000  0.43330000  0.04090000  1.0 0.0104879195
C  C5  1  0.79760000  0.38920000  0.00510000  1.0 0.0104879195
C  C6  1  0.74040000  0.33490000  0.02720000  1.0 -0.1997918303
C  C7  1  0.73350000  0.32840000  0.08380000  1.0 -0.1193612204
C  C8  1  0.78140000  0.37460000  0.11800000  1.0 -0.1997918303
C  C9  1  0.84130000  0.42800000  0.09740000  1.0 0.0903562769
C  C10  1  0.89640000  0.47940000  0.12740000  1.0 -0.1671217043
C  C11  1  0.94890000  0.53070000  0.10080000  1.0 -0.1101662093
C  C12  1  0.95380000  0.53490000  0.04400000  1.0 -0.2735701609
C  C13  1  0.72650000  0.33150000  0.90150000  1.0 0.1190753311
C  C14  1  0.74150000  0.24820000  0.89420000  1.0 0.0104879195
C  C15  1  0.67310000  0.19550000  0.89440000  1.0 -0.1366017122
C  C16  1  0.59280000  0.22460000  0.90060000  1.0 -0.1193612204
C  C17  1  0.57950000  0.30650000  0.90590000  1.0 -0.148597728
C  C18  1  0.64530000  0.36180000  0.90690000  1.0 -0.0083749371
C  C19  1  0.82930000  0.21780000  0.88510000  1.0 0.0802878582
C  C20  1  0.87890000  0.21090000  0.93780000  1.0 -0.5418197471
C  C21  1  0.83210000  0.13360000  0.85630000  1.0 -0.4188896004
C  C22  1  0.62700000  0.45150000  0.91290000  1.0 0.0404710991
C  C23  1  0.55900000  0.47600000  0.87060000  1.0 -0.379244383
C  C24  1  0.58500000  0.45800000  0.96990000  1.0 -0.1997918303
C  C25  1  0.00630000  0.54460000  0.92350000  1.0 0.0502357501
C  C26  1  0.08060000  0.50630000  0.93770000  1.0 0.026376855
C  C27  1  0.15380000  0.55140000  0.94230000  1.0 -0.1021807711
C  C28  1  0.15270000  0.63480000  0.93270000  1.0 -0.0721853467
C  C29  1  0.07840000  0.67310000  0.91840000  1.0 -0.0083749371
C  C30  1  0.00520000  0.62800000  0.91380000  1.0 -0.002211239
C  C31  1  0.08920000  0.41570000  0.94770000  1.0 0.0193349835
C  C32  1  0.15770000  0.37750000  0.91110000  1.0 -0.1997918303
C  C33  1  0.12140000  0.41390000  0.00720000  1.0 -0.1590135243
C  C34  1  0.92600000  0.67240000  0.89900000  1.0 0.0502357501
C  C35  1  0.86640000  0.68120000  0.94830000  1.0 -0.2122796012
C  C36  1  0.93820000  0.75760000  0.87280000  1.0 -0.2269968796
C  C37  1  0.73540000  0.60630000  0.83120000  1.0 -0.0603198377
C  C38  1  0.68270000  0.66630000  0.81560000  1.0 -0.2269968796
C  C39  1  0.65910000  0.67340000  0.75990000  1.0 0.0988020281
C  C40  1  0.69770000  0.61460000  0.72560000  1.0 -0.1788218781
C  C41  1  0.75080000  0.55760000  0.74590000  1.0 0.0404710991
C  C42  1  0.51160000  0.84930000  0.75320000  1.0 0.0404710991
C  C43  1  0.56760000  0.79590000  0.77310000  1.0 -0.1788218781
C  C44  1  0.60210000  0.73260000  0.74050000  1.0 0.0903562769
C  C45  1  0.57210000  0.73440000  0.68710000  1.0 -0.2122796012
C  C46  1  0.51640000  0.79140000  0.66960000  1.0 -0.002211239
C  C47  1  0.05730000  0.53670000  0.79700000  1.0 -0.0764382937
C  C48  1  0.11720000  0.59460000  0.78960000  1.0 -0.2617196921
C  C49  1  0.09950000  0.66480000  0.76150000  1.0 0.0988020281
C  C50  1  0.01940000  0.67170000  0.74090000  1.0 -0.1915887127
C  C51  1  0.96150000  0.61230000  0.75140000  1.0 0.0617145714
C  C52  1  0.30370000  0.77850000  0.75170000  1.0 0.0502357501
C  C53  1  0.24720000  0.71840000  0.76310000  1.0 -0.1915887127
C  C54  1  0.16290000  0.73070000  0.75310000  1.0 0.0988020281
C  C55  1  0.14110000  0.80740000  0.73430000  1.0 -0.2225815203
C  C56  1  0.20210000  0.86380000  0.72440000  1.0 0.026376855
C  C57  1  0.57000000  0.49000000  0.86870000  1.0 -0.3711588453
C  C58  1  0.59700000  0.48600000  0.96840000  1.0 -0.1997918303
C  C59  1  0.99450000  0.56120000  0.91580000  1.0 0.0404710991
C  C60  1  0.07350000  0.53150000  0.92830000  1.0 -0.002211239
C  C61  1  0.14100000  0.58460000  0.93170000  1.0 -0.0158604938
C  C62  1  0.12950000  0.66730000  0.92260000  1.0 -0.0721853467
C  C63  1  0.05040000  0.69700000  0.91010000  1.0 -0.1021807711
C  C64  1  0.98300000  0.64400000  0.90670000  1.0 0.0193349835
C  C65  1  0.08900000  0.44430000  0.94590000  1.0 0.0404710991
C  C66  1  0.14900000  0.40700000  0.90350000  1.0 -0.2122796012
C  C67  1  0.09000000  0.38900000  0.99710000  1.0 -0.1915887127
C  C68  1  0.89440000  0.66650000  0.89100000  1.0 0.026376855
C  C69  1  0.83600000  0.67100000  0.94140000  1.0 -0.1997918303
C  C70  1  0.89400000  0.75100000  0.86250000  1.0 -0.1590135243
C  C71  1  0.32250000  0.91220000  0.54990000  1.0 0.0903562769
C  C72  1  0.39110000  0.97010000  0.54470000  1.0 -0.0342475023
C  C73  1  0.40350000  0.98500000  0.48650000  1.0 -0.1101662093
C  C74  1  0.34650000  0.93330000  0.45910000  1.0 0.0104879195
C  C75  1  0.29760000  0.88920000  0.49490000  1.0 0.0104879195
C  C76  1  0.24040000  0.83490000  0.47280000  1.0 -0.1997918303
C  C77  1  0.23350000  0.82840000  0.41620000  1.0 -0.1193612204
C  C78  1  0.28140000  0.87460000  0.38200000  1.0 -0.1997918303
C  C79  1  0.34130000  0.92800000  0.40260000  1.0 0.0903562769
C  C80  1  0.39640000  0.97940000  0.37260000  1.0 -0.1671217043
C  C81  1  0.44890000  0.03070000  0.39920000  1.0 -0.1101662093
C  C82  1  0.45380000  0.03490000  0.45600000  1.0 -0.2735701609
C  C83  1  0.22650000  0.83150000  0.59850000  1.0 0.1190753311
C  C84  1  0.24150000  0.74820000  0.60580000  1.0 0.0104879195
C  C85  1  0.17310000  0.69550000  0.60560000  1.0 -0.1366017122
C  C86  1  0.09280000  0.72460000  0.59940000  1.0 -0.1193612204
C  C87  1  0.07950000  0.80650000  0.59410000  1.0 -0.148597728
C  C88  1  0.14530000  0.86180000  0.59310000  1.0 -0.0083749371
C  C89  1  0.32930000  0.71780000  0.61490000  1.0 0.0802878582
C  C90  1  0.37890000  0.71090000  0.56220000  1.0 -0.5418197471
C  C91  1  0.33210000  0.63360000  0.64370000  1.0 -0.4188896004
C  C92  1  0.12700000  0.95150000  0.58710000  1.0 0.0404710991
C  C93  1  0.05900000  0.97600000  0.62940000  1.0 -0.379244383
C  C94  1  0.08500000  0.95800000  0.53010000  1.0 -0.1997918303
C  C95  1  0.50630000  0.04460000  0.57650000  1.0 0.0502357501
C  C96  1  0.58060000  0.00630000  0.56230000  1.0 0.026376855
C  C97  1  0.65380000  0.05140000  0.55770000  1.0 -0.1021807711
C  C98  1  0.65270000  0.13480000  0.56730000  1.0 -0.0721853467
C  C99  1  0.57840000  0.17310000  0.58160000  1.0 -0.0083749371
C  C100  1  0.50520000  0.12800000  0.58620000  1.0 -0.002211239
C  C101  1  0.58920000  0.91570000  0.55230000  1.0 0.0193349835
C  C102  1  0.65770000  0.87750000  0.58890000  1.0 -0.1997918303
C  C103  1  0.62140000  0.91390000  0.49280000  1.0 -0.1590135243
C  C104  1  0.42600000  0.17240000  0.60100000  1.0 0.0502357501
C  C105  1  0.36640000  0.18120000  0.55170000  1.0 -0.2122796012
C  C106  1  0.43820000  0.25760000  0.62720000  1.0 -0.2269968796
C  C107  1  0.23540000  0.10630000  0.66880000  1.0 -0.0603198377
C  C108  1  0.18270000  0.16630000  0.68440000  1.0 -0.2269968796
C  C109  1  0.15910000  0.17340000  0.74010000  1.0 0.0988020281
C  C110  1  0.19770000  0.11460000  0.77440000  1.0 -0.1788218781
C  C111  1  0.25080000  0.05760000  0.75410000  1.0 0.0404710991
C  C112  1  0.01160000  0.34930000  0.74680000  1.0 0.0404710991
C  C113  1  0.06760000  0.29590000  0.72690000  1.0 -0.1788218781
C  C114  1  0.10210000  0.23260000  0.75950000  1.0 0.0903562769
C  C115  1  0.07210000  0.23440000  0.81290000  1.0 -0.2122796012
C  C116  1  0.01640000  0.29140000  0.83040000  1.0 -0.002211239
C  C117  1  0.55730000  0.03670000  0.70300000  1.0 -0.0764382937
C  C118  1  0.61720000  0.09460000  0.71040000  1.0 -0.2617196921
C  C119  1  0.59950000  0.16480000  0.73850000  1.0 0.0988020281
C  C120  1  0.51940000  0.17170000  0.75910000  1.0 -0.1915887127
C  C121  1  0.46150000  0.11230000  0.74860000  1.0 0.0617145714
C  C122  1  0.80370000  0.27850000  0.74830000  1.0 0.0502357501
C  C123  1  0.74720000  0.21840000  0.73690000  1.0 -0.1915887127
C  C124  1  0.66290000  0.23070000  0.74690000  1.0 0.0988020281
C  C125  1  0.64110000  0.30740000  0.76570000  1.0 -0.2225815203
C  C126  1  0.70210000  0.36380000  0.77560000  1.0 0.026376855
C  C127  1  0.07000000  0.99000000  0.63130000  1.0 -0.3711588453
C  C128  1  0.09700000  0.98600000  0.53160000  1.0 -0.1997918303
C  C129  1  0.49450000  0.06120000  0.58420000  1.0 0.0404710991
C  C130  1  0.57350000  0.03150000  0.57170000  1.0 0.0001628426
C  C131  1  0.64100000  0.08460000  0.56830000  1.0 -0.0158604938
C  C132  1  0.62950000  0.16730000  0.57740000  1.0 -0.0721853467
C  C133  1  0.55040000  0.19700000  0.58990000  1.0 -0.1021807711
C  C134  1  0.48300000  0.14400000  0.59330000  1.0 0.0193349835
C  C135  1  0.58900000  0.94430000  0.55410000  1.0 0.0404710991
C  C136  1  0.64900000  0.90700000  0.59650000  1.0 -0.2122796012
C  C137  1  0.59000000  0.88900000  0.50290000  1.0 -0.1915887127
C  C138  1  0.39440000  0.16650000  0.60900000  1.0 0.026376855
C  C139  1  0.33600000  0.17100000  0.55860000  1.0 -0.1997918303
C  C140  1  0.39400000  0.25100000  0.63750000  1.0 -0.1590135243
C  C141  1  0.17750000  0.91220000  0.04990000  1.0 0.0903562769
C  C142  1  0.10890000  0.97010000  0.04470000  1.0 -0.0342475023
C  C143  1  0.09650000  0.98500000  0.98650000  1.0 -0.1101662093
C  C144  1  0.15350000  0.93330000  0.95910000  1.0 0.0104879195
C  C145  1  0.20240000  0.88920000  0.99490000  1.0 0.0104879195
C  C146  1  0.25960000  0.83490000  0.97280000  1.0 -0.1997918303
C  C147  1  0.26650000  0.82840000  0.91620000  1.0 -0.1193612204
C  C148  1  0.21860000  0.87460000  0.88200000  1.0 -0.1997918303
C  C149  1  0.15870000  0.92800000  0.90260000  1.0 0.0903562769
C  C150  1  0.10360000  0.97940000  0.87260000  1.0 -0.1671217043
C  C151  1  0.05110000  0.03070000  0.89920000  1.0 -0.1101662093
C  C152  1  0.04620000  0.03490000  0.95600000  1.0 -0.2735701609
C  C153  1  0.27350000  0.83150000  0.09850000  1.0 0.1190753311
C  C154  1  0.25850000  0.74820000  0.10580000  1.0 0.0104879195
C  C155  1  0.32690000  0.69550000  0.10560000  1.0 -0.1366017122
C  C156  1  0.40720000  0.72460000  0.09940000  1.0 -0.1193612204
C  C157  1  0.42050000  0.80650000  0.09410000  1.0 -0.148597728
C  C158  1  0.35470000  0.86180000  0.09310000  1.0 -0.0083749371
C  C159  1  0.17070000  0.71780000  0.11490000  1.0 0.0802878582
C  C160  1  0.12110000  0.71090000  0.06220000  1.0 -0.5418197471
C  C161  1  0.16790000  0.63360000  0.14370000  1.0 -0.4188896004
C  C162  1  0.37300000  0.95150000  0.08710000  1.0 0.0404710991
C  C163  1  0.44100000  0.97600000  0.12940000  1.0 -0.379244383
C  C164  1  0.41500000  0.95800000  0.03010000  1.0 -0.1997918303
C  C165  1  0.99370000  0.04460000  0.07650000  1.0 0.0502357501
C  C166  1  0.91940000  0.00630000  0.06230000  1.0 0.026376855
C  C167  1  0.84620000  0.05140000  0.05770000  1.0 -0.1021807711
C  C168  1  0.84730000  0.13480000  0.06730000  1.0 -0.0721853467
C  C169  1  0.92160000  0.17310000  0.08160000  1.0 -0.0083749371
C  C170  1  0.99480000  0.12800000  0.08620000  1.0 -0.002211239
C  C171  1  0.91080000  0.91570000  0.05230000  1.0 0.0193349835
C  C172  1  0.84230000  0.87750000  0.08890000  1.0 -0.1997918303
C  C173  1  0.87860000  0.91390000  0.99280000  1.0 -0.1590135243
C  C174  1  0.07400000  0.17240000  0.10100000  1.0 0.0502357501
C  C175  1  0.13360000  0.18120000  0.05170000  1.0 -0.2122796012
C  C176  1  0.06180000  0.25760000  0.12720000  1.0 -0.2269968796
C  C177  1  0.26460000  0.10630000  0.16880000  1.0 -0.0603198377
C  C178  1  0.31730000  0.16630000  0.18440000  1.0 -0.2269968796
C  C179  1  0.34090000  0.17340000  0.24010000  1.0 0.0988020281
C  C180  1  0.30230000  0.11460000  0.27440000  1.0 -0.1788218781
C  C181  1  0.24920000  0.05760000  0.25410000  1.0 0.0404710991
C  C182  1  0.48840000  0.34930000  0.24680000  1.0 0.0404710991
C  C183  1  0.43240000  0.29590000  0.22690000  1.0 -0.1788218781
C  C184  1  0.39790000  0.23260000  0.25950000  1.0 0.0903562769
C  C185  1  0.42790000  0.23440000  0.31290000  1.0 -0.2122796012
C  C186  1  0.48360000  0.29140000  0.33040000  1.0 -0.002211239
C  C187  1  0.94270000  0.03670000  0.20300000  1.0 -0.0721853467
C  C188  1  0.88280000  0.09460000  0.21040000  1.0 -0.2617196921
C  C189  1  0.90050000  0.16480000  0.23850000  1.0 0.0988020281
C  C190  1  0.98060000  0.17170000  0.25910000  1.0 -0.1915887127
C  C191  1  0.03850000  0.11230000  0.24860000  1.0 0.0502357501
C  C192  1  0.69630000  0.27850000  0.24830000  1.0 0.0502357501
C  C193  1  0.75280000  0.21840000  0.23690000  1.0 -0.1915887127
C  C194  1  0.83710000  0.23070000  0.24690000  1.0 0.0988020281
C  C195  1  0.85890000  0.30740000  0.26570000  1.0 -0.2225815203
C  C196  1  0.79790000  0.36380000  0.27560000  1.0 0.026376855
C  C197  1  0.43000000  0.99000000  0.13130000  1.0 -0.3711588453
C  C198  1  0.40300000  0.98600000  0.03160000  1.0 -0.1915887127
C  C199  1  0.00550000  0.06120000  0.08420000  1.0 0.0404710991
C  C200  1  0.92650000  0.03150000  0.07170000  1.0 0.0001628426
C  C201  1  0.85900000  0.08460000  0.06830000  1.0 -0.0083749371
C  C202  1  0.87050000  0.16730000  0.07740000  1.0 -0.0721853467
C  C203  1  0.94960000  0.19700000  0.08990000  1.0 -0.1021807711
C  C204  1  0.01700000  0.14400000  0.09330000  1.0 0.0193349835
C  C205  1  0.91100000  0.94430000  0.05410000  1.0 0.0404710991
C  C206  1  0.85100000  0.90700000  0.09650000  1.0 -0.2122796012
C  C207  1  0.91000000  0.88900000  0.00290000  1.0 -0.1915887127
C  C208  1  0.10560000  0.16650000  0.10900000  1.0 0.026376855
C  C209  1  0.16400000  0.17100000  0.05860000  1.0 -0.1997918303
C  C210  1  0.10600000  0.25100000  0.13750000  1.0 -0.1590135243
C  C211  1  0.67750000  0.41220000  0.45010000  1.0 0.0903562769
C  C212  1  0.60890000  0.47010000  0.45530000  1.0 -0.0342475023
C  C213  1  0.59650000  0.48500000  0.51350000  1.0 -0.1101662093
C  C214  1  0.65350000  0.43330000  0.54090000  1.0 0.0104879195
C  C215  1  0.70240000  0.38920000  0.50510000  1.0 0.0104879195
C  C216  1  0.75960000  0.33490000  0.52720000  1.0 -0.1997918303
C  C217  1  0.76650000  0.32840000  0.58380000  1.0 -0.1193612204
C  C218  1  0.71860000  0.37460000  0.61800000  1.0 -0.1997918303
C  C219  1  0.65870000  0.42800000  0.59740000  1.0 0.0903562769
C  C220  1  0.60360000  0.47940000  0.62740000  1.0 -0.1671217043
C  C221  1  0.55110000  0.53070000  0.60080000  1.0 -0.1101662093
C  C222  1  0.54620000  0.53490000  0.54400000  1.0 -0.2735701609
C  C223  1  0.77350000  0.33150000  0.40150000  1.0 0.1190753311
C  C224  1  0.75850000  0.24820000  0.39420000  1.0 0.0104879195
C  C225  1  0.82690000  0.19550000  0.39440000  1.0 -0.1366017122
C  C226  1  0.90720000  0.22460000  0.40060000  1.0 -0.1193612204
C  C227  1  0.92050000  0.30650000  0.40590000  1.0 -0.148597728
C  C228  1  0.85470000  0.36180000  0.40690000  1.0 -0.0083749371
C  C229  1  0.67070000  0.21780000  0.38510000  1.0 0.0802878582
C  C230  1  0.62110000  0.21090000  0.43780000  1.0 -0.5418197471
C  C231  1  0.66790000  0.13360000  0.35630000  1.0 -0.4188896004
C  C232  1  0.87300000  0.45150000  0.41290000  1.0 0.0404710991
C  C233  1  0.94100000  0.47600000  0.37060000  1.0 -0.379244383
C  C234  1  0.91500000  0.45800000  0.46990000  1.0 -0.1997918303
C  C235  1  0.49370000  0.54460000  0.42350000  1.0 0.0502357501
C  C236  1  0.41940000  0.50630000  0.43770000  1.0 0.026376855
C  C237  1  0.34620000  0.55140000  0.44230000  1.0 -0.1021807711
C  C238  1  0.34730000  0.63480000  0.43270000  1.0 -0.0721853467
C  C239  1  0.42160000  0.67310000  0.41840000  1.0 -0.0083749371
C  C240  1  0.49480000  0.62800000  0.41380000  1.0 -0.002211239
C  C241  1  0.41080000  0.41570000  0.44770000  1.0 0.0193349835
C  C242  1  0.34230000  0.37750000  0.41110000  1.0 -0.1997918303
C  C243  1  0.37860000  0.41390000  0.50720000  1.0 -0.1590135243
C  C244  1  0.57400000  0.67240000  0.39900000  1.0 0.0502357501
C  C245  1  0.63360000  0.68120000  0.44830000  1.0 -0.2122796012
C  C246  1  0.56180000  0.75760000  0.37280000  1.0 -0.2269968796
C  C247  1  0.76460000  0.60630000  0.33120000  1.0 -0.0603198377
C  C248  1  0.81730000  0.66630000  0.31560000  1.0 -0.2269968796
C  C249  1  0.84090000  0.67340000  0.25990000  1.0 0.0988020281
C  C250  1  0.80230000  0.61460000  0.22560000  1.0 -0.1788218781
C  C251  1  0.74920000  0.55760000  0.24590000  1.0 0.0404710991
C  C252  1  0.98840000  0.84930000  0.25320000  1.0 0.0404710991
C  C253  1  0.93240000  0.79590000  0.27310000  1.0 -0.1788218781
C  C254  1  0.89790000  0.73260000  0.24050000  1.0 0.0903562769
C  C255  1  0.92790000  0.73440000  0.18710000  1.0 -0.2122796012
C  C256  1  0.98360000  0.79140000  0.16960000  1.0 -0.002211239
C  C257  1  0.44270000  0.53670000  0.29700000  1.0 -0.0764382937
C  C258  1  0.38280000  0.59460000  0.28960000  1.0 -0.2617196921
C  C259  1  0.40050000  0.66480000  0.26150000  1.0 0.0988020281
C  C260  1  0.48060000  0.67170000  0.24090000  1.0 -0.1915887127
C  C261  1  0.53850000  0.61230000  0.25140000  1.0 0.0502357501
C  C262  1  0.19630000  0.77850000  0.25170000  1.0 0.0502357501
C  C263  1  0.25280000  0.71840000  0.26310000  1.0 -0.1915887127
C  C264  1  0.33710000  0.73070000  0.25310000  1.0 0.0988020281
C  C265  1  0.35890000  0.80740000  0.23430000  1.0 -0.2225815203
C  C266  1  0.29790000  0.86380000  0.22440000  1.0 0.026376855
C  C267  1  0.93000000  0.49000000  0.36870000  1.0 -0.3711588453
C  C268  1  0.90300000  0.48600000  0.46840000  1.0 -0.1915887127
C  C269  1  0.50550000  0.56120000  0.41580000  1.0 0.0404710991
C  C270  1  0.42650000  0.53150000  0.42830000  1.0 0.0001628426
C  C271  1  0.35900000  0.58460000  0.43170000  1.0 -0.0158604938
C  C272  1  0.37050000  0.66730000  0.42260000  1.0 -0.0721853467
C  C273  1  0.44960000  0.69700000  0.41010000  1.0 -0.1021807711
C  C274  1  0.51700000  0.64400000  0.40670000  1.0 0.0193349835
C  C275  1  0.41100000  0.44430000  0.44590000  1.0 0.0404710991
C  C276  1  0.35100000  0.40700000  0.40350000  1.0 -0.2122796012
C  C277  1  0.41000000  0.38900000  0.49710000  1.0 -0.1915887127
C  C278  1  0.60560000  0.66650000  0.39100000  1.0 0.026376855
C  C279  1  0.66400000  0.67100000  0.44140000  1.0 -0.1997918303
C  C280  1  0.60600000  0.75100000  0.36250000  1.0 -0.1590135243
N  N1  1  0.79650000  0.38630000  0.90230000  1.0 -0.4015329141
N  N2  1  0.92950000  0.49970000  0.91270000  1.0 -0.3593178052
N  N3  1  0.77200000  0.54980000  0.79900000  1.0 -0.3466108996
N  N4  1  0.48360000  0.85050000  0.70100000  1.0 -0.3711588453
N  N5  1  0.97770000  0.54450000  0.78010000  1.0 -0.3224457461
N  N6  1  0.28290000  0.85180000  0.73180000  1.0 -0.2901005703
N  N7  1  0.29650000  0.88630000  0.59770000  1.0 -0.4015329141
N  N8  1  0.42950000  0.99970000  0.58730000  1.0 -0.3593178052
N  N9  1  0.27200000  0.04980000  0.70100000  1.0 -0.3466108996
N  N10  1  0.98360000  0.35050000  0.79900000  1.0 -0.3711588453
N  N11  1  0.47770000  0.04450000  0.71990000  1.0 -0.3224457461
N  N12  1  0.78290000  0.35180000  0.76820000  1.0 -0.2901005703
N  N13  1  0.20350000  0.88630000  0.09770000  1.0 -0.4015329141
N  N14  1  0.07050000  0.99970000  0.08730000  1.0 -0.3593178052
N  N15  1  0.22800000  0.04980000  0.20100000  1.0 -0.3466108996
N  N16  1  0.51640000  0.35050000  0.29900000  1.0 -0.3711588453
N  N17  1  0.02230000  0.04450000  0.21990000  1.0 -0.3224457461
N  N18  1  0.71710000  0.35180000  0.26820000  1.0 -0.2901005703
N  N19  1  0.70350000  0.38630000  0.40230000  1.0 -0.4015329141
N  N20  1  0.57050000  0.49970000  0.41270000  1.0 -0.3593178052
N  N21  1  0.72800000  0.54980000  0.29900000  1.0 -0.3466108996
N  N22  1  0.01640000  0.85050000  0.20100000  1.0 -0.3711588453
N  N23  1  0.52230000  0.54450000  0.28010000  1.0 -0.3224457461
N  N24  1  0.21710000  0.85180000  0.23180000  1.0 -0.2901005703
