# DDEC6 charges by PACMAN v1.1 (https://github.com/mtap-research/PACMAN-charge/)
data_OMUMIU_FSR_pacman
_symmetry_space_group_name_H-M   'P 1'
_cell_length_a   24.43500000
_cell_length_b   27.25500000
_cell_length_c   30.40700000
_cell_angle_alpha   90.00000000
_cell_angle_beta   90.00000000
_cell_angle_gamma   90.00000000
_symmetry_Int_Tables_number   1
_chemical_formula_structural   Dy5H115(C41O12)4
_chemical_formula_sum   'Dy20 H460 C656 O192'
_cell_volume   20250.32995147
_cell_formula_units_Z   4
loop_
 _symmetry_equiv_pos_site_id
 _symmetry_equiv_pos_as_xyz
  1  'x, y, z'
loop_
 _atom_site_type_symbol
 _atom_site_label
 _atom_site_symmetry_multiplicity
 _atom_site_fract_x
 _atom_site_fract_y
 _atom_site_fract_z
 _atom_site_occupancy
 _atom_site_charge
Dy  Dy1  1  0.74457000  0.76063000  0.36267000  1.0 1.9398926315
Dy  Dy2  1  0.25543000  0.23937000  0.86267000  1.0 1.9398926315
Dy  Dy3  1  0.74457000  0.73937000  0.63733000  1.0 1.9398926315
Dy  Dy4  1  0.25543000  0.26063000  0.13733000  1.0 1.9398926315
Dy  Dy5  1  0.25543000  0.23937000  0.63733000  1.0 1.9398926315
Dy  Dy6  1  0.74457000  0.76063000  0.13733000  1.0 1.9398926315
Dy  Dy7  1  0.25543000  0.26063000  0.36267000  1.0 1.9398926315
Dy  Dy8  1  0.74457000  0.73937000  0.86267000  1.0 1.9398926315
Dy  Dy9  1  0.72428000  0.85047000  0.25000000  1.0 1.9912538496
Dy  Dy10  1  0.27572000  0.14953000  0.75000000  1.0 1.9912538496
Dy  Dy11  1  0.72428000  0.64953000  0.75000000  1.0 1.9912538496
Dy  Dy12  1  0.27572000  0.35047000  0.25000000  1.0 1.9912538496
Dy  Dy13  1  0.62513000  0.28651000  0.75000000  1.0 1.9301793841
Dy  Dy14  1  0.37487000  0.71349000  0.25000000  1.0 1.9301793841
Dy  Dy15  1  0.62513000  0.21349000  0.25000000  1.0 1.9301793841
Dy  Dy16  1  0.37487000  0.78651000  0.75000000  1.0 1.9301793841
Dy  Dy17  1  0.87278000  0.31286000  0.25000000  1.0 1.869287726
Dy  Dy18  1  0.12722000  0.68714000  0.75000000  1.0 1.869287726
Dy  Dy19  1  0.87278000  0.18714000  0.75000000  1.0 1.869287726
Dy  Dy20  1  0.12722000  0.81286000  0.25000000  1.0 1.869287726
H  H1  1  0.64630000  0.65710000  0.46940000  1.0 0.1036369642
H  H2  1  0.35370000  0.34290000  0.96940000  1.0 0.1036369642
H  H3  1  0.64630000  0.84290000  0.53060000  1.0 0.1036369642
H  H4  1  0.35370000  0.15710000  0.03060000  1.0 0.1036369642
H  H5  1  0.35370000  0.34290000  0.53060000  1.0 0.1036369642
H  H6  1  0.64630000  0.65710000  0.03060000  1.0 0.1036369642
H  H7  1  0.35370000  0.15710000  0.46940000  1.0 0.1036369642
H  H8  1  0.64630000  0.84290000  0.96940000  1.0 0.1036369642
H  H9  1  0.65530000  0.59650000  0.34930000  1.0 0.1390483124
H  H10  1  0.34470000  0.40350000  0.84930000  1.0 0.1390483124
H  H11  1  0.65530000  0.90350000  0.65070000  1.0 0.1390483124
H  H12  1  0.34470000  0.09650000  0.15070000  1.0 0.1390483124
H  H13  1  0.34470000  0.40350000  0.65070000  1.0 0.1390483124
H  H14  1  0.65530000  0.59650000  0.15070000  1.0 0.1390483124
H  H15  1  0.34470000  0.09650000  0.34930000  1.0 0.1390483124
H  H16  1  0.65530000  0.90350000  0.84930000  1.0 0.1390483124
H  H17  1  0.62530000  0.93620000  0.34570000  1.0 0.1184432337
H  H18  1  0.37470000  0.06380000  0.84570000  1.0 0.1184432337
H  H19  1  0.62530000  0.56380000  0.65430000  1.0 0.1184432337
H  H20  1  0.37470000  0.43620000  0.15430000  1.0 0.1184432337
H  H21  1  0.37470000  0.06380000  0.65430000  1.0 0.1184432337
H  H22  1  0.62530000  0.93620000  0.15430000  1.0 0.1184432337
H  H23  1  0.37470000  0.43620000  0.34570000  1.0 0.1184432337
H  H24  1  0.62530000  0.56380000  0.84570000  1.0 0.1184432337
H  H25  1  0.59260000  0.81100000  0.40600000  1.0 0.1273565211
H  H26  1  0.40740000  0.18900000  0.90600000  1.0 0.1273565211
H  H27  1  0.59260000  0.68900000  0.59400000  1.0 0.1273565211
H  H28  1  0.40740000  0.31100000  0.09400000  1.0 0.1273565211
H  H29  1  0.40740000  0.18900000  0.59400000  1.0 0.1273565211
H  H30  1  0.59260000  0.81100000  0.09400000  1.0 0.1273565211
H  H31  1  0.40740000  0.31100000  0.40600000  1.0 0.1273565211
H  H32  1  0.59260000  0.68900000  0.90600000  1.0 0.1273565211
H  H33  1  0.72310000  0.90300000  0.40430000  1.0 0.1184432337
H  H34  1  0.27690000  0.09700000  0.90430000  1.0 0.1184432337
H  H35  1  0.72310000  0.59700000  0.59570000  1.0 0.1184432337
H  H36  1  0.27690000  0.40300000  0.09570000  1.0 0.1184432337
H  H37  1  0.27690000  0.09700000  0.59570000  1.0 0.1184432337
H  H38  1  0.72310000  0.90300000  0.09570000  1.0 0.1184432337
H  H39  1  0.27690000  0.40300000  0.40430000  1.0 0.1184432337
H  H40  1  0.72310000  0.59700000  0.90430000  1.0 0.1184432337
H  H41  1  0.76370000  0.87930000  0.52990000  1.0 0.1036369642
H  H42  1  0.23630000  0.12070000  0.02990000  1.0 0.1036369642
H  H43  1  0.76370000  0.62070000  0.47010000  1.0 0.1036369642
H  H44  1  0.23630000  0.37930000  0.97010000  1.0 0.1036369642
H  H45  1  0.23630000  0.12070000  0.47010000  1.0 0.1036369642
H  H46  1  0.76370000  0.87930000  0.97010000  1.0 0.1036369642
H  H47  1  0.23630000  0.37930000  0.52990000  1.0 0.1036369642
H  H48  1  0.76370000  0.62070000  0.02990000  1.0 0.1036369642
H  H49  1  0.60660000  0.58710000  0.49620000  1.0 0.1184432337
H  H50  1  0.39340000  0.41290000  0.99620000  1.0 0.1184432337
H  H51  1  0.60660000  0.91290000  0.50380000  1.0 0.1184432337
H  H52  1  0.39340000  0.08710000  0.00380000  1.0 0.1184432337
H  H53  1  0.39340000  0.41290000  0.50380000  1.0 0.1184432337
H  H54  1  0.60660000  0.58710000  0.00380000  1.0 0.1184432337
H  H55  1  0.39340000  0.08710000  0.49620000  1.0 0.1184432337
H  H56  1  0.60660000  0.91290000  0.99620000  1.0 0.1184432337
H  H57  1  0.61650000  0.52590000  0.37650000  1.0 0.1184432337
H  H58  1  0.38350000  0.47410000  0.87650000  1.0 0.1184432337
H  H59  1  0.61650000  0.97410000  0.62350000  1.0 0.1184432337
H  H60  1  0.38350000  0.02590000  0.12350000  1.0 0.1184432337
H  H61  1  0.38350000  0.47410000  0.62350000  1.0 0.1184432337
H  H62  1  0.61650000  0.52590000  0.12350000  1.0 0.1184432337
H  H63  1  0.38350000  0.02590000  0.37650000  1.0 0.1184432337
H  H64  1  0.61650000  0.97410000  0.87650000  1.0 0.1184432337
H  H65  1  0.55910000  0.97560000  0.38690000  1.0 0.1184432337
H  H66  1  0.44090000  0.02440000  0.88690000  1.0 0.1184432337
H  H67  1  0.55910000  0.52440000  0.61310000  1.0 0.1184432337
H  H68  1  0.44090000  0.47560000  0.11310000  1.0 0.1184432337
H  H69  1  0.44090000  0.02440000  0.61310000  1.0 0.1184432337
H  H70  1  0.55910000  0.97560000  0.11310000  1.0 0.1184432337
H  H71  1  0.44090000  0.47560000  0.38690000  1.0 0.1184432337
H  H72  1  0.55910000  0.52440000  0.88690000  1.0 0.1184432337
H  H73  1  0.52290000  0.84780000  0.44460000  1.0 0.1184432337
H  H74  1  0.47710000  0.15220000  0.94460000  1.0 0.1184432337
H  H75  1  0.52290000  0.65220000  0.55540000  1.0 0.1184432337
H  H76  1  0.47710000  0.34780000  0.05540000  1.0 0.1184432337
H  H77  1  0.47710000  0.15220000  0.55540000  1.0 0.1184432337
H  H78  1  0.52290000  0.84780000  0.05540000  1.0 0.1184432337
H  H79  1  0.47710000  0.34780000  0.44460000  1.0 0.1184432337
H  H80  1  0.52290000  0.65220000  0.94460000  1.0 0.1184432337
H  H81  1  0.72460000  0.98600000  0.41580000  1.0 0.1184432337
H  H82  1  0.27540000  0.01400000  0.91580000  1.0 0.1184432337
H  H83  1  0.72460000  0.51400000  0.58420000  1.0 0.1184432337
H  H84  1  0.27540000  0.48600000  0.08420000  1.0 0.1184432337
H  H85  1  0.27540000  0.01400000  0.58420000  1.0 0.1184432337
H  H86  1  0.72460000  0.98600000  0.08420000  1.0 0.1184432337
H  H87  1  0.27540000  0.48600000  0.41580000  1.0 0.1184432337
H  H88  1  0.72460000  0.51400000  0.91580000  1.0 0.1184432337
H  H89  1  0.76770000  0.96330000  0.54210000  1.0 0.1273565211
H  H90  1  0.23230000  0.03670000  0.04210000  1.0 0.1273565211
H  H91  1  0.76770000  0.53670000  0.45790000  1.0 0.1273565211
H  H92  1  0.23230000  0.46330000  0.95790000  1.0 0.1273565211
H  H93  1  0.23230000  0.03670000  0.45790000  1.0 0.1273565211
H  H94  1  0.76770000  0.96330000  0.95790000  1.0 0.1273565211
H  H95  1  0.23230000  0.46330000  0.54210000  1.0 0.1273565211
H  H96  1  0.76770000  0.53670000  0.04210000  1.0 0.1273565211
H  H97  1  0.61780000  0.50130000  0.51510000  1.0 0.1184432337
H  H98  1  0.38220000  0.49870000  0.01510000  1.0 0.1184432337
H  H99  1  0.61780000  0.99870000  0.48490000  1.0 0.1184432337
H  H100  1  0.38220000  0.00130000  0.98490000  1.0 0.1184432337
H  H101  1  0.38220000  0.49870000  0.48490000  1.0 0.1184432337
H  H102  1  0.61780000  0.50130000  0.98490000  1.0 0.1184432337
H  H103  1  0.38220000  0.00130000  0.51510000  1.0 0.1184432337
H  H104  1  0.61780000  0.99870000  0.01510000  1.0 0.1184432337
H  H105  1  0.53300000  0.49090000  0.40210000  1.0 0.1184432337
H  H106  1  0.46700000  0.50910000  0.90210000  1.0 0.1184432337
H  H107  1  0.53300000  0.00910000  0.59790000  1.0 0.1094932801
H  H108  1  0.46700000  0.99090000  0.09790000  1.0 0.1184432337
H  H109  1  0.46700000  0.50910000  0.59790000  1.0 0.1184432337
H  H110  1  0.53300000  0.49090000  0.09790000  1.0 0.1094932801
H  H111  1  0.46700000  0.99090000  0.40210000  1.0 0.1184432337
H  H112  1  0.53300000  0.00910000  0.90210000  1.0 0.1094932801
H  H113  1  0.49620000  0.89630000  0.50030000  1.0 0.1094932801
H  H114  1  0.50380000  0.10370000  0.00030000  1.0 0.1094932801
H  H115  1  0.49620000  0.60370000  0.49970000  1.0 0.1094932801
H  H116  1  0.50380000  0.39630000  0.99970000  1.0 0.1094932801
H  H117  1  0.50380000  0.10370000  0.49970000  1.0 0.1094932801
H  H118  1  0.49620000  0.89630000  0.99970000  1.0 0.1094932801
H  H119  1  0.50380000  0.39630000  0.50030000  1.0 0.1094932801
H  H120  1  0.49620000  0.60370000  0.00030000  1.0 0.1094932801
H  H121  1  0.70920000  0.04020000  0.54420000  1.0 0.1184432337
H  H122  1  0.29080000  0.95980000  0.04420000  1.0 0.1184432337
H  H123  1  0.70920000  0.45980000  0.45580000  1.0 0.1184432337
H  H124  1  0.29080000  0.54020000  0.95580000  1.0 0.1184432337
H  H125  1  0.29080000  0.95980000  0.45580000  1.0 0.1184432337
H  H126  1  0.70920000  0.04020000  0.95580000  1.0 0.1184432337
H  H127  1  0.29080000  0.54020000  0.54420000  1.0 0.1184432337
H  H128  1  0.70920000  0.45980000  0.04420000  1.0 0.1184432337
H  H129  1  0.79330000  0.05230000  0.43150000  1.0 0.1184432337
H  H130  1  0.20670000  0.94770000  0.93150000  1.0 0.1184432337
H  H131  1  0.79330000  0.44770000  0.56850000  1.0 0.1184432337
H  H132  1  0.20670000  0.55230000  0.06850000  1.0 0.1184432337
H  H133  1  0.20670000  0.94770000  0.56850000  1.0 0.1184432337
H  H134  1  0.79330000  0.05230000  0.06850000  1.0 0.1184432337
H  H135  1  0.20670000  0.55230000  0.43150000  1.0 0.1184432337
H  H136  1  0.79330000  0.44770000  0.93150000  1.0 0.1184432337
H  H137  1  0.75290000  0.17230000  0.49950000  1.0 0.1273565211
H  H138  1  0.24710000  0.82770000  0.99950000  1.0 0.1273565211
H  H139  1  0.75290000  0.32770000  0.50050000  1.0 0.1273565211
H  H140  1  0.24710000  0.67230000  0.00050000  1.0 0.1273565211
H  H141  1  0.24710000  0.82770000  0.50050000  1.0 0.1273565211
H  H142  1  0.75290000  0.17230000  0.00050000  1.0 0.1273565211
H  H143  1  0.24710000  0.67230000  0.49950000  1.0 0.1273565211
H  H144  1  0.75290000  0.32770000  0.99950000  1.0 0.1273565211
H  H145  1  0.65800000  0.42790000  0.55600000  1.0 0.1094932801
H  H146  1  0.34200000  0.57210000  0.05600000  1.0 0.1094932801
H  H147  1  0.65800000  0.07210000  0.44400000  1.0 0.1094932801
H  H148  1  0.34200000  0.92790000  0.94400000  1.0 0.1094932801
H  H149  1  0.34200000  0.57210000  0.44400000  1.0 0.1094932801
H  H150  1  0.65800000  0.42790000  0.94400000  1.0 0.1094932801
H  H151  1  0.34200000  0.92790000  0.55600000  1.0 0.1094932801
H  H152  1  0.65800000  0.07210000  0.05600000  1.0 0.1094932801
H  H153  1  0.49680000  0.41130000  0.57590000  1.0 0.1094932801
H  H154  1  0.50320000  0.58870000  0.07590000  1.0 0.1094932801
H  H155  1  0.49680000  0.08870000  0.42410000  1.0 0.1094932801
H  H156  1  0.50320000  0.91130000  0.92410000  1.0 0.1094932801
H  H157  1  0.50320000  0.58870000  0.42410000  1.0 0.1094932801
H  H158  1  0.49680000  0.41130000  0.92410000  1.0 0.1094932801
H  H159  1  0.50320000  0.91130000  0.57590000  1.0 0.1094932801
H  H160  1  0.49680000  0.08870000  0.07590000  1.0 0.1094932801
H  H161  1  0.63080000  0.08900000  0.56470000  1.0 0.1094932801
H  H162  1  0.36920000  0.91100000  0.06470000  1.0 0.1094932801
H  H163  1  0.63080000  0.41100000  0.43530000  1.0 0.1094932801
H  H164  1  0.36920000  0.58900000  0.93530000  1.0 0.1094932801
H  H165  1  0.36920000  0.91100000  0.43530000  1.0 0.1094932801
H  H166  1  0.63080000  0.08900000  0.93530000  1.0 0.1094932801
H  H167  1  0.36920000  0.58900000  0.56470000  1.0 0.1094932801
H  H168  1  0.63080000  0.41100000  0.06470000  1.0 0.1094932801
H  H169  1  0.75080000  0.18840000  0.57780000  1.0 0.1094932801
H  H170  1  0.24920000  0.81160000  0.07780000  1.0 0.1094932801
H  H171  1  0.75080000  0.31160000  0.42220000  1.0 0.1094932801
H  H172  1  0.24920000  0.68840000  0.92220000  1.0 0.1094932801
H  H173  1  0.24920000  0.81160000  0.42220000  1.0 0.1094932801
H  H174  1  0.75080000  0.18840000  0.92220000  1.0 0.1094932801
H  H175  1  0.24920000  0.68840000  0.57780000  1.0 0.1094932801
H  H176  1  0.75080000  0.31160000  0.07780000  1.0 0.1094932801
H  H177  1  0.74950000  0.19950000  0.41800000  1.0 0.1184432337
H  H178  1  0.25050000  0.80050000  0.91800000  1.0 0.1184432337
H  H179  1  0.74950000  0.30050000  0.58200000  1.0 0.1184432337
H  H180  1  0.25050000  0.69950000  0.08200000  1.0 0.1184432337
H  H181  1  0.25050000  0.80050000  0.58200000  1.0 0.1184432337
H  H182  1  0.74950000  0.19950000  0.08200000  1.0 0.1184432337
H  H183  1  0.25050000  0.69950000  0.41800000  1.0 0.1184432337
H  H184  1  0.74950000  0.30050000  0.91800000  1.0 0.1184432337
H  H185  1  0.87000000  0.10290000  0.41900000  1.0 0.1036369642
H  H186  1  0.13000000  0.89710000  0.91900000  1.0 0.1094932801
H  H187  1  0.87000000  0.39710000  0.58100000  1.0 0.1036369642
H  H188  1  0.13000000  0.60290000  0.08100000  1.0 0.1094932801
H  H189  1  0.13000000  0.89710000  0.58100000  1.0 0.1094932801
H  H190  1  0.87000000  0.10290000  0.08100000  1.0 0.1036369642
H  H191  1  0.13000000  0.60290000  0.41900000  1.0 0.1094932801
H  H192  1  0.87000000  0.39710000  0.91900000  1.0 0.1036369642
H  H193  1  0.67530000  0.39310000  0.62320000  1.0 0.1184432337
H  H194  1  0.32470000  0.60690000  0.12320000  1.0 0.1184432337
H  H195  1  0.67530000  0.10690000  0.37680000  1.0 0.1184432337
H  H196  1  0.32470000  0.89310000  0.87680000  1.0 0.1184432337
H  H197  1  0.32470000  0.60690000  0.37680000  1.0 0.1184432337
H  H198  1  0.67530000  0.39310000  0.87680000  1.0 0.1184432337
H  H199  1  0.32470000  0.89310000  0.62320000  1.0 0.1184432337
H  H200  1  0.67530000  0.10690000  0.12320000  1.0 0.1184432337
H  H201  1  0.51520000  0.37350000  0.64310000  1.0 0.1273565211
H  H202  1  0.48480000  0.62650000  0.14310000  1.0 0.1273565211
H  H203  1  0.51520000  0.12650000  0.35690000  1.0 0.1273565211
H  H204  1  0.48480000  0.87350000  0.85690000  1.0 0.1273565211
H  H205  1  0.48480000  0.62650000  0.35690000  1.0 0.1273565211
H  H206  1  0.51520000  0.37350000  0.85690000  1.0 0.1273565211
H  H207  1  0.48480000  0.87350000  0.64310000  1.0 0.1273565211
H  H208  1  0.51520000  0.12650000  0.14310000  1.0 0.1273565211
H  H209  1  0.58190000  0.12730000  0.62060000  1.0 0.1184432337
H  H210  1  0.41810000  0.87270000  0.12060000  1.0 0.1184432337
H  H211  1  0.58190000  0.37270000  0.37940000  1.0 0.1184432337
H  H212  1  0.41810000  0.62730000  0.87940000  1.0 0.1184432337
H  H213  1  0.41810000  0.87270000  0.37940000  1.0 0.1184432337
H  H214  1  0.58190000  0.12730000  0.87940000  1.0 0.1184432337
H  H215  1  0.41810000  0.62730000  0.62060000  1.0 0.1184432337
H  H216  1  0.58190000  0.37270000  0.12060000  1.0 0.1184432337
H  H217  1  0.70420000  0.22100000  0.63680000  1.0 0.1184432337
H  H218  1  0.29580000  0.77900000  0.13680000  1.0 0.1184432337
H  H219  1  0.70420000  0.27900000  0.36320000  1.0 0.1184432337
H  H220  1  0.29580000  0.72100000  0.86320000  1.0 0.1184432337
H  H221  1  0.29580000  0.77900000  0.36320000  1.0 0.1184432337
H  H222  1  0.70420000  0.22100000  0.86320000  1.0 0.1184432337
H  H223  1  0.29580000  0.72100000  0.63680000  1.0 0.1184432337
H  H224  1  0.70420000  0.27900000  0.13680000  1.0 0.1184432337
H  H225  1  0.79760000  0.24470000  0.36360000  1.0 0.1184432337
H  H226  1  0.20240000  0.75530000  0.86360000  1.0 0.1184432337
H  H227  1  0.79760000  0.25530000  0.63640000  1.0 0.1184432337
H  H228  1  0.20240000  0.74470000  0.13640000  1.0 0.1184432337
H  H229  1  0.20240000  0.75530000  0.63640000  1.0 0.1184432337
H  H230  1  0.79760000  0.24470000  0.13640000  1.0 0.1184432337
H  H231  1  0.20240000  0.74470000  0.36360000  1.0 0.1184432337
H  H232  1  0.79760000  0.25530000  0.86360000  1.0 0.1184432337
H  H233  1  0.91340000  0.14430000  0.36380000  1.0 0.1184432337
H  H234  1  0.08660000  0.85570000  0.86380000  1.0 0.1184432337
H  H235  1  0.91340000  0.35570000  0.63620000  1.0 0.1184432337
H  H236  1  0.08660000  0.64430000  0.13620000  1.0 0.1184432337
H  H237  1  0.08660000  0.85570000  0.63620000  1.0 0.1184432337
H  H238  1  0.91340000  0.14430000  0.13620000  1.0 0.1184432337
H  H239  1  0.08660000  0.64430000  0.36380000  1.0 0.1184432337
H  H240  1  0.91340000  0.35570000  0.86380000  1.0 0.1184432337
H  H241  1  0.52130000  0.25140000  0.77120000  1.0 0.2886039508
H  H242  1  0.47870000  0.74860000  0.27120000  1.0 0.2886039508
H  H243  1  0.52130000  0.24860000  0.22880000  1.0 0.2886039508
H  H244  1  0.47870000  0.75140000  0.72880000  1.0 0.2886039508
H  H245  1  0.47870000  0.74860000  0.22880000  1.0 0.2886039508
H  H246  1  0.52130000  0.25140000  0.72880000  1.0 0.2886039508
H  H247  1  0.47870000  0.75140000  0.77120000  1.0 0.2886039508
H  H248  1  0.52130000  0.24860000  0.27120000  1.0 0.2886039508
H  H249  1  0.72330000  0.24810000  0.72720000  1.0 0.2477541757
H  H250  1  0.27670000  0.75190000  0.22720000  1.0 0.2477541757
H  H251  1  0.72330000  0.25190000  0.27280000  1.0 0.2477541757
H  H252  1  0.27670000  0.74810000  0.77280000  1.0 0.2477541757
H  H253  1  0.27670000  0.75190000  0.27280000  1.0 0.2477541757
H  H254  1  0.72330000  0.24810000  0.77280000  1.0 0.2477541757
H  H255  1  0.27670000  0.74810000  0.72720000  1.0 0.2477541757
H  H256  1  0.72330000  0.25190000  0.22720000  1.0 0.2477541757
H  H257  1  0.29140000  0.45440000  0.27280000  1.0 0.3668854801
H  H258  1  0.70860000  0.54560000  0.77280000  1.0 0.3668854801
H  H259  1  0.29140000  0.04560000  0.72720000  1.0 0.3668854801
H  H260  1  0.70860000  0.95440000  0.22720000  1.0 0.3668854801
H  H261  1  0.70860000  0.54560000  0.72720000  1.0 0.3668854801
H  H262  1  0.29140000  0.45440000  0.22720000  1.0 0.3668854801
H  H263  1  0.70860000  0.95440000  0.27280000  1.0 0.3668854801
H  H264  1  0.29140000  0.04560000  0.77280000  1.0 0.3668854801
H  H265  1  0.37560000  0.31330000  0.27580000  1.0 0.2103305539
H  H266  1  0.62440000  0.68670000  0.77580000  1.0 0.2103305539
H  H267  1  0.37560000  0.18670000  0.72420000  1.0 0.2103305539
H  H268  1  0.62440000  0.81330000  0.22420000  1.0 0.2103305539
H  H269  1  0.62440000  0.68670000  0.72420000  1.0 0.2103305539
H  H270  1  0.37560000  0.31330000  0.22420000  1.0 0.2103305539
H  H271  1  0.62440000  0.81330000  0.27580000  1.0 0.2103305539
H  H272  1  0.37560000  0.18670000  0.77580000  1.0 0.2103305539
H  H273  1  0.15280000  0.44980000  0.31020000  1.0 0.1184432337
H  H274  1  0.84720000  0.55020000  0.81020000  1.0 0.1184432337
H  H275  1  0.15280000  0.05020000  0.68980000  1.0 0.1184432337
H  H276  1  0.84720000  0.94980000  0.18980000  1.0 0.1184432337
H  H277  1  0.84720000  0.55020000  0.68980000  1.0 0.1184432337
H  H278  1  0.15280000  0.44980000  0.18980000  1.0 0.1184432337
H  H279  1  0.84720000  0.94980000  0.31020000  1.0 0.1184432337
H  H280  1  0.15280000  0.05020000  0.81020000  1.0 0.1184432337
H  H281  1  0.14890000  0.36030000  0.41390000  1.0 0.1184432337
H  H282  1  0.85110000  0.63970000  0.91390000  1.0 0.1184432337
H  H283  1  0.14890000  0.13970000  0.58610000  1.0 0.1184432337
H  H284  1  0.85110000  0.86030000  0.08610000  1.0 0.1184432337
H  H285  1  0.85110000  0.63970000  0.58610000  1.0 0.1184432337
H  H286  1  0.14890000  0.36030000  0.08610000  1.0 0.1184432337
H  H287  1  0.85110000  0.86030000  0.41390000  1.0 0.1184432337
H  H288  1  0.14890000  0.13970000  0.91390000  1.0 0.1184432337
H  H289  1  0.10770000  0.50980000  0.35150000  1.0 0.1184432337
H  H290  1  0.89230000  0.49020000  0.85150000  1.0 0.1184432337
H  H291  1  0.10770000  0.99020000  0.64850000  1.0 0.1184432337
H  H292  1  0.89230000  0.00980000  0.14850000  1.0 0.1184432337
H  H293  1  0.89230000  0.49020000  0.64850000  1.0 0.1184432337
H  H294  1  0.10770000  0.50980000  0.14850000  1.0 0.1184432337
H  H295  1  0.89230000  0.00980000  0.35150000  1.0 0.1184432337
H  H296  1  0.10770000  0.99020000  0.85150000  1.0 0.1184432337
H  H297  1  0.10910000  0.41960000  0.45570000  1.0 0.1094932801
H  H298  1  0.89090000  0.58040000  0.95570000  1.0 0.1094932801
H  H299  1  0.10910000  0.08040000  0.54430000  1.0 0.1094932801
H  H300  1  0.89090000  0.91960000  0.04430000  1.0 0.1094932801
H  H301  1  0.89090000  0.58040000  0.54430000  1.0 0.1094932801
H  H302  1  0.10910000  0.41960000  0.04430000  1.0 0.1094932801
H  H303  1  0.89090000  0.91960000  0.45570000  1.0 0.1094932801
H  H304  1  0.10910000  0.08040000  0.95570000  1.0 0.1094932801
H  H305  1  0.12130000  0.50030000  0.49110000  1.0 0.1184432337
H  H306  1  0.87870000  0.49970000  0.99110000  1.0 0.1184432337
H  H307  1  0.12130000  0.99970000  0.50890000  1.0 0.1184432337
H  H308  1  0.87870000  0.00030000  0.00890000  1.0 0.1184432337
H  H309  1  0.87870000  0.49970000  0.50890000  1.0 0.1184432337
H  H310  1  0.12130000  0.50030000  0.00890000  1.0 0.1184432337
H  H311  1  0.87870000  0.00030000  0.49110000  1.0 0.1184432337
H  H312  1  0.12130000  0.99970000  0.99110000  1.0 0.1184432337
H  H313  1  0.02460000  0.53330000  0.38800000  1.0 0.1184432337
H  H314  1  0.97540000  0.46670000  0.88800000  1.0 0.1184432337
H  H315  1  0.02460000  0.96670000  0.61200000  1.0 0.1184432337
H  H316  1  0.97540000  0.03330000  0.11200000  1.0 0.1184432337
H  H317  1  0.97540000  0.46670000  0.61200000  1.0 0.1184432337
H  H318  1  0.02460000  0.53330000  0.11200000  1.0 0.1184432337
H  H319  1  0.97540000  0.03330000  0.38800000  1.0 0.1184432337
H  H320  1  0.02460000  0.96670000  0.88800000  1.0 0.1184432337
H  H321  1  0.00850000  0.60560000  0.50200000  1.0 0.1094932801
H  H322  1  0.99150000  0.39440000  0.00200000  1.0 0.1094932801
H  H323  1  0.00850000  0.89440000  0.49800000  1.0 0.1094932801
H  H324  1  0.99150000  0.10560000  0.99800000  1.0 0.1094932801
H  H325  1  0.99150000  0.39440000  0.49800000  1.0 0.1094932801
H  H326  1  0.00850000  0.60560000  0.99800000  1.0 0.1094932801
H  H327  1  0.99150000  0.10560000  0.50200000  1.0 0.1094932801
H  H328  1  0.00850000  0.89440000  0.00200000  1.0 0.1094932801
H  H329  1  0.00370000  0.57300000  0.57220000  1.0 0.1094932801
H  H330  1  0.99630000  0.42700000  0.07220000  1.0 0.1094932801
H  H331  1  0.00370000  0.92700000  0.42780000  1.0 0.1094932801
H  H332  1  0.99630000  0.07300000  0.92780000  1.0 0.1094932801
H  H333  1  0.99630000  0.42700000  0.42780000  1.0 0.1094932801
H  H334  1  0.00370000  0.57300000  0.92780000  1.0 0.1094932801
H  H335  1  0.99630000  0.07300000  0.57220000  1.0 0.1094932801
H  H336  1  0.00370000  0.92700000  0.07220000  1.0 0.1094932801
H  H337  1  0.16040000  0.56590000  0.54270000  1.0 0.1184432337
H  H338  1  0.83960000  0.43410000  0.04270000  1.0 0.1184432337
H  H339  1  0.16040000  0.93410000  0.45730000  1.0 0.1184432337
H  H340  1  0.83960000  0.06590000  0.95730000  1.0 0.1184432337
H  H341  1  0.83960000  0.43410000  0.45730000  1.0 0.1184432337
H  H342  1  0.16040000  0.56590000  0.95730000  1.0 0.1184432337
H  H343  1  0.83960000  0.06590000  0.54270000  1.0 0.1184432337
H  H344  1  0.16040000  0.93410000  0.04270000  1.0 0.1184432337
H  H345  1  0.98840000  0.61180000  0.36250000  1.0 0.1184432337
H  H346  1  0.01160000  0.38820000  0.86250000  1.0 0.1184432337
H  H347  1  0.98840000  0.88820000  0.63750000  1.0 0.1184432337
H  H348  1  0.01160000  0.11180000  0.13750000  1.0 0.1184432337
H  H349  1  0.01160000  0.38820000  0.63750000  1.0 0.1184432337
H  H350  1  0.98840000  0.61180000  0.13750000  1.0 0.1184432337
H  H351  1  0.01160000  0.11180000  0.36250000  1.0 0.1184432337
H  H352  1  0.98840000  0.88820000  0.86250000  1.0 0.1184432337
H  H353  1  0.91960000  0.60570000  0.47970000  1.0 0.1094932801
H  H354  1  0.08040000  0.39430000  0.97970000  1.0 0.1094932801
H  H355  1  0.91960000  0.89430000  0.52030000  1.0 0.1094932801
H  H356  1  0.08040000  0.10570000  0.02030000  1.0 0.1094932801
H  H357  1  0.08040000  0.39430000  0.52030000  1.0 0.1094932801
H  H358  1  0.91960000  0.60570000  0.02030000  1.0 0.1094932801
H  H359  1  0.08040000  0.10570000  0.47970000  1.0 0.1094932801
H  H360  1  0.91960000  0.89430000  0.97970000  1.0 0.1094932801
H  H361  1  0.02460000  0.59980000  0.64290000  1.0 0.1273565211
H  H362  1  0.97540000  0.40020000  0.14290000  1.0 0.1273565211
H  H363  1  0.02460000  0.90020000  0.35710000  1.0 0.1273565211
H  H364  1  0.97540000  0.09980000  0.85710000  1.0 0.1273565211
H  H365  1  0.97540000  0.40020000  0.35710000  1.0 0.1273565211
H  H366  1  0.02460000  0.59980000  0.85710000  1.0 0.1273565211
H  H367  1  0.97540000  0.09980000  0.64290000  1.0 0.1273565211
H  H368  1  0.02460000  0.90020000  0.14290000  1.0 0.1273565211
H  H369  1  0.18130000  0.60380000  0.61040000  1.0 0.1273565211
H  H370  1  0.81870000  0.39620000  0.11040000  1.0 0.1273565211
H  H371  1  0.18130000  0.89620000  0.38960000  1.0 0.1273565211
H  H372  1  0.81870000  0.10380000  0.88960000  1.0 0.1273565211
H  H373  1  0.81870000  0.39620000  0.38960000  1.0 0.1273565211
H  H374  1  0.18130000  0.60380000  0.88960000  1.0 0.1273565211
H  H375  1  0.81870000  0.10380000  0.61040000  1.0 0.1273565211
H  H376  1  0.18130000  0.89620000  0.11040000  1.0 0.1273565211
H  H377  1  0.91580000  0.66050000  0.33730000  1.0 0.1467866567
H  H378  1  0.08420000  0.33950000  0.83730000  1.0 0.1467866567
H  H379  1  0.91580000  0.83950000  0.66270000  1.0 0.1467866567
H  H380  1  0.08420000  0.16050000  0.16270000  1.0 0.1467866567
H  H381  1  0.08420000  0.33950000  0.66270000  1.0 0.1467866567
H  H382  1  0.91580000  0.66050000  0.16270000  1.0 0.1467866567
H  H383  1  0.08420000  0.16050000  0.33730000  1.0 0.1467866567
H  H384  1  0.91580000  0.83950000  0.83730000  1.0 0.1467866567
H  H385  1  0.85690000  0.66400000  0.45960000  1.0 0.1094932801
H  H386  1  0.14310000  0.33600000  0.95960000  1.0 0.1094932801
H  H387  1  0.85690000  0.83600000  0.54040000  1.0 0.1094932801
H  H388  1  0.14310000  0.16400000  0.04040000  1.0 0.1094932801
H  H389  1  0.14310000  0.33600000  0.54040000  1.0 0.1094932801
H  H390  1  0.85690000  0.66400000  0.04040000  1.0 0.1094932801
H  H391  1  0.14310000  0.16400000  0.45960000  1.0 0.1094932801
H  H392  1  0.85690000  0.83600000  0.95960000  1.0 0.1094932801
H  H393  1  0.77340000  0.27800000  0.27280000  1.0 0.2477541757
H  H394  1  0.22660000  0.72200000  0.77280000  1.0 0.2477541757
H  H395  1  0.77340000  0.22200000  0.72720000  1.0 0.2477541757
H  H396  1  0.22660000  0.77800000  0.22720000  1.0 0.2477541757
H  H397  1  0.22660000  0.72200000  0.72720000  1.0 0.2477541757
H  H398  1  0.77340000  0.27800000  0.22720000  1.0 0.2477541757
H  H399  1  0.22660000  0.77800000  0.27280000  1.0 0.2477541757
H  H400  1  0.77340000  0.22200000  0.77280000  1.0 0.2477541757
H  H401  1  0.98050000  0.28960000  0.26840000  1.0 0.2044967679
H  H402  1  0.01950000  0.71040000  0.76840000  1.0 0.2044967679
H  H403  1  0.98050000  0.21040000  0.73160000  1.0 0.2044967679
H  H404  1  0.01950000  0.78960000  0.23160000  1.0 0.2044967679
H  H405  1  0.01950000  0.71040000  0.73160000  1.0 0.2044967679
H  H406  1  0.98050000  0.28960000  0.23160000  1.0 0.2044967679
H  H407  1  0.01950000  0.78960000  0.26840000  1.0 0.2044967679
H  H408  1  0.98050000  0.21040000  0.76840000  1.0 0.2044967679
H  H409  1  0.75580000  0.68230000  0.22020000  1.0 0.0635465032
H  H410  1  0.24420000  0.31770000  0.72020000  1.0 0.0635465032
H  H411  1  0.75580000  0.81770000  0.77980000  1.0 0.0635465032
H  H412  1  0.24420000  0.18230000  0.27980000  1.0 0.0635465032
H  H413  1  0.24420000  0.31770000  0.77980000  1.0 0.0635465032
H  H414  1  0.75580000  0.68230000  0.27980000  1.0 0.0635465032
H  H415  1  0.24420000  0.18230000  0.22020000  1.0 0.0635465032
H  H416  1  0.75580000  0.81770000  0.72020000  1.0 0.0635465032
H  H417  1  0.72250000  0.67870000  0.26420000  1.0 0.0909913811
H  H418  1  0.27750000  0.32130000  0.76420000  1.0 0.0909913811
H  H419  1  0.72250000  0.82130000  0.73580000  1.0 0.0909913811
H  H420  1  0.27750000  0.17870000  0.23580000  1.0 0.0909913811
H  H421  1  0.27750000  0.32130000  0.73580000  1.0 0.0909913811
H  H422  1  0.72250000  0.67870000  0.23580000  1.0 0.0909913811
H  H423  1  0.27750000  0.17870000  0.26420000  1.0 0.0909913811
H  H424  1  0.72250000  0.82130000  0.76420000  1.0 0.0909913811
H  H425  1  0.78620000  0.68570000  0.26550000  1.0 0.0909913811
H  H426  1  0.21380000  0.31430000  0.76550000  1.0 0.0909913811
H  H427  1  0.78620000  0.81430000  0.73450000  1.0 0.0909913811
H  H428  1  0.21380000  0.18570000  0.23450000  1.0 0.0909913811
H  H429  1  0.21380000  0.31430000  0.73450000  1.0 0.0909913811
H  H430  1  0.78620000  0.68570000  0.23450000  1.0 0.0909913811
H  H431  1  0.21380000  0.18570000  0.26550000  1.0 0.0909913811
H  H432  1  0.78620000  0.81430000  0.76550000  1.0 0.0909913811
H  H433  1  0.73620000  0.29070000  0.75000000  1.0 0.2727294345
H  H434  1  0.26380000  0.70930000  0.25000000  1.0 0.2727294345
H  H435  1  0.73620000  0.20930000  0.25000000  1.0 0.2727294345
H  H436  1  0.26380000  0.79070000  0.75000000  1.0 0.2727294345
H  H437  1  0.54790000  0.21140000  0.75000000  1.0 0.3668854801
H  H438  1  0.45210000  0.78860000  0.25000000  1.0 0.3648237554
H  H439  1  0.54790000  0.28860000  0.25000000  1.0 0.3648237554
H  H440  1  0.45210000  0.71140000  0.75000000  1.0 0.3668854801
H  H441  1  0.97410000  0.27700000  0.22450000  1.0 0.2886039508
H  H442  1  0.02590000  0.72300000  0.72450000  1.0 0.2886039508
H  H443  1  0.97410000  0.22300000  0.77550000  1.0 0.2886039508
H  H444  1  0.02590000  0.77700000  0.27550000  1.0 0.2886039508
H  H445  1  0.02590000  0.72300000  0.77550000  1.0 0.2886039508
H  H446  1  0.97410000  0.27700000  0.27550000  1.0 0.2886039508
H  H447  1  0.02590000  0.77700000  0.22450000  1.0 0.2886039508
H  H448  1  0.97410000  0.22300000  0.72450000  1.0 0.2886039508
H  H449  1  0.76310000  0.32120000  0.25000000  1.0 0.2727294345
H  H450  1  0.23690000  0.67880000  0.75000000  1.0 0.2727294345
H  H451  1  0.76310000  0.17880000  0.75000000  1.0 0.2727294345
H  H452  1  0.23690000  0.82120000  0.25000000  1.0 0.2727294345
H  H453  1  0.38370000  0.32800000  0.23260000  1.0 0.1094932801
H  H454  1  0.61630000  0.67200000  0.73260000  1.0 0.1094932801
H  H455  1  0.38370000  0.17200000  0.76740000  1.0 0.1094932801
H  H456  1  0.61630000  0.82800000  0.26740000  1.0 0.1094932801
H  H457  1  0.61630000  0.67200000  0.76740000  1.0 0.1094932801
H  H458  1  0.38370000  0.32800000  0.26740000  1.0 0.1094932801
H  H459  1  0.61630000  0.82800000  0.23260000  1.0 0.1094932801
H  H460  1  0.38370000  0.17200000  0.73260000  1.0 0.1094932801
C  C1  1  0.68170000  0.67970000  0.38980000  1.0 0.4577530665
C  C2  1  0.31830000  0.32030000  0.88980000  1.0 0.4577530665
C  C3  1  0.68170000  0.82030000  0.61020000  1.0 0.4577530665
C  C4  1  0.31830000  0.17970000  0.11020000  1.0 0.4577530665
C  C5  1  0.31830000  0.32030000  0.61020000  1.0 0.4577530665
C  C6  1  0.68170000  0.67970000  0.11020000  1.0 0.4577530665
C  C7  1  0.31830000  0.17970000  0.38980000  1.0 0.4577530665
C  C8  1  0.68170000  0.82030000  0.88980000  1.0 0.4577530665
C  C9  1  0.74630000  0.74430000  0.25000000  1.0 0.5901757
C  C10  1  0.25370000  0.25570000  0.75000000  1.0 0.5901757
C  C11  1  0.74630000  0.75570000  0.75000000  1.0 0.5901757
C  C12  1  0.25370000  0.24430000  0.25000000  1.0 0.5901757
C  C13  1  0.65650000  0.84220000  0.34470000  1.0 0.5901757
C  C14  1  0.34350000  0.15780000  0.84470000  1.0 0.5901757
C  C15  1  0.65650000  0.65780000  0.65530000  1.0 0.5901757
C  C16  1  0.34350000  0.34220000  0.15530000  1.0 0.5901757
C  C17  1  0.34350000  0.15780000  0.65530000  1.0 0.5901757
C  C18  1  0.65650000  0.84220000  0.15530000  1.0 0.5901757
C  C19  1  0.34350000  0.34220000  0.34470000  1.0 0.5901757
C  C20  1  0.65650000  0.65780000  0.84470000  1.0 0.5901757
C  C21  1  0.74370000  0.82880000  0.45760000  1.0 0.4773245868
C  C22  1  0.25630000  0.17120000  0.95760000  1.0 0.4773245868
C  C23  1  0.74370000  0.67120000  0.54240000  1.0 0.4773245868
C  C24  1  0.25630000  0.32880000  0.04240000  1.0 0.4773245868
C  C25  1  0.25630000  0.17120000  0.54240000  1.0 0.4773245868
C  C26  1  0.74370000  0.82880000  0.04240000  1.0 0.4773245868
C  C27  1  0.25630000  0.32880000  0.45760000  1.0 0.4773245868
C  C28  1  0.74370000  0.67120000  0.95760000  1.0 0.4773245868
C  C29  1  0.65490000  0.63470000  0.40660000  1.0 -0.0515492814
C  C30  1  0.34510000  0.36530000  0.90660000  1.0 -0.0515492814
C  C31  1  0.65490000  0.86530000  0.59340000  1.0 -0.0515492814
C  C32  1  0.34510000  0.13470000  0.09340000  1.0 -0.0515492814
C  C33  1  0.34510000  0.36530000  0.59340000  1.0 -0.0515492814
C  C34  1  0.65490000  0.63470000  0.09340000  1.0 -0.0515492814
C  C35  1  0.34510000  0.13470000  0.40660000  1.0 -0.0515492814
C  C36  1  0.65490000  0.86530000  0.90660000  1.0 -0.0515492814
C  C37  1  0.75320000  0.69390000  0.25000000  1.0 -0.4130288097
C  C38  1  0.24680000  0.30610000  0.75000000  1.0 -0.4130288097
C  C39  1  0.75320000  0.80610000  0.75000000  1.0 -0.4130288097
C  C40  1  0.24680000  0.19390000  0.25000000  1.0 -0.4130288097
C  C41  1  0.61310000  0.86920000  0.37040000  1.0 -0.0304118151
C  C42  1  0.38690000  0.13080000  0.87040000  1.0 -0.0304118151
C  C43  1  0.61310000  0.63080000  0.62960000  1.0 -0.0304118151
C  C44  1  0.38690000  0.36920000  0.12960000  1.0 -0.0304118151
C  C45  1  0.38690000  0.13080000  0.62960000  1.0 -0.0304118151
C  C46  1  0.61310000  0.86920000  0.12960000  1.0 -0.0304118151
C  C47  1  0.38690000  0.36920000  0.37040000  1.0 -0.0304118151
C  C48  1  0.61310000  0.63080000  0.87040000  1.0 -0.0304118151
C  C49  1  0.74420000  0.88270000  0.46540000  1.0 -0.0898483409
C  C50  1  0.25580000  0.11730000  0.96540000  1.0 -0.0898483409
C  C51  1  0.74420000  0.61730000  0.53460000  1.0 -0.0898483409
C  C52  1  0.25580000  0.38270000  0.03460000  1.0 -0.0898483409
C  C53  1  0.25580000  0.11730000  0.53460000  1.0 -0.0898483409
C  C54  1  0.74420000  0.88270000  0.03460000  1.0 -0.0898483409
C  C55  1  0.25580000  0.38270000  0.46540000  1.0 -0.0898483409
C  C56  1  0.74420000  0.61730000  0.96540000  1.0 -0.0898483409
C  C57  1  0.64010000  0.63080000  0.45060000  1.0 -0.1272808122
C  C58  1  0.35990000  0.36920000  0.95060000  1.0 -0.1272808122
C  C59  1  0.64010000  0.86920000  0.54940000  1.0 -0.1272808122
C  C60  1  0.35990000  0.13080000  0.04940000  1.0 -0.1272808122
C  C61  1  0.35990000  0.36920000  0.54940000  1.0 -0.1272808122
C  C62  1  0.64010000  0.63080000  0.04940000  1.0 -0.1272808122
C  C63  1  0.35990000  0.13080000  0.45060000  1.0 -0.1272808122
C  C64  1  0.64010000  0.86920000  0.95060000  1.0 -0.1272808122
C  C65  1  0.64570000  0.59460000  0.37880000  1.0 -0.0760307605
C  C66  1  0.35430000  0.40540000  0.87880000  1.0 -0.0760307605
C  C67  1  0.64570000  0.90540000  0.62120000  1.0 -0.0760307605
C  C68  1  0.35430000  0.09460000  0.12120000  1.0 -0.0760307605
C  C69  1  0.35430000  0.40540000  0.62120000  1.0 -0.0760307605
C  C70  1  0.64570000  0.59460000  0.12120000  1.0 -0.0760307605
C  C71  1  0.35430000  0.09460000  0.37880000  1.0 -0.0760307605
C  C72  1  0.64570000  0.90540000  0.87880000  1.0 -0.0760307605
C  C73  1  0.60440000  0.91840000  0.36560000  1.0 -0.100684396
C  C74  1  0.39560000  0.08160000  0.86560000  1.0 -0.100684396
C  C75  1  0.60440000  0.58160000  0.63440000  1.0 -0.100684396
C  C76  1  0.39560000  0.41840000  0.13440000  1.0 -0.100684396
C  C77  1  0.39560000  0.08160000  0.63440000  1.0 -0.100684396
C  C78  1  0.60440000  0.91840000  0.13440000  1.0 -0.100684396
C  C79  1  0.39560000  0.41840000  0.36560000  1.0 -0.100684396
C  C80  1  0.60440000  0.58160000  0.86560000  1.0 -0.100684396
C  C81  1  0.58450000  0.84380000  0.40110000  1.0 -0.0898483409
C  C82  1  0.41550000  0.15620000  0.90110000  1.0 -0.0898483409
C  C83  1  0.58450000  0.65620000  0.59890000  1.0 -0.0898483409
C  C84  1  0.41550000  0.34380000  0.09890000  1.0 -0.0898483409
C  C85  1  0.41550000  0.15620000  0.59890000  1.0 -0.0898483409
C  C86  1  0.58450000  0.84380000  0.09890000  1.0 -0.0898483409
C  C87  1  0.41550000  0.34380000  0.40110000  1.0 -0.0898483409
C  C88  1  0.58450000  0.65620000  0.90110000  1.0 -0.0898483409
C  C89  1  0.73210000  0.91510000  0.43200000  1.0 -0.0898483409
C  C90  1  0.26790000  0.08490000  0.93200000  1.0 -0.0898483409
C  C91  1  0.73210000  0.58490000  0.56800000  1.0 -0.0898483409
C  C92  1  0.26790000  0.41510000  0.06800000  1.0 -0.0898483409
C  C93  1  0.26790000  0.08490000  0.56800000  1.0 -0.0898483409
C  C94  1  0.73210000  0.91510000  0.06800000  1.0 -0.0898483409
C  C95  1  0.26790000  0.41510000  0.43200000  1.0 -0.0898483409
C  C96  1  0.73210000  0.58490000  0.93200000  1.0 -0.0898483409
C  C97  1  0.75670000  0.90090000  0.50690000  1.0 -0.1511426987
C  C98  1  0.24330000  0.09910000  0.00690000  1.0 -0.1511426987
C  C99  1  0.75670000  0.59910000  0.49310000  1.0 -0.1511426987
C  C100  1  0.24330000  0.40090000  0.99310000  1.0 -0.1511426987
C  C101  1  0.24330000  0.09910000  0.49310000  1.0 -0.1511426987
C  C102  1  0.75670000  0.90090000  0.99310000  1.0 -0.1511426987
C  C103  1  0.24330000  0.40090000  0.50690000  1.0 -0.1511426987
C  C104  1  0.75670000  0.59910000  0.00690000  1.0 -0.1511426987
C  C105  1  0.61660000  0.58870000  0.46680000  1.0 -0.1511426987
C  C106  1  0.38340000  0.41130000  0.96680000  1.0 -0.1511426987
C  C107  1  0.61660000  0.91130000  0.53320000  1.0 -0.1511426987
C  C108  1  0.38340000  0.08870000  0.03320000  1.0 -0.1511426987
C  C109  1  0.38340000  0.41130000  0.53320000  1.0 -0.1511426987
C  C110  1  0.61660000  0.58870000  0.03320000  1.0 -0.1511426987
C  C111  1  0.38340000  0.08870000  0.46680000  1.0 -0.1511426987
C  C112  1  0.61660000  0.91130000  0.96680000  1.0 -0.1511426987
C  C113  1  0.62230000  0.55230000  0.39530000  1.0 -0.1589613964
C  C114  1  0.37770000  0.44770000  0.89530000  1.0 -0.1589613964
C  C115  1  0.62230000  0.94770000  0.60470000  1.0 -0.1589613964
C  C116  1  0.37770000  0.05230000  0.10470000  1.0 -0.1589613964
C  C117  1  0.37770000  0.44770000  0.60470000  1.0 -0.1589613964
C  C118  1  0.62230000  0.55230000  0.10470000  1.0 -0.1589613964
C  C119  1  0.37770000  0.05230000  0.39530000  1.0 -0.1589613964
C  C120  1  0.62230000  0.94770000  0.89530000  1.0 -0.1589613964
C  C121  1  0.56460000  0.94200000  0.39020000  1.0 -0.1589613964
C  C122  1  0.43540000  0.05800000  0.89020000  1.0 -0.1589613964
C  C123  1  0.56460000  0.55800000  0.60980000  1.0 -0.1589613964
C  C124  1  0.43540000  0.44200000  0.10980000  1.0 -0.1589613964
C  C125  1  0.43540000  0.05800000  0.60980000  1.0 -0.1589613964
C  C126  1  0.56460000  0.94200000  0.10980000  1.0 -0.1589613964
C  C127  1  0.43540000  0.44200000  0.39020000  1.0 -0.1589613964
C  C128  1  0.56460000  0.55800000  0.89020000  1.0 -0.1589613964
C  C129  1  0.54350000  0.86620000  0.42490000  1.0 -0.141362263
C  C130  1  0.45650000  0.13380000  0.92490000  1.0 -0.141362263
C  C131  1  0.54350000  0.63380000  0.57510000  1.0 -0.141362263
C  C132  1  0.45650000  0.36620000  0.07510000  1.0 -0.141362263
C  C133  1  0.45650000  0.13380000  0.57510000  1.0 -0.141362263
C  C134  1  0.54350000  0.86620000  0.07510000  1.0 -0.141362263
C  C135  1  0.45650000  0.36620000  0.42490000  1.0 -0.141362263
C  C136  1  0.54350000  0.63380000  0.92490000  1.0 -0.141362263
C  C137  1  0.73320000  0.96480000  0.43880000  1.0 -0.1511426987
C  C138  1  0.26680000  0.03520000  0.93880000  1.0 -0.1511426987
C  C139  1  0.73320000  0.53520000  0.56120000  1.0 -0.1511426987
C  C140  1  0.26680000  0.46480000  0.06120000  1.0 -0.1511426987
C  C141  1  0.26680000  0.03520000  0.56120000  1.0 -0.1511426987
C  C142  1  0.73320000  0.96480000  0.06120000  1.0 -0.1511426987
C  C143  1  0.26680000  0.46480000  0.43880000  1.0 -0.1511426987
C  C144  1  0.73320000  0.53520000  0.93880000  1.0 -0.1511426987
C  C145  1  0.75870000  0.95140000  0.51440000  1.0 -0.141362263
C  C146  1  0.24130000  0.04860000  0.01440000  1.0 -0.141362263
C  C147  1  0.75870000  0.54860000  0.48560000  1.0 -0.141362263
C  C148  1  0.24130000  0.45140000  0.98560000  1.0 -0.141362263
C  C149  1  0.24130000  0.04860000  0.48560000  1.0 -0.141362263
C  C150  1  0.75870000  0.95140000  0.98560000  1.0 -0.141362263
C  C151  1  0.24130000  0.45140000  0.51440000  1.0 -0.141362263
C  C152  1  0.75870000  0.54860000  0.01440000  1.0 -0.141362263
C  C153  1  0.60740000  0.54810000  0.43920000  1.0 0.0635465032
C  C154  1  0.39260000  0.45190000  0.93920000  1.0 0.0635465032
C  C155  1  0.60740000  0.95190000  0.56080000  1.0 0.0635465032
C  C156  1  0.39260000  0.04810000  0.06080000  1.0 0.0635465032
C  C157  1  0.39260000  0.45190000  0.56080000  1.0 0.0635465032
C  C158  1  0.60740000  0.54810000  0.06080000  1.0 0.0635465032
C  C159  1  0.39260000  0.04810000  0.43920000  1.0 0.0635465032
C  C160  1  0.60740000  0.95190000  0.93920000  1.0 0.0635465032
C  C161  1  0.53280000  0.91560000  0.41990000  1.0 0.0690340666
C  C162  1  0.46720000  0.08440000  0.91990000  1.0 0.0690340666
C  C163  1  0.53280000  0.58440000  0.58010000  1.0 0.0690340666
C  C164  1  0.46720000  0.41560000  0.08010000  1.0 0.0690340666
C  C165  1  0.46720000  0.08440000  0.58010000  1.0 0.0690340666
C  C166  1  0.53280000  0.91560000  0.08010000  1.0 0.0690340666
C  C167  1  0.46720000  0.41560000  0.41990000  1.0 0.0690340666
C  C168  1  0.53280000  0.58440000  0.91990000  1.0 0.0690340666
C  C169  1  0.74730000  0.98380000  0.48030000  1.0 0.0690340666
C  C170  1  0.25270000  0.01620000  0.98030000  1.0 0.0690340666
C  C171  1  0.74730000  0.51620000  0.51970000  1.0 0.0690340666
C  C172  1  0.25270000  0.48380000  0.01970000  1.0 0.0690340666
C  C173  1  0.25270000  0.01620000  0.51970000  1.0 0.0690340666
C  C174  1  0.74730000  0.98380000  0.01970000  1.0 0.0690340666
C  C175  1  0.25270000  0.48380000  0.48030000  1.0 0.0690340666
C  C176  1  0.74730000  0.51620000  0.98030000  1.0 0.0690340666
C  C177  1  0.57960000  0.50350000  0.45630000  1.0 0.0690340666
C  C178  1  0.42040000  0.49650000  0.95630000  1.0 0.0690340666
C  C179  1  0.57960000  0.99650000  0.54370000  1.0 0.0690340666
C  C180  1  0.42040000  0.00350000  0.04370000  1.0 0.0690340666
C  C181  1  0.42040000  0.49650000  0.54370000  1.0 0.0690340666
C  C182  1  0.57960000  0.50350000  0.04370000  1.0 0.0690340666
C  C183  1  0.42040000  0.00350000  0.45630000  1.0 0.0690340666
C  C184  1  0.57960000  0.99650000  0.95630000  1.0 0.0690340666
C  C185  1  0.48960000  0.93970000  0.44680000  1.0 0.081315422
C  C186  1  0.51040000  0.06030000  0.94680000  1.0 0.081315422
C  C187  1  0.48960000  0.56030000  0.55320000  1.0 0.081315422
C  C188  1  0.51040000  0.43970000  0.05320000  1.0 0.081315422
C  C189  1  0.51040000  0.06030000  0.55320000  1.0 0.081315422
C  C190  1  0.48960000  0.93970000  0.05320000  1.0 0.081315422
C  C191  1  0.51040000  0.43970000  0.44680000  1.0 0.081315422
C  C192  1  0.48960000  0.56030000  0.94680000  1.0 0.081315422
C  C193  1  0.74960000  0.03770000  0.48610000  1.0 0.0635465032
C  C194  1  0.25040000  0.96230000  0.98610000  1.0 0.0635465032
C  C195  1  0.74960000  0.46230000  0.51390000  1.0 0.0635465032
C  C196  1  0.25040000  0.53770000  0.01390000  1.0 0.0635465032
C  C197  1  0.25040000  0.96230000  0.51390000  1.0 0.0635465032
C  C198  1  0.74960000  0.03770000  0.01390000  1.0 0.0635465032
C  C199  1  0.25040000  0.53770000  0.48610000  1.0 0.0635465032
C  C200  1  0.74960000  0.46230000  0.98610000  1.0 0.0635465032
C  C201  1  0.59130000  0.48590000  0.49800000  1.0 -0.2020194207
C  C202  1  0.40870000  0.51410000  0.99800000  1.0 -0.2020194207
C  C203  1  0.59130000  0.01410000  0.50200000  1.0 -0.2020194207
C  C204  1  0.40870000  0.98590000  0.00200000  1.0 -0.2020194207
C  C205  1  0.40870000  0.51410000  0.50200000  1.0 -0.2020194207
C  C206  1  0.59130000  0.48590000  0.00200000  1.0 -0.2020194207
C  C207  1  0.40870000  0.98590000  0.49800000  1.0 -0.2020194207
C  C208  1  0.59130000  0.01410000  0.99800000  1.0 -0.2020194207
C  C209  1  0.53980000  0.47980000  0.43050000  1.0 -0.2020194207
C  C210  1  0.46020000  0.52020000  0.93050000  1.0 -0.2020194207
C  C211  1  0.53980000  0.02020000  0.56950000  1.0 -0.2020194207
C  C212  1  0.46020000  0.97980000  0.06950000  1.0 -0.2082406567
C  C213  1  0.46020000  0.52020000  0.56950000  1.0 -0.2082406567
C  C214  1  0.53980000  0.47980000  0.06950000  1.0 -0.2082406567
C  C215  1  0.46020000  0.97980000  0.43050000  1.0 -0.2082406567
C  C216  1  0.53980000  0.02020000  0.93050000  1.0 -0.2020194207
C  C217  1  0.47700000  0.92300000  0.48910000  1.0 -0.2020194207
C  C218  1  0.52300000  0.07700000  0.98910000  1.0 -0.2020194207
C  C219  1  0.47700000  0.57700000  0.51090000  1.0 -0.2020194207
C  C220  1  0.52300000  0.42300000  0.01090000  1.0 -0.2020194207
C  C221  1  0.52300000  0.07700000  0.51090000  1.0 -0.2020194207
C  C222  1  0.47700000  0.92300000  0.01090000  1.0 -0.2020194207
C  C223  1  0.52300000  0.42300000  0.48910000  1.0 -0.2020194207
C  C224  1  0.47700000  0.57700000  0.98910000  1.0 -0.2020194207
C  C225  1  0.72530000  0.05970000  0.52270000  1.0 -0.2082406567
C  C226  1  0.27470000  0.94030000  0.02270000  1.0 -0.2082406567
C  C227  1  0.72530000  0.44030000  0.47730000  1.0 -0.2082406567
C  C228  1  0.27470000  0.55970000  0.97730000  1.0 -0.2082406567
C  C229  1  0.27470000  0.94030000  0.47730000  1.0 -0.2082406567
C  C230  1  0.72530000  0.05970000  0.97730000  1.0 -0.2082406567
C  C231  1  0.27470000  0.55970000  0.52270000  1.0 -0.2082406567
C  C232  1  0.72530000  0.44030000  0.02270000  1.0 -0.2082406567
C  C233  1  0.77600000  0.06700000  0.45540000  1.0 -0.2020194207
C  C234  1  0.22400000  0.93300000  0.95540000  1.0 -0.2020194207
C  C235  1  0.77600000  0.43300000  0.54460000  1.0 -0.2020194207
C  C236  1  0.22400000  0.56700000  0.04460000  1.0 -0.2020194207
C  C237  1  0.22400000  0.93300000  0.54460000  1.0 -0.2020194207
C  C238  1  0.77600000  0.06700000  0.04460000  1.0 -0.2020194207
C  C239  1  0.22400000  0.56700000  0.45540000  1.0 -0.2020194207
C  C240  1  0.77600000  0.43300000  0.95540000  1.0 -0.2020194207
C  C241  1  0.56280000  0.44470000  0.51480000  1.0 0.081315422
C  C242  1  0.43720000  0.55530000  0.01480000  1.0 0.081315422
C  C243  1  0.56280000  0.05530000  0.48520000  1.0 0.081315422
C  C244  1  0.43720000  0.94470000  0.98520000  1.0 0.081315422
C  C245  1  0.43720000  0.55530000  0.48520000  1.0 0.081315422
C  C246  1  0.56280000  0.44470000  0.98520000  1.0 0.081315422
C  C247  1  0.43720000  0.94470000  0.51480000  1.0 0.081315422
C  C248  1  0.56280000  0.05530000  0.01480000  1.0 0.081315422
C  C249  1  0.72500000  0.11160000  0.52730000  1.0 0.081315422
C  C250  1  0.27500000  0.88840000  0.02730000  1.0 0.081315422
C  C251  1  0.72500000  0.38840000  0.47270000  1.0 0.081315422
C  C252  1  0.27500000  0.61160000  0.97270000  1.0 0.081315422
C  C253  1  0.27500000  0.88840000  0.47270000  1.0 0.081315422
C  C254  1  0.72500000  0.11160000  0.97270000  1.0 0.081315422
C  C255  1  0.27500000  0.61160000  0.52730000  1.0 0.081315422
C  C256  1  0.72500000  0.38840000  0.02730000  1.0 0.081315422
C  C257  1  0.77710000  0.11780000  0.45960000  1.0 0.0909913811
C  C258  1  0.22290000  0.88220000  0.95960000  1.0 0.0909913811
C  C259  1  0.77710000  0.38220000  0.54040000  1.0 0.0909913811
C  C260  1  0.22290000  0.61780000  0.04040000  1.0 0.0909913811
C  C261  1  0.22290000  0.88220000  0.54040000  1.0 0.0909913811
C  C262  1  0.77710000  0.11780000  0.04040000  1.0 0.0909913811
C  C263  1  0.22290000  0.61780000  0.45960000  1.0 0.0909913811
C  C264  1  0.77710000  0.38220000  0.95960000  1.0 0.0909913811
C  C265  1  0.57550000  0.42380000  0.55900000  1.0 0.0690340666
C  C266  1  0.42450000  0.57620000  0.05900000  1.0 0.0690340666
C  C267  1  0.57550000  0.07620000  0.44100000  1.0 0.0690340666
C  C268  1  0.42450000  0.92380000  0.94100000  1.0 0.0690340666
C  C269  1  0.42450000  0.57620000  0.44100000  1.0 0.0690340666
C  C270  1  0.57550000  0.42380000  0.94100000  1.0 0.0690340666
C  C271  1  0.42450000  0.92380000  0.55900000  1.0 0.0690340666
C  C272  1  0.57550000  0.07620000  0.05900000  1.0 0.0690340666
C  C273  1  0.69610000  0.13400000  0.56530000  1.0 0.0690340666
C  C274  1  0.30390000  0.86600000  0.06530000  1.0 0.0690340666
C  C275  1  0.69610000  0.36600000  0.43470000  1.0 0.0690340666
C  C276  1  0.30390000  0.63400000  0.93470000  1.0 0.0690340666
C  C277  1  0.30390000  0.86600000  0.43470000  1.0 0.0690340666
C  C278  1  0.69610000  0.13400000  0.93470000  1.0 0.0690340666
C  C279  1  0.30390000  0.63400000  0.56530000  1.0 0.0690340666
C  C280  1  0.69610000  0.36600000  0.06530000  1.0 0.0690340666
C  C281  1  0.75170000  0.13840000  0.49620000  1.0 -0.2020194207
C  C282  1  0.24830000  0.86160000  0.99620000  1.0 -0.2020194207
C  C283  1  0.75170000  0.36160000  0.50380000  1.0 -0.2020194207
C  C284  1  0.24830000  0.63840000  0.00380000  1.0 -0.2020194207
C  C285  1  0.24830000  0.86160000  0.50380000  1.0 -0.2020194207
C  C286  1  0.75170000  0.13840000  0.00380000  1.0 -0.2020194207
C  C287  1  0.24830000  0.63840000  0.49620000  1.0 -0.2020194207
C  C288  1  0.75170000  0.36160000  0.99620000  1.0 -0.2020194207
C  C289  1  0.80410000  0.14730000  0.42460000  1.0 0.0635465032
C  C290  1  0.19590000  0.85270000  0.92460000  1.0 0.0635465032
C  C291  1  0.80410000  0.35270000  0.57540000  1.0 0.0635465032
C  C292  1  0.19590000  0.64730000  0.07540000  1.0 0.0635465032
C  C293  1  0.19590000  0.85270000  0.57540000  1.0 0.0635465032
C  C294  1  0.80410000  0.14730000  0.07540000  1.0 0.0635465032
C  C295  1  0.19590000  0.64730000  0.42460000  1.0 0.0635465032
C  C296  1  0.80410000  0.35270000  0.92460000  1.0 0.0635465032
C  C297  1  0.62910000  0.41750000  0.57350000  1.0 -0.1511426987
C  C298  1  0.37090000  0.58250000  0.07350000  1.0 -0.1511426987
C  C299  1  0.62910000  0.08250000  0.42650000  1.0 -0.1511426987
C  C300  1  0.37090000  0.91750000  0.92650000  1.0 -0.1511426987
C  C301  1  0.37090000  0.58250000  0.42650000  1.0 -0.1511426987
C  C302  1  0.62910000  0.41750000  0.92650000  1.0 -0.1511426987
C  C303  1  0.37090000  0.91750000  0.57350000  1.0 -0.1511426987
C  C304  1  0.62910000  0.08250000  0.07350000  1.0 -0.1511426987
C  C305  1  0.53280000  0.40730000  0.58510000  1.0 -0.1511426987
C  C306  1  0.46720000  0.59270000  0.08510000  1.0 -0.1511426987
C  C307  1  0.53280000  0.09270000  0.41490000  1.0 -0.1511426987
C  C308  1  0.46720000  0.90730000  0.91490000  1.0 -0.1589613964
C  C309  1  0.46720000  0.59270000  0.41490000  1.0 -0.1511426987
C  C310  1  0.53280000  0.40730000  0.91490000  1.0 -0.1589613964
C  C311  1  0.46720000  0.90730000  0.58510000  1.0 -0.1511426987
C  C312  1  0.53280000  0.09270000  0.08510000  1.0 -0.1511426987
C  C313  1  0.64560000  0.11640000  0.57860000  1.0 -0.1511426987
C  C314  1  0.35440000  0.88360000  0.07860000  1.0 -0.1511426987
C  C315  1  0.64560000  0.38360000  0.42140000  1.0 -0.1511426987
C  C316  1  0.35440000  0.61640000  0.92140000  1.0 -0.1511426987
C  C317  1  0.35440000  0.88360000  0.42140000  1.0 -0.1511426987
C  C318  1  0.64560000  0.11640000  0.92140000  1.0 -0.1511426987
C  C319  1  0.35440000  0.61640000  0.57860000  1.0 -0.1511426987
C  C320  1  0.64560000  0.38360000  0.07860000  1.0 -0.1511426987
C  C321  1  0.71760000  0.17490000  0.58670000  1.0 -0.1511426987
C  C322  1  0.28240000  0.82510000  0.08670000  1.0 -0.1511426987
C  C323  1  0.71760000  0.32510000  0.41330000  1.0 -0.1511426987
C  C324  1  0.28240000  0.67490000  0.91330000  1.0 -0.1511426987
C  C325  1  0.28240000  0.82510000  0.41330000  1.0 -0.1511426987
C  C326  1  0.71760000  0.17490000  0.91330000  1.0 -0.1511426987
C  C327  1  0.28240000  0.67490000  0.58670000  1.0 -0.1511426987
C  C328  1  0.71760000  0.32510000  0.08670000  1.0 -0.1511426987
C  C329  1  0.78310000  0.18820000  0.40800000  1.0 -0.141362263
C  C330  1  0.21690000  0.81180000  0.90800000  1.0 -0.141362263
C  C331  1  0.78310000  0.31180000  0.59200000  1.0 -0.141362263
C  C332  1  0.21690000  0.68820000  0.09200000  1.0 -0.141362263
C  C333  1  0.21690000  0.81180000  0.59200000  1.0 -0.141362263
C  C334  1  0.78310000  0.18820000  0.09200000  1.0 -0.141362263
C  C335  1  0.21690000  0.68820000  0.40800000  1.0 -0.141362263
C  C336  1  0.78310000  0.31180000  0.90800000  1.0 -0.141362263
C  C337  1  0.85420000  0.13130000  0.40780000  1.0 -0.1589613964
C  C338  1  0.14580000  0.86870000  0.90780000  1.0 -0.1589613964
C  C339  1  0.85420000  0.36870000  0.59220000  1.0 -0.1589613964
C  C340  1  0.14580000  0.63130000  0.09220000  1.0 -0.1589613964
C  C341  1  0.14580000  0.86870000  0.59220000  1.0 -0.1589613964
C  C342  1  0.85420000  0.13130000  0.09220000  1.0 -0.1589613964
C  C343  1  0.14580000  0.63130000  0.40780000  1.0 -0.1589613964
C  C344  1  0.85420000  0.36870000  0.90780000  1.0 -0.1589613964
C  C345  1  0.63940000  0.39610000  0.61340000  1.0 -0.100684396
C  C346  1  0.36060000  0.60390000  0.11340000  1.0 -0.100684396
C  C347  1  0.63940000  0.10390000  0.38660000  1.0 -0.100684396
C  C348  1  0.36060000  0.89610000  0.88660000  1.0 -0.100684396
C  C349  1  0.36060000  0.60390000  0.38660000  1.0 -0.100684396
C  C350  1  0.63940000  0.39610000  0.88660000  1.0 -0.100684396
C  C351  1  0.36060000  0.89610000  0.61340000  1.0 -0.100684396
C  C352  1  0.63940000  0.10390000  0.11340000  1.0 -0.100684396
C  C353  1  0.54400000  0.38460000  0.62570000  1.0 -0.0898483409
C  C354  1  0.45600000  0.61540000  0.12570000  1.0 -0.0898483409
C  C355  1  0.54400000  0.11540000  0.37430000  1.0 -0.0898483409
C  C356  1  0.45600000  0.88460000  0.87430000  1.0 -0.0898483409
C  C357  1  0.45600000  0.61540000  0.37430000  1.0 -0.0898483409
C  C358  1  0.54400000  0.38460000  0.87430000  1.0 -0.0898483409
C  C359  1  0.45600000  0.88460000  0.62570000  1.0 -0.0898483409
C  C360  1  0.54400000  0.11540000  0.12570000  1.0 -0.0898483409
C  C361  1  0.61630000  0.13910000  0.61260000  1.0 -0.100684396
C  C362  1  0.38370000  0.86090000  0.11260000  1.0 -0.100684396
C  C363  1  0.61630000  0.36090000  0.38740000  1.0 -0.100684396
C  C364  1  0.38370000  0.63910000  0.88740000  1.0 -0.100684396
C  C365  1  0.38370000  0.86090000  0.38740000  1.0 -0.100684396
C  C366  1  0.61630000  0.13910000  0.88740000  1.0 -0.100684396
C  C367  1  0.38370000  0.63910000  0.61260000  1.0 -0.100684396
C  C368  1  0.61630000  0.36090000  0.11260000  1.0 -0.100684396
C  C369  1  0.68870000  0.19500000  0.62140000  1.0 -0.100684396
C  C370  1  0.31130000  0.80500000  0.12140000  1.0 -0.100684396
C  C371  1  0.68870000  0.30500000  0.37860000  1.0 -0.100684396
C  C372  1  0.31130000  0.69500000  0.87860000  1.0 -0.100684396
C  C373  1  0.31130000  0.80500000  0.37860000  1.0 -0.100684396
C  C374  1  0.68870000  0.19500000  0.87860000  1.0 -0.100684396
C  C375  1  0.31130000  0.69500000  0.62140000  1.0 -0.100684396
C  C376  1  0.68870000  0.30500000  0.12140000  1.0 -0.100684396
C  C377  1  0.81240000  0.21550000  0.37420000  1.0 -0.100684396
C  C378  1  0.18760000  0.78450000  0.87420000  1.0 -0.100684396
C  C379  1  0.81240000  0.28450000  0.62580000  1.0 -0.100684396
C  C380  1  0.18760000  0.71550000  0.12580000  1.0 -0.100684396
C  C381  1  0.18760000  0.78450000  0.62580000  1.0 -0.100684396
C  C382  1  0.81240000  0.21550000  0.12580000  1.0 -0.100684396
C  C383  1  0.18760000  0.71550000  0.37420000  1.0 -0.100684396
C  C384  1  0.81240000  0.28450000  0.87420000  1.0 -0.100684396
C  C385  1  0.88080000  0.15680000  0.37480000  1.0 -0.100684396
C  C386  1  0.11920000  0.84320000  0.87480000  1.0 -0.100684396
C  C387  1  0.88080000  0.34320000  0.62520000  1.0 -0.100684396
C  C388  1  0.11920000  0.65680000  0.12520000  1.0 -0.100684396
C  C389  1  0.11920000  0.84320000  0.62520000  1.0 -0.100684396
C  C390  1  0.88080000  0.15680000  0.12520000  1.0 -0.100684396
C  C391  1  0.11920000  0.65680000  0.37480000  1.0 -0.100684396
C  C392  1  0.88080000  0.34320000  0.87480000  1.0 -0.100684396
C  C393  1  0.59660000  0.37870000  0.63990000  1.0 -0.0139476245
C  C394  1  0.40340000  0.62130000  0.13990000  1.0 -0.0139476245
C  C395  1  0.59660000  0.12130000  0.36010000  1.0 -0.0139476245
C  C396  1  0.40340000  0.87870000  0.86010000  1.0 -0.0139476245
C  C397  1  0.40340000  0.62130000  0.36010000  1.0 -0.0139476245
C  C398  1  0.59660000  0.37870000  0.86010000  1.0 -0.0139476245
C  C399  1  0.40340000  0.87870000  0.63990000  1.0 -0.0139476245
C  C400  1  0.59660000  0.12130000  0.13990000  1.0 -0.0139476245
C  C401  1  0.63810000  0.17840000  0.63400000  1.0 -0.0139476245
C  C402  1  0.36190000  0.82160000  0.13400000  1.0 -0.0139476245
C  C403  1  0.63810000  0.32160000  0.36600000  1.0 -0.0139476245
C  C404  1  0.36190000  0.67840000  0.86600000  1.0 -0.0139476245
C  C405  1  0.36190000  0.82160000  0.36600000  1.0 -0.0139476245
C  C406  1  0.63810000  0.17840000  0.86600000  1.0 -0.0139476245
C  C407  1  0.36190000  0.67840000  0.63400000  1.0 -0.0139476245
C  C408  1  0.63810000  0.32160000  0.13400000  1.0 -0.0139476245
C  C409  1  0.86120000  0.19920000  0.35770000  1.0 -0.0017083817
C  C410  1  0.13880000  0.80080000  0.85770000  1.0 -0.0017083817
C  C411  1  0.86120000  0.30080000  0.64230000  1.0 -0.0017083817
C  C412  1  0.13880000  0.69920000  0.14230000  1.0 -0.0017083817
C  C413  1  0.13880000  0.80080000  0.64230000  1.0 -0.0017083817
C  C414  1  0.86120000  0.19920000  0.14230000  1.0 -0.0017083817
C  C415  1  0.13880000  0.69920000  0.35770000  1.0 -0.0017083817
C  C416  1  0.86120000  0.30080000  0.85770000  1.0 -0.0017083817
C  C417  1  0.60750000  0.35150000  0.68130000  1.0 0.5788165894
C  C418  1  0.39250000  0.64850000  0.18130000  1.0 0.5788165894
C  C419  1  0.60750000  0.14850000  0.31870000  1.0 0.5788165894
C  C420  1  0.39250000  0.85150000  0.81870000  1.0 0.5788165894
C  C421  1  0.39250000  0.64850000  0.31870000  1.0 0.5788165894
C  C422  1  0.60750000  0.35150000  0.81870000  1.0 0.5788165894
C  C423  1  0.39250000  0.85150000  0.68130000  1.0 0.5788165894
C  C424  1  0.60750000  0.14850000  0.18130000  1.0 0.5788165894
C  C425  1  0.60850000  0.20280000  0.67110000  1.0 0.5901757
C  C426  1  0.39150000  0.79720000  0.17110000  1.0 0.5901757
C  C427  1  0.60850000  0.29720000  0.32890000  1.0 0.5901757
C  C428  1  0.39150000  0.70280000  0.82890000  1.0 0.5901757
C  C429  1  0.39150000  0.79720000  0.32890000  1.0 0.5901757
C  C430  1  0.60850000  0.20280000  0.82890000  1.0 0.5901757
C  C431  1  0.39150000  0.70280000  0.67110000  1.0 0.5901757
C  C432  1  0.60850000  0.29720000  0.17110000  1.0 0.5901757
C  C433  1  0.89300000  0.22540000  0.32110000  1.0 0.5788165894
C  C434  1  0.10700000  0.77460000  0.82110000  1.0 0.5788165894
C  C435  1  0.89300000  0.27460000  0.67890000  1.0 0.5788165894
C  C436  1  0.10700000  0.72540000  0.17890000  1.0 0.5788165894
C  C437  1  0.10700000  0.77460000  0.67890000  1.0 0.5788165894
C  C438  1  0.89300000  0.22540000  0.17890000  1.0 0.5788165894
C  C439  1  0.10700000  0.72540000  0.32110000  1.0 0.5788165894
C  C440  1  0.89300000  0.27460000  0.82110000  1.0 0.5788165894
C  C441  1  0.18450000  0.35960000  0.33170000  1.0 0.6439920631
C  C442  1  0.81550000  0.64040000  0.83170000  1.0 0.6439920631
C  C443  1  0.18450000  0.14040000  0.66830000  1.0 0.6439920631
C  C444  1  0.81550000  0.85960000  0.16830000  1.0 0.6439920631
C  C445  1  0.81550000  0.64040000  0.66830000  1.0 0.6439920631
C  C446  1  0.18450000  0.35960000  0.16830000  1.0 0.6439920631
C  C447  1  0.81550000  0.85960000  0.33170000  1.0 0.6439920631
C  C448  1  0.18450000  0.14040000  0.83170000  1.0 0.6439920631
C  C449  1  0.15500000  0.39920000  0.35800000  1.0 -0.0304118151
C  C450  1  0.84500000  0.60080000  0.85800000  1.0 -0.0304118151
C  C451  1  0.15500000  0.10080000  0.64200000  1.0 -0.0304118151
C  C452  1  0.84500000  0.89920000  0.14200000  1.0 -0.0304118151
C  C453  1  0.84500000  0.60080000  0.64200000  1.0 -0.0304118151
C  C454  1  0.15500000  0.39920000  0.14200000  1.0 -0.0304118151
C  C455  1  0.84500000  0.89920000  0.35800000  1.0 -0.0304118151
C  C456  1  0.15500000  0.10080000  0.85800000  1.0 -0.0304118151
C  C457  1  0.14340000  0.44360000  0.33930000  1.0 -0.100684396
C  C458  1  0.85660000  0.55640000  0.83930000  1.0 -0.100684396
C  C459  1  0.14340000  0.05640000  0.66070000  1.0 -0.100684396
C  C460  1  0.85660000  0.94360000  0.16070000  1.0 -0.100684396
C  C461  1  0.85660000  0.55640000  0.66070000  1.0 -0.100684396
C  C462  1  0.14340000  0.44360000  0.16070000  1.0 -0.100684396
C  C463  1  0.85660000  0.94360000  0.33930000  1.0 -0.100684396
C  C464  1  0.14340000  0.05640000  0.83930000  1.0 -0.100684396
C  C465  1  0.14140000  0.39080000  0.40140000  1.0 -0.0898483409
C  C466  1  0.85860000  0.60920000  0.90140000  1.0 -0.0898483409
C  C467  1  0.14140000  0.10920000  0.59860000  1.0 -0.0898483409
C  C468  1  0.85860000  0.89080000  0.09860000  1.0 -0.0898483409
C  C469  1  0.85860000  0.60920000  0.59860000  1.0 -0.0898483409
C  C470  1  0.14140000  0.39080000  0.09860000  1.0 -0.0898483409
C  C471  1  0.85860000  0.89080000  0.40140000  1.0 -0.0898483409
C  C472  1  0.14140000  0.10920000  0.90140000  1.0 -0.0898483409
C  C473  1  0.11690000  0.47990000  0.36440000  1.0 -0.1589613964
C  C474  1  0.88310000  0.52010000  0.86440000  1.0 -0.1589613964
C  C475  1  0.11690000  0.02010000  0.63560000  1.0 -0.1589613964
C  C476  1  0.88310000  0.97990000  0.13560000  1.0 -0.1589613964
C  C477  1  0.88310000  0.52010000  0.63560000  1.0 -0.1589613964
C  C478  1  0.11690000  0.47990000  0.13560000  1.0 -0.1589613964
C  C479  1  0.88310000  0.97990000  0.36440000  1.0 -0.1589613964
C  C480  1  0.11690000  0.02010000  0.86440000  1.0 -0.1589613964
C  C481  1  0.11730000  0.42580000  0.42640000  1.0 -0.1589613964
C  C482  1  0.88270000  0.57420000  0.92640000  1.0 -0.1589613964
C  C483  1  0.11730000  0.07420000  0.57360000  1.0 -0.1589613964
C  C484  1  0.88270000  0.92580000  0.07360000  1.0 -0.1589613964
C  C485  1  0.88270000  0.57420000  0.57360000  1.0 -0.1589613964
C  C486  1  0.11730000  0.42580000  0.07360000  1.0 -0.1589613964
C  C487  1  0.88270000  0.92580000  0.42640000  1.0 -0.1589613964
C  C488  1  0.11730000  0.07420000  0.92640000  1.0 -0.1589613964
C  C489  1  0.10460000  0.47160000  0.40790000  1.0 0.0635465032
C  C490  1  0.89540000  0.52840000  0.90790000  1.0 0.0635465032
C  C491  1  0.10460000  0.02840000  0.59210000  1.0 0.0635465032
C  C492  1  0.89540000  0.97160000  0.09210000  1.0 0.0635465032
C  C493  1  0.89540000  0.52840000  0.59210000  1.0 0.0635465032
C  C494  1  0.10460000  0.47160000  0.09210000  1.0 0.0635465032
C  C495  1  0.89540000  0.97160000  0.40790000  1.0 0.0635465032
C  C496  1  0.10460000  0.02840000  0.90790000  1.0 0.0635465032
C  C497  1  0.07690000  0.51050000  0.43450000  1.0 0.0690340666
C  C498  1  0.92310000  0.48950000  0.93450000  1.0 0.0690340666
C  C499  1  0.07690000  0.98950000  0.56550000  1.0 0.0690340666
C  C500  1  0.92310000  0.01050000  0.06550000  1.0 0.0690340666
C  C501  1  0.92310000  0.48950000  0.56550000  1.0 0.0690340666
C  C502  1  0.07690000  0.51050000  0.06550000  1.0 0.0690340666
C  C503  1  0.92310000  0.01050000  0.43450000  1.0 0.0690340666
C  C504  1  0.07690000  0.98950000  0.93450000  1.0 0.0690340666
C  C505  1  0.09330000  0.51910000  0.47890000  1.0 -0.2082406567
C  C506  1  0.90670000  0.48090000  0.97890000  1.0 -0.2082406567
C  C507  1  0.09330000  0.98090000  0.52110000  1.0 -0.2082406567
C  C508  1  0.90670000  0.01910000  0.02110000  1.0 -0.2082406567
C  C509  1  0.90670000  0.48090000  0.52110000  1.0 -0.2082406567
C  C510  1  0.09330000  0.51910000  0.02110000  1.0 -0.2082406567
C  C511  1  0.90670000  0.01910000  0.47890000  1.0 -0.2082406567
C  C512  1  0.09330000  0.98090000  0.97890000  1.0 -0.2082406567
C  C513  1  0.03520000  0.53840000  0.41700000  1.0 -0.2082406567
C  C514  1  0.96480000  0.46160000  0.91700000  1.0 -0.2082406567
C  C515  1  0.03520000  0.96160000  0.58300000  1.0 -0.2082406567
C  C516  1  0.96480000  0.03840000  0.08300000  1.0 -0.2082406567
C  C517  1  0.96480000  0.46160000  0.58300000  1.0 -0.2082406567
C  C518  1  0.03520000  0.53840000  0.08300000  1.0 -0.2082406567
C  C519  1  0.96480000  0.03840000  0.41700000  1.0 -0.2082406567
C  C520  1  0.03520000  0.96160000  0.91700000  1.0 -0.2082406567
C  C521  1  0.06870000  0.55450000  0.50390000  1.0 0.081315422
C  C522  1  0.93130000  0.44550000  0.00390000  1.0 0.081315422
C  C523  1  0.06870000  0.94550000  0.49610000  1.0 0.081315422
C  C524  1  0.93130000  0.05450000  0.99610000  1.0 0.081315422
C  C525  1  0.93130000  0.44550000  0.49610000  1.0 0.081315422
C  C526  1  0.06870000  0.55450000  0.99610000  1.0 0.081315422
C  C527  1  0.93130000  0.05450000  0.50390000  1.0 0.081315422
C  C528  1  0.06870000  0.94550000  0.00390000  1.0 0.081315422
C  C529  1  0.00840000  0.57450000  0.44200000  1.0 0.0909913811
C  C530  1  0.99160000  0.42550000  0.94200000  1.0 0.0909913811
C  C531  1  0.00840000  0.92550000  0.55800000  1.0 0.0909913811
C  C532  1  0.99160000  0.07450000  0.05800000  1.0 0.0909913811
C  C533  1  0.99160000  0.42550000  0.55800000  1.0 0.0909913811
C  C534  1  0.00840000  0.57450000  0.05800000  1.0 0.0909913811
C  C535  1  0.99160000  0.07450000  0.44200000  1.0 0.0909913811
C  C536  1  0.00840000  0.92550000  0.94200000  1.0 0.0909913811
C  C537  1  0.08610000  0.56530000  0.55000000  1.0 0.0690340666
C  C538  1  0.91390000  0.43470000  0.05000000  1.0 0.0690340666
C  C539  1  0.08610000  0.93470000  0.45000000  1.0 0.0690340666
C  C540  1  0.91390000  0.06530000  0.95000000  1.0 0.0690340666
C  C541  1  0.91390000  0.43470000  0.45000000  1.0 0.0690340666
C  C542  1  0.08610000  0.56530000  0.95000000  1.0 0.0690340666
C  C543  1  0.91390000  0.06530000  0.55000000  1.0 0.0690340666
C  C544  1  0.08610000  0.93470000  0.05000000  1.0 0.0690340666
C  C545  1  0.02580000  0.58180000  0.48510000  1.0 -0.2082406567
C  C546  1  0.97420000  0.41820000  0.98510000  1.0 -0.2082406567
C  C547  1  0.02580000  0.91820000  0.51490000  1.0 -0.2082406567
C  C548  1  0.97420000  0.08180000  0.01490000  1.0 -0.2082406567
C  C549  1  0.97420000  0.41820000  0.51490000  1.0 -0.2082406567
C  C550  1  0.02580000  0.58180000  0.01490000  1.0 -0.2082406567
C  C551  1  0.97420000  0.08180000  0.48510000  1.0 -0.2082406567
C  C552  1  0.02580000  0.91820000  0.98510000  1.0 -0.2082406567
C  C553  1  0.96220000  0.60480000  0.42430000  1.0 0.0635465032
C  C554  1  0.03780000  0.39520000  0.92430000  1.0 0.0635465032
C  C555  1  0.96220000  0.89520000  0.57570000  1.0 0.0635465032
C  C556  1  0.03780000  0.10480000  0.07570000  1.0 0.0635465032
C  C557  1  0.03780000  0.39520000  0.57570000  1.0 0.0635465032
C  C558  1  0.96220000  0.60480000  0.07570000  1.0 0.0635465032
C  C559  1  0.03780000  0.10480000  0.42430000  1.0 0.0635465032
C  C560  1  0.96220000  0.89520000  0.92430000  1.0 0.0635465032
C  C561  1  0.03990000  0.57670000  0.58100000  1.0 -0.1684272172
C  C562  1  0.96010000  0.42330000  0.08100000  1.0 -0.1684272172
C  C563  1  0.03990000  0.92330000  0.41900000  1.0 -0.1684272172
C  C564  1  0.96010000  0.07670000  0.91900000  1.0 -0.1684272172
C  C565  1  0.96010000  0.42330000  0.41900000  1.0 -0.1684272172
C  C566  1  0.03990000  0.57670000  0.91900000  1.0 -0.1684272172
C  C567  1  0.96010000  0.07670000  0.58100000  1.0 -0.1684272172
C  C568  1  0.03990000  0.92330000  0.08100000  1.0 -0.1684272172
C  C569  1  0.13190000  0.57320000  0.56190000  1.0 -0.1170685449
C  C570  1  0.86810000  0.42680000  0.06190000  1.0 -0.1170685449
C  C571  1  0.13190000  0.92680000  0.43810000  1.0 -0.1170685449
C  C572  1  0.86810000  0.07320000  0.93810000  1.0 -0.1170685449
C  C573  1  0.86810000  0.42680000  0.43810000  1.0 -0.1170685449
C  C574  1  0.13190000  0.57320000  0.93810000  1.0 -0.1170685449
C  C575  1  0.86810000  0.07320000  0.56190000  1.0 -0.1170685449
C  C576  1  0.13190000  0.92680000  0.06190000  1.0 -0.1170685449
C  C577  1  0.96070000  0.62090000  0.38180000  1.0 -0.1511426987
C  C578  1  0.03930000  0.37910000  0.88180000  1.0 -0.1511426987
C  C579  1  0.96070000  0.87910000  0.61820000  1.0 -0.1511426987
C  C580  1  0.03930000  0.12090000  0.11820000  1.0 -0.1511426987
C  C581  1  0.03930000  0.37910000  0.61820000  1.0 -0.1511426987
C  C582  1  0.96070000  0.62090000  0.11820000  1.0 -0.1511426987
C  C583  1  0.03930000  0.12090000  0.38180000  1.0 -0.1511426987
C  C584  1  0.96070000  0.87910000  0.88180000  1.0 -0.1511426987
C  C585  1  0.92110000  0.61890000  0.45150000  1.0 -0.1589613964
C  C586  1  0.07890000  0.38110000  0.95150000  1.0 -0.1589613964
C  C587  1  0.92110000  0.88110000  0.54850000  1.0 -0.1589613964
C  C588  1  0.07890000  0.11890000  0.04850000  1.0 -0.1589613964
C  C589  1  0.07890000  0.38110000  0.54850000  1.0 -0.1589613964
C  C590  1  0.92110000  0.61890000  0.04850000  1.0 -0.1589613964
C  C591  1  0.07890000  0.11890000  0.45150000  1.0 -0.1589613964
C  C592  1  0.92110000  0.88110000  0.95150000  1.0 -0.1589613964
C  C593  1  0.05220000  0.59260000  0.62280000  1.0 -0.1077420744
C  C594  1  0.94780000  0.40740000  0.12280000  1.0 -0.1077420744
C  C595  1  0.05220000  0.90740000  0.37720000  1.0 -0.1077420744
C  C596  1  0.94780000  0.09260000  0.87720000  1.0 -0.1077420744
C  C597  1  0.94780000  0.40740000  0.37720000  1.0 -0.1077420744
C  C598  1  0.05220000  0.59260000  0.87720000  1.0 -0.1077420744
C  C599  1  0.94780000  0.09260000  0.62280000  1.0 -0.1077420744
C  C600  1  0.05220000  0.90740000  0.12280000  1.0 -0.1077420744
C  C601  1  0.14560000  0.59370000  0.60480000  1.0 -0.0898483409
C  C602  1  0.85440000  0.40630000  0.10480000  1.0 -0.0898483409
C  C603  1  0.14560000  0.90630000  0.39520000  1.0 -0.0898483409
C  C604  1  0.85440000  0.09370000  0.89520000  1.0 -0.0898483409
C  C605  1  0.85440000  0.40630000  0.39520000  1.0 -0.0898483409
C  C606  1  0.14560000  0.59370000  0.89520000  1.0 -0.0898483409
C  C607  1  0.85440000  0.09370000  0.60480000  1.0 -0.0898483409
C  C608  1  0.14560000  0.90630000  0.10480000  1.0 -0.0898483409
C  C609  1  0.91770000  0.65130000  0.36670000  1.0 -0.0559148094
C  C610  1  0.08230000  0.34870000  0.86670000  1.0 -0.0559148094
C  C611  1  0.91770000  0.84870000  0.63330000  1.0 -0.0559148094
C  C612  1  0.08230000  0.15130000  0.13330000  1.0 -0.0559148094
C  C613  1  0.08230000  0.34870000  0.63330000  1.0 -0.0559148094
C  C614  1  0.91770000  0.65130000  0.13330000  1.0 -0.0559148094
C  C615  1  0.08230000  0.15130000  0.36670000  1.0 -0.0559148094
C  C616  1  0.91770000  0.84870000  0.86670000  1.0 -0.0559148094
C  C617  1  0.88150000  0.65200000  0.43890000  1.0 -0.0898483409
C  C618  1  0.11850000  0.34800000  0.93890000  1.0 -0.0898483409
C  C619  1  0.88150000  0.84800000  0.56110000  1.0 -0.0898483409
C  C620  1  0.11850000  0.15200000  0.06110000  1.0 -0.0898483409
C  C621  1  0.11850000  0.34800000  0.56110000  1.0 -0.0898483409
C  C622  1  0.88150000  0.65200000  0.06110000  1.0 -0.0898483409
C  C623  1  0.11850000  0.15200000  0.43890000  1.0 -0.0898483409
C  C624  1  0.88150000  0.84800000  0.93890000  1.0 -0.0898483409
C  C625  1  0.10960000  0.59810000  0.63480000  1.0 0.0254748525
C  C626  1  0.89040000  0.40190000  0.13480000  1.0 0.0254748525
C  C627  1  0.10960000  0.90190000  0.36520000  1.0 0.0254748525
C  C628  1  0.89040000  0.09810000  0.86520000  1.0 0.0254748525
C  C629  1  0.89040000  0.40190000  0.36520000  1.0 0.0254748525
C  C630  1  0.10960000  0.59810000  0.86520000  1.0 0.0254748525
C  C631  1  0.89040000  0.09810000  0.63480000  1.0 0.0254748525
C  C632  1  0.10960000  0.90190000  0.13480000  1.0 0.0254748525
C  C633  1  0.87820000  0.66720000  0.39650000  1.0 -0.0236747353
C  C634  1  0.12180000  0.33280000  0.89650000  1.0 -0.0236747353
C  C635  1  0.87820000  0.83280000  0.60350000  1.0 -0.0236747353
C  C636  1  0.12180000  0.16720000  0.10350000  1.0 -0.0236747353
C  C637  1  0.12180000  0.33280000  0.60350000  1.0 -0.0236747353
C  C638  1  0.87820000  0.66720000  0.10350000  1.0 -0.0236747353
C  C639  1  0.12180000  0.16720000  0.39650000  1.0 -0.0236747353
C  C640  1  0.87820000  0.83280000  0.89650000  1.0 -0.0236747353
C  C641  1  0.11600000  0.62620000  0.67950000  1.0 0.5473351074
C  C642  1  0.88400000  0.37380000  0.17950000  1.0 0.5473351074
C  C643  1  0.11600000  0.87380000  0.32050000  1.0 0.5473351074
C  C644  1  0.88400000  0.12620000  0.82050000  1.0 0.5473351074
C  C645  1  0.88400000  0.37380000  0.32050000  1.0 0.5473351074
C  C646  1  0.11600000  0.62620000  0.82050000  1.0 0.5473351074
C  C647  1  0.88400000  0.12620000  0.67950000  1.0 0.5473351074
C  C648  1  0.11600000  0.87380000  0.17950000  1.0 0.5473351074
C  C649  1  0.83410000  0.70030000  0.38270000  1.0 0.5473351074
C  C650  1  0.16590000  0.29970000  0.88270000  1.0 0.5473351074
C  C651  1  0.83410000  0.79970000  0.61730000  1.0 0.5473351074
C  C652  1  0.16590000  0.20030000  0.11730000  1.0 0.5473351074
C  C653  1  0.16590000  0.29970000  0.61730000  1.0 0.5473351074
C  C654  1  0.83410000  0.70030000  0.11730000  1.0 0.5473351074
C  C655  1  0.16590000  0.20030000  0.38270000  1.0 0.5473351074
C  C656  1  0.83410000  0.79970000  0.88270000  1.0 0.5473351074
O  O1  1  0.69830000  0.68250000  0.35062000  1.0 -0.5863925251
O  O2  1  0.30170000  0.31750000  0.85062000  1.0 -0.5863925251
O  O3  1  0.69830000  0.81750000  0.64938000  1.0 -0.5863925251
O  O4  1  0.30170000  0.18250000  0.14938000  1.0 -0.5863925251
O  O5  1  0.30170000  0.31750000  0.64938000  1.0 -0.5863925251
O  O6  1  0.69830000  0.68250000  0.14938000  1.0 -0.5863925251
O  O7  1  0.30170000  0.18250000  0.35062000  1.0 -0.5863925251
O  O8  1  0.69830000  0.81750000  0.85062000  1.0 -0.5863925251
O  O9  1  0.74240000  0.76897000  0.28569000  1.0 -0.7260396513
O  O10  1  0.25760000  0.23103000  0.78569000  1.0 -0.7260396513
O  O11  1  0.74240000  0.73103000  0.71431000  1.0 -0.7260396513
O  O12  1  0.25760000  0.26897000  0.21431000  1.0 -0.7260396513
O  O13  1  0.25760000  0.23103000  0.71431000  1.0 -0.7260396513
O  O14  1  0.74240000  0.76897000  0.21431000  1.0 -0.7260396513
O  O15  1  0.25760000  0.26897000  0.28569000  1.0 -0.7260396513
O  O16  1  0.74240000  0.73103000  0.78569000  1.0 -0.7260396513
O  O17  1  0.67810000  0.72090000  0.41120000  1.0 -0.1170685449
O  O18  1  0.32190000  0.27910000  0.91120000  1.0 -0.1170685449
O  O19  1  0.67810000  0.77910000  0.58880000  1.0 -0.1170685449
O  O20  1  0.32190000  0.22090000  0.08880000  1.0 -0.1170685449
O  O21  1  0.32190000  0.27910000  0.58880000  1.0 -0.1170685449
O  O22  1  0.67810000  0.72090000  0.08880000  1.0 -0.1170685449
O  O23  1  0.32190000  0.22090000  0.41120000  1.0 -0.1170685449
O  O24  1  0.67810000  0.77910000  0.91120000  1.0 -0.1170685449
O  O25  1  0.66070000  0.79740000  0.34960000  1.0 -0.6083792132
O  O26  1  0.33930000  0.20260000  0.84960000  1.0 -0.6083792132
O  O27  1  0.66070000  0.70260000  0.65040000  1.0 -0.6083792132
O  O28  1  0.33930000  0.29740000  0.15040000  1.0 -0.6083792132
O  O29  1  0.33930000  0.20260000  0.65040000  1.0 -0.6083792132
O  O30  1  0.66070000  0.79740000  0.15040000  1.0 -0.6083792132
O  O31  1  0.33930000  0.29740000  0.34960000  1.0 -0.6083792132
O  O32  1  0.66070000  0.70260000  0.84960000  1.0 -0.6083792132
O  O33  1  0.73570000  0.81510000  0.41828000  1.0 -0.6829975876
O  O34  1  0.26430000  0.18490000  0.91828000  1.0 -0.6829975876
O  O35  1  0.73570000  0.68490000  0.58172000  1.0 -0.6829975876
O  O36  1  0.26430000  0.31510000  0.08172000  1.0 -0.6829975876
O  O37  1  0.26430000  0.18490000  0.58172000  1.0 -0.6829975876
O  O38  1  0.73570000  0.81510000  0.08172000  1.0 -0.6829975876
O  O39  1  0.26430000  0.31510000  0.41828000  1.0 -0.6829975876
O  O40  1  0.73570000  0.68490000  0.91828000  1.0 -0.6829975876
O  O41  1  0.81100000  0.81810000  0.34884000  1.0 -0.6504439744
O  O42  1  0.18900000  0.18190000  0.84884000  1.0 -0.6504439744
O  O43  1  0.81100000  0.68190000  0.65116000  1.0 -0.6504439744
O  O44  1  0.18900000  0.31810000  0.15116000  1.0 -0.6504439744
O  O45  1  0.18900000  0.18190000  0.65116000  1.0 -0.6504439744
O  O46  1  0.81100000  0.81810000  0.15116000  1.0 -0.6504439744
O  O47  1  0.18900000  0.31810000  0.34884000  1.0 -0.6504439744
O  O48  1  0.81100000  0.68190000  0.84884000  1.0 -0.6504439744
O  O49  1  0.82150000  0.70620000  0.34320000  1.0 -0.5728206369
O  O50  1  0.17850000  0.29380000  0.84320000  1.0 -0.5728206369
O  O51  1  0.82150000  0.79380000  0.65680000  1.0 -0.5728206369
O  O52  1  0.17850000  0.20620000  0.15680000  1.0 -0.5728206369
O  O53  1  0.17850000  0.29380000  0.65680000  1.0 -0.5728206369
O  O54  1  0.82150000  0.70620000  0.15680000  1.0 -0.5728206369
O  O55  1  0.17850000  0.20620000  0.34320000  1.0 -0.5728206369
O  O56  1  0.82150000  0.79380000  0.84320000  1.0 -0.5728206369
O  O57  1  0.80810000  0.72330000  0.41220000  1.0 -0.6653820905
O  O58  1  0.19190000  0.27670000  0.91220000  1.0 -0.6653820905
O  O59  1  0.80810000  0.77670000  0.58780000  1.0 -0.6653820905
O  O60  1  0.19190000  0.22330000  0.08780000  1.0 -0.6653820905
O  O61  1  0.19190000  0.27670000  0.58780000  1.0 -0.6653820905
O  O62  1  0.80810000  0.72330000  0.08780000  1.0 -0.6653820905
O  O63  1  0.19190000  0.22330000  0.41220000  1.0 -0.6653820905
O  O64  1  0.80810000  0.77670000  0.91220000  1.0 -0.6653820905
O  O65  1  0.68590000  0.86650000  0.31920000  1.0 -0.6596142682
O  O66  1  0.31410000  0.13350000  0.81920000  1.0 -0.6596142682
O  O67  1  0.68590000  0.63350000  0.68080000  1.0 -0.6596142682
O  O68  1  0.31410000  0.36650000  0.18080000  1.0 -0.6596142682
O  O69  1  0.31410000  0.13350000  0.68080000  1.0 -0.6596142682
O  O70  1  0.68590000  0.86650000  0.18080000  1.0 -0.6596142682
O  O71  1  0.31410000  0.36650000  0.31920000  1.0 -0.6596142682
O  O72  1  0.68590000  0.63350000  0.81920000  1.0 -0.6596142682
O  O73  1  0.73940000  0.79960000  0.48880000  1.0 0.0690340666
O  O74  1  0.26060000  0.20040000  0.98880000  1.0 0.0690340666
O  O75  1  0.73940000  0.70040000  0.51120000  1.0 0.0690340666
O  O76  1  0.26060000  0.29960000  0.01120000  1.0 0.0690340666
O  O77  1  0.26060000  0.20040000  0.51120000  1.0 0.0690340666
O  O78  1  0.73940000  0.79960000  0.01120000  1.0 0.0690340666
O  O79  1  0.26060000  0.29960000  0.48880000  1.0 0.0690340666
O  O80  1  0.73940000  0.70040000  0.98880000  1.0 0.0690340666
O  O81  1  0.56770000  0.33110000  0.70040000  1.0 -0.6276961597
O  O82  1  0.43230000  0.66890000  0.20040000  1.0 -0.6276961597
O  O83  1  0.56770000  0.16890000  0.29960000  1.0 -0.6276961597
O  O84  1  0.43230000  0.83110000  0.79960000  1.0 -0.6276961597
O  O85  1  0.43230000  0.66890000  0.29960000  1.0 -0.6276961597
O  O86  1  0.56770000  0.33110000  0.79960000  1.0 -0.6276961597
O  O87  1  0.43230000  0.83110000  0.70040000  1.0 -0.6276961597
O  O88  1  0.56770000  0.16890000  0.20040000  1.0 -0.6276961597
O  O89  1  0.65530000  0.34800000  0.69710000  1.0 -0.6276961597
O  O90  1  0.34470000  0.65200000  0.19710000  1.0 -0.6276961597
O  O91  1  0.65530000  0.15200000  0.30290000  1.0 -0.6276961597
O  O92  1  0.34470000  0.84800000  0.80290000  1.0 -0.6276961597
O  O93  1  0.34470000  0.65200000  0.30290000  1.0 -0.6276961597
O  O94  1  0.65530000  0.34800000  0.80290000  1.0 -0.6276961597
O  O95  1  0.34470000  0.84800000  0.69710000  1.0 -0.6276961597
O  O96  1  0.65530000  0.15200000  0.19710000  1.0 -0.6276961597
O  O97  1  0.63310000  0.23530000  0.69110000  1.0 -0.6596142682
O  O98  1  0.36690000  0.76470000  0.19110000  1.0 -0.6596142682
O  O99  1  0.63310000  0.26470000  0.30890000  1.0 -0.6596142682
O  O100  1  0.36690000  0.73530000  0.80890000  1.0 -0.6596142682
O  O101  1  0.36690000  0.76470000  0.30890000  1.0 -0.6596142682
O  O102  1  0.63310000  0.23530000  0.80890000  1.0 -0.6596142682
O  O103  1  0.36690000  0.73530000  0.69110000  1.0 -0.6596142682
O  O104  1  0.63310000  0.26470000  0.19110000  1.0 -0.6596142682
O  O105  1  0.56160000  0.18640000  0.68060000  1.0 -0.5582996639
O  O106  1  0.43840000  0.81360000  0.18060000  1.0 -0.5582996639
O  O107  1  0.56160000  0.31360000  0.31940000  1.0 -0.5582996639
O  O108  1  0.43840000  0.68640000  0.81940000  1.0 -0.5582996639
O  O109  1  0.43840000  0.81360000  0.31940000  1.0 -0.5582996639
O  O110  1  0.56160000  0.18640000  0.81940000  1.0 -0.5582996639
O  O111  1  0.43840000  0.68640000  0.68060000  1.0 -0.5582996639
O  O112  1  0.56160000  0.31360000  0.18060000  1.0 -0.5582996639
O  O113  1  0.86870000  0.25860000  0.30540000  1.0 -0.6276961597
O  O114  1  0.13130000  0.74140000  0.80540000  1.0 -0.6276961597
O  O115  1  0.86870000  0.24140000  0.69460000  1.0 -0.6276961597
O  O116  1  0.13130000  0.75860000  0.19460000  1.0 -0.6276961597
O  O117  1  0.13130000  0.74140000  0.69460000  1.0 -0.6276961597
O  O118  1  0.86870000  0.25860000  0.19460000  1.0 -0.6276961597
O  O119  1  0.13130000  0.75860000  0.30540000  1.0 -0.6276961597
O  O120  1  0.86870000  0.24140000  0.80540000  1.0 -0.6276961597
O  O121  1  0.93920000  0.20870000  0.31180000  1.0 -0.5179236265
O  O122  1  0.06080000  0.79130000  0.81180000  1.0 -0.5179236265
O  O123  1  0.93920000  0.29130000  0.68820000  1.0 -0.5179236265
O  O124  1  0.06080000  0.70870000  0.18820000  1.0 -0.5179236265
O  O125  1  0.06080000  0.79130000  0.68820000  1.0 -0.5179236265
O  O126  1  0.93920000  0.20870000  0.18820000  1.0 -0.5179236265
O  O127  1  0.06080000  0.70870000  0.31180000  1.0 -0.5179236265
O  O128  1  0.93920000  0.29130000  0.81180000  1.0 -0.5179236265
O  O129  1  0.54120000  0.24180000  0.75000000  1.0 -0.6173935565
O  O130  1  0.45880000  0.75820000  0.25000000  1.0 -0.6173935565
O  O131  1  0.54120000  0.25820000  0.25000000  1.0 -0.6173935565
O  O132  1  0.45880000  0.74180000  0.75000000  1.0 -0.6173935565
O  O133  1  0.71640000  0.26500000  0.75000000  1.0 -0.6036893758
O  O134  1  0.28360000  0.73500000  0.25000000  1.0 -0.6036893758
O  O135  1  0.71640000  0.23500000  0.25000000  1.0 -0.6036893758
O  O136  1  0.28360000  0.76500000  0.75000000  1.0 -0.6036893758
O  O137  1  0.28860000  0.43660000  0.25000000  1.0 -0.7414124044
O  O138  1  0.71140000  0.56340000  0.75000000  1.0 -0.7414124044
O  O139  1  0.28860000  0.06340000  0.75000000  1.0 -0.7414124044
O  O140  1  0.71140000  0.93660000  0.25000000  1.0 -0.7414124044
O  O141  1  0.20300000  0.37150000  0.29481000  1.0 -0.6411816659
O  O142  1  0.79700000  0.62850000  0.79481000  1.0 -0.6411816659
O  O143  1  0.20300000  0.12850000  0.70519000  1.0 -0.6411816659
O  O144  1  0.79700000  0.87150000  0.20519000  1.0 -0.6411816659
O  O145  1  0.79700000  0.62850000  0.70519000  1.0 -0.6411816659
O  O146  1  0.20300000  0.37150000  0.20519000  1.0 -0.6411816659
O  O147  1  0.79700000  0.87150000  0.29481000  1.0 -0.6411816659
O  O148  1  0.20300000  0.12850000  0.79481000  1.0 -0.6411816659
O  O149  1  0.36240000  0.31280000  0.25000000  1.0 -0.5362778636
O  O150  1  0.63760000  0.68720000  0.75000000  1.0 -0.5362778636
O  O151  1  0.36240000  0.18720000  0.75000000  1.0 -0.5362778636
O  O152  1  0.63760000  0.81280000  0.25000000  1.0 -0.5362778636
O  O153  1  0.16290000  0.62720000  0.69490000  1.0 -0.5762506756
O  O154  1  0.83710000  0.37280000  0.19490000  1.0 -0.5762506756
O  O155  1  0.16290000  0.87280000  0.30510000  1.0 -0.5762506756
O  O156  1  0.83710000  0.12720000  0.80510000  1.0 -0.5762506756
O  O157  1  0.83710000  0.37280000  0.30510000  1.0 -0.5762506756
O  O158  1  0.16290000  0.62720000  0.80510000  1.0 -0.5762506756
O  O159  1  0.83710000  0.12720000  0.69490000  1.0 -0.5762506756
O  O160  1  0.16290000  0.87280000  0.19490000  1.0 -0.5762506756
O  O161  1  0.07050000  0.64090000  0.70090000  1.0 -0.6896742615
O  O162  1  0.92950000  0.35910000  0.20090000  1.0 -0.6896742615
O  O163  1  0.07050000  0.85910000  0.29910000  1.0 -0.6896742615
O  O164  1  0.92950000  0.14090000  0.79910000  1.0 -0.6896742615
O  O165  1  0.92950000  0.35910000  0.29910000  1.0 -0.6896742615
O  O166  1  0.07050000  0.64090000  0.79910000  1.0 -0.6896742615
O  O167  1  0.92950000  0.14090000  0.70090000  1.0 -0.6896742615
O  O168  1  0.07050000  0.85910000  0.20090000  1.0 -0.6896742615
O  O169  1  0.78130000  0.29460000  0.25000000  1.0 -0.6083792132
O  O170  1  0.21870000  0.70540000  0.75000000  1.0 -0.6083792132
O  O171  1  0.78130000  0.20540000  0.75000000  1.0 -0.6083792132
O  O172  1  0.21870000  0.79460000  0.25000000  1.0 -0.6083792132
O  O173  1  0.96020000  0.27480000  0.25000000  1.0 -0.5515399607
O  O174  1  0.03980000  0.72520000  0.75000000  1.0 -0.5515399607
O  O175  1  0.96020000  0.22520000  0.75000000  1.0 -0.5515399607
O  O176  1  0.03980000  0.77480000  0.25000000  1.0 -0.5515399607
O  O177  1  0.76190000  0.80150000  0.48730000  1.0 0.0690340666
O  O178  1  0.23810000  0.19850000  0.98730000  1.0 0.0690340666
O  O179  1  0.76190000  0.69850000  0.51270000  1.0 0.0690340666
O  O180  1  0.23810000  0.30150000  0.01270000  1.0 0.0690340666
O  O181  1  0.23810000  0.19850000  0.51270000  1.0 0.0690340666
O  O182  1  0.76190000  0.80150000  0.01270000  1.0 0.0690340666
O  O183  1  0.23810000  0.30150000  0.48730000  1.0 0.0690340666
O  O184  1  0.76190000  0.69850000  0.98730000  1.0 0.0690340666
O  O185  1  0.69650000  0.71260000  0.41850000  1.0 -0.1589613964
O  O186  1  0.30350000  0.28740000  0.91850000  1.0 -0.1589613964
O  O187  1  0.69650000  0.78740000  0.58150000  1.0 -0.1589613964
O  O188  1  0.30350000  0.21260000  0.08150000  1.0 -0.1589613964
O  O189  1  0.30350000  0.28740000  0.58150000  1.0 -0.1589613964
O  O190  1  0.69650000  0.71260000  0.08150000  1.0 -0.1589613964
O  O191  1  0.30350000  0.21260000  0.41850000  1.0 -0.1589613964
O  O192  1  0.69650000  0.78740000  0.91850000  1.0 -0.1589613964
