# DDEC6 charges by PACMAN v1.1 (https://github.com/mtap-research/PACMAN-charge/)
data_OMUMEQ_FSR_pacman
_symmetry_space_group_name_H-M   'P 1'
_cell_length_a   24.08750000
_cell_length_b   27.82620000
_cell_length_c   30.31540000
_cell_angle_alpha   90.00000000
_cell_angle_beta   90.00000000
_cell_angle_gamma   90.00000000
_symmetry_Int_Tables_number   1
_chemical_formula_structural   Eu5H122(C87O26)2
_chemical_formula_sum   'Eu20 H488 C696 O208'
_cell_volume   20319.30891207
_cell_formula_units_Z   4
loop_
 _symmetry_equiv_pos_site_id
 _symmetry_equiv_pos_as_xyz
  1  'x, y, z'
loop_
 _atom_site_type_symbol
 _atom_site_label
 _atom_site_symmetry_multiplicity
 _atom_site_fract_x
 _atom_site_fract_y
 _atom_site_fract_z
 _atom_site_occupancy
 _atom_site_charge
Eu  Eu1  1  0.75636000  0.76293000  0.36313000  1.0 1.7399808036
Eu  Eu2  1  0.24364000  0.23707000  0.86313000  1.0 1.7399808036
Eu  Eu3  1  0.75636000  0.73707000  0.63687000  1.0 1.7399808036
Eu  Eu4  1  0.24364000  0.26293000  0.13687000  1.0 1.7399808036
Eu  Eu5  1  0.24364000  0.23707000  0.63687000  1.0 1.7399808036
Eu  Eu6  1  0.75636000  0.76293000  0.13687000  1.0 1.7399808036
Eu  Eu7  1  0.24364000  0.26293000  0.36313000  1.0 1.7399808036
Eu  Eu8  1  0.75636000  0.73707000  0.86313000  1.0 1.7399808036
Eu  Eu9  1  0.87839000  0.27268000  0.75000000  1.0 1.9262673425
Eu  Eu10  1  0.12161000  0.72732000  0.25000000  1.0 1.9262673425
Eu  Eu11  1  0.87839000  0.22732000  0.25000000  1.0 1.9262673425
Eu  Eu12  1  0.12161000  0.77268000  0.75000000  1.0 1.9262673425
Eu  Eu13  1  0.77383000  0.85184000  0.25000000  1.0 1.8364133008
Eu  Eu14  1  0.22617000  0.14816000  0.75000000  1.0 1.8349414634
Eu  Eu15  1  0.77383000  0.64816000  0.75000000  1.0 1.8364133008
Eu  Eu16  1  0.22617000  0.35184000  0.25000000  1.0 1.8364133008
Eu  Eu17  1  0.61793000  0.29552000  0.25000000  1.0 1.9631798433
Eu  Eu18  1  0.38207000  0.70448000  0.75000000  1.0 1.9631798433
Eu  Eu19  1  0.61793000  0.20448000  0.75000000  1.0 1.9631798433
Eu  Eu20  1  0.38207000  0.79552000  0.25000000  1.0 1.9631798433
H  H1  1  0.72730000  0.32750000  0.27520000  1.0 0.353301754
H  H2  1  0.27270000  0.67250000  0.77520000  1.0 0.353301754
H  H3  1  0.72730000  0.17250000  0.72480000  1.0 0.353301754
H  H4  1  0.27270000  0.82750000  0.22480000  1.0 0.353301754
H  H5  1  0.27270000  0.67250000  0.72480000  1.0 0.353301754
H  H6  1  0.72730000  0.32750000  0.22480000  1.0 0.353301754
H  H7  1  0.27270000  0.82750000  0.27520000  1.0 0.353301754
H  H8  1  0.72730000  0.17250000  0.77520000  1.0 0.353301754
H  H9  1  0.77020000  0.30820000  0.72500000  1.0 0.3627974517
H  H10  1  0.22980000  0.69180000  0.22500000  1.0 0.3627974517
H  H11  1  0.77020000  0.19180000  0.27500000  1.0 0.3627974517
H  H12  1  0.22980000  0.80820000  0.77500000  1.0 0.3627974517
H  H13  1  0.22980000  0.69180000  0.27500000  1.0 0.3627974517
H  H14  1  0.77020000  0.30820000  0.77500000  1.0 0.3627974517
H  H15  1  0.22980000  0.80820000  0.72500000  1.0 0.3627974517
H  H16  1  0.77020000  0.19180000  0.22500000  1.0 0.3627974517
H  H17  1  0.76490000  0.98100000  0.08150000  1.0 0.1181188777
H  H18  1  0.23510000  0.01900000  0.58150000  1.0 0.1181188777
H  H19  1  0.76490000  0.51900000  0.91850000  1.0 0.1181188777
H  H20  1  0.23510000  0.48100000  0.41850000  1.0 0.1181188777
H  H21  1  0.23510000  0.01900000  0.91850000  1.0 0.1181188777
H  H22  1  0.76490000  0.98100000  0.41850000  1.0 0.1181188777
H  H23  1  0.23510000  0.48100000  0.08150000  1.0 0.1181188777
H  H24  1  0.76490000  0.51900000  0.58150000  1.0 0.1181188777
H  H25  1  0.70130000  0.04410000  0.06550000  1.0 0.1181188777
H  H26  1  0.29870000  0.95590000  0.56550000  1.0 0.1181188777
H  H27  1  0.70130000  0.45590000  0.93450000  1.0 0.1181188777
H  H28  1  0.29870000  0.54410000  0.43450000  1.0 0.1181188777
H  H29  1  0.29870000  0.95590000  0.93450000  1.0 0.1181188777
H  H30  1  0.70130000  0.04410000  0.43450000  1.0 0.1181188777
H  H31  1  0.29870000  0.54410000  0.06550000  1.0 0.1181188777
H  H32  1  0.70130000  0.45590000  0.56550000  1.0 0.1181188777
H  H33  1  0.73140000  0.95900000  0.95500000  1.0 0.1181188777
H  H34  1  0.26860000  0.04100000  0.45500000  1.0 0.1181188777
H  H35  1  0.73140000  0.54100000  0.04500000  1.0 0.1181188777
H  H36  1  0.26860000  0.45900000  0.54500000  1.0 0.1181188777
H  H37  1  0.26860000  0.04100000  0.04500000  1.0 0.1181188777
H  H38  1  0.73140000  0.95900000  0.54500000  1.0 0.1181188777
H  H39  1  0.26860000  0.45900000  0.95500000  1.0 0.1181188777
H  H40  1  0.73140000  0.54100000  0.45500000  1.0 0.1181188777
H  H41  1  0.96960000  0.49470000  0.40160000  1.0 0.1117692298
H  H42  1  0.03040000  0.50530000  0.90160000  1.0 0.1117692298
H  H43  1  0.96960000  0.00530000  0.59840000  1.0 0.1117692298
H  H44  1  0.03040000  0.99470000  0.09840000  1.0 0.1117692298
H  H45  1  0.03040000  0.50530000  0.59840000  1.0 0.1117692298
H  H46  1  0.96960000  0.49470000  0.09840000  1.0 0.1117692298
H  H47  1  0.03040000  0.99470000  0.40160000  1.0 0.1117692298
H  H48  1  0.96960000  0.00530000  0.90160000  1.0 0.1117692298
H  H49  1  0.51710000  0.02730000  0.38850000  1.0 0.1117692298
H  H50  1  0.48290000  0.97270000  0.88850000  1.0 0.1117692298
H  H51  1  0.51710000  0.47270000  0.61150000  1.0 0.1117692298
H  H52  1  0.48290000  0.52730000  0.11150000  1.0 0.1117692298
H  H53  1  0.48290000  0.97270000  0.61150000  1.0 0.1117692298
H  H54  1  0.51710000  0.02730000  0.11150000  1.0 0.1117692298
H  H55  1  0.48290000  0.52730000  0.38850000  1.0 0.1117692298
H  H56  1  0.51710000  0.47270000  0.88850000  1.0 0.1117692298
H  H57  1  0.99270000  0.40070000  0.57600000  1.0 0.1009981025
H  H58  1  0.00730000  0.59930000  0.07600000  1.0 0.1009981025
H  H59  1  0.99270000  0.09930000  0.42400000  1.0 0.1009981025
H  H60  1  0.00730000  0.90070000  0.92400000  1.0 0.1009981025
H  H61  1  0.00730000  0.59930000  0.42400000  1.0 0.1009981025
H  H62  1  0.99270000  0.40070000  0.92400000  1.0 0.1009981025
H  H63  1  0.00730000  0.90070000  0.57600000  1.0 0.1009981025
H  H64  1  0.99270000  0.09930000  0.07600000  1.0 0.1009981025
H  H65  1  0.86590000  0.09650000  0.92830000  1.0 0.1117692298
H  H66  1  0.13410000  0.90350000  0.42830000  1.0 0.1117692298
H  H67  1  0.86590000  0.40350000  0.07170000  1.0 0.1117692298
H  H68  1  0.13410000  0.59650000  0.57170000  1.0 0.1117692298
H  H69  1  0.13410000  0.90350000  0.07170000  1.0 0.1117692298
H  H70  1  0.86590000  0.09650000  0.57170000  1.0 0.1117692298
H  H71  1  0.13410000  0.59650000  0.92830000  1.0 0.1117692298
H  H72  1  0.86590000  0.40350000  0.42830000  1.0 0.1117692298
H  H73  1  0.83960000  0.45240000  0.55560000  1.0 0.1009981025
H  H74  1  0.16040000  0.54760000  0.05560000  1.0 0.1009981025
H  H75  1  0.83960000  0.04760000  0.44440000  1.0 0.1009981025
H  H76  1  0.16040000  0.95240000  0.94440000  1.0 0.1009981025
H  H77  1  0.16040000  0.54760000  0.44440000  1.0 0.1009981025
H  H78  1  0.83960000  0.45240000  0.94440000  1.0 0.1009981025
H  H79  1  0.16040000  0.95240000  0.55560000  1.0 0.1009981025
H  H80  1  0.83960000  0.04760000  0.05560000  1.0 0.1009981025
H  H81  1  0.89360000  0.58750000  0.49560000  1.0 0.1117692298
H  H82  1  0.10640000  0.41250000  0.99560000  1.0 0.1117692298
H  H83  1  0.89360000  0.91250000  0.50440000  1.0 0.1117692298
H  H84  1  0.10640000  0.08750000  0.00440000  1.0 0.1117692298
H  H85  1  0.10640000  0.41250000  0.50440000  1.0 0.1117692298
H  H86  1  0.89360000  0.58750000  0.00440000  1.0 0.1117692298
H  H87  1  0.10640000  0.08750000  0.49560000  1.0 0.1117692298
H  H88  1  0.89360000  0.91250000  0.99560000  1.0 0.1117692298
H  H89  1  0.85870000  0.66030000  0.46800000  1.0 0.1181188777
H  H90  1  0.14130000  0.33970000  0.96800000  1.0 0.1181188777
H  H91  1  0.85870000  0.83970000  0.53200000  1.0 0.1181188777
H  H92  1  0.14130000  0.16030000  0.03200000  1.0 0.1181188777
H  H93  1  0.14130000  0.33970000  0.53200000  1.0 0.1181188777
H  H94  1  0.85870000  0.66030000  0.03200000  1.0 0.1181188777
H  H95  1  0.14130000  0.16030000  0.46800000  1.0 0.1181188777
H  H96  1  0.85870000  0.83970000  0.96800000  1.0 0.1181188777
H  H97  1  0.78880000  0.03440000  0.95350000  1.0 0.1181188777
H  H98  1  0.21120000  0.96560000  0.45350000  1.0 0.1181188777
H  H99  1  0.78880000  0.46560000  0.04650000  1.0 0.1181188777
H  H100  1  0.21120000  0.53440000  0.54650000  1.0 0.1181188777
H  H101  1  0.21120000  0.96560000  0.04650000  1.0 0.1181188777
H  H102  1  0.78880000  0.03440000  0.54650000  1.0 0.1181188777
H  H103  1  0.21120000  0.53440000  0.95350000  1.0 0.1181188777
H  H104  1  0.78880000  0.46560000  0.45350000  1.0 0.1181188777
H  H105  1  0.59050000  0.16310000  0.13360000  1.0 0.1181188777
H  H106  1  0.40950000  0.83690000  0.63360000  1.0 0.1181188777
H  H107  1  0.59050000  0.33690000  0.86640000  1.0 0.1181188777
H  H108  1  0.40950000  0.66310000  0.36640000  1.0 0.1181188777
H  H109  1  0.40950000  0.83690000  0.86640000  1.0 0.1181188777
H  H110  1  0.59050000  0.16310000  0.36640000  1.0 0.1181188777
H  H111  1  0.40950000  0.66310000  0.13360000  1.0 0.1181188777
H  H112  1  0.59050000  0.33690000  0.63360000  1.0 0.1181188777
H  H113  1  0.96060000  0.36430000  0.64020000  1.0 0.1117692298
H  H114  1  0.03940000  0.63570000  0.14020000  1.0 0.1117692298
H  H115  1  0.96060000  0.13570000  0.35980000  1.0 0.1117692298
H  H116  1  0.03940000  0.86430000  0.85980000  1.0 0.1117692298
H  H117  1  0.03940000  0.63570000  0.35980000  1.0 0.1117692298
H  H118  1  0.96060000  0.36430000  0.85980000  1.0 0.1117692298
H  H119  1  0.03940000  0.86430000  0.64020000  1.0 0.1117692298
H  H120  1  0.96060000  0.13570000  0.14020000  1.0 0.1117692298
H  H121  1  0.73570000  0.87740000  0.96650000  1.0 0.1009981025
H  H122  1  0.26430000  0.12260000  0.46650000  1.0 0.1009981025
H  H123  1  0.73570000  0.62260000  0.03350000  1.0 0.1009981025
H  H124  1  0.26430000  0.37740000  0.53350000  1.0 0.1009981025
H  H125  1  0.26430000  0.12260000  0.03350000  1.0 0.1009981025
H  H126  1  0.73570000  0.87740000  0.53350000  1.0 0.1009981025
H  H127  1  0.26430000  0.37740000  0.96650000  1.0 0.1009981025
H  H128  1  0.73570000  0.62260000  0.46650000  1.0 0.1009981025
H  H129  1  0.81020000  0.41950000  0.62020000  1.0 0.1117692298
H  H130  1  0.18980000  0.58050000  0.12020000  1.0 0.1117692298
H  H131  1  0.81020000  0.08050000  0.37980000  1.0 0.1117692298
H  H132  1  0.18980000  0.91950000  0.87980000  1.0 0.1117692298
H  H133  1  0.18980000  0.58050000  0.37980000  1.0 0.1117692298
H  H134  1  0.81020000  0.41950000  0.87980000  1.0 0.1117692298
H  H135  1  0.18980000  0.91950000  0.62020000  1.0 0.1117692298
H  H136  1  0.81020000  0.08050000  0.12020000  1.0 0.1117692298
H  H137  1  0.99160000  0.39910000  0.50000000  1.0 0.1117692298
H  H138  1  0.00840000  0.60090000  0.00000000  1.0 0.1117692298
H  H139  1  0.99160000  0.10090000  0.50000000  1.0 0.1117692298
H  H140  1  0.00840000  0.89910000  0.00000000  1.0 0.1117692298
H  H141  1  0.00840000  0.60090000  0.50000000  1.0 0.1117692298
H  H142  1  0.99160000  0.39910000  0.00000000  1.0 0.1117692298
H  H143  1  0.00840000  0.89910000  0.50000000  1.0 0.1117692298
H  H144  1  0.99160000  0.10090000  0.00000000  1.0 0.1117692298
H  H145  1  0.69120000  0.06470000  0.61100000  1.0 0.1117692298
H  H146  1  0.30880000  0.93530000  0.11100000  1.0 0.1117692298
H  H147  1  0.69120000  0.43530000  0.38900000  1.0 0.1117692298
H  H148  1  0.30880000  0.56470000  0.88900000  1.0 0.1117692298
H  H149  1  0.30880000  0.93530000  0.38900000  1.0 0.1117692298
H  H150  1  0.69120000  0.06470000  0.88900000  1.0 0.1117692298
H  H151  1  0.30880000  0.56470000  0.61100000  1.0 0.1117692298
H  H152  1  0.69120000  0.43530000  0.11100000  1.0 0.1117692298
H  H153  1  0.61110000  0.99330000  0.49180000  1.0 0.1117692298
H  H154  1  0.38890000  0.00670000  0.99180000  1.0 0.1117692298
H  H155  1  0.61110000  0.50670000  0.50820000  1.0 0.1117692298
H  H156  1  0.38890000  0.49330000  0.00820000  1.0 0.1117692298
H  H157  1  0.38890000  0.00670000  0.50820000  1.0 0.1117692298
H  H158  1  0.61110000  0.99330000  0.00820000  1.0 0.1117692298
H  H159  1  0.38890000  0.49330000  0.49180000  1.0 0.1117692298
H  H160  1  0.61110000  0.50670000  0.99180000  1.0 0.1117692298
H  H161  1  0.99380000  0.27760000  0.77290000  1.0 0.39594887
H  H162  1  0.00620000  0.72240000  0.27290000  1.0 0.39594887
H  H163  1  0.99380000  0.22240000  0.22710000  1.0 0.39594887
H  H164  1  0.00620000  0.77760000  0.72710000  1.0 0.39594887
H  H165  1  0.00620000  0.72240000  0.22710000  1.0 0.39594887
H  H166  1  0.99380000  0.27760000  0.72710000  1.0 0.39594887
H  H167  1  0.00620000  0.77760000  0.77290000  1.0 0.39594887
H  H168  1  0.99380000  0.22240000  0.27290000  1.0 0.39594887
H  H169  1  0.88390000  0.50850000  0.51350000  1.0 0.1117692298
H  H170  1  0.11610000  0.49150000  0.01350000  1.0 0.1117692298
H  H171  1  0.88390000  0.99150000  0.48650000  1.0 0.1117692298
H  H172  1  0.11610000  0.00850000  0.98650000  1.0 0.1117692298
H  H173  1  0.11610000  0.49150000  0.48650000  1.0 0.1117692298
H  H174  1  0.88390000  0.50850000  0.98650000  1.0 0.1117692298
H  H175  1  0.11610000  0.00850000  0.51350000  1.0 0.1117692298
H  H176  1  0.88390000  0.99150000  0.01350000  1.0 0.1117692298
H  H177  1  0.60240000  0.00460000  0.35340000  1.0 0.1181188777
H  H178  1  0.39760000  0.99540000  0.85340000  1.0 0.1181188777
H  H179  1  0.60240000  0.49540000  0.64660000  1.0 0.1181188777
H  H180  1  0.39760000  0.50460000  0.14660000  1.0 0.1181188777
H  H181  1  0.39760000  0.99540000  0.64660000  1.0 0.1181188777
H  H182  1  0.60240000  0.00460000  0.14660000  1.0 0.1181188777
H  H183  1  0.39760000  0.50460000  0.35340000  1.0 0.1181188777
H  H184  1  0.60240000  0.49540000  0.85340000  1.0 0.1181188777
H  H185  1  0.50490000  0.10310000  0.50100000  1.0 0.1009981025
H  H186  1  0.49510000  0.89690000  0.00100000  1.0 0.1009981025
H  H187  1  0.50490000  0.39690000  0.49900000  1.0 0.1009981025
H  H188  1  0.49510000  0.60310000  0.99900000  1.0 0.1009981025
H  H189  1  0.49510000  0.89690000  0.49900000  1.0 0.1009981025
H  H190  1  0.50490000  0.10310000  0.99900000  1.0 0.1009981025
H  H191  1  0.49510000  0.60310000  0.50100000  1.0 0.1009981025
H  H192  1  0.50490000  0.39690000  0.00100000  1.0 0.1009981025
H  H193  1  0.88880000  0.53130000  0.37460000  1.0 0.1117692298
H  H194  1  0.11120000  0.46870000  0.87460000  1.0 0.1117692298
H  H195  1  0.88880000  0.96870000  0.62540000  1.0 0.1117692298
H  H196  1  0.11120000  0.03130000  0.12540000  1.0 0.1117692298
H  H197  1  0.11120000  0.46870000  0.62540000  1.0 0.1117692298
H  H198  1  0.88880000  0.53130000  0.12540000  1.0 0.1117692298
H  H199  1  0.11120000  0.03130000  0.37460000  1.0 0.1117692298
H  H200  1  0.88880000  0.96870000  0.87460000  1.0 0.1117692298
H  H201  1  0.74270000  0.16190000  0.99830000  1.0 0.1291130798
H  H202  1  0.25730000  0.83810000  0.49830000  1.0 0.1291130798
H  H203  1  0.74270000  0.33810000  0.00170000  1.0 0.1291130798
H  H204  1  0.25730000  0.66190000  0.50170000  1.0 0.1291130798
H  H205  1  0.25730000  0.83810000  0.00170000  1.0 0.1291130798
H  H206  1  0.74270000  0.16190000  0.50170000  1.0 0.1291130798
H  H207  1  0.25730000  0.66190000  0.99830000  1.0 0.1291130798
H  H208  1  0.74270000  0.33810000  0.49830000  1.0 0.1291130798
H  H209  1  0.75160000  0.20140000  0.85310000  1.0 0.1117692298
H  H210  1  0.24840000  0.79860000  0.35310000  1.0 0.1117692298
H  H211  1  0.75160000  0.29860000  0.14690000  1.0 0.1117692298
H  H212  1  0.24840000  0.70140000  0.64690000  1.0 0.1117692298
H  H213  1  0.24840000  0.79860000  0.14690000  1.0 0.1117692298
H  H214  1  0.75160000  0.20140000  0.64690000  1.0 0.1117692298
H  H215  1  0.24840000  0.70140000  0.85310000  1.0 0.1117692298
H  H216  1  0.75160000  0.29860000  0.35310000  1.0 0.1117692298
H  H217  1  0.60160000  0.91680000  0.45660000  1.0 0.1117692298
H  H218  1  0.39840000  0.08320000  0.95660000  1.0 0.1117692298
H  H219  1  0.60160000  0.58320000  0.54340000  1.0 0.1117692298
H  H220  1  0.39840000  0.41680000  0.04340000  1.0 0.1117692298
H  H221  1  0.39840000  0.08320000  0.54340000  1.0 0.1117692298
H  H222  1  0.60160000  0.91680000  0.04340000  1.0 0.1117692298
H  H223  1  0.39840000  0.41680000  0.45660000  1.0 0.1117692298
H  H224  1  0.60160000  0.58320000  0.95660000  1.0 0.1117692298
H  H225  1  0.77270000  0.89890000  0.09230000  1.0 0.1009981025
H  H226  1  0.22730000  0.10110000  0.59230000  1.0 0.1009981025
H  H227  1  0.77270000  0.60110000  0.90770000  1.0 0.1009981025
H  H228  1  0.22730000  0.39890000  0.40770000  1.0 0.1009981025
H  H229  1  0.22730000  0.10110000  0.90770000  1.0 0.1009981025
H  H230  1  0.77270000  0.89890000  0.40770000  1.0 0.1009981025
H  H231  1  0.22730000  0.39890000  0.09230000  1.0 0.1009981025
H  H232  1  0.77270000  0.60110000  0.59230000  1.0 0.1009981025
H  H233  1  0.88160000  0.83410000  0.27440000  1.0 0.2371547127
H  H234  1  0.11840000  0.16590000  0.77440000  1.0 0.2371547127
H  H235  1  0.88160000  0.66590000  0.72560000  1.0 0.2371547127
H  H236  1  0.11840000  0.33410000  0.22560000  1.0 0.2371547127
H  H237  1  0.11840000  0.16590000  0.72560000  1.0 0.2371547127
H  H238  1  0.88160000  0.83410000  0.22560000  1.0 0.2371547127
H  H239  1  0.11840000  0.33410000  0.27440000  1.0 0.2371547127
H  H240  1  0.88160000  0.66590000  0.77440000  1.0 0.2371547127
H  H241  1  0.63970000  0.85730000  0.41450000  1.0 0.1181188777
H  H242  1  0.36030000  0.14270000  0.91450000  1.0 0.1181188777
H  H243  1  0.63970000  0.64270000  0.58550000  1.0 0.1181188777
H  H244  1  0.36030000  0.35730000  0.08550000  1.0 0.1181188777
H  H245  1  0.36030000  0.14270000  0.58550000  1.0 0.1181188777
H  H246  1  0.63970000  0.85730000  0.08550000  1.0 0.1181188777
H  H247  1  0.36030000  0.35730000  0.41450000  1.0 0.1181188777
H  H248  1  0.63970000  0.64270000  0.91450000  1.0 0.1181188777
H  H249  1  0.84990000  0.60240000  0.34790000  1.0 0.1181188777
H  H250  1  0.15010000  0.39760000  0.84790000  1.0 0.1181188777
H  H251  1  0.84990000  0.89760000  0.65210000  1.0 0.1181188777
H  H252  1  0.15010000  0.10240000  0.15210000  1.0 0.1181188777
H  H253  1  0.15010000  0.39760000  0.65210000  1.0 0.1181188777
H  H254  1  0.84990000  0.60240000  0.15210000  1.0 0.1181188777
H  H255  1  0.15010000  0.10240000  0.34790000  1.0 0.1181188777
H  H256  1  0.84990000  0.89760000  0.84790000  1.0 0.1181188777
H  H257  1  0.77120000  0.16790000  0.09030000  1.0 0.1117692298
H  H258  1  0.22880000  0.83210000  0.59030000  1.0 0.1181188777
H  H259  1  0.77120000  0.33210000  0.90970000  1.0 0.1117692298
H  H260  1  0.22880000  0.66790000  0.40970000  1.0 0.1181188777
H  H261  1  0.22880000  0.83210000  0.90970000  1.0 0.1117692298
H  H262  1  0.77120000  0.16790000  0.40970000  1.0 0.1117692298
H  H263  1  0.22880000  0.66790000  0.09030000  1.0 0.1181188777
H  H264  1  0.77120000  0.33210000  0.59030000  1.0 0.1117692298
H  H265  1  0.06240000  0.47560000  0.38610000  1.0 0.1181188777
H  H266  1  0.93760000  0.52440000  0.88610000  1.0 0.1181188777
H  H267  1  0.06240000  0.02440000  0.61390000  1.0 0.1181188777
H  H268  1  0.93760000  0.97560000  0.11390000  1.0 0.1181188777
H  H269  1  0.93760000  0.52440000  0.61390000  1.0 0.1181188777
H  H270  1  0.06240000  0.47560000  0.11390000  1.0 0.1181188777
H  H271  1  0.93760000  0.97560000  0.38610000  1.0 0.1181188777
H  H272  1  0.06240000  0.02440000  0.88610000  1.0 0.1181188777
H  H273  1  0.89880000  0.13860000  0.86840000  1.0 0.1181188777
H  H274  1  0.10120000  0.86140000  0.36840000  1.0 0.1181188777
H  H275  1  0.89880000  0.36140000  0.13160000  1.0 0.1181188777
H  H276  1  0.10120000  0.63860000  0.63160000  1.0 0.1181188777
H  H277  1  0.10120000  0.86140000  0.13160000  1.0 0.1181188777
H  H278  1  0.89880000  0.13860000  0.63160000  1.0 0.1181188777
H  H279  1  0.10120000  0.63860000  0.86840000  1.0 0.1181188777
H  H280  1  0.89880000  0.36140000  0.36840000  1.0 0.1181188777
H  H281  1  0.73720000  0.22440000  0.14180000  1.0 0.1117692298
H  H282  1  0.26280000  0.77560000  0.64180000  1.0 0.1117692298
H  H283  1  0.73720000  0.27560000  0.85820000  1.0 0.1117692298
H  H284  1  0.26280000  0.72440000  0.35820000  1.0 0.1117692298
H  H285  1  0.26280000  0.77560000  0.85820000  1.0 0.1117692298
H  H286  1  0.73720000  0.22440000  0.35820000  1.0 0.1117692298
H  H287  1  0.26280000  0.72440000  0.14180000  1.0 0.1117692298
H  H288  1  0.73720000  0.27560000  0.64180000  1.0 0.1117692298
H  H289  1  0.64300000  0.94510000  0.31130000  1.0 0.1181188777
H  H290  1  0.35700000  0.05490000  0.81130000  1.0 0.1181188777
H  H291  1  0.64300000  0.55490000  0.68870000  1.0 0.1181188777
H  H292  1  0.35700000  0.44510000  0.18870000  1.0 0.1181188777
H  H293  1  0.35700000  0.05490000  0.68870000  1.0 0.1181188777
H  H294  1  0.64300000  0.94510000  0.18870000  1.0 0.1181188777
H  H295  1  0.35700000  0.44510000  0.31130000  1.0 0.1181188777
H  H296  1  0.64300000  0.55490000  0.81130000  1.0 0.1181188777
H  H297  1  0.71980000  0.16210000  0.91400000  1.0 0.1117692298
H  H298  1  0.28020000  0.83790000  0.41400000  1.0 0.1117692298
H  H299  1  0.71980000  0.33790000  0.08600000  1.0 0.1117692298
H  H300  1  0.28020000  0.66210000  0.58600000  1.0 0.1117692298
H  H301  1  0.28020000  0.83790000  0.08600000  1.0 0.1117692298
H  H302  1  0.71980000  0.16210000  0.58600000  1.0 0.1117692298
H  H303  1  0.28020000  0.66210000  0.91400000  1.0 0.1117692298
H  H304  1  0.71980000  0.33790000  0.41400000  1.0 0.1117692298
H  H305  1  0.02290000  0.35200000  0.44890000  1.0 0.1117692298
H  H306  1  0.97710000  0.64800000  0.94890000  1.0 0.1117692298
H  H307  1  0.02290000  0.14800000  0.55110000  1.0 0.1117692298
H  H308  1  0.97710000  0.85200000  0.05110000  1.0 0.1117692298
H  H309  1  0.97710000  0.64800000  0.55110000  1.0 0.1117692298
H  H310  1  0.02290000  0.35200000  0.05110000  1.0 0.1117692298
H  H311  1  0.97710000  0.85200000  0.44890000  1.0 0.1117692298
H  H312  1  0.02290000  0.14800000  0.94890000  1.0 0.1117692298
H  H313  1  0.13060000  0.43290000  0.34940000  1.0 0.1117692298
H  H314  1  0.86940000  0.56710000  0.84940000  1.0 0.1117692298
H  H315  1  0.13060000  0.06710000  0.65060000  1.0 0.1117692298
H  H316  1  0.86940000  0.93290000  0.15060000  1.0 0.1181188777
H  H317  1  0.86940000  0.56710000  0.65060000  1.0 0.1117692298
H  H318  1  0.13060000  0.43290000  0.15060000  1.0 0.1181188777
H  H319  1  0.86940000  0.93290000  0.34940000  1.0 0.1117692298
H  H320  1  0.13060000  0.06710000  0.84940000  1.0 0.1117692298
H  H321  1  0.50760000  0.08800000  0.57440000  1.0 0.1009981025
H  H322  1  0.49240000  0.91200000  0.07440000  1.0 0.1009981025
H  H323  1  0.50760000  0.41200000  0.42560000  1.0 0.1009981025
H  H324  1  0.49240000  0.58800000  0.92560000  1.0 0.1009981025
H  H325  1  0.49240000  0.91200000  0.42560000  1.0 0.1009981025
H  H326  1  0.50760000  0.08800000  0.92560000  1.0 0.1009981025
H  H327  1  0.49240000  0.58800000  0.57440000  1.0 0.1009981025
H  H328  1  0.50760000  0.41200000  0.07440000  1.0 0.1009981025
H  H329  1  0.07900000  0.30980000  0.40050000  1.0 0.1117692298
H  H330  1  0.92100000  0.69020000  0.90050000  1.0 0.1117692298
H  H331  1  0.07900000  0.19020000  0.59950000  1.0 0.1117692298
H  H332  1  0.92100000  0.80980000  0.09950000  1.0 0.1117692298
H  H333  1  0.92100000  0.69020000  0.59950000  1.0 0.1117692298
H  H334  1  0.07900000  0.30980000  0.09950000  1.0 0.1117692298
H  H335  1  0.92100000  0.80980000  0.40050000  1.0 0.1117692298
H  H336  1  0.07900000  0.19020000  0.90050000  1.0 0.1117692298
H  H337  1  0.65150000  0.02880000  0.54960000  1.0 0.1117692298
H  H338  1  0.34850000  0.97120000  0.04960000  1.0 0.1117692298
H  H339  1  0.65150000  0.47120000  0.45040000  1.0 0.1117692298
H  H340  1  0.34850000  0.52880000  0.95040000  1.0 0.1117692298
H  H341  1  0.34850000  0.97120000  0.45040000  1.0 0.1117692298
H  H342  1  0.65150000  0.02880000  0.95040000  1.0 0.1117692298
H  H343  1  0.34850000  0.52880000  0.54960000  1.0 0.1117692298
H  H344  1  0.65150000  0.47120000  0.04960000  1.0 0.1117692298
H  H345  1  0.53850000  0.11620000  0.63990000  1.0 0.1181188777
H  H346  1  0.46150000  0.88380000  0.13990000  1.0 0.1181188777
H  H347  1  0.53850000  0.38380000  0.36010000  1.0 0.1181188777
H  H348  1  0.46150000  0.61620000  0.86010000  1.0 0.1181188777
H  H349  1  0.46150000  0.88380000  0.36010000  1.0 0.1181188777
H  H350  1  0.53850000  0.11620000  0.86010000  1.0 0.1181188777
H  H351  1  0.46150000  0.61620000  0.63990000  1.0 0.1181188777
H  H352  1  0.53850000  0.38380000  0.13990000  1.0 0.1181188777
H  H353  1  0.62380000  0.10830000  0.08370000  1.0 0.1117692298
H  H354  1  0.37620000  0.89170000  0.58370000  1.0 0.1117692298
H  H355  1  0.62380000  0.39170000  0.91630000  1.0 0.1117692298
H  H356  1  0.37620000  0.60830000  0.41630000  1.0 0.1117692298
H  H357  1  0.37620000  0.89170000  0.91630000  1.0 0.1117692298
H  H358  1  0.62380000  0.10830000  0.41630000  1.0 0.1117692298
H  H359  1  0.37620000  0.60830000  0.08370000  1.0 0.1117692298
H  H360  1  0.62380000  0.39170000  0.58370000  1.0 0.1117692298
H  H361  1  0.79180000  0.95010000  0.27290000  1.0 0.3627974517
H  H362  1  0.20820000  0.04990000  0.77290000  1.0 0.3627974517
H  H363  1  0.79180000  0.54990000  0.72710000  1.0 0.3627974517
H  H364  1  0.20820000  0.45010000  0.22710000  1.0 0.3627974517
H  H365  1  0.20820000  0.04990000  0.72710000  1.0 0.3627974517
H  H366  1  0.79180000  0.95010000  0.22710000  1.0 0.3654108512
H  H367  1  0.20820000  0.45010000  0.27290000  1.0 0.3627974517
H  H368  1  0.79180000  0.54990000  0.77290000  1.0 0.3627974517
H  H369  1  0.41540000  0.15980000  0.33590000  1.0 0.1181188777
H  H370  1  0.58460000  0.84020000  0.83590000  1.0 0.1181188777
H  H371  1  0.41540000  0.34020000  0.66410000  1.0 0.1181188777
H  H372  1  0.58460000  0.65980000  0.16410000  1.0 0.1181188777
H  H373  1  0.58460000  0.84020000  0.66410000  1.0 0.1181188777
H  H374  1  0.41540000  0.15980000  0.16410000  1.0 0.1181188777
H  H375  1  0.58460000  0.65980000  0.33590000  1.0 0.1181188777
H  H376  1  0.41540000  0.34020000  0.83590000  1.0 0.1181188777
H  H377  1  0.48080000  0.10270000  0.35870000  1.0 0.0917553459
H  H378  1  0.51920000  0.89730000  0.85870000  1.0 0.0917553459
H  H379  1  0.48080000  0.39730000  0.64130000  1.0 0.0917553459
H  H380  1  0.51920000  0.60270000  0.14130000  1.0 0.0917553459
H  H381  1  0.51920000  0.89730000  0.64130000  1.0 0.0917553459
H  H382  1  0.48080000  0.10270000  0.14130000  1.0 0.0917553459
H  H383  1  0.51920000  0.60270000  0.35870000  1.0 0.0917553459
H  H384  1  0.48080000  0.39730000  0.85870000  1.0 0.0917553459
H  H385  1  0.34880000  0.15740000  0.45730000  1.0 0.1009981025
H  H386  1  0.65120000  0.84260000  0.95730000  1.0 0.1009981025
H  H387  1  0.34880000  0.34260000  0.54270000  1.0 0.1009981025
H  H388  1  0.65120000  0.65740000  0.04270000  1.0 0.1009981025
H  H389  1  0.65120000  0.84260000  0.54270000  1.0 0.1009981025
H  H390  1  0.34880000  0.15740000  0.04270000  1.0 0.1009981025
H  H391  1  0.65120000  0.65740000  0.45730000  1.0 0.1009981025
H  H392  1  0.34880000  0.34260000  0.95730000  1.0 0.1009981025
H  H393  1  0.41980000  0.10790000  0.48060000  1.0 0.1009981025
H  H394  1  0.58020000  0.89210000  0.98060000  1.0 0.1009981025
H  H395  1  0.41980000  0.39210000  0.51940000  1.0 0.1009981025
H  H396  1  0.58020000  0.60790000  0.01940000  1.0 0.1009981025
H  H397  1  0.58020000  0.89210000  0.51940000  1.0 0.1009981025
H  H398  1  0.41980000  0.10790000  0.01940000  1.0 0.1009981025
H  H399  1  0.58020000  0.60790000  0.48060000  1.0 0.1009981025
H  H400  1  0.41980000  0.39210000  0.98060000  1.0 0.1009981025
H  H401  1  0.50280000  0.30270000  0.27290000  1.0 0.3914725648
H  H402  1  0.49720000  0.69730000  0.77290000  1.0 0.3914725648
H  H403  1  0.50280000  0.19730000  0.72710000  1.0 0.3914725648
H  H404  1  0.49720000  0.80270000  0.22710000  1.0 0.3914725648
H  H405  1  0.49720000  0.69730000  0.72710000  1.0 0.3914725648
H  H406  1  0.50280000  0.30270000  0.22710000  1.0 0.3914725648
H  H407  1  0.49720000  0.80270000  0.27290000  1.0 0.3914725648
H  H408  1  0.50280000  0.19730000  0.77290000  1.0 0.3914725648
H  H409  1  0.71680000  0.69210000  0.23270000  1.0 0.0782561242
H  H410  1  0.28320000  0.30790000  0.73270000  1.0 0.0782561242
H  H411  1  0.71680000  0.80790000  0.76730000  1.0 0.0782561242
H  H412  1  0.28320000  0.19210000  0.26730000  1.0 0.0782561242
H  H413  1  0.28320000  0.30790000  0.76730000  1.0 0.0782561242
H  H414  1  0.71680000  0.69210000  0.26730000  1.0 0.0782561242
H  H415  1  0.28320000  0.19210000  0.23270000  1.0 0.0782561242
H  H416  1  0.71680000  0.80790000  0.73270000  1.0 0.0782561242
H  H417  1  0.40880000  0.05350000  0.39230000  1.0 0.1009981025
H  H418  1  0.59120000  0.94650000  0.89230000  1.0 0.1009981025
H  H419  1  0.40880000  0.44650000  0.60770000  1.0 0.1009981025
H  H420  1  0.59120000  0.55350000  0.10770000  1.0 0.1009981025
H  H421  1  0.59120000  0.94650000  0.60770000  1.0 0.1009981025
H  H422  1  0.40880000  0.05350000  0.10770000  1.0 0.1009981025
H  H423  1  0.59120000  0.55350000  0.39230000  1.0 0.1009981025
H  H424  1  0.40880000  0.44650000  0.89230000  1.0 0.1009981025
H  H425  1  0.35370000  0.10920000  0.35760000  1.0 0.1181188777
H  H426  1  0.64630000  0.89080000  0.85760000  1.0 0.1181188777
H  H427  1  0.35370000  0.39080000  0.64240000  1.0 0.1181188777
H  H428  1  0.64630000  0.60920000  0.14240000  1.0 0.1181188777
H  H429  1  0.64630000  0.89080000  0.64240000  1.0 0.1181188777
H  H430  1  0.35370000  0.10920000  0.14240000  1.0 0.1181188777
H  H431  1  0.64630000  0.60920000  0.35760000  1.0 0.1181188777
H  H432  1  0.35370000  0.39080000  0.85760000  1.0 0.1181188777
H  H433  1  0.41240000  0.20940000  0.44040000  1.0 0.1117692298
H  H434  1  0.58760000  0.79060000  0.94040000  1.0 0.1117692298
H  H435  1  0.41240000  0.29060000  0.55960000  1.0 0.1117692298
H  H436  1  0.58760000  0.70940000  0.05960000  1.0 0.1117692298
H  H437  1  0.58760000  0.79060000  0.55960000  1.0 0.1117692298
H  H438  1  0.41240000  0.20940000  0.05960000  1.0 0.1117692298
H  H439  1  0.58760000  0.70940000  0.44040000  1.0 0.1117692298
H  H440  1  0.41240000  0.29060000  0.94040000  1.0 0.1117692298
H  H441  1  0.48200000  0.15760000  0.46240000  1.0 0.1009981025
H  H442  1  0.51800000  0.84240000  0.96240000  1.0 0.1009981025
H  H443  1  0.48200000  0.34240000  0.53760000  1.0 0.1009981025
H  H444  1  0.51800000  0.65760000  0.03760000  1.0 0.1009981025
H  H445  1  0.51800000  0.84240000  0.53760000  1.0 0.1009981025
H  H446  1  0.48200000  0.15760000  0.03760000  1.0 0.1009981025
H  H447  1  0.51800000  0.65760000  0.46240000  1.0 0.1009981025
H  H448  1  0.48200000  0.34240000  0.96240000  1.0 0.1009981025
H  H449  1  0.76550000  0.29960000  0.76990000  1.0 0.260034209
H  H450  1  0.23450000  0.70040000  0.26990000  1.0 0.260034209
H  H451  1  0.76550000  0.20040000  0.23010000  1.0 0.260034209
H  H452  1  0.23450000  0.79960000  0.73010000  1.0 0.260034209
H  H453  1  0.23450000  0.70040000  0.23010000  1.0 0.260034209
H  H454  1  0.76550000  0.29960000  0.73010000  1.0 0.260034209
H  H455  1  0.23450000  0.79960000  0.76990000  1.0 0.260034209
H  H456  1  0.76550000  0.20040000  0.26990000  1.0 0.260034209
H  H457  1  0.73220000  0.31760000  0.23050000  1.0 0.260034209
H  H458  1  0.26780000  0.68240000  0.73050000  1.0 0.260034209
H  H459  1  0.73220000  0.18240000  0.76950000  1.0 0.260034209
H  H460  1  0.26780000  0.81760000  0.26950000  1.0 0.260034209
H  H461  1  0.26780000  0.68240000  0.76950000  1.0 0.260034209
H  H462  1  0.73220000  0.31760000  0.26950000  1.0 0.260034209
H  H463  1  0.26780000  0.81760000  0.23050000  1.0 0.260034209
H  H464  1  0.73220000  0.18240000  0.73050000  1.0 0.260034209
H  H465  1  0.78080000  0.68330000  0.23750000  1.0 0.0917553459
H  H466  1  0.21920000  0.31670000  0.73750000  1.0 0.0917553459
H  H467  1  0.78080000  0.81670000  0.76250000  1.0 0.0917553459
H  H468  1  0.21920000  0.18330000  0.26250000  1.0 0.0917553459
H  H469  1  0.21920000  0.31670000  0.76250000  1.0 0.0917553459
H  H470  1  0.78080000  0.68330000  0.26250000  1.0 0.0917553459
H  H471  1  0.21920000  0.18330000  0.23750000  1.0 0.0917553459
H  H472  1  0.78080000  0.81670000  0.73750000  1.0 0.0917553459
H  H473  1  0.74360000  0.68840000  0.27970000  1.0 0.0688616912
H  H474  1  0.25640000  0.31160000  0.77970000  1.0 0.0688616912
H  H475  1  0.74360000  0.81160000  0.72030000  1.0 0.0688616912
H  H476  1  0.25640000  0.18840000  0.22030000  1.0 0.0688616912
H  H477  1  0.25640000  0.31160000  0.72030000  1.0 0.0688616912
H  H478  1  0.74360000  0.68840000  0.22030000  1.0 0.0688616912
H  H479  1  0.25640000  0.18840000  0.27970000  1.0 0.0688616912
H  H480  1  0.74360000  0.81160000  0.77970000  1.0 0.0688616912
H  H481  1  0.88360000  0.84010000  0.22890000  1.0 0.1741699966
H  H482  1  0.11640000  0.15990000  0.72890000  1.0 0.1741699966
H  H483  1  0.88360000  0.65990000  0.77110000  1.0 0.1741699966
H  H484  1  0.11640000  0.34010000  0.27110000  1.0 0.1741699966
H  H485  1  0.11640000  0.15990000  0.77110000  1.0 0.1741699966
H  H486  1  0.88360000  0.84010000  0.27110000  1.0 0.1741699966
H  H487  1  0.11640000  0.34010000  0.22890000  1.0 0.1741699966
H  H488  1  0.88360000  0.65990000  0.72890000  1.0 0.1741699966
C  C1  1  0.59600000  0.96660000  0.40950000  1.0 0.0688616912
C  C2  1  0.40400000  0.03340000  0.90950000  1.0 0.0688616912
C  C3  1  0.59600000  0.53340000  0.59050000  1.0 0.0688616912
C  C4  1  0.40400000  0.46660000  0.09050000  1.0 0.0688616912
C  C5  1  0.40400000  0.03340000  0.59050000  1.0 0.0688616912
C  C6  1  0.59600000  0.96660000  0.09050000  1.0 0.0688616912
C  C7  1  0.40400000  0.46660000  0.40950000  1.0 0.0688616912
C  C8  1  0.59600000  0.53340000  0.90950000  1.0 0.0688616912
C  C9  1  0.71820000  0.10850000  0.03820000  1.0 0.0917553459
C  C10  1  0.28180000  0.89150000  0.53820000  1.0 0.0917553459
C  C11  1  0.71820000  0.39150000  0.96180000  1.0 0.0917553459
C  C12  1  0.28180000  0.60850000  0.46180000  1.0 0.0917553459
C  C13  1  0.28180000  0.89150000  0.96180000  1.0 0.0917553459
C  C14  1  0.71820000  0.10850000  0.46180000  1.0 0.0917553459
C  C15  1  0.28180000  0.60850000  0.03820000  1.0 0.0917553459
C  C16  1  0.71820000  0.39150000  0.53820000  1.0 0.0917553459
C  C17  1  0.75980000  0.96030000  0.05770000  1.0 -0.151379002
C  C18  1  0.24020000  0.03970000  0.55770000  1.0 -0.151379002
C  C19  1  0.75980000  0.53970000  0.94230000  1.0 -0.151379002
C  C20  1  0.24020000  0.46030000  0.44230000  1.0 -0.151379002
C  C21  1  0.24020000  0.03970000  0.94230000  1.0 -0.151379002
C  C22  1  0.75980000  0.96030000  0.44230000  1.0 -0.151379002
C  C23  1  0.24020000  0.46030000  0.05770000  1.0 -0.151379002
C  C24  1  0.75980000  0.53970000  0.55770000  1.0 -0.151379002
C  C25  1  0.71890000  0.05880000  0.04180000  1.0 -0.1988605639
C  C26  1  0.28110000  0.94120000  0.54180000  1.0 -0.2057863328
C  C27  1  0.71890000  0.44120000  0.95820000  1.0 -0.2057863328
C  C28  1  0.28110000  0.55880000  0.45820000  1.0 -0.2057863328
C  C29  1  0.28110000  0.94120000  0.95820000  1.0 -0.2057863328
C  C30  1  0.71890000  0.05880000  0.45820000  1.0 -0.2057863328
C  C31  1  0.28110000  0.55880000  0.04180000  1.0 -0.2057863328
C  C32  1  0.71890000  0.44120000  0.54180000  1.0 -0.1988605639
C  C33  1  0.56920000  0.00520000  0.43750000  1.0 0.0688616912
C  C34  1  0.43080000  0.99480000  0.93750000  1.0 0.0688616912
C  C35  1  0.56920000  0.49480000  0.56250000  1.0 0.0688616912
C  C36  1  0.43080000  0.50520000  0.06250000  1.0 0.0688616912
C  C37  1  0.43080000  0.99480000  0.56250000  1.0 0.0688616912
C  C38  1  0.56920000  0.00520000  0.06250000  1.0 0.0688616912
C  C39  1  0.43080000  0.50520000  0.43750000  1.0 0.0688616912
C  C40  1  0.56920000  0.49480000  0.93750000  1.0 0.0688616912
C  C41  1  0.50200000  0.07080000  0.44210000  1.0 0.0468655288
C  C42  1  0.49800000  0.92920000  0.94210000  1.0 0.0468655288
C  C43  1  0.50200000  0.42920000  0.55790000  1.0 0.0468655288
C  C44  1  0.49800000  0.57080000  0.05790000  1.0 0.0468655288
C  C45  1  0.49800000  0.92920000  0.55790000  1.0 0.0468655288
C  C46  1  0.50200000  0.07080000  0.05790000  1.0 0.0468655288
C  C47  1  0.49800000  0.57080000  0.44210000  1.0 0.0468655288
C  C48  1  0.50200000  0.42920000  0.94210000  1.0 0.0468655288
C  C49  1  0.76900000  0.10260000  0.96860000  1.0 0.0782561242
C  C50  1  0.23100000  0.89740000  0.46860000  1.0 0.0782561242
C  C51  1  0.76900000  0.39740000  0.03140000  1.0 0.0782561242
C  C52  1  0.23100000  0.60260000  0.53140000  1.0 0.0782561242
C  C53  1  0.23100000  0.89740000  0.03140000  1.0 0.0782561242
C  C54  1  0.76900000  0.10260000  0.53140000  1.0 0.0782561242
C  C55  1  0.23100000  0.60260000  0.96860000  1.0 0.0782561242
C  C56  1  0.76900000  0.39740000  0.46860000  1.0 0.0782561242
C  C57  1  0.73950000  0.94720000  0.98290000  1.0 -0.151379002
C  C58  1  0.26050000  0.05280000  0.48290000  1.0 -0.151379002
C  C59  1  0.73950000  0.55280000  0.01710000  1.0 -0.151379002
C  C60  1  0.26050000  0.44720000  0.51710000  1.0 -0.151379002
C  C61  1  0.26050000  0.05280000  0.01710000  1.0 -0.151379002
C  C62  1  0.73950000  0.94720000  0.51710000  1.0 -0.151379002
C  C63  1  0.26050000  0.44720000  0.98290000  1.0 -0.151379002
C  C64  1  0.73950000  0.55280000  0.48290000  1.0 -0.151379002
C  C65  1  0.96100000  0.48340000  0.42970000  1.0 -0.1988605639
C  C66  1  0.03900000  0.51660000  0.92970000  1.0 -0.1988605639
C  C67  1  0.96100000  0.01660000  0.57030000  1.0 -0.1988605639
C  C68  1  0.03900000  0.98340000  0.07030000  1.0 -0.1988605639
C  C69  1  0.03900000  0.51660000  0.57030000  1.0 -0.1988605639
C  C70  1  0.96100000  0.48340000  0.07030000  1.0 -0.1988605639
C  C71  1  0.03900000  0.98340000  0.42970000  1.0 -0.1988605639
C  C72  1  0.96100000  0.01660000  0.92970000  1.0 -0.1988605639
C  C73  1  0.52770000  0.03320000  0.41750000  1.0 -0.2189443374
C  C74  1  0.47230000  0.96680000  0.91750000  1.0 -0.2189443374
C  C75  1  0.52770000  0.46680000  0.58250000  1.0 -0.2189443374
C  C76  1  0.47230000  0.53320000  0.08250000  1.0 -0.2189443374
C  C77  1  0.47230000  0.96680000  0.58250000  1.0 -0.2189443374
C  C78  1  0.52770000  0.03320000  0.08250000  1.0 -0.2189443374
C  C79  1  0.47230000  0.53320000  0.41750000  1.0 -0.2189443374
C  C80  1  0.52770000  0.46680000  0.91750000  1.0 -0.2189443374
C  C81  1  0.95550000  0.40310000  0.58370000  1.0 -0.162011343
C  C82  1  0.04450000  0.59690000  0.08370000  1.0 -0.162011343
C  C83  1  0.95550000  0.09690000  0.41630000  1.0 -0.162011343
C  C84  1  0.04450000  0.90310000  0.91630000  1.0 -0.162011343
C  C85  1  0.04450000  0.59690000  0.41630000  1.0 -0.162011343
C  C86  1  0.95550000  0.40310000  0.91630000  1.0 -0.162011343
C  C87  1  0.04450000  0.90310000  0.58370000  1.0 -0.162011343
C  C88  1  0.95550000  0.09690000  0.08370000  1.0 -0.162011343
C  C89  1  0.89720000  0.55410000  0.43770000  1.0 0.0688616912
C  C90  1  0.10280000  0.44590000  0.93770000  1.0 0.0688616912
C  C91  1  0.89720000  0.94590000  0.56230000  1.0 0.0688616912
C  C92  1  0.10280000  0.05410000  0.06230000  1.0 0.0688616912
C  C93  1  0.10280000  0.44590000  0.56230000  1.0 0.0688616912
C  C94  1  0.89720000  0.55410000  0.06230000  1.0 0.0688616912
C  C95  1  0.10280000  0.05410000  0.43770000  1.0 0.0688616912
C  C96  1  0.89720000  0.94590000  0.93770000  1.0 0.0688616912
C  C97  1  0.84300000  0.11870000  0.91430000  1.0 -0.151379002
C  C98  1  0.15700000  0.88130000  0.41430000  1.0 -0.151379002
C  C99  1  0.84300000  0.38130000  0.08570000  1.0 -0.151379002
C  C100  1  0.15700000  0.61870000  0.58570000  1.0 -0.151379002
C  C101  1  0.15700000  0.88130000  0.08570000  1.0 -0.151379002
C  C102  1  0.84300000  0.11870000  0.58570000  1.0 -0.151379002
C  C103  1  0.15700000  0.61870000  0.91430000  1.0 -0.151379002
C  C104  1  0.84300000  0.38130000  0.41430000  1.0 -0.151379002
C  C105  1  0.88030000  0.38380000  0.63430000  1.0 -0.0219015693
C  C106  1  0.11970000  0.61620000  0.13430000  1.0 -0.0219015693
C  C107  1  0.88030000  0.11620000  0.36570000  1.0 -0.0219015693
C  C108  1  0.11970000  0.88380000  0.86570000  1.0 -0.0219015693
C  C109  1  0.11970000  0.61620000  0.36570000  1.0 -0.0219015693
C  C110  1  0.88030000  0.38380000  0.86570000  1.0 -0.0219015693
C  C111  1  0.11970000  0.88380000  0.63430000  1.0 -0.0219015693
C  C112  1  0.88030000  0.11620000  0.13430000  1.0 -0.0219015693
C  C113  1  0.86440000  0.43410000  0.57210000  1.0 -0.151379002
C  C114  1  0.13560000  0.56590000  0.07210000  1.0 -0.151379002
C  C115  1  0.86440000  0.06590000  0.42790000  1.0 -0.151379002
C  C116  1  0.13560000  0.93410000  0.92790000  1.0 -0.151379002
C  C117  1  0.13560000  0.56590000  0.42790000  1.0 -0.151379002
C  C118  1  0.86440000  0.43410000  0.92790000  1.0 -0.151379002
C  C119  1  0.13560000  0.93410000  0.57210000  1.0 -0.151379002
C  C120  1  0.86440000  0.06590000  0.07210000  1.0 -0.151379002
C  C121  1  0.88640000  0.59090000  0.46560000  1.0 -0.151379002
C  C122  1  0.11360000  0.40910000  0.96560000  1.0 -0.151379002
C  C123  1  0.88640000  0.90910000  0.53440000  1.0 -0.151379002
C  C124  1  0.11360000  0.09090000  0.03440000  1.0 -0.151379002
C  C125  1  0.11360000  0.40910000  0.53440000  1.0 -0.151379002
C  C126  1  0.88640000  0.59090000  0.03440000  1.0 -0.151379002
C  C127  1  0.11360000  0.09090000  0.46560000  1.0 -0.151379002
C  C128  1  0.88640000  0.90910000  0.96560000  1.0 -0.151379002
C  C129  1  0.86430000  0.63440000  0.44920000  1.0 -0.1104082532
C  C130  1  0.13570000  0.36560000  0.94920000  1.0 -0.1104082532
C  C131  1  0.86430000  0.86560000  0.55080000  1.0 -0.1104082532
C  C132  1  0.13570000  0.13440000  0.05080000  1.0 -0.1104082532
C  C133  1  0.13570000  0.36560000  0.55080000  1.0 -0.1104082532
C  C134  1  0.86430000  0.63440000  0.05080000  1.0 -0.1104082532
C  C135  1  0.13570000  0.13440000  0.44920000  1.0 -0.1104082532
C  C136  1  0.86430000  0.86560000  0.94920000  1.0 -0.1104082532
C  C137  1  0.77050000  0.05320000  0.97430000  1.0 -0.2057863328
C  C138  1  0.22950000  0.94680000  0.47430000  1.0 -0.2057863328
C  C139  1  0.77050000  0.44680000  0.02570000  1.0 -0.2057863328
C  C140  1  0.22950000  0.55320000  0.52570000  1.0 -0.2057863328
C  C141  1  0.22950000  0.94680000  0.02570000  1.0 -0.2057863328
C  C142  1  0.77050000  0.05320000  0.52570000  1.0 -0.2057863328
C  C143  1  0.22950000  0.55320000  0.97430000  1.0 -0.2057863328
C  C144  1  0.77050000  0.44680000  0.47430000  1.0 -0.2057863328
C  C145  1  0.62790000  0.16380000  0.12600000  1.0 -0.1016405186
C  C146  1  0.37210000  0.83620000  0.62600000  1.0 -0.1016405186
C  C147  1  0.62790000  0.33620000  0.87400000  1.0 -0.1016405186
C  C148  1  0.37210000  0.66380000  0.37400000  1.0 -0.1016405186
C  C149  1  0.37210000  0.83620000  0.87400000  1.0 -0.1016405186
C  C150  1  0.62790000  0.16380000  0.37400000  1.0 -0.1016405186
C  C151  1  0.37210000  0.66380000  0.12600000  1.0 -0.1016405186
C  C152  1  0.62790000  0.33620000  0.62600000  1.0 -0.1016405186
C  C153  1  0.92260000  0.50690000  0.45440000  1.0 0.0688616912
C  C154  1  0.07740000  0.49310000  0.95440000  1.0 0.0688616912
C  C155  1  0.92260000  0.99310000  0.54560000  1.0 0.0688616912
C  C156  1  0.07740000  0.00690000  0.04560000  1.0 0.0688616912
C  C157  1  0.07740000  0.49310000  0.54560000  1.0 0.0688616912
C  C158  1  0.92260000  0.50690000  0.04560000  1.0 0.0688616912
C  C159  1  0.07740000  0.00690000  0.45440000  1.0 0.0688616912
C  C160  1  0.92260000  0.99310000  0.95440000  1.0 0.0688616912
C  C161  1  0.93590000  0.38100000  0.62230000  1.0 -0.1016405186
C  C162  1  0.06410000  0.61900000  0.12230000  1.0 -0.1016405186
C  C163  1  0.93590000  0.11900000  0.37770000  1.0 -0.1016405186
C  C164  1  0.06410000  0.88100000  0.87770000  1.0 -0.1016405186
C  C165  1  0.06410000  0.61900000  0.37770000  1.0 -0.1016405186
C  C166  1  0.93590000  0.38100000  0.87770000  1.0 -0.1016405186
C  C167  1  0.06410000  0.88100000  0.62230000  1.0 -0.1016405186
C  C168  1  0.93590000  0.11900000  0.12230000  1.0 -0.1016405186
C  C169  1  0.74920000  0.97870000  0.01750000  1.0 0.0607606123
C  C170  1  0.25080000  0.02130000  0.51750000  1.0 0.0607606123
C  C171  1  0.74920000  0.52130000  0.98250000  1.0 0.0607606123
C  C172  1  0.25080000  0.47870000  0.48250000  1.0 0.0607606123
C  C173  1  0.25080000  0.02130000  0.98250000  1.0 0.0607606123
C  C174  1  0.74920000  0.97870000  0.48250000  1.0 0.0607606123
C  C175  1  0.25080000  0.47870000  0.01750000  1.0 0.0607606123
C  C176  1  0.74920000  0.52130000  0.51750000  1.0 0.0607606123
C  C177  1  0.74200000  0.89820000  0.99000000  1.0 -0.1188727369
C  C178  1  0.25800000  0.10180000  0.49000000  1.0 -0.1188727369
C  C179  1  0.74200000  0.60180000  0.01000000  1.0 -0.1188727369
C  C180  1  0.25800000  0.39820000  0.51000000  1.0 -0.1188727369
C  C181  1  0.25800000  0.10180000  0.01000000  1.0 -0.1188727369
C  C182  1  0.74200000  0.89820000  0.51000000  1.0 -0.1188727369
C  C183  1  0.25800000  0.39820000  0.99000000  1.0 -0.1188727369
C  C184  1  0.74200000  0.60180000  0.49000000  1.0 -0.1188727369
C  C185  1  0.84610000  0.41350000  0.61030000  1.0 -0.1104082532
C  C186  1  0.15390000  0.58650000  0.11030000  1.0 -0.1104082532
C  C187  1  0.84610000  0.08650000  0.38970000  1.0 -0.1104082532
C  C188  1  0.15390000  0.91350000  0.88970000  1.0 -0.1104082532
C  C189  1  0.15390000  0.58650000  0.38970000  1.0 -0.1104082532
C  C190  1  0.84610000  0.41350000  0.88970000  1.0 -0.1104082532
C  C191  1  0.15390000  0.91350000  0.61030000  1.0 -0.1104082532
C  C192  1  0.84610000  0.08650000  0.11030000  1.0 -0.1104082532
C  C193  1  0.64820000  0.89540000  0.35910000  1.0 -0.0271277516
C  C194  1  0.35180000  0.10460000  0.85910000  1.0 -0.0271277516
C  C195  1  0.64820000  0.60460000  0.64090000  1.0 -0.0271277516
C  C196  1  0.35180000  0.39540000  0.14090000  1.0 -0.0271277516
C  C197  1  0.35180000  0.10460000  0.64090000  1.0 -0.0271277516
C  C198  1  0.64820000  0.89540000  0.14090000  1.0 -0.0271277516
C  C199  1  0.35180000  0.39540000  0.35910000  1.0 -0.0271277516
C  C200  1  0.64820000  0.60460000  0.85910000  1.0 -0.0271277516
C  C201  1  0.93460000  0.45020000  0.51360000  1.0 0.0782561242
C  C202  1  0.06540000  0.54980000  0.01360000  1.0 0.0782561242
C  C203  1  0.93460000  0.04980000  0.48640000  1.0 0.0782561242
C  C204  1  0.06540000  0.95020000  0.98640000  1.0 0.0782561242
C  C205  1  0.06540000  0.54980000  0.48640000  1.0 0.0782561242
C  C206  1  0.93460000  0.45020000  0.98640000  1.0 0.0782561242
C  C207  1  0.06540000  0.95020000  0.51360000  1.0 0.0782561242
C  C208  1  0.93460000  0.04980000  0.01360000  1.0 0.0782561242
C  C209  1  0.97430000  0.42610000  0.48830000  1.0 -0.1988605639
C  C210  1  0.02570000  0.57390000  0.98830000  1.0 -0.1988605639
C  C211  1  0.97430000  0.07390000  0.51170000  1.0 -0.1988605639
C  C212  1  0.02570000  0.92610000  0.01170000  1.0 -0.1988605639
C  C213  1  0.02570000  0.57390000  0.51170000  1.0 -0.1988605639
C  C214  1  0.97430000  0.42610000  0.01170000  1.0 -0.1988605639
C  C215  1  0.02570000  0.92610000  0.48830000  1.0 -0.1988605639
C  C216  1  0.97430000  0.07390000  0.98830000  1.0 -0.1988605639
C  C217  1  0.56120000  0.04950000  0.50450000  1.0 0.1009981025
C  C218  1  0.43880000  0.95050000  0.00450000  1.0 0.1009981025
C  C219  1  0.56120000  0.45050000  0.49550000  1.0 0.1009981025
C  C220  1  0.43880000  0.54950000  0.99550000  1.0 0.1009981025
C  C221  1  0.43880000  0.95050000  0.49550000  1.0 0.1009981025
C  C222  1  0.56120000  0.04950000  0.99550000  1.0 0.1009981025
C  C223  1  0.43880000  0.54950000  0.50450000  1.0 0.1009981025
C  C224  1  0.56120000  0.45050000  0.00450000  1.0 0.1009981025
C  C225  1  0.75360000  0.87930000  0.03090000  1.0 -0.0271277516
C  C226  1  0.24640000  0.12070000  0.53090000  1.0 -0.0271277516
C  C227  1  0.75360000  0.62070000  0.96910000  1.0 -0.0271277516
C  C228  1  0.24640000  0.37930000  0.46910000  1.0 -0.0271277516
C  C229  1  0.24640000  0.12070000  0.96910000  1.0 -0.0271277516
C  C230  1  0.75360000  0.87930000  0.46910000  1.0 -0.0271277516
C  C231  1  0.24640000  0.37930000  0.03090000  1.0 -0.0271277516
C  C232  1  0.75360000  0.62070000  0.53090000  1.0 -0.0271277516
C  C233  1  0.65400000  0.06970000  0.60410000  1.0 -0.1016405186
C  C234  1  0.34600000  0.93030000  0.10410000  1.0 -0.1016405186
C  C235  1  0.65400000  0.43030000  0.39590000  1.0 -0.1016405186
C  C236  1  0.34600000  0.56970000  0.89590000  1.0 -0.1016405186
C  C237  1  0.34600000  0.93030000  0.39590000  1.0 -0.1016405186
C  C238  1  0.65400000  0.06970000  0.89590000  1.0 -0.1016405186
C  C239  1  0.34600000  0.56970000  0.60410000  1.0 -0.1016405186
C  C240  1  0.65400000  0.43030000  0.10410000  1.0 -0.1016405186
C  C241  1  0.58420000  0.01300000  0.47920000  1.0 -0.1923529153
C  C242  1  0.41580000  0.98700000  0.97920000  1.0 -0.1923529153
C  C243  1  0.58420000  0.48700000  0.52080000  1.0 -0.1923529153
C  C244  1  0.41580000  0.51300000  0.02080000  1.0 -0.1923529153
C  C245  1  0.41580000  0.98700000  0.52080000  1.0 -0.1923529153
C  C246  1  0.58420000  0.01300000  0.02080000  1.0 -0.1923529153
C  C247  1  0.41580000  0.51300000  0.47920000  1.0 -0.1923529153
C  C248  1  0.58420000  0.48700000  0.97920000  1.0 -0.1923529153
C  C249  1  0.74530000  0.03090000  0.01050000  1.0 0.0607606123
C  C250  1  0.25470000  0.96910000  0.51050000  1.0 0.0607606123
C  C251  1  0.74530000  0.46910000  0.98950000  1.0 0.0607606123
C  C252  1  0.25470000  0.53090000  0.48950000  1.0 0.0607606123
C  C253  1  0.25470000  0.96910000  0.98950000  1.0 0.0607606123
C  C254  1  0.74530000  0.03090000  0.48950000  1.0 0.0607606123
C  C255  1  0.25470000  0.53090000  0.01050000  1.0 0.0607606123
C  C256  1  0.74530000  0.46910000  0.51050000  1.0 0.0607606123
C  C257  1  0.58070000  0.06330000  0.55090000  1.0 0.0688616912
C  C258  1  0.41930000  0.93670000  0.05090000  1.0 0.0688616912
C  C259  1  0.58070000  0.43670000  0.44910000  1.0 0.0688616912
C  C260  1  0.41930000  0.56330000  0.94910000  1.0 0.0688616912
C  C261  1  0.41930000  0.93670000  0.44910000  1.0 0.0688616912
C  C262  1  0.58070000  0.06330000  0.94910000  1.0 0.0688616912
C  C263  1  0.41930000  0.56330000  0.55090000  1.0 0.0688616912
C  C264  1  0.58070000  0.43670000  0.05090000  1.0 0.0688616912
C  C265  1  0.90950000  0.49150000  0.49660000  1.0 -0.1923529153
C  C266  1  0.09050000  0.50850000  0.99660000  1.0 -0.1923529153
C  C267  1  0.90950000  0.00850000  0.50340000  1.0 -0.1923529153
C  C268  1  0.09050000  0.99150000  0.00340000  1.0 -0.1923529153
C  C269  1  0.09050000  0.50850000  0.50340000  1.0 -0.1923529153
C  C270  1  0.90950000  0.49150000  0.00340000  1.0 -0.1923529153
C  C271  1  0.09050000  0.99150000  0.49660000  1.0 -0.1923529153
C  C272  1  0.90950000  0.00850000  0.99660000  1.0 -0.1923529153
C  C273  1  0.61840000  0.09740000  0.63310000  1.0 -0.0401090031
C  C274  1  0.38160000  0.90260000  0.13310000  1.0 -0.0401090031
C  C275  1  0.61840000  0.40260000  0.36690000  1.0 -0.0401090031
C  C276  1  0.38160000  0.59740000  0.86690000  1.0 -0.0401090031
C  C277  1  0.38160000  0.90260000  0.36690000  1.0 -0.0401090031
C  C278  1  0.61840000  0.09740000  0.86690000  1.0 -0.0401090031
C  C279  1  0.38160000  0.59740000  0.63310000  1.0 -0.0401090031
C  C280  1  0.61840000  0.40260000  0.13310000  1.0 -0.0401090031
C  C281  1  0.60990000  0.97480000  0.36600000  1.0 -0.1672822009
C  C282  1  0.39010000  0.02520000  0.86600000  1.0 -0.1672822009
C  C283  1  0.60990000  0.52520000  0.63400000  1.0 -0.1672822009
C  C284  1  0.39010000  0.47480000  0.13400000  1.0 -0.1672822009
C  C285  1  0.39010000  0.02520000  0.63400000  1.0 -0.1672822009
C  C286  1  0.60990000  0.97480000  0.13400000  1.0 -0.1672822009
C  C287  1  0.39010000  0.47480000  0.36600000  1.0 -0.1672822009
C  C288  1  0.60990000  0.52520000  0.86600000  1.0 -0.1672822009
C  C289  1  0.52030000  0.07810000  0.48480000  1.0 -0.2320473792
C  C290  1  0.47970000  0.92190000  0.98480000  1.0 -0.2320473792
C  C291  1  0.52030000  0.42190000  0.51520000  1.0 -0.2320473792
C  C292  1  0.47970000  0.57810000  0.01520000  1.0 -0.2320473792
C  C293  1  0.47970000  0.92190000  0.51520000  1.0 -0.2320473792
C  C294  1  0.52030000  0.07810000  0.01520000  1.0 -0.2320473792
C  C295  1  0.47970000  0.57810000  0.48480000  1.0 -0.2320473792
C  C296  1  0.52030000  0.42190000  0.98480000  1.0 -0.2320473792
C  C297  1  0.88290000  0.55720000  0.39340000  1.0 -0.1672822009
C  C298  1  0.11710000  0.44280000  0.89340000  1.0 -0.1672822009
C  C299  1  0.88290000  0.94280000  0.60660000  1.0 -0.1672822009
C  C300  1  0.11710000  0.05720000  0.10660000  1.0 -0.1672822009
C  C301  1  0.11710000  0.44280000  0.60660000  1.0 -0.1672822009
C  C302  1  0.88290000  0.55720000  0.10660000  1.0 -0.1672822009
C  C303  1  0.11710000  0.05720000  0.39340000  1.0 -0.1672822009
C  C304  1  0.88290000  0.94280000  0.89340000  1.0 -0.1672822009
C  C305  1  0.74340000  0.12860000  0.00120000  1.0 -0.2057863328
C  C306  1  0.25660000  0.87140000  0.50120000  1.0 -0.2057863328
C  C307  1  0.74340000  0.37140000  0.99880000  1.0 -0.2057863328
C  C308  1  0.25660000  0.62860000  0.49880000  1.0 -0.2057863328
C  C309  1  0.25660000  0.87140000  0.99880000  1.0 -0.2057863328
C  C310  1  0.74340000  0.12860000  0.49880000  1.0 -0.2057863328
C  C311  1  0.25660000  0.62860000  0.00120000  1.0 -0.2057863328
C  C312  1  0.74340000  0.37140000  0.50120000  1.0 -0.2057863328
C  C313  1  0.77550000  0.18150000  0.86880000  1.0 -0.1016405186
C  C314  1  0.22450000  0.81850000  0.36880000  1.0 -0.1016405186
C  C315  1  0.77550000  0.31850000  0.13120000  1.0 -0.1016405186
C  C316  1  0.22450000  0.68150000  0.63120000  1.0 -0.1016405186
C  C317  1  0.22450000  0.81850000  0.13120000  1.0 -0.1016405186
C  C318  1  0.77550000  0.18150000  0.63120000  1.0 -0.1016405186
C  C319  1  0.22450000  0.68150000  0.86880000  1.0 -0.1016405186
C  C320  1  0.77550000  0.31850000  0.36880000  1.0 -0.1016405186
C  C321  1  0.74920000  0.69930000  0.25000000  1.0 -0.3881266547
C  C322  1  0.25080000  0.30070000  0.75000000  1.0 -0.3881266547
C  C323  1  0.74920000  0.80070000  0.75000000  1.0 -0.3881266547
C  C324  1  0.25080000  0.19930000  0.25000000  1.0 -0.3881266547
C  C325  1  0.98840000  0.44140000  0.44640000  1.0 0.0688616912
C  C326  1  0.01160000  0.55860000  0.94640000  1.0 0.0688616912
C  C327  1  0.98840000  0.05860000  0.55360000  1.0 0.0688616912
C  C328  1  0.01160000  0.94140000  0.05360000  1.0 0.0688616912
C  C329  1  0.01160000  0.55860000  0.55360000  1.0 0.0688616912
C  C330  1  0.98840000  0.44140000  0.05360000  1.0 0.0688616912
C  C331  1  0.01160000  0.94140000  0.44640000  1.0 0.0688616912
C  C332  1  0.98840000  0.05860000  0.94640000  1.0 0.0688616912
C  C333  1  0.45940000  0.10190000  0.42380000  1.0 0.0468655288
C  C334  1  0.54060000  0.89810000  0.92380000  1.0 0.0468655288
C  C335  1  0.45940000  0.39810000  0.57620000  1.0 0.0468655288
C  C336  1  0.54060000  0.60190000  0.07620000  1.0 0.0468655288
C  C337  1  0.54060000  0.89810000  0.57620000  1.0 0.0468655288
C  C338  1  0.45940000  0.10190000  0.07620000  1.0 0.0468655288
C  C339  1  0.54060000  0.60190000  0.42380000  1.0 0.0468655288
C  C340  1  0.45940000  0.39810000  0.92380000  1.0 0.0468655288
C  C341  1  0.60920000  0.92270000  0.42700000  1.0 -0.1672822009
C  C342  1  0.39080000  0.07730000  0.92700000  1.0 -0.1672822009
C  C343  1  0.60920000  0.57730000  0.57300000  1.0 -0.1672822009
C  C344  1  0.39080000  0.42270000  0.07300000  1.0 -0.1672822009
C  C345  1  0.39080000  0.07730000  0.57300000  1.0 -0.1672822009
C  C346  1  0.60920000  0.92270000  0.07300000  1.0 -0.1672822009
C  C347  1  0.39080000  0.42270000  0.42700000  1.0 -0.1672822009
C  C348  1  0.60920000  0.57730000  0.92700000  1.0 -0.1672822009
C  C349  1  0.79020000  0.12610000  0.92980000  1.0 0.0607606123
C  C350  1  0.20980000  0.87390000  0.42980000  1.0 0.0607606123
C  C351  1  0.79020000  0.37390000  0.07020000  1.0 0.0607606123
C  C352  1  0.20980000  0.62610000  0.57020000  1.0 0.0607606123
C  C353  1  0.20980000  0.87390000  0.07020000  1.0 0.0607606123
C  C354  1  0.79020000  0.12610000  0.57020000  1.0 0.0607606123
C  C355  1  0.20980000  0.62610000  0.92980000  1.0 0.0607606123
C  C356  1  0.79020000  0.37390000  0.42980000  1.0 0.0607606123
C  C357  1  0.03020000  0.41710000  0.42050000  1.0 0.0688616912
C  C358  1  0.96980000  0.58290000  0.92050000  1.0 0.0688616912
C  C359  1  0.03020000  0.08290000  0.57950000  1.0 0.0688616912
C  C360  1  0.96980000  0.91710000  0.07950000  1.0 0.0688616912
C  C361  1  0.96980000  0.58290000  0.57950000  1.0 0.0688616912
C  C362  1  0.03020000  0.41710000  0.07950000  1.0 0.0688616912
C  C363  1  0.96980000  0.91710000  0.42050000  1.0 0.0688616912
C  C364  1  0.03020000  0.08290000  0.92050000  1.0 0.0688616912
C  C365  1  0.76350000  0.91060000  0.06450000  1.0 -0.1188727369
C  C366  1  0.23650000  0.08940000  0.56450000  1.0 -0.1188727369
C  C367  1  0.76350000  0.58940000  0.93550000  1.0 -0.1188727369
C  C368  1  0.23650000  0.41060000  0.43550000  1.0 -0.1188727369
C  C369  1  0.23650000  0.08940000  0.93550000  1.0 -0.1188727369
C  C370  1  0.76350000  0.91060000  0.43550000  1.0 -0.1188727369
C  C371  1  0.23650000  0.41060000  0.06450000  1.0 -0.1188727369
C  C372  1  0.76350000  0.58940000  0.56450000  1.0 -0.1188727369
C  C373  1  0.75800000  0.74730000  0.25000000  1.0 0.4893727915
C  C374  1  0.24200000  0.25270000  0.75000000  1.0 0.4964898394
C  C375  1  0.75800000  0.75270000  0.75000000  1.0 0.4964898394
C  C376  1  0.24200000  0.24730000  0.25000000  1.0 0.4893727915
C  C377  1  0.91830000  0.42910000  0.55670000  1.0 0.0607606123
C  C378  1  0.08170000  0.57090000  0.05670000  1.0 0.0607606123
C  C379  1  0.91830000  0.07090000  0.44330000  1.0 0.0607606123
C  C380  1  0.08170000  0.92910000  0.94330000  1.0 0.0607606123
C  C381  1  0.08170000  0.57090000  0.44330000  1.0 0.0607606123
C  C382  1  0.91830000  0.42910000  0.94330000  1.0 0.0607606123
C  C383  1  0.08170000  0.92910000  0.55670000  1.0 0.0607606123
C  C384  1  0.91830000  0.07090000  0.05670000  1.0 0.0607606123
C  C385  1  0.69630000  0.13880000  0.07510000  1.0 0.0607606123
C  C386  1  0.30370000  0.86120000  0.57510000  1.0 0.0607606123
C  C387  1  0.69630000  0.36120000  0.92490000  1.0 0.0607606123
C  C388  1  0.30370000  0.63880000  0.42490000  1.0 0.0607606123
C  C389  1  0.30370000  0.86120000  0.92490000  1.0 0.0607606123
C  C390  1  0.69630000  0.13880000  0.42490000  1.0 0.0607606123
C  C391  1  0.30370000  0.63880000  0.07510000  1.0 0.0607606123
C  C392  1  0.69630000  0.36120000  0.57510000  1.0 0.0607606123
C  C393  1  0.84860000  0.20690000  0.81700000  1.0 0.5416717248
C  C394  1  0.15140000  0.79310000  0.31700000  1.0 0.5416717248
C  C395  1  0.84860000  0.29310000  0.18300000  1.0 0.5416717248
C  C396  1  0.15140000  0.70690000  0.68300000  1.0 0.5416717248
C  C397  1  0.15140000  0.79310000  0.18300000  1.0 0.5416717248
C  C398  1  0.84860000  0.20690000  0.68300000  1.0 0.5416717248
C  C399  1  0.15140000  0.70690000  0.81700000  1.0 0.5416717248
C  C400  1  0.84860000  0.29310000  0.31700000  1.0 0.5416717248
C  C401  1  0.85790000  0.35820000  0.67440000  1.0 0.5957340168
C  C402  1  0.14210000  0.64180000  0.17440000  1.0 0.5957340168
C  C403  1  0.85790000  0.14180000  0.32560000  1.0 0.5957340168
C  C404  1  0.14210000  0.85820000  0.82560000  1.0 0.5957340168
C  C405  1  0.14210000  0.64180000  0.32560000  1.0 0.5957340168
C  C406  1  0.85790000  0.35820000  0.82560000  1.0 0.5957340168
C  C407  1  0.14210000  0.85820000  0.67440000  1.0 0.5957340168
C  C408  1  0.85790000  0.14180000  0.17440000  1.0 0.5957340168
C  C409  1  0.64520000  0.22830000  0.18280000  1.0 0.5618083643
C  C410  1  0.35480000  0.77170000  0.68280000  1.0 0.5618083643
C  C411  1  0.64520000  0.27170000  0.81720000  1.0 0.5618083643
C  C412  1  0.35480000  0.72830000  0.31720000  1.0 0.5618083643
C  C413  1  0.35480000  0.77170000  0.81720000  1.0 0.5618083643
C  C414  1  0.64520000  0.22830000  0.31720000  1.0 0.5618083643
C  C415  1  0.35480000  0.72830000  0.18280000  1.0 0.5618083643
C  C416  1  0.64520000  0.27170000  0.68280000  1.0 0.5618083643
C  C417  1  0.68040000  0.85950000  0.33270000  1.0 0.623252021
C  C418  1  0.31960000  0.14050000  0.83270000  1.0 0.623252021
C  C419  1  0.68040000  0.64050000  0.66730000  1.0 0.623252021
C  C420  1  0.31960000  0.35950000  0.16730000  1.0 0.623252021
C  C421  1  0.31960000  0.14050000  0.66730000  1.0 0.623252021
C  C422  1  0.68040000  0.85950000  0.16730000  1.0 0.623252021
C  C423  1  0.31960000  0.35950000  0.33270000  1.0 0.623252021
C  C424  1  0.68040000  0.64050000  0.83270000  1.0 0.623252021
C  C425  1  0.63330000  0.88740000  0.40210000  1.0 -0.0902083398
C  C426  1  0.36670000  0.11260000  0.90210000  1.0 -0.0902083398
C  C427  1  0.63330000  0.61260000  0.59790000  1.0 -0.0902083398
C  C428  1  0.36670000  0.38740000  0.09790000  1.0 -0.0902083398
C  C429  1  0.36670000  0.11260000  0.59790000  1.0 -0.0902083398
C  C430  1  0.63330000  0.88740000  0.09790000  1.0 -0.0902083398
C  C431  1  0.36670000  0.38740000  0.40210000  1.0 -0.0902083398
C  C432  1  0.63330000  0.61260000  0.90210000  1.0 -0.0902083398
C  C433  1  0.85120000  0.63840000  0.40500000  1.0 -0.0487034448
C  C434  1  0.14880000  0.36160000  0.90500000  1.0 -0.0487034448
C  C435  1  0.85120000  0.86160000  0.59500000  1.0 -0.0487034448
C  C436  1  0.14880000  0.13840000  0.09500000  1.0 -0.0487034448
C  C437  1  0.14880000  0.36160000  0.59500000  1.0 -0.0487034448
C  C438  1  0.85120000  0.63840000  0.09500000  1.0 -0.0487034448
C  C439  1  0.14880000  0.13840000  0.40500000  1.0 -0.0487034448
C  C440  1  0.85120000  0.86160000  0.90500000  1.0 -0.0487034448
C  C441  1  0.82930000  0.17650000  0.85550000  1.0 -0.0071693492
C  C442  1  0.17070000  0.82350000  0.35550000  1.0 -0.0071693492
C  C443  1  0.82930000  0.32350000  0.14450000  1.0 -0.0071693492
C  C444  1  0.17070000  0.67650000  0.64450000  1.0 -0.0071693492
C  C445  1  0.17070000  0.82350000  0.14450000  1.0 -0.0071693492
C  C446  1  0.82930000  0.17650000  0.64450000  1.0 -0.0071693492
C  C447  1  0.17070000  0.67650000  0.85550000  1.0 -0.0071693492
C  C448  1  0.82930000  0.32350000  0.35550000  1.0 -0.0071693492
C  C449  1  0.85970000  0.60000000  0.37750000  1.0 -0.0824104875
C  C450  1  0.14030000  0.40000000  0.87750000  1.0 -0.0824104875
C  C451  1  0.85970000  0.90000000  0.62250000  1.0 -0.0824104875
C  C452  1  0.14030000  0.10000000  0.12250000  1.0 -0.0824104875
C  C453  1  0.14030000  0.40000000  0.62250000  1.0 -0.0824104875
C  C454  1  0.85970000  0.60000000  0.12250000  1.0 -0.0824104875
C  C455  1  0.14030000  0.10000000  0.37750000  1.0 -0.0824104875
C  C456  1  0.85970000  0.90000000  0.87750000  1.0 -0.0824104875
C  C457  1  0.82080000  0.68180000  0.38910000  1.0 0.4551857504
C  C458  1  0.17920000  0.31820000  0.88910000  1.0 0.4551857504
C  C459  1  0.82080000  0.81820000  0.61090000  1.0 0.4551857504
C  C460  1  0.17920000  0.18180000  0.11090000  1.0 0.4551857504
C  C461  1  0.17920000  0.31820000  0.61090000  1.0 0.4551857504
C  C462  1  0.82080000  0.68180000  0.11090000  1.0 0.4551857504
C  C463  1  0.17920000  0.18180000  0.38910000  1.0 0.4551857504
C  C464  1  0.82080000  0.81820000  0.88910000  1.0 0.4551857504
C  C465  1  0.66230000  0.19500000  0.14760000  1.0 -0.0271277516
C  C466  1  0.33770000  0.80500000  0.64760000  1.0 -0.0271277516
C  C467  1  0.66230000  0.30500000  0.85240000  1.0 -0.0271277516
C  C468  1  0.33770000  0.69500000  0.35240000  1.0 -0.0271277516
C  C469  1  0.33770000  0.80500000  0.85240000  1.0 -0.0271277516
C  C470  1  0.66230000  0.19500000  0.35240000  1.0 -0.0271277516
C  C471  1  0.33770000  0.69500000  0.14760000  1.0 -0.0271277516
C  C472  1  0.66230000  0.30500000  0.64760000  1.0 -0.0271277516
C  C473  1  0.73370000  0.16860000  0.09740000  1.0 -0.1414546794
C  C474  1  0.26630000  0.83140000  0.59740000  1.0 -0.1414546794
C  C475  1  0.73370000  0.33140000  0.90260000  1.0 -0.1414546794
C  C476  1  0.26630000  0.66860000  0.40260000  1.0 -0.1414546794
C  C477  1  0.26630000  0.83140000  0.90260000  1.0 -0.1414546794
C  C478  1  0.73370000  0.16860000  0.40260000  1.0 -0.1414546794
C  C479  1  0.26630000  0.66860000  0.09740000  1.0 -0.1414546794
C  C480  1  0.73370000  0.33140000  0.59740000  1.0 -0.1414546794
C  C481  1  0.06590000  0.44270000  0.39030000  1.0 -0.151379002
C  C482  1  0.93410000  0.55730000  0.89030000  1.0 -0.151379002
C  C483  1  0.06590000  0.05730000  0.60970000  1.0 -0.151379002
C  C484  1  0.93410000  0.94270000  0.10970000  1.0 -0.151379002
C  C485  1  0.93410000  0.55730000  0.60970000  1.0 -0.151379002
C  C486  1  0.06590000  0.44270000  0.10970000  1.0 -0.151379002
C  C487  1  0.93410000  0.94270000  0.39030000  1.0 -0.151379002
C  C488  1  0.06590000  0.05730000  0.89030000  1.0 -0.151379002
C  C489  1  0.86260000  0.14380000  0.87790000  1.0 -0.1016405186
C  C490  1  0.13740000  0.85620000  0.37790000  1.0 -0.1016405186
C  C491  1  0.86260000  0.35620000  0.12210000  1.0 -0.1016405186
C  C492  1  0.13740000  0.64380000  0.62210000  1.0 -0.1016405186
C  C493  1  0.13740000  0.85620000  0.12210000  1.0 -0.1016405186
C  C494  1  0.86260000  0.14380000  0.62210000  1.0 -0.1016405186
C  C495  1  0.13740000  0.64380000  0.87790000  1.0 -0.1016405186
C  C496  1  0.86260000  0.35620000  0.37790000  1.0 -0.1016405186
C  C497  1  0.71420000  0.20020000  0.13120000  1.0 -0.0902083398
C  C498  1  0.28580000  0.79980000  0.63120000  1.0 -0.0902083398
C  C499  1  0.71420000  0.29980000  0.86880000  1.0 -0.0902083398
C  C500  1  0.28580000  0.70020000  0.36880000  1.0 -0.0902083398
C  C501  1  0.28580000  0.79980000  0.86880000  1.0 -0.0902083398
C  C502  1  0.71420000  0.20020000  0.36880000  1.0 -0.0902083398
C  C503  1  0.28580000  0.70020000  0.13120000  1.0 -0.0902083398
C  C504  1  0.71420000  0.29980000  0.63120000  1.0 -0.0902083398
C  C505  1  0.63500000  0.93930000  0.34080000  1.0 -0.1016405186
C  C506  1  0.36500000  0.06070000  0.84080000  1.0 -0.1016405186
C  C507  1  0.63500000  0.56070000  0.65920000  1.0 -0.1016405186
C  C508  1  0.36500000  0.43930000  0.15920000  1.0 -0.1016405186
C  C509  1  0.36500000  0.06070000  0.65920000  1.0 -0.1016405186
C  C510  1  0.63500000  0.93930000  0.15920000  1.0 -0.1016405186
C  C511  1  0.36500000  0.43930000  0.34080000  1.0 -0.1016405186
C  C512  1  0.63500000  0.56070000  0.84080000  1.0 -0.1016405186
C  C513  1  0.33310000  0.20190000  0.38190000  1.0 0.4332313629
C  C514  1  0.66690000  0.79810000  0.88190000  1.0 0.4332313629
C  C515  1  0.33310000  0.29810000  0.61810000  1.0 0.4332313629
C  C516  1  0.66690000  0.70190000  0.11810000  1.0 0.4332313629
C  C517  1  0.66690000  0.79810000  0.61810000  1.0 0.4332313629
C  C518  1  0.33310000  0.20190000  0.11810000  1.0 0.4332313629
C  C519  1  0.66690000  0.70190000  0.38190000  1.0 0.4332313629
C  C520  1  0.33310000  0.29810000  0.88190000  1.0 0.4332313629
C  C521  1  0.75640000  0.15750000  0.90520000  1.0 -0.1281251344
C  C522  1  0.24360000  0.84250000  0.40520000  1.0 -0.1281251344
C  C523  1  0.75640000  0.34250000  0.09480000  1.0 -0.1281251344
C  C524  1  0.24360000  0.65750000  0.59480000  1.0 -0.1281251344
C  C525  1  0.24360000  0.84250000  0.09480000  1.0 -0.1281251344
C  C526  1  0.75640000  0.15750000  0.59480000  1.0 -0.1281251344
C  C527  1  0.24360000  0.65750000  0.90520000  1.0 -0.1281251344
C  C528  1  0.75640000  0.34250000  0.40520000  1.0 -0.1281251344
C  C529  1  0.04080000  0.36840000  0.42620000  1.0 -0.1414546794
C  C530  1  0.95920000  0.63160000  0.92620000  1.0 -0.1414546794
C  C531  1  0.04080000  0.13160000  0.57380000  1.0 -0.1414546794
C  C532  1  0.95920000  0.86840000  0.07380000  1.0 -0.1414546794
C  C533  1  0.95920000  0.63160000  0.57380000  1.0 -0.1414546794
C  C534  1  0.04080000  0.36840000  0.07380000  1.0 -0.1414546794
C  C535  1  0.95920000  0.86840000  0.42620000  1.0 -0.1414546794
C  C536  1  0.04080000  0.13160000  0.92620000  1.0 -0.1414546794
C  C537  1  0.75610000  0.82590000  0.03950000  1.0 0.5704287456
C  C538  1  0.24390000  0.17410000  0.53950000  1.0 0.5704287456
C  C539  1  0.75610000  0.67410000  0.96050000  1.0 0.5704287456
C  C540  1  0.24390000  0.32590000  0.46050000  1.0 0.5704287456
C  C541  1  0.24390000  0.17410000  0.96050000  1.0 0.5704287456
C  C542  1  0.75610000  0.82590000  0.46050000  1.0 0.5704287456
C  C543  1  0.24390000  0.32590000  0.03950000  1.0 0.5704287456
C  C544  1  0.75610000  0.67410000  0.53950000  1.0 0.5704287456
C  C545  1  0.10600000  0.41630000  0.36750000  1.0 -0.1988605639
C  C546  1  0.89400000  0.58370000  0.86750000  1.0 -0.1988605639
C  C547  1  0.10600000  0.08370000  0.63250000  1.0 -0.1988605639
C  C548  1  0.89400000  0.91630000  0.13250000  1.0 -0.1988605639
C  C549  1  0.89400000  0.58370000  0.63250000  1.0 -0.1988605639
C  C550  1  0.10600000  0.41630000  0.13250000  1.0 -0.1988605639
C  C551  1  0.89400000  0.91630000  0.36750000  1.0 -0.1988605639
C  C552  1  0.10600000  0.08370000  0.86750000  1.0 -0.1988605639
C  C553  1  0.54500000  0.08500000  0.58130000  1.0 -0.162011343
C  C554  1  0.45500000  0.91500000  0.08130000  1.0 -0.162011343
C  C555  1  0.54500000  0.41500000  0.41870000  1.0 -0.162011343
C  C556  1  0.45500000  0.58500000  0.91870000  1.0 -0.162011343
C  C557  1  0.45500000  0.91500000  0.41870000  1.0 -0.162011343
C  C558  1  0.54500000  0.08500000  0.91870000  1.0 -0.162011343
C  C559  1  0.45500000  0.58500000  0.58130000  1.0 -0.162011343
C  C560  1  0.54500000  0.41500000  0.08130000  1.0 -0.162011343
C  C561  1  0.07730000  0.34320000  0.39910000  1.0 -0.151379002
C  C562  1  0.92270000  0.65680000  0.89910000  1.0 -0.151379002
C  C563  1  0.07730000  0.15680000  0.60090000  1.0 -0.151379002
C  C564  1  0.92270000  0.84320000  0.10090000  1.0 -0.151379002
C  C565  1  0.92270000  0.65680000  0.60090000  1.0 -0.151379002
C  C566  1  0.07730000  0.34320000  0.10090000  1.0 -0.151379002
C  C567  1  0.92270000  0.84320000  0.39910000  1.0 -0.151379002
C  C568  1  0.07730000  0.15680000  0.89910000  1.0 -0.151379002
C  C569  1  0.63090000  0.05100000  0.56570000  1.0 -0.151379002
C  C570  1  0.36910000  0.94900000  0.06570000  1.0 -0.151379002
C  C571  1  0.63090000  0.44900000  0.43430000  1.0 -0.151379002
C  C572  1  0.36910000  0.55100000  0.93430000  1.0 -0.151379002
C  C573  1  0.36910000  0.94900000  0.43430000  1.0 -0.151379002
C  C574  1  0.63090000  0.05100000  0.93430000  1.0 -0.151379002
C  C575  1  0.36910000  0.55100000  0.56570000  1.0 -0.151379002
C  C576  1  0.63090000  0.44900000  0.06570000  1.0 -0.151379002
C  C577  1  0.56350000  0.10160000  0.62070000  1.0 -0.0902083398
C  C578  1  0.43650000  0.89840000  0.12070000  1.0 -0.0902083398
C  C579  1  0.56350000  0.39840000  0.37930000  1.0 -0.0902083398
C  C580  1  0.43650000  0.60160000  0.87930000  1.0 -0.0902083398
C  C581  1  0.43650000  0.89840000  0.37930000  1.0 -0.0902083398
C  C582  1  0.56350000  0.10160000  0.87930000  1.0 -0.0902083398
C  C583  1  0.43650000  0.60160000  0.62070000  1.0 -0.0902083398
C  C584  1  0.56350000  0.39840000  0.12070000  1.0 -0.0902083398
C  C585  1  0.64660000  0.13330000  0.09320000  1.0 -0.1414546794
C  C586  1  0.35340000  0.86670000  0.59320000  1.0 -0.1414546794
C  C587  1  0.64660000  0.36670000  0.90680000  1.0 -0.1414546794
C  C588  1  0.35340000  0.63330000  0.40680000  1.0 -0.1414546794
C  C589  1  0.35340000  0.86670000  0.90680000  1.0 -0.1414546794
C  C590  1  0.64660000  0.13330000  0.40680000  1.0 -0.1414546794
C  C591  1  0.35340000  0.63330000  0.09320000  1.0 -0.1414546794
C  C592  1  0.64660000  0.36670000  0.59320000  1.0 -0.1414546794
C  C593  1  0.64210000  0.11740000  0.67380000  1.0 0.5794913339
C  C594  1  0.35790000  0.88260000  0.17380000  1.0 0.5794913339
C  C595  1  0.64210000  0.38260000  0.32620000  1.0 0.5794913339
C  C596  1  0.35790000  0.61740000  0.82620000  1.0 0.5794913339
C  C597  1  0.35790000  0.88260000  0.32620000  1.0 0.5794913339
C  C598  1  0.64210000  0.11740000  0.82620000  1.0 0.5794913339
C  C599  1  0.35790000  0.61740000  0.67380000  1.0 0.5794913339
C  C600  1  0.64210000  0.38260000  0.17380000  1.0 0.5794913339
C  C601  1  0.37770000  0.16580000  0.39500000  1.0 0.012756109
C  C602  1  0.62230000  0.83420000  0.89500000  1.0 0.012756109
C  C603  1  0.37770000  0.33420000  0.60500000  1.0 0.012756109
C  C604  1  0.62230000  0.66580000  0.10500000  1.0 0.012756109
C  C605  1  0.62230000  0.83420000  0.60500000  1.0 0.012756109
C  C606  1  0.37770000  0.16580000  0.10500000  1.0 0.012756109
C  C607  1  0.62230000  0.66580000  0.39500000  1.0 0.012756109
C  C608  1  0.37770000  0.33420000  0.89500000  1.0 0.012756109
C  C609  1  0.41600000  0.14910000  0.36500000  1.0 -0.1016405186
C  C610  1  0.58400000  0.85090000  0.86500000  1.0 -0.1016405186
C  C611  1  0.41600000  0.35090000  0.63500000  1.0 -0.1016405186
C  C612  1  0.58400000  0.64910000  0.13500000  1.0 -0.1016405186
C  C613  1  0.58400000  0.85090000  0.63500000  1.0 -0.1016405186
C  C614  1  0.41600000  0.14910000  0.13500000  1.0 -0.1016405186
C  C615  1  0.58400000  0.64910000  0.36500000  1.0 -0.1016405186
C  C616  1  0.41600000  0.35090000  0.86500000  1.0 -0.1016405186
C  C617  1  0.45620000  0.11580000  0.37900000  1.0 -0.0902083398
C  C618  1  0.54380000  0.88420000  0.87900000  1.0 -0.0902083398
C  C619  1  0.45620000  0.38420000  0.62100000  1.0 -0.0902083398
C  C620  1  0.54380000  0.61580000  0.12100000  1.0 -0.0902083398
C  C621  1  0.54380000  0.88420000  0.62100000  1.0 -0.0902083398
C  C622  1  0.45620000  0.11580000  0.12100000  1.0 -0.0902083398
C  C623  1  0.54380000  0.61580000  0.37900000  1.0 -0.0902083398
C  C624  1  0.45620000  0.38420000  0.87900000  1.0 -0.0902083398
C  C625  1  0.37700000  0.14860000  0.43790000  1.0 -0.0902083398
C  C626  1  0.62300000  0.85140000  0.93790000  1.0 -0.0902083398
C  C627  1  0.37700000  0.35140000  0.56210000  1.0 -0.0902083398
C  C628  1  0.62300000  0.64860000  0.06210000  1.0 -0.0902083398
C  C629  1  0.62300000  0.85140000  0.56210000  1.0 -0.0902083398
C  C630  1  0.37700000  0.14860000  0.06210000  1.0 -0.0902083398
C  C631  1  0.62300000  0.64860000  0.43790000  1.0 -0.0902083398
C  C632  1  0.37700000  0.35140000  0.93790000  1.0 -0.0902083398
C  C633  1  0.41910000  0.11790000  0.45140000  1.0 -0.0487034448
C  C634  1  0.58090000  0.88210000  0.95140000  1.0 -0.0487034448
C  C635  1  0.41910000  0.38210000  0.54860000  1.0 -0.0487034448
C  C636  1  0.58090000  0.61790000  0.04860000  1.0 -0.0487034448
C  C637  1  0.58090000  0.88210000  0.54860000  1.0 -0.0487034448
C  C638  1  0.41910000  0.11790000  0.04860000  1.0 -0.0487034448
C  C639  1  0.58090000  0.61790000  0.45140000  1.0 -0.0487034448
C  C640  1  0.41910000  0.38210000  0.95140000  1.0 -0.0487034448
C  C641  1  0.11110000  0.36820000  0.37020000  1.0 0.0166971661
C  C642  1  0.88890000  0.63180000  0.87020000  1.0 0.0166971661
C  C643  1  0.11110000  0.13180000  0.62980000  1.0 0.0166971661
C  C644  1  0.88890000  0.86820000  0.12980000  1.0 0.0166971661
C  C645  1  0.88890000  0.63180000  0.62980000  1.0 0.0166971661
C  C646  1  0.11110000  0.36820000  0.12980000  1.0 0.0166971661
C  C647  1  0.88890000  0.86820000  0.37020000  1.0 0.0166971661
C  C648  1  0.11110000  0.13180000  0.87020000  1.0 0.0166971661
C  C649  1  0.16750000  0.36190000  0.34690000  1.0 0.3195832109
C  C650  1  0.83250000  0.63810000  0.84690000  1.0 0.3195832109
C  C651  1  0.16750000  0.13810000  0.65310000  1.0 0.3195832109
C  C652  1  0.83250000  0.86190000  0.15310000  1.0 0.3195832109
C  C653  1  0.83250000  0.63810000  0.65310000  1.0 0.3195832109
C  C654  1  0.16750000  0.36190000  0.15310000  1.0 0.3195832109
C  C655  1  0.83250000  0.86190000  0.34690000  1.0 0.3195832109
C  C656  1  0.16750000  0.13810000  0.84690000  1.0 0.3195832109
C  C657  1  0.41390000  0.08620000  0.39740000  1.0 -0.0902083398
C  C658  1  0.58610000  0.91380000  0.89740000  1.0 -0.0902083398
C  C659  1  0.41390000  0.41380000  0.60260000  1.0 -0.0902083398
C  C660  1  0.58610000  0.58620000  0.10260000  1.0 -0.0902083398
C  C661  1  0.58610000  0.91380000  0.60260000  1.0 -0.0902083398
C  C662  1  0.41390000  0.08620000  0.10260000  1.0 -0.0902083398
C  C663  1  0.58610000  0.58620000  0.39740000  1.0 -0.0902083398
C  C664  1  0.41390000  0.41380000  0.89740000  1.0 -0.0902083398
C  C665  1  0.37800000  0.11860000  0.37980000  1.0 -0.063052085
C  C666  1  0.62200000  0.88140000  0.87980000  1.0 -0.063052085
C  C667  1  0.37800000  0.38140000  0.62020000  1.0 -0.063052085
C  C668  1  0.62200000  0.61860000  0.12020000  1.0 -0.063052085
C  C669  1  0.62200000  0.88140000  0.62020000  1.0 -0.063052085
C  C670  1  0.37800000  0.11860000  0.12020000  1.0 -0.063052085
C  C671  1  0.62200000  0.61860000  0.37980000  1.0 -0.063052085
C  C672  1  0.37800000  0.38140000  0.87980000  1.0 -0.063052085
C  C673  1  0.41510000  0.17910000  0.42760000  1.0 -0.0706410317
C  C674  1  0.58490000  0.82090000  0.92760000  1.0 -0.0706410317
C  C675  1  0.41510000  0.32090000  0.57240000  1.0 -0.0706410317
C  C676  1  0.58490000  0.67910000  0.07240000  1.0 -0.0706410317
C  C677  1  0.58490000  0.82090000  0.57240000  1.0 -0.0706410317
C  C678  1  0.41510000  0.17910000  0.07240000  1.0 -0.0706410317
C  C679  1  0.58490000  0.67910000  0.42760000  1.0 -0.0706410317
C  C680  1  0.41510000  0.32090000  0.92760000  1.0 -0.0706410317
C  C681  1  0.45630000  0.14780000  0.44130000  1.0 -0.0902083398
C  C682  1  0.54370000  0.85220000  0.94130000  1.0 -0.0902083398
C  C683  1  0.45630000  0.35220000  0.55870000  1.0 -0.0902083398
C  C684  1  0.54370000  0.64780000  0.05870000  1.0 -0.0902083398
C  C685  1  0.54370000  0.85220000  0.55870000  1.0 -0.0902083398
C  C686  1  0.45630000  0.14780000  0.05870000  1.0 -0.0902083398
C  C687  1  0.54370000  0.64780000  0.44130000  1.0 -0.0902083398
C  C688  1  0.45630000  0.35220000  0.94130000  1.0 -0.0902083398
C  C689  1  0.84770000  0.83610000  0.34410000  1.0 0.3195832109
C  C690  1  0.15230000  0.16390000  0.84410000  1.0 0.3195832109
C  C691  1  0.84770000  0.66390000  0.65590000  1.0 0.3195832109
C  C692  1  0.15230000  0.33610000  0.15590000  1.0 0.3195832109
C  C693  1  0.15230000  0.16390000  0.65590000  1.0 0.3195832109
C  C694  1  0.84770000  0.83610000  0.15590000  1.0 0.3195832109
C  C695  1  0.15230000  0.33610000  0.34410000  1.0 0.3195832109
C  C696  1  0.84770000  0.66390000  0.84410000  1.0 0.3195832109
O  O1  1  0.71250000  0.33140000  0.25000000  1.0 -0.5903642906
O  O2  1  0.28750000  0.66860000  0.75000000  1.0 -0.5903642906
O  O3  1  0.71250000  0.16860000  0.75000000  1.0 -0.5903642906
O  O4  1  0.28750000  0.83140000  0.25000000  1.0 -0.5903642906
O  O5  1  0.89010000  0.33000000  0.69400000  1.0 -0.6774434579
O  O6  1  0.10990000  0.67000000  0.19400000  1.0 -0.6774434579
O  O7  1  0.89010000  0.17000000  0.30600000  1.0 -0.6774434579
O  O8  1  0.10990000  0.83000000  0.80600000  1.0 -0.6774434579
O  O9  1  0.10990000  0.67000000  0.30600000  1.0 -0.6774434579
O  O10  1  0.89010000  0.33000000  0.80600000  1.0 -0.6774434579
O  O11  1  0.10990000  0.83000000  0.69400000  1.0 -0.6774434579
O  O12  1  0.89010000  0.17000000  0.19400000  1.0 -0.6774434579
O  O13  1  0.78550000  0.31220000  0.75000000  1.0 -0.5903642906
O  O14  1  0.21450000  0.68780000  0.25000000  1.0 -0.5903642906
O  O15  1  0.78550000  0.18780000  0.25000000  1.0 -0.5903642906
O  O16  1  0.21450000  0.81220000  0.75000000  1.0 -0.5903642906
O  O17  1  0.75970000  0.77100000  0.28540000  1.0 -0.7115993185
O  O18  1  0.24030000  0.22900000  0.78540000  1.0 -0.7115993185
O  O19  1  0.75970000  0.72900000  0.71460000  1.0 -0.7115993185
O  O20  1  0.24030000  0.27100000  0.21460000  1.0 -0.7115993185
O  O21  1  0.24030000  0.22900000  0.71460000  1.0 -0.7115993185
O  O22  1  0.75970000  0.77100000  0.21460000  1.0 -0.7115993185
O  O23  1  0.24030000  0.27100000  0.28540000  1.0 -0.7115993185
O  O24  1  0.75970000  0.72900000  0.78540000  1.0 -0.7115993185
O  O25  1  0.68220000  0.25320000  0.20210000  1.0 -0.6716987812
O  O26  1  0.31780000  0.74680000  0.70210000  1.0 -0.6716987812
O  O27  1  0.68220000  0.24680000  0.79790000  1.0 -0.6716987812
O  O28  1  0.31780000  0.75320000  0.29790000  1.0 -0.6716987812
O  O29  1  0.31780000  0.74680000  0.79790000  1.0 -0.6716987812
O  O30  1  0.68220000  0.25320000  0.29790000  1.0 -0.6716987812
O  O31  1  0.31780000  0.75320000  0.20210000  1.0 -0.6716987812
O  O32  1  0.68220000  0.24680000  0.70210000  1.0 -0.6716987812
O  O33  1  0.68450000  0.81790000  0.34900000  1.0 -0.6716987812
O  O34  1  0.31550000  0.18210000  0.84900000  1.0 -0.6774434579
O  O35  1  0.68450000  0.68210000  0.65100000  1.0 -0.6716987812
O  O36  1  0.31550000  0.31790000  0.15100000  1.0 -0.6716987812
O  O37  1  0.31550000  0.18210000  0.65100000  1.0 -0.6716987812
O  O38  1  0.68450000  0.81790000  0.15100000  1.0 -0.6716987812
O  O39  1  0.31550000  0.31790000  0.34900000  1.0 -0.6716987812
O  O40  1  0.68450000  0.68210000  0.84900000  1.0 -0.6774434579
O  O41  1  0.68810000  0.10810000  0.68530000  1.0 -0.5113507492
O  O42  1  0.31190000  0.89190000  0.18530000  1.0 -0.5113507492
O  O43  1  0.68810000  0.39190000  0.31470000  1.0 -0.5113507492
O  O44  1  0.31190000  0.60810000  0.81470000  1.0 -0.5113507492
O  O45  1  0.31190000  0.89190000  0.31470000  1.0 -0.5113507492
O  O46  1  0.68810000  0.10810000  0.81470000  1.0 -0.5113507492
O  O47  1  0.31190000  0.60810000  0.68530000  1.0 -0.5113507492
O  O48  1  0.68810000  0.39190000  0.18530000  1.0 -0.5113507492
O  O49  1  0.31840000  0.20520000  0.34370000  1.0 -0.5324062241
O  O50  1  0.68160000  0.79480000  0.84370000  1.0 -0.5324062241
O  O51  1  0.31840000  0.29480000  0.65630000  1.0 -0.5324062241
O  O52  1  0.68160000  0.70520000  0.15630000  1.0 -0.5324062241
O  O53  1  0.68160000  0.79480000  0.65630000  1.0 -0.5324062241
O  O54  1  0.31840000  0.20520000  0.15630000  1.0 -0.5324062241
O  O55  1  0.68160000  0.70520000  0.34370000  1.0 -0.5324062241
O  O56  1  0.31840000  0.29480000  0.84370000  1.0 -0.5324062241
O  O57  1  0.97350000  0.27690000  0.75000000  1.0 -0.7701558901
O  O58  1  0.02650000  0.72310000  0.25000000  1.0 -0.7701558901
O  O59  1  0.97350000  0.22310000  0.25000000  1.0 -0.7701558901
O  O60  1  0.02650000  0.77690000  0.75000000  1.0 -0.7701558901
O  O61  1  0.61180000  0.14720000  0.69480000  1.0 -0.6881236864
O  O62  1  0.38820000  0.85280000  0.19480000  1.0 -0.6881236864
O  O63  1  0.61180000  0.35280000  0.30520000  1.0 -0.6881236864
O  O64  1  0.38820000  0.64720000  0.80520000  1.0 -0.6881236864
O  O65  1  0.38820000  0.85280000  0.30520000  1.0 -0.6881236864
O  O66  1  0.61180000  0.14720000  0.80520000  1.0 -0.6881236864
O  O67  1  0.38820000  0.64720000  0.69480000  1.0 -0.6881236864
O  O68  1  0.61180000  0.35280000  0.19480000  1.0 -0.6881236864
O  O69  1  0.59760000  0.22930000  0.19580000  1.0 -0.56156878
O  O70  1  0.40240000  0.77070000  0.69580000  1.0 -0.56156878
O  O71  1  0.59760000  0.27070000  0.80420000  1.0 -0.56156878
O  O72  1  0.40240000  0.72930000  0.30420000  1.0 -0.56156878
O  O73  1  0.40240000  0.77070000  0.80420000  1.0 -0.56156878
O  O74  1  0.59760000  0.22930000  0.30420000  1.0 -0.56156878
O  O75  1  0.40240000  0.72930000  0.19580000  1.0 -0.56156878
O  O76  1  0.59760000  0.27070000  0.69580000  1.0 -0.56156878
O  O77  1  0.80470000  0.68500000  0.35000000  1.0 -0.6090265049
O  O78  1  0.19530000  0.31500000  0.85000000  1.0 -0.6090265049
O  O79  1  0.80470000  0.81500000  0.65000000  1.0 -0.6090265049
O  O80  1  0.19530000  0.18500000  0.15000000  1.0 -0.6090265049
O  O81  1  0.19530000  0.31500000  0.65000000  1.0 -0.6090265049
O  O82  1  0.80470000  0.68500000  0.15000000  1.0 -0.6090265049
O  O83  1  0.19530000  0.18500000  0.35000000  1.0 -0.6090265049
O  O84  1  0.80470000  0.81500000  0.85000000  1.0 -0.6090265049
O  O85  1  0.81300000  0.22960000  0.79660000  1.0 -0.6393321905
O  O86  1  0.18700000  0.77040000  0.29660000  1.0 -0.6393321905
O  O87  1  0.81300000  0.27040000  0.20340000  1.0 -0.6393321905
O  O88  1  0.18700000  0.72960000  0.70340000  1.0 -0.6393321905
O  O89  1  0.18700000  0.77040000  0.20340000  1.0 -0.6393321905
O  O90  1  0.81300000  0.22960000  0.70340000  1.0 -0.6393321905
O  O91  1  0.18700000  0.72960000  0.79660000  1.0 -0.6393321905
O  O92  1  0.81300000  0.27040000  0.29660000  1.0 -0.6345588399
O  O93  1  0.89650000  0.20710000  0.80660000  1.0 -0.5437760336
O  O94  1  0.10350000  0.79290000  0.30660000  1.0 -0.5437760336
O  O95  1  0.89650000  0.29290000  0.19340000  1.0 -0.5437760336
O  O96  1  0.10350000  0.70710000  0.69340000  1.0 -0.5437760336
O  O97  1  0.10350000  0.79290000  0.19340000  1.0 -0.5437760336
O  O98  1  0.89650000  0.20710000  0.69340000  1.0 -0.5437760336
O  O99  1  0.10350000  0.70710000  0.80660000  1.0 -0.5437760336
O  O100  1  0.89650000  0.29290000  0.30660000  1.0 -0.5437760336
O  O101  1  0.80000000  0.71010000  0.41850000  1.0 -0.151379002
O  O102  1  0.20000000  0.28990000  0.91850000  1.0 -0.151379002
O  O103  1  0.80000000  0.78990000  0.58150000  1.0 -0.151379002
O  O104  1  0.20000000  0.21010000  0.08150000  1.0 -0.151379002
O  O105  1  0.20000000  0.28990000  0.58150000  1.0 -0.151379002
O  O106  1  0.80000000  0.71010000  0.08150000  1.0 -0.151379002
O  O107  1  0.20000000  0.21010000  0.41850000  1.0 -0.151379002
O  O108  1  0.80000000  0.78990000  0.91850000  1.0 -0.151379002
O  O109  1  0.76550000  0.81350000  0.07710000  1.0 -0.6393321905
O  O110  1  0.23450000  0.18650000  0.57710000  1.0 -0.6393321905
O  O111  1  0.76550000  0.68650000  0.92290000  1.0 -0.6393321905
O  O112  1  0.23450000  0.31350000  0.42290000  1.0 -0.6393321905
O  O113  1  0.23450000  0.18650000  0.92290000  1.0 -0.6393321905
O  O114  1  0.76550000  0.81350000  0.42290000  1.0 -0.6393321905
O  O115  1  0.23450000  0.31350000  0.07710000  1.0 -0.6393321905
O  O116  1  0.76550000  0.68650000  0.57710000  1.0 -0.6393321905
O  O117  1  0.80910000  0.36880000  0.68590000  1.0 -0.5809461159
O  O118  1  0.19090000  0.63120000  0.18590000  1.0 -0.5809461159
O  O119  1  0.80910000  0.13120000  0.31410000  1.0 -0.5809461159
O  O120  1  0.19090000  0.86880000  0.81410000  1.0 -0.5809461159
O  O121  1  0.19090000  0.63120000  0.31410000  1.0 -0.5809461159
O  O122  1  0.80910000  0.36880000  0.81410000  1.0 -0.5809461159
O  O123  1  0.19090000  0.86880000  0.68590000  1.0 -0.5809461159
O  O124  1  0.80910000  0.13120000  0.18590000  1.0 -0.5809461159
O  O125  1  0.69850000  0.87140000  0.29530000  1.0 -0.6716987812
O  O126  1  0.30150000  0.12860000  0.79530000  1.0 -0.6716987812
O  O127  1  0.69850000  0.62860000  0.70470000  1.0 -0.6716987812
O  O128  1  0.30150000  0.37140000  0.20470000  1.0 -0.6716987812
O  O129  1  0.30150000  0.12860000  0.70470000  1.0 -0.6716987812
O  O130  1  0.69850000  0.87140000  0.20470000  1.0 -0.6716987812
O  O131  1  0.30150000  0.37140000  0.29530000  1.0 -0.6716987812
O  O132  1  0.69850000  0.62860000  0.79530000  1.0 -0.6716987812
O  O133  1  0.86670000  0.82630000  0.25000000  1.0 -0.6090265049
O  O134  1  0.13330000  0.17370000  0.75000000  1.0 -0.6090265049
O  O135  1  0.86670000  0.67370000  0.75000000  1.0 -0.6090265049
O  O136  1  0.13330000  0.32630000  0.25000000  1.0 -0.6090265049
O  O137  1  0.74960000  0.79810000  0.00900000  1.0 -0.4791263623
O  O138  1  0.25040000  0.20190000  0.50900000  1.0 -0.4791263623
O  O139  1  0.74960000  0.70190000  0.99100000  1.0 -0.4791263623
O  O140  1  0.25040000  0.29810000  0.49100000  1.0 -0.4791263623
O  O141  1  0.25040000  0.20190000  0.99100000  1.0 -0.4791263623
O  O142  1  0.74960000  0.79810000  0.49100000  1.0 -0.4791263623
O  O143  1  0.25040000  0.29810000  0.00900000  1.0 -0.4791263623
O  O144  1  0.74960000  0.70190000  0.50900000  1.0 -0.4791263623
O  O145  1  0.32150000  0.23590000  0.40810000  1.0 -0.162011343
O  O146  1  0.67850000  0.76410000  0.90810000  1.0 -0.151379002
O  O147  1  0.32150000  0.26410000  0.59190000  1.0 -0.151379002
O  O148  1  0.67850000  0.73590000  0.09190000  1.0 -0.162011343
O  O149  1  0.67850000  0.76410000  0.59190000  1.0 -0.151379002
O  O150  1  0.32150000  0.23590000  0.09190000  1.0 -0.162011343
O  O151  1  0.67850000  0.73590000  0.40810000  1.0 -0.162011343
O  O152  1  0.32150000  0.26410000  0.90810000  1.0 -0.151379002
O  O153  1  0.17270000  0.31870000  0.35370000  1.0 -0.0487034448
O  O154  1  0.82730000  0.68130000  0.85370000  1.0 -0.0487034448
O  O155  1  0.17270000  0.18130000  0.64630000  1.0 -0.0487034448
O  O156  1  0.82730000  0.81870000  0.14630000  1.0 -0.0487034448
O  O157  1  0.82730000  0.68130000  0.64630000  1.0 -0.0487034448
O  O158  1  0.17270000  0.31870000  0.14630000  1.0 -0.0487034448
O  O159  1  0.82730000  0.81870000  0.35370000  1.0 -0.0487034448
O  O160  1  0.17270000  0.18130000  0.85370000  1.0 -0.0487034448
O  O161  1  0.78850000  0.93270000  0.25000000  1.0 -0.7701558901
O  O162  1  0.21150000  0.06730000  0.75000000  1.0 -0.7701558901
O  O163  1  0.78850000  0.56730000  0.75000000  1.0 -0.7701558901
O  O164  1  0.21150000  0.43270000  0.25000000  1.0 -0.7701558901
O  O165  1  0.18180000  0.38500000  0.31420000  1.0 -0.2320473792
O  O166  1  0.81820000  0.61500000  0.81420000  1.0 -0.2320473792
O  O167  1  0.18180000  0.11500000  0.68580000  1.0 -0.2320473792
O  O168  1  0.81820000  0.88500000  0.18580000  1.0 -0.2320473792
O  O169  1  0.81820000  0.61500000  0.68580000  1.0 -0.2320473792
O  O170  1  0.18180000  0.38500000  0.18580000  1.0 -0.2320473792
O  O171  1  0.81820000  0.88500000  0.31420000  1.0 -0.2320473792
O  O172  1  0.18180000  0.11500000  0.81420000  1.0 -0.2320473792
O  O173  1  0.52310000  0.30140000  0.25000000  1.0 -0.7831276043
O  O174  1  0.47690000  0.69860000  0.75000000  1.0 -0.7831276043
O  O175  1  0.52310000  0.19860000  0.75000000  1.0 -0.7831276043
O  O176  1  0.47690000  0.80140000  0.25000000  1.0 -0.7831276043
O  O177  1  0.80900000  0.85780000  0.32550000  1.0 -0.0824104875
O  O178  1  0.19100000  0.14220000  0.82550000  1.0 -0.0824104875
O  O179  1  0.80900000  0.64220000  0.67450000  1.0 -0.0824104875
O  O180  1  0.19100000  0.35780000  0.17450000  1.0 -0.0824104875
O  O181  1  0.19100000  0.14220000  0.67450000  1.0 -0.0824104875
O  O182  1  0.80900000  0.85780000  0.17450000  1.0 -0.0824104875
O  O183  1  0.19100000  0.35780000  0.32550000  1.0 -0.0824104875
O  O184  1  0.80900000  0.64220000  0.82550000  1.0 -0.0824104875
O  O185  1  0.84690000  0.79120000  0.34840000  1.0 -0.2792923657
O  O186  1  0.15310000  0.20880000  0.84840000  1.0 -0.2792923657
O  O187  1  0.84690000  0.70880000  0.65160000  1.0 -0.2792923657
O  O188  1  0.15310000  0.29120000  0.15160000  1.0 -0.2792923657
O  O189  1  0.15310000  0.20880000  0.65160000  1.0 -0.2792923657
O  O190  1  0.84690000  0.79120000  0.15160000  1.0 -0.2792923657
O  O191  1  0.15310000  0.29120000  0.34840000  1.0 -0.2792923657
O  O192  1  0.84690000  0.70880000  0.84840000  1.0 -0.2792923657
O  O193  1  0.82200000  0.72060000  0.41230000  1.0 -0.1188727369
O  O194  1  0.17800000  0.27940000  0.91230000  1.0 -0.1281251344
O  O195  1  0.82200000  0.77940000  0.58770000  1.0 -0.1281251344
O  O196  1  0.17800000  0.22060000  0.08770000  1.0 -0.1188727369
O  O197  1  0.17800000  0.27940000  0.58770000  1.0 -0.1281251344
O  O198  1  0.82200000  0.72060000  0.08770000  1.0 -0.1188727369
O  O199  1  0.17800000  0.22060000  0.41230000  1.0 -0.1188727369
O  O200  1  0.82200000  0.77940000  0.91230000  1.0 -0.1281251344
O  O201  1  0.69740000  0.71690000  0.41340000  1.0 -0.1923529153
O  O202  1  0.30260000  0.28310000  0.91340000  1.0 -0.1923529153
O  O203  1  0.69740000  0.78310000  0.58660000  1.0 -0.1923529153
O  O204  1  0.30260000  0.21690000  0.08660000  1.0 -0.1923529153
O  O205  1  0.30260000  0.28310000  0.58660000  1.0 -0.1923529153
O  O206  1  0.69740000  0.71690000  0.08660000  1.0 -0.1923529153
O  O207  1  0.30260000  0.21690000  0.41340000  1.0 -0.1923529153
O  O208  1  0.69740000  0.78310000  0.91340000  1.0 -0.1923529153
