# DDEC6 charges by PACMAN v1.1 (https://github.com/mtap-research/PACMAN-charge/)
data_ONESUX_ASR_pacman
_symmetry_space_group_name_H-M   'P 1'
_cell_length_a   41.27500000
_cell_length_b   13.16650000
_cell_length_c   24.79800000
_cell_angle_alpha   90.00000000
_cell_angle_beta   90.00000000
_cell_angle_gamma   90.00000000
_symmetry_Int_Tables_number   1
_chemical_formula_structural   K14Ni17H48C72O91
_chemical_formula_sum   'K56 Ni68 H192 C288 O364'
_cell_volume   13476.40583542
_cell_formula_units_Z   4
loop_
 _symmetry_equiv_pos_site_id
 _symmetry_equiv_pos_as_xyz
  1  'x, y, z'
loop_
 _atom_site_type_symbol
 _atom_site_label
 _atom_site_symmetry_multiplicity
 _atom_site_fract_x
 _atom_site_fract_y
 _atom_site_fract_z
 _atom_site_occupancy
 _atom_site_charge
K  K1  1  0.25000000  0.75000000  0.00269000  1.0 1.1964461151
K  K2  1  0.75000000  0.25000000  0.99731000  1.0 1.1964461151
K  K3  1  0.75000000  0.25000000  0.49731000  1.0 1.1964461151
K  K4  1  0.25000000  0.75000000  0.50269000  1.0 1.1964461151
K  K5  1  0.10184000  0.22628000  0.81105000  1.0 0.8683397416
K  K6  1  0.89816000  0.77372000  0.18895000  1.0 0.8683397416
K  K7  1  0.39816000  0.27372000  0.81105000  1.0 0.8683397416
K  K8  1  0.60184000  0.72628000  0.18895000  1.0 0.8683397416
K  K9  1  0.89816000  0.72628000  0.68895000  1.0 0.8683397416
K  K10  1  0.10184000  0.27372000  0.31105000  1.0 0.8683397416
K  K11  1  0.60184000  0.77372000  0.68895000  1.0 0.8683397416
K  K12  1  0.39816000  0.22628000  0.31105000  1.0 0.8683397416
K  K13  1  0.18214000  0.40411000  0.79596000  1.0 0.8587514503
K  K14  1  0.81786000  0.59589000  0.20404000  1.0 0.8587514503
K  K15  1  0.31786000  0.09589000  0.79596000  1.0 0.8587514503
K  K16  1  0.68214000  0.90411000  0.20404000  1.0 0.8587514503
K  K17  1  0.81786000  0.90411000  0.70404000  1.0 0.8587514503
K  K18  1  0.18214000  0.09589000  0.29596000  1.0 0.8587514503
K  K19  1  0.68214000  0.59589000  0.70404000  1.0 0.8587514503
K  K20  1  0.31786000  0.40411000  0.29596000  1.0 0.8587514503
K  K21  1  0.03739000  0.46654000  0.04725000  1.0 0.8587514503
K  K22  1  0.96261000  0.53346000  0.95275000  1.0 0.8587514503
K  K23  1  0.46261000  0.03346000  0.04725000  1.0 0.8587514503
K  K24  1  0.53739000  0.96654000  0.95275000  1.0 0.8587514503
K  K25  1  0.96261000  0.96654000  0.45275000  1.0 0.8587514503
K  K26  1  0.03739000  0.03346000  0.54725000  1.0 0.8587514503
K  K27  1  0.53739000  0.53346000  0.45275000  1.0 0.8587514503
K  K28  1  0.46261000  0.46654000  0.54725000  1.0 0.8587514503
K  K29  1  0.31883000  0.81300000  0.13506000  1.0 0.8587514503
K  K30  1  0.68117000  0.18700000  0.86494000  1.0 0.8587514503
K  K31  1  0.18117000  0.68700000  0.13506000  1.0 0.8587514503
K  K32  1  0.81883000  0.31300000  0.86494000  1.0 0.8587514503
K  K33  1  0.68117000  0.31300000  0.36494000  1.0 0.8587514503
K  K34  1  0.31883000  0.68700000  0.63506000  1.0 0.8587514503
K  K35  1  0.81883000  0.18700000  0.36494000  1.0 0.8587514503
K  K36  1  0.18117000  0.81300000  0.63506000  1.0 0.8587514503
K  K37  1  0.09326000  0.47810000  0.18099000  1.0 0.8433792311
K  K38  1  0.90674000  0.52190000  0.81901000  1.0 0.8433792311
K  K39  1  0.40674000  0.02190000  0.18099000  1.0 0.8433792311
K  K40  1  0.59326000  0.97810000  0.81901000  1.0 0.8433792311
K  K41  1  0.90674000  0.97810000  0.31901000  1.0 0.8433792311
K  K42  1  0.09326000  0.02190000  0.68099000  1.0 0.8433792311
K  K43  1  0.59326000  0.52190000  0.31901000  1.0 0.8433792311
K  K44  1  0.40674000  0.47810000  0.68099000  1.0 0.8433792311
K  K45  1  0.12552000  0.45870000  0.68729000  1.0 0.8683397416
K  K46  1  0.87448000  0.54130000  0.31271000  1.0 0.8683397416
K  K47  1  0.37448000  0.04130000  0.68729000  1.0 0.8683397416
K  K48  1  0.62552000  0.95870000  0.31271000  1.0 0.8683397416
K  K49  1  0.87448000  0.95870000  0.81271000  1.0 0.8683397416
K  K50  1  0.12552000  0.04130000  0.18729000  1.0 0.8683397416
K  K51  1  0.62552000  0.54130000  0.81271000  1.0 0.8683397416
K  K52  1  0.37448000  0.45870000  0.18729000  1.0 0.8683397416
K  K53  1  0.25000000  0.75000000  0.83130000  1.0 0.825045431
K  K54  1  0.75000000  0.25000000  0.16870000  1.0 0.825045431
K  K55  1  0.75000000  0.25000000  0.66870000  1.0 0.825045431
K  K56  1  0.25000000  0.75000000  0.33130000  1.0 0.825045431
Ni  Ni1  1  0.07975000  0.61824000  0.95193000  1.0 0.8908890608
Ni  Ni2  1  0.92025000  0.38176000  0.04807000  1.0 0.8908890608
Ni  Ni3  1  0.42025000  0.88176000  0.95193000  1.0 0.8908890608
Ni  Ni4  1  0.57975000  0.11824000  0.04807000  1.0 0.8908890608
Ni  Ni5  1  0.92025000  0.11824000  0.54807000  1.0 0.8908890608
Ni  Ni6  1  0.07975000  0.88176000  0.45193000  1.0 0.8908890608
Ni  Ni7  1  0.57975000  0.38176000  0.54807000  1.0 0.8908890608
Ni  Ni8  1  0.42025000  0.61824000  0.45193000  1.0 0.8908890608
Ni  Ni9  1  0.13109000  0.67477000  0.86253000  1.0 0.9092735703
Ni  Ni10  1  0.86891000  0.32523000  0.13747000  1.0 0.9092735703
Ni  Ni11  1  0.36891000  0.82523000  0.86253000  1.0 0.9092735703
Ni  Ni12  1  0.63109000  0.17477000  0.13747000  1.0 0.9092735703
Ni  Ni13  1  0.86891000  0.17477000  0.63747000  1.0 0.9092735703
Ni  Ni14  1  0.13109000  0.82523000  0.36253000  1.0 0.9092735703
Ni  Ni15  1  0.63109000  0.32523000  0.63747000  1.0 0.9092735703
Ni  Ni16  1  0.36891000  0.67477000  0.36253000  1.0 0.9092735703
Ni  Ni17  1  0.09512000  0.21769000  0.97422000  1.0 0.9484304878
Ni  Ni18  1  0.90488000  0.78231000  0.02578000  1.0 0.9484304878
Ni  Ni19  1  0.40488000  0.28231000  0.97422000  1.0 0.9484304878
Ni  Ni20  1  0.59512000  0.71769000  0.02578000  1.0 0.9484304878
Ni  Ni21  1  0.90488000  0.71769000  0.52578000  1.0 0.9484304878
Ni  Ni22  1  0.09512000  0.28231000  0.47422000  1.0 0.9484304878
Ni  Ni23  1  0.59512000  0.78231000  0.52578000  1.0 0.9484304878
Ni  Ni24  1  0.40488000  0.21769000  0.47422000  1.0 0.9484304878
Ni  Ni25  1  0.21963000  0.31250000  0.07145000  1.0 0.9092735703
Ni  Ni26  1  0.78037000  0.68750000  0.92855000  1.0 0.9092735703
Ni  Ni27  1  0.28037000  0.18750000  0.07145000  1.0 0.9092735703
Ni  Ni28  1  0.71963000  0.81250000  0.92855000  1.0 0.9092735703
Ni  Ni29  1  0.78037000  0.81250000  0.42855000  1.0 0.9092735703
Ni  Ni30  1  0.21963000  0.18750000  0.57145000  1.0 0.9092735703
Ni  Ni31  1  0.71963000  0.68750000  0.42855000  1.0 0.9092735703
Ni  Ni32  1  0.28037000  0.31250000  0.57145000  1.0 0.9092735703
Ni  Ni33  1  0.11025000  0.82631000  0.95433000  1.0 0.9092735703
Ni  Ni34  1  0.88975000  0.17369000  0.04567000  1.0 0.9092735703
Ni  Ni35  1  0.38975000  0.67369000  0.95433000  1.0 0.9092735703
Ni  Ni36  1  0.61025000  0.32631000  0.04567000  1.0 0.9092735703
Ni  Ni37  1  0.88975000  0.32631000  0.54567000  1.0 0.9092735703
Ni  Ni38  1  0.11025000  0.67369000  0.45433000  1.0 0.9092735703
Ni  Ni39  1  0.61025000  0.17369000  0.54567000  1.0 0.9092735703
Ni  Ni40  1  0.38975000  0.82631000  0.45433000  1.0 0.9092735703
Ni  Ni41  1  0.06494000  0.76882000  0.85563000  1.0 0.9014219734
Ni  Ni42  1  0.93506000  0.23118000  0.14437000  1.0 0.9014219734
Ni  Ni43  1  0.43506000  0.73118000  0.85563000  1.0 0.9014219734
Ni  Ni44  1  0.56494000  0.26882000  0.14437000  1.0 0.9014219734
Ni  Ni45  1  0.93506000  0.26882000  0.64437000  1.0 0.9014219734
Ni  Ni46  1  0.06494000  0.73118000  0.35563000  1.0 0.9014219734
Ni  Ni47  1  0.56494000  0.23118000  0.64437000  1.0 0.9014219734
Ni  Ni48  1  0.43506000  0.76882000  0.35563000  1.0 0.9014219734
Ni  Ni49  1  0.23112000  0.15459000  0.16707000  1.0 0.9092735703
Ni  Ni50  1  0.76888000  0.84541000  0.83293000  1.0 0.9092735703
Ni  Ni51  1  0.26888000  0.34541000  0.16707000  1.0 0.9092735703
Ni  Ni52  1  0.73112000  0.65459000  0.83293000  1.0 0.9092735703
Ni  Ni53  1  0.76888000  0.65459000  0.33293000  1.0 0.9092735703
Ni  Ni54  1  0.23112000  0.34541000  0.66707000  1.0 0.9092735703
Ni  Ni55  1  0.73112000  0.84541000  0.33293000  1.0 0.9092735703
Ni  Ni56  1  0.26888000  0.15459000  0.66707000  1.0 0.9092735703
Ni  Ni57  1  0.25000000  0.25000000  0.87130000  1.0 0.8908890608
Ni  Ni58  1  0.75000000  0.75000000  0.12870000  1.0 0.8908890608
Ni  Ni59  1  0.75000000  0.75000000  0.62870000  1.0 0.8908890608
Ni  Ni60  1  0.25000000  0.25000000  0.37130000  1.0 0.8908890608
Ni  Ni61  1  0.09743000  0.75696000  0.15458000  1.0 0.8908890608
Ni  Ni62  1  0.90257000  0.24304000  0.84542000  1.0 0.8908890608
Ni  Ni63  1  0.40257000  0.74304000  0.15458000  1.0 0.8908890608
Ni  Ni64  1  0.59743000  0.25696000  0.84542000  1.0 0.8908890608
Ni  Ni65  1  0.90257000  0.25696000  0.34542000  1.0 0.8908890608
Ni  Ni66  1  0.09743000  0.74304000  0.65458000  1.0 0.8908890608
Ni  Ni67  1  0.59743000  0.24304000  0.34542000  1.0 0.8908890608
Ni  Ni68  1  0.40257000  0.75696000  0.65458000  1.0 0.8908890608
H  H1  1  0.16590000  0.63850000  0.30980000  1.0 0.1582309355
H  H2  1  0.83410000  0.36150000  0.69020000  1.0 0.1582309355
H  H3  1  0.33410000  0.86150000  0.30980000  1.0 0.1582309355
H  H4  1  0.66590000  0.13850000  0.69020000  1.0 0.1582309355
H  H5  1  0.83410000  0.13850000  0.19020000  1.0 0.1582309355
H  H6  1  0.16590000  0.86150000  0.80980000  1.0 0.1582309355
H  H7  1  0.66590000  0.36150000  0.19020000  1.0 0.1582309355
H  H8  1  0.33410000  0.63850000  0.80980000  1.0 0.1582309355
H  H9  1  0.14680000  0.56390000  0.27040000  1.0 0.131059194
H  H10  1  0.85320000  0.43610000  0.72960000  1.0 0.131059194
H  H11  1  0.35320000  0.93610000  0.27040000  1.0 0.131059194
H  H12  1  0.64680000  0.06390000  0.72960000  1.0 0.131059194
H  H13  1  0.85320000  0.06390000  0.22960000  1.0 0.131059194
H  H14  1  0.14680000  0.93610000  0.77040000  1.0 0.131059194
H  H15  1  0.64680000  0.43610000  0.22960000  1.0 0.131059194
H  H16  1  0.35320000  0.56390000  0.77040000  1.0 0.131059194
H  H17  1  0.14780000  0.46400000  0.35060000  1.0 0.1500452713
H  H18  1  0.85220000  0.53600000  0.64940000  1.0 0.1500452713
H  H19  1  0.35220000  0.03600000  0.35060000  1.0 0.1500452713
H  H20  1  0.64780000  0.96400000  0.64940000  1.0 0.1500452713
H  H21  1  0.85220000  0.96400000  0.14940000  1.0 0.1500452713
H  H22  1  0.14780000  0.03600000  0.85060000  1.0 0.1500452713
H  H23  1  0.64780000  0.53600000  0.14940000  1.0 0.1500452713
H  H24  1  0.35220000  0.46400000  0.85060000  1.0 0.1500452713
H  H25  1  0.15700000  0.55000000  0.39350000  1.0 0.1582309355
H  H26  1  0.84300000  0.45000000  0.60650000  1.0 0.1582309355
H  H27  1  0.34300000  0.95000000  0.39350000  1.0 0.1582309355
H  H28  1  0.65700000  0.05000000  0.60650000  1.0 0.1582309355
H  H29  1  0.84300000  0.05000000  0.10650000  1.0 0.1582309355
H  H30  1  0.15700000  0.95000000  0.89350000  1.0 0.1582309355
H  H31  1  0.65700000  0.45000000  0.10650000  1.0 0.1582309355
H  H32  1  0.34300000  0.55000000  0.89350000  1.0 0.1582309355
H  H33  1  0.13510000  0.51420000  0.00960000  1.0 0.1674453597
H  H34  1  0.86490000  0.48580000  0.99040000  1.0 0.1674453597
H  H35  1  0.36490000  0.98580000  0.00960000  1.0 0.1674453597
H  H36  1  0.63510000  0.01420000  0.99040000  1.0 0.1674453597
H  H37  1  0.86490000  0.01420000  0.49040000  1.0 0.1674453597
H  H38  1  0.13510000  0.98580000  0.50960000  1.0 0.1674453597
H  H39  1  0.63510000  0.48580000  0.49040000  1.0 0.1674453597
H  H40  1  0.36490000  0.51420000  0.50960000  1.0 0.1674453597
H  H41  1  0.15950000  0.57030000  0.04990000  1.0 0.1398243525
H  H42  1  0.84050000  0.42970000  0.95010000  1.0 0.1398243525
H  H43  1  0.34050000  0.92970000  0.04990000  1.0 0.1398243525
H  H44  1  0.65950000  0.07030000  0.95010000  1.0 0.1398243525
H  H45  1  0.84050000  0.07030000  0.45010000  1.0 0.1398243525
H  H46  1  0.15950000  0.92970000  0.54990000  1.0 0.1398243525
H  H47  1  0.65950000  0.42970000  0.45010000  1.0 0.1398243525
H  H48  1  0.34050000  0.57030000  0.54990000  1.0 0.1398243525
H  H49  1  0.99180000  0.86500000  0.95310000  1.0 0.1500452713
H  H50  1  0.00820000  0.13500000  0.04690000  1.0 0.1500452713
H  H51  1  0.50820000  0.63500000  0.95310000  1.0 0.1500452713
H  H52  1  0.49180000  0.36500000  0.04690000  1.0 0.1500452713
H  H53  1  0.00820000  0.36500000  0.54690000  1.0 0.1500452713
H  H54  1  0.99180000  0.63500000  0.45310000  1.0 0.1500452713
H  H55  1  0.49180000  0.13500000  0.54690000  1.0 0.1500452713
H  H56  1  0.50820000  0.86500000  0.45310000  1.0 0.1500452713
H  H57  1  0.02020000  0.90150000  0.91370000  1.0 0.1500452713
H  H58  1  0.97980000  0.09850000  0.08630000  1.0 0.1500452713
H  H59  1  0.47980000  0.59850000  0.91370000  1.0 0.1500452713
H  H60  1  0.52020000  0.40150000  0.08630000  1.0 0.1500452713
H  H61  1  0.97980000  0.40150000  0.58630000  1.0 0.1500452713
H  H62  1  0.02020000  0.59850000  0.41370000  1.0 0.1500452713
H  H63  1  0.52020000  0.09850000  0.58630000  1.0 0.1500452713
H  H64  1  0.47980000  0.90150000  0.41370000  1.0 0.1500452713
H  H65  1  0.04550000  0.93190000  0.00190000  1.0 0.1582309355
H  H66  1  0.95450000  0.06810000  0.99810000  1.0 0.1582309355
H  H67  1  0.45450000  0.56810000  0.00190000  1.0 0.1582309355
H  H68  1  0.54550000  0.43190000  0.99810000  1.0 0.1582309355
H  H69  1  0.95450000  0.43190000  0.49810000  1.0 0.1582309355
H  H70  1  0.04550000  0.56810000  0.50190000  1.0 0.1582309355
H  H71  1  0.54550000  0.06810000  0.49810000  1.0 0.1582309355
H  H72  1  0.45450000  0.93190000  0.50190000  1.0 0.1582309355
H  H73  1  0.02140000  0.86590000  0.03810000  1.0 0.1582309355
H  H74  1  0.97860000  0.13410000  0.96190000  1.0 0.1582309355
H  H75  1  0.47860000  0.63410000  0.03810000  1.0 0.1582309355
H  H76  1  0.52140000  0.36590000  0.96190000  1.0 0.1582309355
H  H77  1  0.97860000  0.36590000  0.46190000  1.0 0.1582309355
H  H78  1  0.02140000  0.63410000  0.53810000  1.0 0.1582309355
H  H79  1  0.52140000  0.13410000  0.46190000  1.0 0.1582309355
H  H80  1  0.47860000  0.86590000  0.53810000  1.0 0.1582309355
H  H81  1  0.30590000  0.44820000  0.98270000  1.0 0.1500452713
H  H82  1  0.69410000  0.55180000  0.01730000  1.0 0.1500452713
H  H83  1  0.19410000  0.05180000  0.98270000  1.0 0.1500452713
H  H84  1  0.80590000  0.94820000  0.01730000  1.0 0.1500452713
H  H85  1  0.69410000  0.94820000  0.51730000  1.0 0.1500452713
H  H86  1  0.30590000  0.05180000  0.48270000  1.0 0.1500452713
H  H87  1  0.80590000  0.55180000  0.51730000  1.0 0.1500452713
H  H88  1  0.19410000  0.44820000  0.48270000  1.0 0.1500452713
H  H89  1  0.32280000  0.36470000  0.02000000  1.0 0.1500452713
H  H90  1  0.67720000  0.63530000  0.98000000  1.0 0.1500452713
H  H91  1  0.17720000  0.13530000  0.02000000  1.0 0.1500452713
H  H92  1  0.82280000  0.86470000  0.98000000  1.0 0.1500452713
H  H93  1  0.67720000  0.86470000  0.48000000  1.0 0.1500452713
H  H94  1  0.32280000  0.13530000  0.52000000  1.0 0.1500452713
H  H95  1  0.82280000  0.63530000  0.48000000  1.0 0.1500452713
H  H96  1  0.17720000  0.36470000  0.52000000  1.0 0.1500452713
H  H97  1  0.03820000  0.48830000  0.88330000  1.0 0.1674453597
H  H98  1  0.96180000  0.51170000  0.11670000  1.0 0.1674453597
H  H99  1  0.46180000  0.01170000  0.88330000  1.0 0.1674453597
H  H100  1  0.53820000  0.98830000  0.11670000  1.0 0.1674453597
H  H101  1  0.96180000  0.98830000  0.61670000  1.0 0.1674453597
H  H102  1  0.03820000  0.01170000  0.38330000  1.0 0.1674453597
H  H103  1  0.53820000  0.51170000  0.61670000  1.0 0.1674453597
H  H104  1  0.46180000  0.48830000  0.38330000  1.0 0.1674453597
H  H105  1  0.05180000  0.40310000  0.84330000  1.0 0.1500452713
H  H106  1  0.94820000  0.59690000  0.15670000  1.0 0.1500452713
H  H107  1  0.44820000  0.09690000  0.84330000  1.0 0.1500452713
H  H108  1  0.55180000  0.90310000  0.15670000  1.0 0.1500452713
H  H109  1  0.94820000  0.90310000  0.65670000  1.0 0.1500452713
H  H110  1  0.05180000  0.09690000  0.34330000  1.0 0.1500452713
H  H111  1  0.55180000  0.59690000  0.65670000  1.0 0.1500452713
H  H112  1  0.44820000  0.40310000  0.34330000  1.0 0.1500452713
H  H113  1  0.05790000  0.50210000  0.76340000  1.0 0.1398243525
H  H114  1  0.94210000  0.49790000  0.23660000  1.0 0.1398243525
H  H115  1  0.44210000  0.99790000  0.76340000  1.0 0.1398243525
H  H116  1  0.55790000  0.00210000  0.23660000  1.0 0.1398243525
H  H117  1  0.94210000  0.00210000  0.73660000  1.0 0.1398243525
H  H118  1  0.05790000  0.99790000  0.26340000  1.0 0.1398243525
H  H119  1  0.55790000  0.49790000  0.73660000  1.0 0.1398243525
H  H120  1  0.44210000  0.50210000  0.26340000  1.0 0.1398243525
H  H121  1  0.03510000  0.57540000  0.79760000  1.0 0.1674453597
H  H122  1  0.96490000  0.42460000  0.20240000  1.0 0.1674453597
H  H123  1  0.46490000  0.92460000  0.79760000  1.0 0.1674453597
H  H124  1  0.53510000  0.07540000  0.20240000  1.0 0.1674453597
H  H125  1  0.96490000  0.07540000  0.70240000  1.0 0.1674453597
H  H126  1  0.03510000  0.92460000  0.29760000  1.0 0.1674453597
H  H127  1  0.53510000  0.42460000  0.70240000  1.0 0.1674453597
H  H128  1  0.46490000  0.57540000  0.29760000  1.0 0.1674453597
H  H129  1  0.19440000  0.56540000  0.97200000  1.0 0.1674453597
H  H130  1  0.80560000  0.43460000  0.02800000  1.0 0.1674453597
H  H131  1  0.30560000  0.93460000  0.97200000  1.0 0.1674453597
H  H132  1  0.69440000  0.06540000  0.02800000  1.0 0.1674453597
H  H133  1  0.80560000  0.06540000  0.52800000  1.0 0.1674453597
H  H134  1  0.19440000  0.93460000  0.47200000  1.0 0.1674453597
H  H135  1  0.69440000  0.43460000  0.52800000  1.0 0.1674453597
H  H136  1  0.30560000  0.56540000  0.47200000  1.0 0.1674453597
H  H137  1  0.16840000  0.53900000  0.92590000  1.0 0.1500452713
H  H138  1  0.83160000  0.46100000  0.07410000  1.0 0.1582309355
H  H139  1  0.33160000  0.96100000  0.92590000  1.0 0.1500452713
H  H140  1  0.66840000  0.03900000  0.07410000  1.0 0.1582309355
H  H141  1  0.83160000  0.03900000  0.57410000  1.0 0.1582309355
H  H142  1  0.16840000  0.96100000  0.42590000  1.0 0.1500452713
H  H143  1  0.66840000  0.46100000  0.57410000  1.0 0.1500452713
H  H144  1  0.33160000  0.53900000  0.42590000  1.0 0.1500452713
H  H145  1  0.32180000  0.45070000  0.10060000  1.0 0.1398243525
H  H146  1  0.67820000  0.54930000  0.89940000  1.0 0.1398243525
H  H147  1  0.17820000  0.04930000  0.10060000  1.0 0.1398243525
H  H148  1  0.82180000  0.95070000  0.89940000  1.0 0.1398243525
H  H149  1  0.67820000  0.95070000  0.39940000  1.0 0.1398243525
H  H150  1  0.32180000  0.04930000  0.60060000  1.0 0.1398243525
H  H151  1  0.82180000  0.54930000  0.39940000  1.0 0.1398243525
H  H152  1  0.17820000  0.45070000  0.60060000  1.0 0.1398243525
H  H153  1  0.31210000  0.54550000  0.06400000  1.0 0.1582309355
H  H154  1  0.68790000  0.45450000  0.93600000  1.0 0.1582309355
H  H155  1  0.18790000  0.95450000  0.06400000  1.0 0.1582309355
H  H156  1  0.81210000  0.04550000  0.93600000  1.0 0.1582309355
H  H157  1  0.68790000  0.04550000  0.43600000  1.0 0.1582309355
H  H158  1  0.31210000  0.95450000  0.56400000  1.0 0.1582309355
H  H159  1  0.81210000  0.45450000  0.43600000  1.0 0.1582309355
H  H160  1  0.18790000  0.54550000  0.56400000  1.0 0.1582309355
H  H161  1  0.21030000  0.47140000  0.22550000  1.0 0.1582309355
H  H162  1  0.78970000  0.52860000  0.77450000  1.0 0.1582309355
H  H163  1  0.28970000  0.02860000  0.22550000  1.0 0.1582309355
H  H164  1  0.71030000  0.97140000  0.77450000  1.0 0.1582309355
H  H165  1  0.78970000  0.97140000  0.27450000  1.0 0.1582309355
H  H166  1  0.21030000  0.02860000  0.72550000  1.0 0.1582309355
H  H167  1  0.71030000  0.52860000  0.27450000  1.0 0.1582309355
H  H168  1  0.28970000  0.47140000  0.72550000  1.0 0.1582309355
H  H169  1  0.18450000  0.40780000  0.25950000  1.0 0.1500452713
H  H170  1  0.81550000  0.59220000  0.74050000  1.0 0.1500452713
H  H171  1  0.31550000  0.09220000  0.25950000  1.0 0.1500452713
H  H172  1  0.68450000  0.90780000  0.74050000  1.0 0.1500452713
H  H173  1  0.81550000  0.90780000  0.24050000  1.0 0.1500452713
H  H174  1  0.18450000  0.09220000  0.75950000  1.0 0.1500452713
H  H175  1  0.68450000  0.59220000  0.24050000  1.0 0.1500452713
H  H176  1  0.31550000  0.40780000  0.75950000  1.0 0.1500452713
H  H177  1  0.15870000  0.45610000  0.17360000  1.0 0.1029490325
H  H178  1  0.84130000  0.54390000  0.82640000  1.0 0.1029490325
H  H179  1  0.34130000  0.04390000  0.17360000  1.0 0.1029490325
H  H180  1  0.65870000  0.95610000  0.82640000  1.0 0.1029490325
H  H181  1  0.84130000  0.95610000  0.32640000  1.0 0.1029490325
H  H182  1  0.15870000  0.04390000  0.67360000  1.0 0.1029490325
H  H183  1  0.65870000  0.54390000  0.32640000  1.0 0.1029490325
H  H184  1  0.34130000  0.45610000  0.67360000  1.0 0.1029490325
H  H185  1  0.18880000  0.46960000  0.13350000  1.0 0.131059194
H  H186  1  0.81120000  0.53040000  0.86650000  1.0 0.131059194
H  H187  1  0.31120000  0.03040000  0.13350000  1.0 0.131059194
H  H188  1  0.68880000  0.96960000  0.86650000  1.0 0.131059194
H  H189  1  0.81120000  0.96960000  0.36650000  1.0 0.131059194
H  H190  1  0.18880000  0.03040000  0.63350000  1.0 0.131059194
H  H191  1  0.68880000  0.53040000  0.36650000  1.0 0.131059194
H  H192  1  0.31120000  0.46960000  0.63350000  1.0 0.131059194
C  C1  1  0.13510000  0.71410000  0.25850000  1.0 0.6803394301
C  C2  1  0.86490000  0.28590000  0.74150000  1.0 0.6803394301
C  C3  1  0.36490000  0.78590000  0.25850000  1.0 0.6803394301
C  C4  1  0.63510000  0.21410000  0.74150000  1.0 0.6803394301
C  C5  1  0.86490000  0.21410000  0.24150000  1.0 0.6803394301
C  C6  1  0.13510000  0.78590000  0.75850000  1.0 0.6803394301
C  C7  1  0.63510000  0.28590000  0.24150000  1.0 0.6803394301
C  C8  1  0.36490000  0.71410000  0.75850000  1.0 0.6803394301
C  C9  1  0.14440000  0.62430000  0.29380000  1.0 -0.441690158
C  C10  1  0.85560000  0.37570000  0.70620000  1.0 -0.441690158
C  C11  1  0.35560000  0.87570000  0.29380000  1.0 -0.441690158
C  C12  1  0.64440000  0.12430000  0.70620000  1.0 -0.441690158
C  C13  1  0.85560000  0.12430000  0.20620000  1.0 -0.441690158
C  C14  1  0.14440000  0.87570000  0.79380000  1.0 -0.441690158
C  C15  1  0.64440000  0.37570000  0.20620000  1.0 -0.441690158
C  C16  1  0.35560000  0.62430000  0.79380000  1.0 -0.441690158
C  C17  1  0.12110000  0.59770000  0.33940000  1.0 0.2727775527
C  C18  1  0.87890000  0.40230000  0.66060000  1.0 0.2727775527
C  C19  1  0.37890000  0.90230000  0.33940000  1.0 0.2727775527
C  C20  1  0.62110000  0.09770000  0.66060000  1.0 0.2727775527
C  C21  1  0.87890000  0.09770000  0.16060000  1.0 0.2727775527
C  C22  1  0.12110000  0.90230000  0.83940000  1.0 0.2727775527
C  C23  1  0.62110000  0.40230000  0.16060000  1.0 0.2727775527
C  C24  1  0.37890000  0.59770000  0.83940000  1.0 0.2727775527
C  C25  1  0.13870000  0.51700000  0.37450000  1.0 -0.441690158
C  C26  1  0.86130000  0.48300000  0.62550000  1.0 -0.441690158
C  C27  1  0.36130000  0.98300000  0.37450000  1.0 -0.441690158
C  C28  1  0.63870000  0.01700000  0.62550000  1.0 -0.441690158
C  C29  1  0.86130000  0.01700000  0.12550000  1.0 -0.441690158
C  C30  1  0.13870000  0.98300000  0.87450000  1.0 -0.441690158
C  C31  1  0.63870000  0.48300000  0.12550000  1.0 -0.441690158
C  C32  1  0.36130000  0.51700000  0.87450000  1.0 -0.441690158
C  C33  1  0.11670000  0.46720000  0.41570000  1.0 0.6717989165
C  C34  1  0.88330000  0.53280000  0.58430000  1.0 0.6717989165
C  C35  1  0.38330000  0.03280000  0.41570000  1.0 0.6717989165
C  C36  1  0.61670000  0.96720000  0.58430000  1.0 0.6717989165
C  C37  1  0.88330000  0.96720000  0.08430000  1.0 0.6717989165
C  C38  1  0.11670000  0.03280000  0.91570000  1.0 0.6717989165
C  C39  1  0.61670000  0.53280000  0.08430000  1.0 0.6717989165
C  C40  1  0.38330000  0.46720000  0.91570000  1.0 0.6717989165
C  C41  1  0.08990000  0.54630000  0.31740000  1.0 0.5369947944
C  C42  1  0.91010000  0.45370000  0.68260000  1.0 0.5369947944
C  C43  1  0.41010000  0.95370000  0.31740000  1.0 0.5369947944
C  C44  1  0.58990000  0.04630000  0.68260000  1.0 0.5369947944
C  C45  1  0.91010000  0.04630000  0.18260000  1.0 0.5369947944
C  C46  1  0.08990000  0.95370000  0.81740000  1.0 0.5369947944
C  C47  1  0.58990000  0.45370000  0.18260000  1.0 0.5369947944
C  C48  1  0.41010000  0.54630000  0.81740000  1.0 0.5369947944
C  C49  1  0.16780000  0.75200000  0.00000000  1.0 0.5280081424
C  C50  1  0.83220000  0.24800000  0.00000000  1.0 0.5280081424
C  C51  1  0.33220000  0.74800000  0.00000000  1.0 0.5280081424
C  C52  1  0.66780000  0.25200000  0.00000000  1.0 0.5280081424
C  C53  1  0.83220000  0.25200000  0.50000000  1.0 0.5280081424
C  C54  1  0.16780000  0.74800000  0.50000000  1.0 0.5280081424
C  C55  1  0.66780000  0.24800000  0.50000000  1.0 0.5280081424
C  C56  1  0.33220000  0.75200000  0.50000000  1.0 0.5280081424
C  C57  1  0.15150000  0.65210000  0.97950000  1.0 0.2626364119
C  C58  1  0.84850000  0.34790000  0.02050000  1.0 0.2626364119
C  C59  1  0.34850000  0.84790000  0.97950000  1.0 0.2626364119
C  C60  1  0.65150000  0.15210000  0.02050000  1.0 0.2626364119
C  C61  1  0.84850000  0.15210000  0.52050000  1.0 0.2626364119
C  C62  1  0.15150000  0.84790000  0.47950000  1.0 0.2626364119
C  C63  1  0.65150000  0.34790000  0.52050000  1.0 0.2626364119
C  C64  1  0.34850000  0.65210000  0.47950000  1.0 0.2626364119
C  C65  1  0.14090000  0.58090000  0.02520000  1.0 -0.4508536932
C  C66  1  0.85910000  0.41910000  0.97480000  1.0 -0.4508536932
C  C67  1  0.35910000  0.91910000  0.02520000  1.0 -0.4508536932
C  C68  1  0.64090000  0.08090000  0.97480000  1.0 -0.441690158
C  C69  1  0.85910000  0.08090000  0.47480000  1.0 -0.4508536932
C  C70  1  0.14090000  0.91910000  0.52520000  1.0 -0.4508536932
C  C71  1  0.64090000  0.41910000  0.47480000  1.0 -0.4508536932
C  C72  1  0.35910000  0.58090000  0.52520000  1.0 -0.4508536932
C  C73  1  0.11250000  0.62040000  0.05740000  1.0 0.6964300107
C  C74  1  0.88750000  0.37960000  0.94260000  1.0 0.6964300107
C  C75  1  0.38750000  0.87960000  0.05740000  1.0 0.6964300107
C  C76  1  0.61250000  0.12040000  0.94260000  1.0 0.6964300107
C  C77  1  0.88750000  0.12040000  0.44260000  1.0 0.6964300107
C  C78  1  0.11250000  0.87960000  0.55740000  1.0 0.6964300107
C  C79  1  0.61250000  0.37960000  0.44260000  1.0 0.6964300107
C  C80  1  0.38750000  0.62040000  0.55740000  1.0 0.6964300107
C  C81  1  0.01030000  0.84130000  0.93100000  1.0 -0.4304591449
C  C82  1  0.98970000  0.15870000  0.06900000  1.0 -0.4304591449
C  C83  1  0.48970000  0.65870000  0.93100000  1.0 -0.4304591449
C  C84  1  0.51030000  0.34130000  0.06900000  1.0 -0.4304591449
C  C85  1  0.98970000  0.34130000  0.56900000  1.0 -0.4304591449
C  C86  1  0.01030000  0.65870000  0.43100000  1.0 -0.4304591449
C  C87  1  0.51030000  0.15870000  0.56900000  1.0 -0.4304591449
C  C88  1  0.48970000  0.84130000  0.43100000  1.0 -0.4304591449
C  C89  1  0.03540000  0.79040000  0.96780000  1.0 0.2727775527
C  C90  1  0.96460000  0.20960000  0.03220000  1.0 0.2727775527
C  C91  1  0.46460000  0.70960000  0.96780000  1.0 0.2727775527
C  C92  1  0.53540000  0.29040000  0.03220000  1.0 0.2727775527
C  C93  1  0.96460000  0.29040000  0.53220000  1.0 0.2727775527
C  C94  1  0.03540000  0.70960000  0.46780000  1.0 0.2727775527
C  C95  1  0.53540000  0.20960000  0.53220000  1.0 0.2727775527
C  C96  1  0.46460000  0.79040000  0.46780000  1.0 0.2727775527
C  C97  1  0.04140000  0.86280000  0.01600000  1.0 -0.4236209747
C  C98  1  0.95860000  0.13720000  0.98400000  1.0 -0.4236209747
C  C99  1  0.45860000  0.63720000  0.01600000  1.0 -0.4236209747
C  C100  1  0.54140000  0.36280000  0.98400000  1.0 -0.4236209747
C  C101  1  0.95860000  0.36280000  0.48400000  1.0 -0.4236209747
C  C102  1  0.04140000  0.63720000  0.51600000  1.0 -0.4236209747
C  C103  1  0.54140000  0.13720000  0.48400000  1.0 -0.4236209747
C  C104  1  0.45860000  0.86280000  0.51600000  1.0 -0.4236209747
C  C105  1  0.06960000  0.83260000  0.05260000  1.0 0.6803394301
C  C106  1  0.93040000  0.16740000  0.94740000  1.0 0.6803394301
C  C107  1  0.43040000  0.66740000  0.05260000  1.0 0.6803394301
C  C108  1  0.56960000  0.33260000  0.94740000  1.0 0.6803394301
C  C109  1  0.93040000  0.33260000  0.44740000  1.0 0.6803394301
C  C110  1  0.06960000  0.66740000  0.55260000  1.0 0.6803394301
C  C111  1  0.56960000  0.16740000  0.44740000  1.0 0.6803394301
C  C112  1  0.43040000  0.83260000  0.55260000  1.0 0.6803394301
C  C113  1  0.28690000  0.30450000  0.97150000  1.0 0.6601607445
C  C114  1  0.71310000  0.69550000  0.02850000  1.0 0.6601607445
C  C115  1  0.21310000  0.19550000  0.97150000  1.0 0.6601607445
C  C116  1  0.78690000  0.80450000  0.02850000  1.0 0.6601607445
C  C117  1  0.71310000  0.80450000  0.52850000  1.0 0.6601607445
C  C118  1  0.28690000  0.19550000  0.47150000  1.0 0.6601607445
C  C119  1  0.78690000  0.69550000  0.52850000  1.0 0.6601607445
C  C120  1  0.21310000  0.30450000  0.47150000  1.0 0.6601607445
C  C121  1  0.30170000  0.38860000  0.00600000  1.0 -0.4304591449
C  C122  1  0.69830000  0.61140000  0.99400000  1.0 -0.4304591449
C  C123  1  0.19830000  0.11140000  0.00600000  1.0 -0.4304591449
C  C124  1  0.80170000  0.88860000  0.99400000  1.0 -0.4304591449
C  C125  1  0.69830000  0.88860000  0.49400000  1.0 -0.4304591449
C  C126  1  0.30170000  0.11140000  0.50600000  1.0 -0.4304591449
C  C127  1  0.80170000  0.61140000  0.49400000  1.0 -0.4304591449
C  C128  1  0.19830000  0.38860000  0.50600000  1.0 -0.4304591449
C  C129  1  0.25160000  0.49020000  0.03700000  1.0 0.5243702176
C  C130  1  0.74840000  0.50980000  0.96300000  1.0 0.5243702176
C  C131  1  0.24840000  0.00980000  0.03700000  1.0 0.5243702176
C  C132  1  0.75160000  0.99020000  0.96300000  1.0 0.5243702176
C  C133  1  0.74840000  0.99020000  0.46300000  1.0 0.5243702176
C  C134  1  0.25160000  0.00980000  0.53700000  1.0 0.5243702176
C  C135  1  0.75160000  0.50980000  0.46300000  1.0 0.5243702176
C  C136  1  0.24840000  0.49020000  0.53700000  1.0 0.5243702176
C  C137  1  0.17250000  0.25120000  0.19870000  1.0 0.507247949
C  C138  1  0.82750000  0.74880000  0.80130000  1.0 0.507247949
C  C139  1  0.32750000  0.24880000  0.19870000  1.0 0.507247949
C  C140  1  0.67250000  0.75120000  0.80130000  1.0 0.507247949
C  C141  1  0.82750000  0.75120000  0.30130000  1.0 0.507247949
C  C142  1  0.17250000  0.24880000  0.69870000  1.0 0.507247949
C  C143  1  0.67250000  0.74880000  0.30130000  1.0 0.507247949
C  C144  1  0.32750000  0.25120000  0.69870000  1.0 0.507247949
C  C145  1  0.23120000  0.35540000  0.26910000  1.0 0.6803394301
C  C146  1  0.76880000  0.64460000  0.73090000  1.0 0.6803394301
C  C147  1  0.26880000  0.14460000  0.26910000  1.0 0.6803394301
C  C148  1  0.73120000  0.85540000  0.73090000  1.0 0.6803394301
C  C149  1  0.76880000  0.85540000  0.23090000  1.0 0.6803394301
C  C150  1  0.23120000  0.14460000  0.76910000  1.0 0.6803394301
C  C151  1  0.73120000  0.64460000  0.23090000  1.0 0.6803394301
C  C152  1  0.26880000  0.35540000  0.76910000  1.0 0.6803394301
C  C153  1  0.07700000  0.41020000  0.91470000  1.0 0.6717989165
C  C154  1  0.92300000  0.58980000  0.08530000  1.0 0.6717989165
C  C155  1  0.42300000  0.08980000  0.91470000  1.0 0.6717989165
C  C156  1  0.57700000  0.91020000  0.08530000  1.0 0.6717989165
C  C157  1  0.92300000  0.91020000  0.58530000  1.0 0.6717989165
C  C158  1  0.07700000  0.08980000  0.41470000  1.0 0.6717989165
C  C159  1  0.57700000  0.58980000  0.58530000  1.0 0.6717989165
C  C160  1  0.42300000  0.41020000  0.41470000  1.0 0.6717989165
C  C161  1  0.05830000  0.45730000  0.86880000  1.0 -0.441690158
C  C162  1  0.94170000  0.54270000  0.13120000  1.0 -0.441690158
C  C163  1  0.44170000  0.04270000  0.86880000  1.0 -0.441690158
C  C164  1  0.55830000  0.95730000  0.13120000  1.0 -0.441690158
C  C165  1  0.94170000  0.95730000  0.63120000  1.0 -0.441690158
C  C166  1  0.05830000  0.04270000  0.36880000  1.0 -0.441690158
C  C167  1  0.55830000  0.54270000  0.63120000  1.0 -0.441690158
C  C168  1  0.44170000  0.45730000  0.36880000  1.0 -0.441690158
C  C169  1  0.07760000  0.53990000  0.83730000  1.0 0.2727775527
C  C170  1  0.92240000  0.46010000  0.16270000  1.0 0.2727775527
C  C171  1  0.42240000  0.96010000  0.83730000  1.0 0.2727775527
C  C172  1  0.57760000  0.03990000  0.16270000  1.0 0.2727775527
C  C173  1  0.92240000  0.03990000  0.66270000  1.0 0.2727775527
C  C174  1  0.07760000  0.96010000  0.33730000  1.0 0.2727775527
C  C175  1  0.57760000  0.46010000  0.66270000  1.0 0.2727775527
C  C176  1  0.42240000  0.53990000  0.33730000  1.0 0.2727775527
C  C177  1  0.05780000  0.56330000  0.78660000  1.0 -0.441690158
C  C178  1  0.94220000  0.43670000  0.21340000  1.0 -0.441690158
C  C179  1  0.44220000  0.93670000  0.78660000  1.0 -0.441690158
C  C180  1  0.55780000  0.06330000  0.21340000  1.0 -0.441690158
C  C181  1  0.94220000  0.06330000  0.71340000  1.0 -0.441690158
C  C182  1  0.05780000  0.93670000  0.28660000  1.0 -0.441690158
C  C183  1  0.55780000  0.43670000  0.71340000  1.0 -0.441690158
C  C184  1  0.44220000  0.56330000  0.28660000  1.0 -0.441690158
C  C185  1  0.11090000  0.49130000  0.82190000  1.0 0.5369947944
C  C186  1  0.88910000  0.50870000  0.17810000  1.0 0.5369947944
C  C187  1  0.38910000  0.00870000  0.82190000  1.0 0.5369947944
C  C188  1  0.61090000  0.99130000  0.17810000  1.0 0.5369947944
C  C189  1  0.88910000  0.99130000  0.67810000  1.0 0.5369947944
C  C190  1  0.11090000  0.00870000  0.32190000  1.0 0.5369947944
C  C191  1  0.61090000  0.50870000  0.67810000  1.0 0.5369947944
C  C192  1  0.38910000  0.49130000  0.32190000  1.0 0.5369947944
C  C193  1  0.01930000  0.68890000  0.98640000  1.0 0.5024448055
C  C194  1  0.98070000  0.31110000  0.01360000  1.0 0.5024448055
C  C195  1  0.48070000  0.81110000  0.98640000  1.0 0.5024448055
C  C196  1  0.51930000  0.18890000  0.01360000  1.0 0.5024448055
C  C197  1  0.98070000  0.18890000  0.51360000  1.0 0.5024448055
C  C198  1  0.01930000  0.81110000  0.48640000  1.0 0.5024448055
C  C199  1  0.51930000  0.31110000  0.51360000  1.0 0.5024448055
C  C200  1  0.48070000  0.68890000  0.48640000  1.0 0.5024448055
C  C201  1  0.99780000  0.76930000  0.88730000  1.0 0.6490538362
C  C202  1  0.00220000  0.23070000  0.11270000  1.0 0.6490538362
C  C203  1  0.50220000  0.73070000  0.88730000  1.0 0.6490538362
C  C204  1  0.49780000  0.26930000  0.11270000  1.0 0.6490538362
C  C205  1  0.00220000  0.26930000  0.61270000  1.0 0.6490538362
C  C206  1  0.99780000  0.73070000  0.38730000  1.0 0.6490538362
C  C207  1  0.49780000  0.23070000  0.61270000  1.0 0.6490538362
C  C208  1  0.50220000  0.76930000  0.38730000  1.0 0.6490538362
C  C209  1  0.17820000  0.59490000  0.94700000  1.0 -0.441690158
C  C210  1  0.82180000  0.40510000  0.05300000  1.0 -0.441690158
C  C211  1  0.32180000  0.90510000  0.94700000  1.0 -0.441690158
C  C212  1  0.67820000  0.09490000  0.05300000  1.0 -0.441690158
C  C213  1  0.82180000  0.09490000  0.55300000  1.0 -0.441690158
C  C214  1  0.17820000  0.90510000  0.44700000  1.0 -0.441690158
C  C215  1  0.67820000  0.40510000  0.55300000  1.0 -0.441690158
C  C216  1  0.32180000  0.59490000  0.44700000  1.0 -0.441690158
C  C217  1  0.19460000  0.67050000  0.90930000  1.0 0.6717989165
C  C218  1  0.80540000  0.32950000  0.09070000  1.0 0.6717989165
C  C219  1  0.30540000  0.82950000  0.90930000  1.0 0.6717989165
C  C220  1  0.69460000  0.17050000  0.09070000  1.0 0.6717989165
C  C221  1  0.80540000  0.17050000  0.59070000  1.0 0.6717989165
C  C222  1  0.19460000  0.82950000  0.40930000  1.0 0.6717989165
C  C223  1  0.69460000  0.32950000  0.59070000  1.0 0.6717989165
C  C224  1  0.30540000  0.67050000  0.40930000  1.0 0.6717989165
C  C225  1  0.28060000  0.42270000  0.05400000  1.0 0.2626364119
C  C226  1  0.71940000  0.57730000  0.94600000  1.0 0.2626364119
C  C227  1  0.21940000  0.07730000  0.05400000  1.0 0.2626364119
C  C228  1  0.78060000  0.92270000  0.94600000  1.0 0.2626364119
C  C229  1  0.71940000  0.92270000  0.44600000  1.0 0.2626364119
C  C230  1  0.28060000  0.07730000  0.55400000  1.0 0.2626364119
C  C231  1  0.78060000  0.57730000  0.44600000  1.0 0.2626364119
C  C232  1  0.21940000  0.42270000  0.55400000  1.0 0.2626364119
C  C233  1  0.30330000  0.49210000  0.08790000  1.0 -0.441690158
C  C234  1  0.69670000  0.50790000  0.91210000  1.0 -0.441690158
C  C235  1  0.19670000  0.00790000  0.08790000  1.0 -0.441690158
C  C236  1  0.80330000  0.99210000  0.91210000  1.0 -0.441690158
C  C237  1  0.69670000  0.99210000  0.41210000  1.0 -0.441690158
C  C238  1  0.30330000  0.00790000  0.58790000  1.0 -0.441690158
C  C239  1  0.80330000  0.50790000  0.41210000  1.0 -0.441690158
C  C240  1  0.19670000  0.49210000  0.58790000  1.0 -0.441690158
C  C241  1  0.28810000  0.54330000  0.13650000  1.0 0.6490538362
C  C242  1  0.71190000  0.45670000  0.86350000  1.0 0.6490538362
C  C243  1  0.21190000  0.95670000  0.13650000  1.0 0.6490538362
C  C244  1  0.78810000  0.04330000  0.86350000  1.0 0.6490538362
C  C245  1  0.71190000  0.04330000  0.36350000  1.0 0.6490538362
C  C246  1  0.28810000  0.95670000  0.63650000  1.0 0.6490538362
C  C247  1  0.78810000  0.45670000  0.36350000  1.0 0.6490538362
C  C248  1  0.21190000  0.54330000  0.63650000  1.0 0.6490538362
C  C249  1  0.19410000  0.34290000  0.18450000  1.0 0.2727775527
C  C250  1  0.80590000  0.65710000  0.81550000  1.0 0.2727775527
C  C251  1  0.30590000  0.15710000  0.18450000  1.0 0.2727775527
C  C252  1  0.69410000  0.84290000  0.81550000  1.0 0.2727775527
C  C253  1  0.80590000  0.84290000  0.31550000  1.0 0.2727775527
C  C254  1  0.19410000  0.15710000  0.68450000  1.0 0.2727775527
C  C255  1  0.69410000  0.65710000  0.31550000  1.0 0.2727775527
C  C256  1  0.30590000  0.34290000  0.68450000  1.0 0.2727775527
C  C257  1  0.20390000  0.40180000  0.23610000  1.0 -0.4304591449
C  C258  1  0.79610000  0.59820000  0.76390000  1.0 -0.4304591449
C  C259  1  0.29610000  0.09820000  0.23610000  1.0 -0.4304591449
C  C260  1  0.70390000  0.90180000  0.76390000  1.0 -0.4304591449
C  C261  1  0.79610000  0.90180000  0.26390000  1.0 -0.4304591449
C  C262  1  0.20390000  0.09820000  0.73610000  1.0 -0.4304591449
C  C263  1  0.70390000  0.59820000  0.26390000  1.0 -0.4304591449
C  C264  1  0.29610000  0.40180000  0.73610000  1.0 -0.4304591449
C  C265  1  0.15480000  0.36630000  0.10490000  1.0 0.6490538362
C  C266  1  0.84520000  0.63370000  0.89510000  1.0 0.6490538362
C  C267  1  0.34520000  0.13370000  0.10490000  1.0 0.6490538362
C  C268  1  0.65480000  0.86630000  0.89510000  1.0 0.6490538362
C  C269  1  0.84520000  0.86630000  0.39510000  1.0 0.6490538362
C  C270  1  0.15480000  0.13370000  0.60490000  1.0 0.6490538362
C  C271  1  0.65480000  0.63370000  0.39510000  1.0 0.6490538362
C  C272  1  0.34520000  0.36630000  0.60490000  1.0 0.6490538362
C  C273  1  0.06870000  0.65180000  0.75330000  1.0 0.6964300107
C  C274  1  0.93130000  0.34820000  0.24670000  1.0 0.6964300107
C  C275  1  0.43130000  0.84820000  0.75330000  1.0 0.6964300107
C  C276  1  0.56870000  0.15180000  0.24670000  1.0 0.6964300107
C  C277  1  0.93130000  0.15180000  0.74670000  1.0 0.6964300107
C  C278  1  0.06870000  0.84820000  0.25330000  1.0 0.6964300107
C  C279  1  0.56870000  0.34820000  0.74670000  1.0 0.6964300107
C  C280  1  0.43130000  0.65180000  0.25330000  1.0 0.6964300107
C  C281  1  0.17390000  0.41920000  0.14980000  1.0 -0.4508536932
C  C282  1  0.82610000  0.58080000  0.85020000  1.0 -0.4508536932
C  C283  1  0.32610000  0.08080000  0.14980000  1.0 -0.4508536932
C  C284  1  0.67390000  0.91920000  0.85020000  1.0 -0.4508536932
C  C285  1  0.82610000  0.91920000  0.35020000  1.0 -0.4508536932
C  C286  1  0.17390000  0.08080000  0.64980000  1.0 -0.4508536932
C  C287  1  0.67390000  0.58080000  0.35020000  1.0 -0.4508536932
C  C288  1  0.32610000  0.41920000  0.64980000  1.0 -0.4508536932
O  O1  1  0.11240000  0.68320000  0.37000000  1.0 -0.6513263844
O  O2  1  0.88760000  0.31680000  0.63000000  1.0 -0.6513263844
O  O3  1  0.38760000  0.81680000  0.37000000  1.0 -0.6513263844
O  O4  1  0.61240000  0.18320000  0.63000000  1.0 -0.6513263844
O  O5  1  0.88760000  0.18320000  0.13000000  1.0 -0.6513263844
O  O6  1  0.11240000  0.81680000  0.87000000  1.0 -0.6513263844
O  O7  1  0.61240000  0.31680000  0.13000000  1.0 -0.6513263844
O  O8  1  0.38760000  0.68320000  0.87000000  1.0 -0.6513263844
O  O9  1  0.08260000  0.62670000  0.86880000  1.0 -0.6402000376
O  O10  1  0.91740000  0.37330000  0.13120000  1.0 -0.6402000376
O  O11  1  0.41740000  0.87330000  0.86880000  1.0 -0.6402000376
O  O12  1  0.58260000  0.12670000  0.13120000  1.0 -0.6402000376
O  O13  1  0.91740000  0.12670000  0.63120000  1.0 -0.6402000376
O  O14  1  0.08260000  0.87330000  0.36880000  1.0 -0.6402000376
O  O15  1  0.58260000  0.37330000  0.63120000  1.0 -0.6402000376
O  O16  1  0.41740000  0.62670000  0.36880000  1.0 -0.6402000376
O  O17  1  0.06417000  0.76900000  0.93960000  1.0 -0.6402000376
O  O18  1  0.93583000  0.23100000  0.06040000  1.0 -0.6402000376
O  O19  1  0.43583000  0.73100000  0.93960000  1.0 -0.6402000376
O  O20  1  0.56417000  0.26900000  0.06040000  1.0 -0.6402000376
O  O21  1  0.93583000  0.26900000  0.56040000  1.0 -0.6402000376
O  O22  1  0.06417000  0.73100000  0.43960000  1.0 -0.6402000376
O  O23  1  0.56417000  0.23100000  0.56040000  1.0 -0.6402000376
O  O24  1  0.43583000  0.76900000  0.43960000  1.0 -0.6402000376
O  O25  1  0.12495000  0.67670000  0.94590000  1.0 -0.6513263844
O  O26  1  0.87505000  0.32330000  0.05410000  1.0 -0.6513263844
O  O27  1  0.37505000  0.82330000  0.94590000  1.0 -0.6513263844
O  O28  1  0.62495000  0.17670000  0.05410000  1.0 -0.6513263844
O  O29  1  0.87505000  0.17670000  0.55410000  1.0 -0.6513263844
O  O30  1  0.12495000  0.82330000  0.44590000  1.0 -0.6513263844
O  O31  1  0.62495000  0.32330000  0.55410000  1.0 -0.6513263844
O  O32  1  0.37505000  0.67670000  0.44590000  1.0 -0.6513263844
O  O33  1  0.06675000  0.74030000  0.77330000  1.0 -0.5378216487
O  O34  1  0.93325000  0.25970000  0.22670000  1.0 -0.5378216487
O  O35  1  0.43325000  0.75970000  0.77330000  1.0 -0.5378216487
O  O36  1  0.56675000  0.24030000  0.22670000  1.0 -0.5378216487
O  O37  1  0.93325000  0.24030000  0.72670000  1.0 -0.5378216487
O  O38  1  0.06675000  0.75970000  0.27330000  1.0 -0.5378216487
O  O39  1  0.56675000  0.25970000  0.72670000  1.0 -0.5378216487
O  O40  1  0.43325000  0.74030000  0.27330000  1.0 -0.5378216487
O  O41  1  0.01682000  0.74080000  0.85130000  1.0 -0.5495474122
O  O42  1  0.98318000  0.25920000  0.14870000  1.0 -0.5495474122
O  O43  1  0.48318000  0.75920000  0.85130000  1.0 -0.5495474122
O  O44  1  0.51682000  0.24080000  0.14870000  1.0 -0.5495474122
O  O45  1  0.98318000  0.24080000  0.64870000  1.0 -0.5495474122
O  O46  1  0.01682000  0.75920000  0.35130000  1.0 -0.5495474122
O  O47  1  0.51682000  0.25920000  0.64870000  1.0 -0.5495474122
O  O48  1  0.48318000  0.74080000  0.35130000  1.0 -0.5495474122
O  O49  1  0.06255000  0.58190000  0.33180000  1.0 -0.4918472823
O  O50  1  0.93745000  0.41810000  0.66820000  1.0 -0.4918472823
O  O51  1  0.43745000  0.91810000  0.33180000  1.0 -0.4918472823
O  O52  1  0.56255000  0.08190000  0.66820000  1.0 -0.4918472823
O  O53  1  0.93745000  0.08190000  0.16820000  1.0 -0.4918472823
O  O54  1  0.06255000  0.91810000  0.83180000  1.0 -0.4918472823
O  O55  1  0.56255000  0.41810000  0.16820000  1.0 -0.4918472823
O  O56  1  0.43745000  0.58190000  0.83180000  1.0 -0.4918472823
O  O57  1  0.11845000  0.65270000  0.10390000  1.0 -0.6604936925
O  O58  1  0.88155000  0.34730000  0.89610000  1.0 -0.6604936925
O  O59  1  0.38155000  0.84730000  0.10390000  1.0 -0.6604936925
O  O60  1  0.61845000  0.15270000  0.89610000  1.0 -0.6604936925
O  O61  1  0.88155000  0.15270000  0.39610000  1.0 -0.6604936925
O  O62  1  0.11845000  0.84730000  0.60390000  1.0 -0.6604936925
O  O63  1  0.61845000  0.34730000  0.39610000  1.0 -0.6604936925
O  O64  1  0.38155000  0.65270000  0.60390000  1.0 -0.6604936925
O  O65  1  0.06335000  0.80880000  0.10100000  1.0 -0.5495474122
O  O66  1  0.93665000  0.19120000  0.89900000  1.0 -0.5495474122
O  O67  1  0.43665000  0.69120000  0.10100000  1.0 -0.5495474122
O  O68  1  0.56335000  0.30880000  0.89900000  1.0 -0.5495474122
O  O69  1  0.93665000  0.30880000  0.39900000  1.0 -0.5495474122
O  O70  1  0.06335000  0.69120000  0.60100000  1.0 -0.5495474122
O  O71  1  0.56335000  0.19120000  0.39900000  1.0 -0.5495474122
O  O72  1  0.43665000  0.80880000  0.60100000  1.0 -0.5495474122
O  O73  1  0.07827000  0.63580000  0.70590000  1.0 -0.6079218965
O  O74  1  0.92173000  0.36420000  0.29410000  1.0 -0.6079218965
O  O75  1  0.42173000  0.86420000  0.70590000  1.0 -0.6079218965
O  O76  1  0.57827000  0.13580000  0.29410000  1.0 -0.6079218965
O  O77  1  0.92173000  0.13580000  0.79410000  1.0 -0.6079218965
O  O78  1  0.07827000  0.86420000  0.20590000  1.0 -0.6079218965
O  O79  1  0.57827000  0.36420000  0.79410000  1.0 -0.6079218965
O  O80  1  0.42173000  0.63580000  0.20590000  1.0 -0.6079218965
O  O81  1  0.12950000  0.69630000  0.21010000  1.0 -0.6513263844
O  O82  1  0.87050000  0.30370000  0.78990000  1.0 -0.6513263844
O  O83  1  0.37050000  0.80370000  0.21010000  1.0 -0.6513263844
O  O84  1  0.62950000  0.19630000  0.78990000  1.0 -0.6513263844
O  O85  1  0.87050000  0.19630000  0.28990000  1.0 -0.6513263844
O  O86  1  0.12950000  0.80370000  0.71010000  1.0 -0.6513263844
O  O87  1  0.62950000  0.30370000  0.28990000  1.0 -0.6513263844
O  O88  1  0.37050000  0.69630000  0.71010000  1.0 -0.6513263844
O  O89  1  0.11358000  0.37170000  0.41410000  1.0 -0.6322656735
O  O90  1  0.88642000  0.62830000  0.58590000  1.0 -0.6322656735
O  O91  1  0.38642000  0.12830000  0.41410000  1.0 -0.6322656735
O  O92  1  0.61358000  0.87170000  0.58590000  1.0 -0.6322656735
O  O93  1  0.88642000  0.87170000  0.08590000  1.0 -0.6322656735
O  O94  1  0.11358000  0.12830000  0.91410000  1.0 -0.6322656735
O  O95  1  0.61358000  0.62830000  0.08590000  1.0 -0.6322656735
O  O96  1  0.38642000  0.37170000  0.91410000  1.0 -0.6322656735
O  O97  1  0.08066000  0.31530000  0.91350000  1.0 -0.5870792699
O  O98  1  0.91934000  0.68470000  0.08650000  1.0 -0.5870792699
O  O99  1  0.41934000  0.18470000  0.91350000  1.0 -0.5870792699
O  O100  1  0.58066000  0.81530000  0.08650000  1.0 -0.5870792699
O  O101  1  0.91934000  0.81530000  0.58650000  1.0 -0.5870792699
O  O102  1  0.08066000  0.18470000  0.41350000  1.0 -0.5870792699
O  O103  1  0.58066000  0.68470000  0.58650000  1.0 -0.5870792699
O  O104  1  0.41934000  0.31530000  0.41350000  1.0 -0.5870792699
O  O105  1  0.07929000  0.30330000  0.03890000  1.0 -0.403331181
O  O106  1  0.92071000  0.69670000  0.96110000  1.0 -0.403331181
O  O107  1  0.42071000  0.19670000  0.03890000  1.0 -0.403331181
O  O108  1  0.57929000  0.80330000  0.96110000  1.0 -0.403331181
O  O109  1  0.92071000  0.80330000  0.46110000  1.0 -0.403331181
O  O110  1  0.07929000  0.19670000  0.53890000  1.0 -0.403331181
O  O111  1  0.57929000  0.69670000  0.46110000  1.0 -0.403331181
O  O112  1  0.42071000  0.30330000  0.53890000  1.0 -0.403331181
O  O113  1  0.22326000  0.32580000  0.31600000  1.0 -0.6079218965
O  O114  1  0.77674000  0.67420000  0.68400000  1.0 -0.6079218965
O  O115  1  0.27674000  0.17420000  0.31600000  1.0 -0.6079218965
O  O116  1  0.72326000  0.82580000  0.68400000  1.0 -0.6079218965
O  O117  1  0.77674000  0.82580000  0.18400000  1.0 -0.6079218965
O  O118  1  0.22326000  0.17420000  0.81600000  1.0 -0.6079218965
O  O119  1  0.72326000  0.67420000  0.18400000  1.0 -0.6079218965
O  O120  1  0.27674000  0.32580000  0.81600000  1.0 -0.6079218965
O  O121  1  0.27973000  0.32850000  0.92330000  1.0 -0.5277519332
O  O122  1  0.72027000  0.67150000  0.07670000  1.0 -0.5277519332
O  O123  1  0.22027000  0.17150000  0.92330000  1.0 -0.5277519332
O  O124  1  0.77973000  0.82850000  0.07670000  1.0 -0.5277519332
O  O125  1  0.72027000  0.82850000  0.57670000  1.0 -0.5277519332
O  O126  1  0.27973000  0.17150000  0.42330000  1.0 -0.5277519332
O  O127  1  0.77973000  0.67150000  0.57670000  1.0 -0.5277519332
O  O128  1  0.22027000  0.32850000  0.42330000  1.0 -0.5277519332
O  O129  1  0.22149000  0.31020000  0.15490000  1.0 -0.6402000376
O  O130  1  0.77851000  0.68980000  0.84510000  1.0 -0.6402000376
O  O131  1  0.27851000  0.18980000  0.15490000  1.0 -0.6402000376
O  O132  1  0.72149000  0.81020000  0.84510000  1.0 -0.6402000376
O  O133  1  0.77851000  0.81020000  0.34510000  1.0 -0.6402000376
O  O134  1  0.22149000  0.18980000  0.65490000  1.0 -0.6402000376
O  O135  1  0.72149000  0.68980000  0.34510000  1.0 -0.6402000376
O  O136  1  0.27851000  0.31020000  0.65490000  1.0 -0.6402000376
O  O137  1  0.28328000  0.21680000  0.98990000  1.0 -0.5495474122
O  O138  1  0.71672000  0.78320000  0.01010000  1.0 -0.5495474122
O  O139  1  0.21672000  0.28320000  0.98990000  1.0 -0.5495474122
O  O140  1  0.78328000  0.71680000  0.01010000  1.0 -0.5495474122
O  O141  1  0.71672000  0.71680000  0.51010000  1.0 -0.5495474122
O  O142  1  0.28328000  0.28320000  0.48990000  1.0 -0.5495474122
O  O143  1  0.78328000  0.78320000  0.51010000  1.0 -0.5495474122
O  O144  1  0.21672000  0.21680000  0.48990000  1.0 -0.5495474122
O  O145  1  0.22324000  0.46200000  0.05140000  1.0 -0.5495474122
O  O146  1  0.77676000  0.53800000  0.94860000  1.0 -0.5495474122
O  O147  1  0.27676000  0.03800000  0.05140000  1.0 -0.5495474122
O  O148  1  0.72324000  0.96200000  0.94860000  1.0 -0.5495474122
O  O149  1  0.77676000  0.96200000  0.44860000  1.0 -0.5495474122
O  O150  1  0.22324000  0.03800000  0.55140000  1.0 -0.5495474122
O  O151  1  0.72324000  0.53800000  0.44860000  1.0 -0.5495474122
O  O152  1  0.27676000  0.46200000  0.55140000  1.0 -0.5495474122
O  O153  1  0.16998000  0.31260000  0.07140000  1.0 -0.5277519332
O  O154  1  0.83002000  0.68740000  0.92860000  1.0 -0.5277519332
O  O155  1  0.33002000  0.18740000  0.07140000  1.0 -0.5277519332
O  O156  1  0.66998000  0.81260000  0.92860000  1.0 -0.5277519332
O  O157  1  0.83002000  0.81260000  0.42860000  1.0 -0.5277519332
O  O158  1  0.16998000  0.18740000  0.57140000  1.0 -0.5277519332
O  O159  1  0.66998000  0.68740000  0.42860000  1.0 -0.5277519332
O  O160  1  0.33002000  0.31260000  0.57140000  1.0 -0.5277519332
O  O161  1  0.26946000  0.33830000  0.08370000  1.0 -0.6513263844
O  O162  1  0.73054000  0.66170000  0.91630000  1.0 -0.6513263844
O  O163  1  0.23054000  0.16170000  0.08370000  1.0 -0.6513263844
O  O164  1  0.76946000  0.83830000  0.91630000  1.0 -0.6513263844
O  O165  1  0.73054000  0.83830000  0.41630000  1.0 -0.6513263844
O  O166  1  0.26946000  0.16170000  0.58370000  1.0 -0.6513263844
O  O167  1  0.76946000  0.66170000  0.41630000  1.0 -0.6513263844
O  O168  1  0.23054000  0.33830000  0.58370000  1.0 -0.6513263844
O  O169  1  0.18312000  0.16280000  0.18750000  1.0 -0.6322656735
O  O170  1  0.81688000  0.83720000  0.81250000  1.0 -0.6322656735
O  O171  1  0.31688000  0.33720000  0.18750000  1.0 -0.6322656735
O  O172  1  0.68312000  0.66280000  0.81250000  1.0 -0.6322656735
O  O173  1  0.81688000  0.66280000  0.31250000  1.0 -0.6322656735
O  O174  1  0.18312000  0.33720000  0.68750000  1.0 -0.6322656735
O  O175  1  0.68312000  0.83720000  0.31250000  1.0 -0.6322656735
O  O176  1  0.31688000  0.16280000  0.68750000  1.0 -0.6322656735
O  O177  1  0.26675000  0.49870000  0.16380000  1.0 -0.5578172685
O  O178  1  0.73325000  0.50130000  0.83620000  1.0 -0.5578172685
O  O179  1  0.23325000  0.00130000  0.16380000  1.0 -0.5578172685
O  O180  1  0.76675000  0.99870000  0.83620000  1.0 -0.5578172685
O  O181  1  0.73325000  0.99870000  0.33620000  1.0 -0.5578172685
O  O182  1  0.26675000  0.00130000  0.66380000  1.0 -0.5578172685
O  O183  1  0.76675000  0.50130000  0.33620000  1.0 -0.5578172685
O  O184  1  0.23325000  0.49870000  0.66380000  1.0 -0.5578172685
O  O185  1  0.08801000  0.46550000  0.95180000  1.0 -0.5378216487
O  O186  1  0.91199000  0.53450000  0.04820000  1.0 -0.5378216487
O  O187  1  0.41199000  0.03450000  0.95180000  1.0 -0.5378216487
O  O188  1  0.58801000  0.96550000  0.04820000  1.0 -0.5378216487
O  O189  1  0.91199000  0.96550000  0.54820000  1.0 -0.5378216487
O  O190  1  0.08801000  0.03450000  0.45180000  1.0 -0.5378216487
O  O191  1  0.58801000  0.53450000  0.54820000  1.0 -0.5378216487
O  O192  1  0.41199000  0.46550000  0.45180000  1.0 -0.5378216487
O  O193  1  0.13384000  0.80160000  0.27960000  1.0 -0.5378216487
O  O194  1  0.86616000  0.19840000  0.72040000  1.0 -0.5378216487
O  O195  1  0.36616000  0.69840000  0.27960000  1.0 -0.5378216487
O  O196  1  0.63384000  0.30160000  0.72040000  1.0 -0.5378216487
O  O197  1  0.86616000  0.30160000  0.22040000  1.0 -0.5378216487
O  O198  1  0.13384000  0.69840000  0.77960000  1.0 -0.5378216487
O  O199  1  0.63384000  0.19840000  0.22040000  1.0 -0.5378216487
O  O200  1  0.36616000  0.80160000  0.77960000  1.0 -0.5378216487
O  O201  1  0.17884000  0.70300000  0.86830000  1.0 -0.6161521878
O  O202  1  0.82116000  0.29700000  0.13170000  1.0 -0.6161521878
O  O203  1  0.32116000  0.79700000  0.86830000  1.0 -0.6161521878
O  O204  1  0.67884000  0.20300000  0.13170000  1.0 -0.6161521878
O  O205  1  0.82116000  0.20300000  0.63170000  1.0 -0.6161521878
O  O206  1  0.17884000  0.79700000  0.36830000  1.0 -0.6161521878
O  O207  1  0.67884000  0.29700000  0.63170000  1.0 -0.6161521878
O  O208  1  0.32116000  0.70300000  0.36830000  1.0 -0.6161521878
O  O209  1  0.08477000  0.61870000  0.03620000  1.0 -0.5786908847
O  O210  1  0.91523000  0.38130000  0.96380000  1.0 -0.5786908847
O  O211  1  0.41523000  0.88130000  0.03620000  1.0 -0.5786908847
O  O212  1  0.58477000  0.11870000  0.96380000  1.0 -0.5786908847
O  O213  1  0.91523000  0.11870000  0.46380000  1.0 -0.5786908847
O  O214  1  0.08477000  0.88130000  0.53620000  1.0 -0.5786908847
O  O215  1  0.58477000  0.38130000  0.46380000  1.0 -0.5786908847
O  O216  1  0.41523000  0.61870000  0.53620000  1.0 -0.5786908847
O  O217  1  0.03081000  0.60560000  0.96810000  1.0 -0.6322656735
O  O218  1  0.96919000  0.39440000  0.03190000  1.0 -0.6322656735
O  O219  1  0.46919000  0.89440000  0.96810000  1.0 -0.6322656735
O  O220  1  0.53081000  0.10560000  0.03190000  1.0 -0.6322656735
O  O221  1  0.96919000  0.10560000  0.53190000  1.0 -0.6322656735
O  O222  1  0.03081000  0.89440000  0.46810000  1.0 -0.6322656735
O  O223  1  0.53081000  0.39440000  0.53190000  1.0 -0.6322656735
O  O224  1  0.46919000  0.60560000  0.46810000  1.0 -0.6322656735
O  O225  1  0.10238000  0.52260000  0.44990000  1.0 -0.5495474122
O  O226  1  0.89762000  0.47740000  0.55010000  1.0 -0.5495474122
O  O227  1  0.39762000  0.97740000  0.44990000  1.0 -0.5495474122
O  O228  1  0.60238000  0.02260000  0.55010000  1.0 -0.5495474122
O  O229  1  0.89762000  0.02260000  0.05010000  1.0 -0.5495474122
O  O230  1  0.10238000  0.97740000  0.94990000  1.0 -0.5495474122
O  O231  1  0.60238000  0.47740000  0.05010000  1.0 -0.5495474122
O  O232  1  0.39762000  0.52260000  0.94990000  1.0 -0.5495474122
O  O233  1  0.15652000  0.83590000  0.98330000  1.0 -0.4999321905
O  O234  1  0.84348000  0.16410000  0.01670000  1.0 -0.4999321905
O  O235  1  0.34348000  0.66410000  0.98330000  1.0 -0.4999321905
O  O236  1  0.65652000  0.33590000  0.01670000  1.0 -0.4999321905
O  O237  1  0.84348000  0.33590000  0.51670000  1.0 -0.4999321905
O  O238  1  0.15652000  0.66410000  0.48330000  1.0 -0.4999321905
O  O239  1  0.65652000  0.16410000  0.51670000  1.0 -0.4999321905
O  O240  1  0.34348000  0.83590000  0.48330000  1.0 -0.4999321905
O  O241  1  0.09795000  0.83690000  0.03420000  1.0 -0.5495474122
O  O242  1  0.90205000  0.16310000  0.96580000  1.0 -0.5495474122
O  O243  1  0.40205000  0.66310000  0.03420000  1.0 -0.5495474122
O  O244  1  0.59795000  0.33690000  0.96580000  1.0 -0.5495474122
O  O245  1  0.90205000  0.33690000  0.46580000  1.0 -0.5495474122
O  O246  1  0.09795000  0.66310000  0.53420000  1.0 -0.5495474122
O  O247  1  0.59795000  0.16310000  0.46580000  1.0 -0.5495474122
O  O248  1  0.40205000  0.83690000  0.53420000  1.0 -0.5495474122
O  O249  1  0.14568000  0.26740000  0.22040000  1.0 -0.5578172685
O  O250  1  0.85432000  0.73260000  0.77960000  1.0 -0.5578172685
O  O251  1  0.35432000  0.23260000  0.22040000  1.0 -0.5578172685
O  O252  1  0.64568000  0.76740000  0.77960000  1.0 -0.5578172685
O  O253  1  0.85432000  0.76740000  0.27960000  1.0 -0.5578172685
O  O254  1  0.14568000  0.23260000  0.72040000  1.0 -0.5578172685
O  O255  1  0.64568000  0.73260000  0.27960000  1.0 -0.5578172685
O  O256  1  0.35432000  0.26740000  0.72040000  1.0 -0.5578172685
O  O257  1  0.25907000  0.35280000  0.24960000  1.0 -0.6079218965
O  O258  1  0.74093000  0.64720000  0.75040000  1.0 -0.6079218965
O  O259  1  0.24093000  0.14720000  0.24960000  1.0 -0.6079218965
O  O260  1  0.75907000  0.85280000  0.75040000  1.0 -0.6079218965
O  O261  1  0.74093000  0.85280000  0.25040000  1.0 -0.6079218965
O  O262  1  0.25907000  0.14720000  0.74960000  1.0 -0.6079218965
O  O263  1  0.75907000  0.64720000  0.25040000  1.0 -0.6079218965
O  O264  1  0.24093000  0.35280000  0.74960000  1.0 -0.6079218965
O  O265  1  0.11097000  0.41980000  0.78870000  1.0 -0.6755180117
O  O266  1  0.88903000  0.58020000  0.21130000  1.0 -0.6755180117
O  O267  1  0.38903000  0.08020000  0.78870000  1.0 -0.6755180117
O  O268  1  0.61097000  0.91980000  0.21130000  1.0 -0.6755180117
O  O269  1  0.88903000  0.91980000  0.71130000  1.0 -0.6755180117
O  O270  1  0.11097000  0.08020000  0.28870000  1.0 -0.6755180117
O  O271  1  0.61097000  0.58020000  0.71130000  1.0 -0.6755180117
O  O272  1  0.38903000  0.41980000  0.28870000  1.0 -0.6755180117
O  O273  1  0.13617000  0.52590000  0.84440000  1.0 -0.5578172685
O  O274  1  0.86383000  0.47410000  0.15560000  1.0 -0.5578172685
O  O275  1  0.36383000  0.97410000  0.84440000  1.0 -0.5578172685
O  O276  1  0.63617000  0.02590000  0.15560000  1.0 -0.5578172685
O  O277  1  0.86383000  0.02590000  0.65560000  1.0 -0.5578172685
O  O278  1  0.13617000  0.97410000  0.34440000  1.0 -0.5578172685
O  O279  1  0.63617000  0.47410000  0.65560000  1.0 -0.5578172685
O  O280  1  0.36383000  0.52590000  0.34440000  1.0 -0.5578172685
O  O281  1  0.12477000  0.38120000  0.10220000  1.0 -0.5069625136
O  O282  1  0.87523000  0.61880000  0.89780000  1.0 -0.5069625136
O  O283  1  0.37523000  0.11880000  0.10220000  1.0 -0.5069625136
O  O284  1  0.62477000  0.88120000  0.89780000  1.0 -0.5069625136
O  O285  1  0.87523000  0.88120000  0.39780000  1.0 -0.5069625136
O  O286  1  0.12477000  0.11880000  0.60220000  1.0 -0.5069625136
O  O287  1  0.62477000  0.61880000  0.39780000  1.0 -0.5069625136
O  O288  1  0.37523000  0.38120000  0.60220000  1.0 -0.5069625136
O  O289  1  0.25717000  0.56970000  0.01070000  1.0 -0.5277519332
O  O290  1  0.74283000  0.43030000  0.98930000  1.0 -0.5277519332
O  O291  1  0.24283000  0.93030000  0.01070000  1.0 -0.5277519332
O  O292  1  0.75717000  0.06970000  0.98930000  1.0 -0.5277519332
O  O293  1  0.74283000  0.06970000  0.48930000  1.0 -0.5277519332
O  O294  1  0.25717000  0.93030000  0.51070000  1.0 -0.5277519332
O  O295  1  0.75717000  0.43030000  0.48930000  1.0 -0.5277519332
O  O296  1  0.24283000  0.56970000  0.51070000  1.0 -0.5277519332
O  O297  1  0.22228000  0.70230000  0.92040000  1.0 -0.6322656735
O  O298  1  0.77772000  0.29770000  0.07960000  1.0 -0.6322656735
O  O299  1  0.27772000  0.79770000  0.92040000  1.0 -0.6322656735
O  O300  1  0.72228000  0.20230000  0.07960000  1.0 -0.6322656735
O  O301  1  0.77772000  0.20230000  0.57960000  1.0 -0.6322656735
O  O302  1  0.22228000  0.79770000  0.42040000  1.0 -0.6322656735
O  O303  1  0.72228000  0.29770000  0.57960000  1.0 -0.6322656735
O  O304  1  0.27772000  0.70230000  0.42040000  1.0 -0.6322656735
O  O305  1  0.19197000  0.74290000  0.02990000  1.0 -0.5870792699
O  O306  1  0.80803000  0.25710000  0.97010000  1.0 -0.5870792699
O  O307  1  0.30803000  0.75710000  0.02990000  1.0 -0.5870792699
O  O308  1  0.69197000  0.24290000  0.97010000  1.0 -0.5870792699
O  O309  1  0.80803000  0.24290000  0.47010000  1.0 -0.5870792699
O  O310  1  0.19197000  0.75710000  0.52990000  1.0 -0.5870792699
O  O311  1  0.69197000  0.25710000  0.47010000  1.0 -0.5870792699
O  O312  1  0.30803000  0.74290000  0.52990000  1.0 -0.5870792699
O  O313  1  0.96962000  0.73290000  0.89120000  1.0 -0.4508536932
O  O314  1  0.03038000  0.26710000  0.10880000  1.0 -0.4554770347
O  O315  1  0.53038000  0.76710000  0.89120000  1.0 -0.4508536932
O  O316  1  0.46962000  0.23290000  0.10880000  1.0 -0.4554770347
O  O317  1  0.03038000  0.23290000  0.60880000  1.0 -0.4508536932
O  O318  1  0.96962000  0.76710000  0.39120000  1.0 -0.4508536932
O  O319  1  0.46962000  0.26710000  0.60880000  1.0 -0.4508536932
O  O320  1  0.53038000  0.73290000  0.39120000  1.0 -0.4554770347
O  O321  1  0.99474000  0.69140000  0.01580000  1.0 -0.5221097898
O  O322  1  0.00526000  0.30860000  0.98420000  1.0 -0.5221097898
O  O323  1  0.50526000  0.80860000  0.01580000  1.0 -0.5221097898
O  O324  1  0.49474000  0.19140000  0.98420000  1.0 -0.5221097898
O  O325  1  0.00526000  0.19140000  0.48420000  1.0 -0.5221097898
O  O326  1  0.99474000  0.80860000  0.51580000  1.0 -0.5221097898
O  O327  1  0.49474000  0.30860000  0.48420000  1.0 -0.5221097898
O  O328  1  0.50526000  0.69140000  0.51580000  1.0 -0.5221097898
O  O329  1  0.09307000  0.47000000  0.28830000  1.0 -0.6322656735
O  O330  1  0.90693000  0.53000000  0.71170000  1.0 -0.6322656735
O  O331  1  0.40693000  0.03000000  0.28830000  1.0 -0.6322656735
O  O332  1  0.59307000  0.97000000  0.71170000  1.0 -0.6322656735
O  O333  1  0.90693000  0.97000000  0.21170000  1.0 -0.6322656735
O  O334  1  0.09307000  0.03000000  0.78830000  1.0 -0.6402000376
O  O335  1  0.59307000  0.53000000  0.21170000  1.0 -0.6322656735
O  O336  1  0.40693000  0.47000000  0.78830000  1.0 -0.6322656735
O  O337  1  0.29780000  0.62940000  0.14940000  1.0 -0.5667654034
O  O338  1  0.70220000  0.37060000  0.85060000  1.0 -0.5667654034
O  O339  1  0.20220000  0.87060000  0.14940000  1.0 -0.5667654034
O  O340  1  0.79780000  0.12940000  0.85060000  1.0 -0.5667654034
O  O341  1  0.70220000  0.12940000  0.35060000  1.0 -0.5667654034
O  O342  1  0.29780000  0.87060000  0.64940000  1.0 -0.5667654034
O  O343  1  0.79780000  0.37060000  0.35060000  1.0 -0.5667654034
O  O344  1  0.20220000  0.62940000  0.64940000  1.0 -0.5667654034
O  O345  1  0.23360000  0.97540000  0.89620000  1.0 0.1827970762
O  O346  1  0.76640000  0.02460000  0.10380000  1.0 0.1827970762
O  O347  1  0.26640000  0.52460000  0.89620000  1.0 0.1827970762
O  O348  1  0.73360000  0.47540000  0.10380000  1.0 0.1827970762
O  O349  1  0.76640000  0.47540000  0.60380000  1.0 0.1827970762
O  O350  1  0.23360000  0.52460000  0.39620000  1.0 0.1827970762
O  O351  1  0.73360000  0.02460000  0.60380000  1.0 0.1827970762
O  O352  1  0.26640000  0.97540000  0.39620000  1.0 0.1827970762
O  O353  1  0.25000000  0.75000000  0.09910000  1.0 -0.1709886063
O  O354  1  0.75000000  0.25000000  0.90090000  1.0 -0.1709886063
O  O355  1  0.75000000  0.25000000  0.40090000  1.0 -0.1709886063
O  O356  1  0.25000000  0.75000000  0.59910000  1.0 -0.1709886063
O  O357  1  0.08110000  0.21960000  0.69790000  1.0 -0.3010124285
O  O358  1  0.91890000  0.78040000  0.30210000  1.0 -0.3010124285
O  O359  1  0.41890000  0.28040000  0.69790000  1.0 -0.3010124285
O  O360  1  0.58110000  0.71960000  0.30210000  1.0 -0.3010124285
O  O361  1  0.91890000  0.71960000  0.80210000  1.0 -0.3010124285
O  O362  1  0.08110000  0.28040000  0.19790000  1.0 -0.3010124285
O  O363  1  0.58110000  0.78040000  0.80210000  1.0 -0.3010124285
O  O364  1  0.41890000  0.21960000  0.19790000  1.0 -0.3010124285
