# DDEC6 charges by PACMAN v1.1 (https://github.com/mtap-research/PACMAN-charge/)
data_ONEYOW_ASR_pacman
_symmetry_space_group_name_H-M   'P 1'
_cell_length_a   28.39270000
_cell_length_b   28.39270000
_cell_length_c   20.37560000
_cell_angle_alpha   90.00000000
_cell_angle_beta   90.00000000
_cell_angle_gamma   90.00000000
_symmetry_Int_Tables_number   1
_chemical_formula_structural   ZnH28C38(NO4)2
_chemical_formula_sum   'Zn12 H336 C456 N24 O96'
_cell_volume   16425.69648303
_cell_formula_units_Z   12
loop_
 _symmetry_equiv_pos_site_id
 _symmetry_equiv_pos_as_xyz
  1  'x, y, z'
loop_
 _atom_site_type_symbol
 _atom_site_label
 _atom_site_symmetry_multiplicity
 _atom_site_fract_x
 _atom_site_fract_y
 _atom_site_fract_z
 _atom_site_occupancy
 _atom_site_charge
Zn  Zn1  1  0.21878000  0.91649000  0.35830000  1.0 0.8729355666
Zn  Zn2  1  0.78122000  0.08351000  0.85830000  1.0 0.8729355666
Zn  Zn3  1  0.41649000  0.28122000  0.10830000  1.0 0.8729355666
Zn  Zn4  1  0.58351000  0.71878000  0.60830000  1.0 0.8729355666
Zn  Zn5  1  0.71878000  0.58351000  0.39170000  1.0 0.8729355666
Zn  Zn6  1  0.28122000  0.41649000  0.89170000  1.0 0.8729355666
Zn  Zn7  1  0.91649000  0.21878000  0.64170000  1.0 0.8729355666
Zn  Zn8  1  0.08351000  0.78122000  0.14170000  1.0 0.8729355666
Zn  Zn9  1  0.14797000  0.85203000  0.25000000  1.0 1.0194304618
Zn  Zn10  1  0.85203000  0.14797000  0.75000000  1.0 1.0194304618
Zn  Zn11  1  0.35203000  0.35203000  0.00000000  1.0 1.0194304618
Zn  Zn12  1  0.64797000  0.64797000  0.50000000  1.0 1.0194304618
H  H1  1  0.33880000  0.88950000  0.46110000  1.0 0.1108328954
H  H2  1  0.66120000  0.11050000  0.96110000  1.0 0.1209171504
H  H3  1  0.38950000  0.16120000  0.21110000  1.0 0.1108328954
H  H4  1  0.61050000  0.83880000  0.71110000  1.0 0.1108328954
H  H5  1  0.83880000  0.61050000  0.28890000  1.0 0.1108328954
H  H6  1  0.16120000  0.38950000  0.78890000  1.0 0.1108328954
H  H7  1  0.88950000  0.33880000  0.53890000  1.0 0.1209171504
H  H8  1  0.11050000  0.66120000  0.03890000  1.0 0.1108328954
H  H9  1  0.39160000  0.87330000  0.46040000  1.0 0.0991621693
H  H10  1  0.60840000  0.12670000  0.96040000  1.0 0.0991621693
H  H11  1  0.37330000  0.10840000  0.21040000  1.0 0.0991621693
H  H12  1  0.62670000  0.89160000  0.71040000  1.0 0.0991621693
H  H13  1  0.89160000  0.62670000  0.28960000  1.0 0.0991621693
H  H14  1  0.10840000  0.37330000  0.78960000  1.0 0.0991621693
H  H15  1  0.87330000  0.39160000  0.53960000  1.0 0.0991621693
H  H16  1  0.12670000  0.60840000  0.03960000  1.0 0.0991621693
H  H17  1  0.33730000  0.88870000  0.35450000  1.0 0.077211332
H  H18  1  0.66270000  0.11130000  0.85450000  1.0 0.077211332
H  H19  1  0.38870000  0.16270000  0.10450000  1.0 0.077211332
H  H20  1  0.61130000  0.83730000  0.60450000  1.0 0.077211332
H  H21  1  0.83730000  0.61130000  0.39550000  1.0 0.077211332
H  H22  1  0.16270000  0.38870000  0.89550000  1.0 0.077211332
H  H23  1  0.88870000  0.33730000  0.64550000  1.0 0.077211332
H  H24  1  0.11130000  0.66270000  0.14550000  1.0 0.077211332
H  H25  1  0.40530000  0.86610000  0.28930000  1.0 0.1287221503
H  H26  1  0.59470000  0.13390000  0.78930000  1.0 0.1287221503
H  H27  1  0.36610000  0.09470000  0.03930000  1.0 0.1287221503
H  H28  1  0.63390000  0.90530000  0.53930000  1.0 0.1287221503
H  H29  1  0.90530000  0.63390000  0.46070000  1.0 0.1287221503
H  H30  1  0.09470000  0.36610000  0.96070000  1.0 0.1287221503
H  H31  1  0.86610000  0.40530000  0.71070000  1.0 0.1287221503
H  H32  1  0.13390000  0.59470000  0.21070000  1.0 0.1287221503
H  H33  1  0.43070000  0.84760000  0.35280000  1.0 0.1287221503
H  H34  1  0.56930000  0.15240000  0.85280000  1.0 0.1287221503
H  H35  1  0.34760000  0.06930000  0.10280000  1.0 0.1287221503
H  H36  1  0.65240000  0.93070000  0.60280000  1.0 0.1287221503
H  H37  1  0.93070000  0.65240000  0.39720000  1.0 0.1287221503
H  H38  1  0.06930000  0.34760000  0.89720000  1.0 0.1287221503
H  H39  1  0.84760000  0.43070000  0.64720000  1.0 0.1287221503
H  H40  1  0.15240000  0.56930000  0.14720000  1.0 0.1287221503
H  H41  1  0.38030000  0.95470000  0.29470000  1.0 0.1287221503
H  H42  1  0.61970000  0.04530000  0.79470000  1.0 0.1287221503
H  H43  1  0.45470000  0.11970000  0.04470000  1.0 0.1287221503
H  H44  1  0.54530000  0.88030000  0.54470000  1.0 0.1287221503
H  H45  1  0.88030000  0.54530000  0.45530000  1.0 0.1287221503
H  H46  1  0.11970000  0.45470000  0.95530000  1.0 0.1287221503
H  H47  1  0.95470000  0.38030000  0.70530000  1.0 0.1287221503
H  H48  1  0.04530000  0.61970000  0.20530000  1.0 0.1287221503
H  H49  1  0.40960000  0.02660000  0.30280000  1.0 0.1108328954
H  H50  1  0.59040000  0.97340000  0.80280000  1.0 0.1108328954
H  H51  1  0.52660000  0.09040000  0.05280000  1.0 0.1108328954
H  H52  1  0.47340000  0.90960000  0.55280000  1.0 0.1108328954
H  H53  1  0.90960000  0.47340000  0.44720000  1.0 0.1108328954
H  H54  1  0.09040000  0.52660000  0.94720000  1.0 0.1108328954
H  H55  1  0.02660000  0.40960000  0.69720000  1.0 0.1108328954
H  H56  1  0.97340000  0.59040000  0.19720000  1.0 0.1108328954
H  H57  1  0.47470000  0.04030000  0.36200000  1.0 0.1287221503
H  H58  1  0.52530000  0.95970000  0.86200000  1.0 0.1287221503
H  H59  1  0.54030000  0.02530000  0.11200000  1.0 0.1287221503
H  H60  1  0.45970000  0.97470000  0.61200000  1.0 0.1287221503
H  H61  1  0.97470000  0.45970000  0.38800000  1.0 0.1287221503
H  H62  1  0.02530000  0.54030000  0.88800000  1.0 0.1287221503
H  H63  1  0.04030000  0.47470000  0.63800000  1.0 0.1287221503
H  H64  1  0.95970000  0.52530000  0.13800000  1.0 0.1287221503
H  H65  1  0.50170000  0.97790000  0.43440000  1.0 0.1108328954
H  H66  1  0.49830000  0.02210000  0.93440000  1.0 0.1108328954
H  H67  1  0.47790000  0.99830000  0.18440000  1.0 0.1108328954
H  H68  1  0.52210000  0.00170000  0.68440000  1.0 0.1108328954
H  H69  1  0.00170000  0.52210000  0.31560000  1.0 0.1108328954
H  H70  1  0.99830000  0.47790000  0.81560000  1.0 0.1108328954
H  H71  1  0.97790000  0.50170000  0.56560000  1.0 0.1108328954
H  H72  1  0.02210000  0.49830000  0.06560000  1.0 0.1108328954
H  H73  1  0.47740000  0.90190000  0.40640000  1.0 0.1287221503
H  H74  1  0.52260000  0.09810000  0.90640000  1.0 0.1287221503
H  H75  1  0.40190000  0.02260000  0.15640000  1.0 0.1287221503
H  H76  1  0.59810000  0.97740000  0.65640000  1.0 0.1287221503
H  H77  1  0.97740000  0.59810000  0.34360000  1.0 0.1287221503
H  H78  1  0.02260000  0.40190000  0.84360000  1.0 0.1209171504
H  H79  1  0.90190000  0.47740000  0.59360000  1.0 0.1287221503
H  H80  1  0.09810000  0.52260000  0.09360000  1.0 0.1287221503
H  H81  1  0.19980000  0.51740000  0.92560000  1.0 0.1108328954
H  H82  1  0.80020000  0.48260000  0.42560000  1.0 0.1108328954
H  H83  1  0.01740000  0.30020000  0.67560000  1.0 0.1108328954
H  H84  1  0.98260000  0.69980000  0.17560000  1.0 0.1108328954
H  H85  1  0.69980000  0.98260000  0.82440000  1.0 0.1108328954
H  H86  1  0.30020000  0.01740000  0.32440000  1.0 0.1108328954
H  H87  1  0.51740000  0.19980000  0.07440000  1.0 0.1108328954
H  H88  1  0.48260000  0.80020000  0.57440000  1.0 0.1108328954
H  H89  1  0.18600000  0.57090000  0.93030000  1.0 0.1108328954
H  H90  1  0.81400000  0.42910000  0.43030000  1.0 0.1108328954
H  H91  1  0.07090000  0.31400000  0.68030000  1.0 0.1108328954
H  H92  1  0.92910000  0.68600000  0.18030000  1.0 0.1108328954
H  H93  1  0.68600000  0.92910000  0.81970000  1.0 0.1108328954
H  H94  1  0.31400000  0.07090000  0.31970000  1.0 0.1108328954
H  H95  1  0.57090000  0.18600000  0.06970000  1.0 0.1108328954
H  H96  1  0.42910000  0.81400000  0.56970000  1.0 0.1108328954
H  H97  1  0.27780000  0.53960000  0.91710000  1.0 0.0902718875
H  H98  1  0.72220000  0.46040000  0.41710000  1.0 0.0902718875
H  H99  1  0.03960000  0.22220000  0.66710000  1.0 0.0902718875
H  H100  1  0.96040000  0.77780000  0.16710000  1.0 0.0902718875
H  H101  1  0.77780000  0.96040000  0.83290000  1.0 0.0902718875
H  H102  1  0.22220000  0.03960000  0.33290000  1.0 0.0902718875
H  H103  1  0.53960000  0.27780000  0.08290000  1.0 0.0902718875
H  H104  1  0.46040000  0.72220000  0.58290000  1.0 0.0902718875
H  H105  1  0.26240000  0.63080000  0.96840000  1.0 0.1209171504
H  H106  1  0.73760000  0.36920000  0.46840000  1.0 0.1209171504
H  H107  1  0.13080000  0.23760000  0.71840000  1.0 0.1209171504
H  H108  1  0.86920000  0.76240000  0.21840000  1.0 0.1209171504
H  H109  1  0.76240000  0.86920000  0.78160000  1.0 0.1209171504
H  H110  1  0.23760000  0.13080000  0.28160000  1.0 0.1209171504
H  H111  1  0.63080000  0.26240000  0.03160000  1.0 0.1209171504
H  H112  1  0.36920000  0.73760000  0.53160000  1.0 0.1209171504
H  H113  1  0.30720000  0.61410000  0.93010000  1.0 0.1209171504
H  H114  1  0.69280000  0.38590000  0.43010000  1.0 0.1209171504
H  H115  1  0.11410000  0.19280000  0.68010000  1.0 0.1209171504
H  H116  1  0.88590000  0.80720000  0.18010000  1.0 0.1209171504
H  H117  1  0.80720000  0.88590000  0.81990000  1.0 0.1209171504
H  H118  1  0.19280000  0.11410000  0.31990000  1.0 0.1209171504
H  H119  1  0.61410000  0.30720000  0.06990000  1.0 0.1209171504
H  H120  1  0.38590000  0.69280000  0.56990000  1.0 0.1209171504
H  H121  1  0.19390000  0.67070000  0.84350000  1.0 0.1209171504
H  H122  1  0.80610000  0.32930000  0.34350000  1.0 0.1209171504
H  H123  1  0.17070000  0.30610000  0.59350000  1.0 0.1209171504
H  H124  1  0.82930000  0.69390000  0.09350000  1.0 0.1209171504
H  H125  1  0.69390000  0.82930000  0.90650000  1.0 0.1209171504
H  H126  1  0.30610000  0.17070000  0.40650000  1.0 0.1209171504
H  H127  1  0.67070000  0.19390000  0.15650000  1.0 0.1209171504
H  H128  1  0.32930000  0.80610000  0.65650000  1.0 0.1209171504
H  H129  1  0.20900000  0.67740000  0.73200000  1.0 0.1108328954
H  H130  1  0.79100000  0.32260000  0.23200000  1.0 0.1108328954
H  H131  1  0.17740000  0.29100000  0.48200000  1.0 0.1108328954
H  H132  1  0.82260000  0.70900000  0.98200000  1.0 0.1108328954
H  H133  1  0.70900000  0.82260000  0.01800000  1.0 0.1108328954
H  H134  1  0.29100000  0.17740000  0.51800000  1.0 0.1108328954
H  H135  1  0.67740000  0.20900000  0.26800000  1.0 0.1108328954
H  H136  1  0.32260000  0.79100000  0.76800000  1.0 0.1108328954
H  H137  1  0.27540000  0.64230000  0.68720000  1.0 0.1209171504
H  H138  1  0.72460000  0.35770000  0.18720000  1.0 0.1209171504
H  H139  1  0.14230000  0.22460000  0.43720000  1.0 0.1209171504
H  H140  1  0.85770000  0.77540000  0.93720000  1.0 0.1209171504
H  H141  1  0.77540000  0.85770000  0.06280000  1.0 0.1209171504
H  H142  1  0.22460000  0.14230000  0.56280000  1.0 0.1209171504
H  H143  1  0.64230000  0.27540000  0.31280000  1.0 0.1209171504
H  H144  1  0.35770000  0.72460000  0.81280000  1.0 0.1209171504
H  H145  1  0.32680000  0.60060000  0.75400000  1.0 0.0991621693
H  H146  1  0.67320000  0.39940000  0.25400000  1.0 0.0991621693
H  H147  1  0.10060000  0.17320000  0.50400000  1.0 0.0991621693
H  H148  1  0.89940000  0.82680000  0.00400000  1.0 0.0991621693
H  H149  1  0.82680000  0.89940000  0.99600000  1.0 0.0991621693
H  H150  1  0.17320000  0.10060000  0.49600000  1.0 0.0991621693
H  H151  1  0.60060000  0.32680000  0.24600000  1.0 0.0991621693
H  H152  1  0.39940000  0.67320000  0.74600000  1.0 0.0991621693
H  H153  1  0.31170000  0.59390000  0.86550000  1.0 0.1108328954
H  H154  1  0.68830000  0.40610000  0.36550000  1.0 0.1108328954
H  H155  1  0.09390000  0.18830000  0.61550000  1.0 0.1108328954
H  H156  1  0.90610000  0.81170000  0.11550000  1.0 0.1108328954
H  H157  1  0.81170000  0.90610000  0.88450000  1.0 0.1108328954
H  H158  1  0.18830000  0.09390000  0.38450000  1.0 0.1108328954
H  H159  1  0.59390000  0.31170000  0.13450000  1.0 0.1108328954
H  H160  1  0.40610000  0.68830000  0.63450000  1.0 0.1108328954
H  H161  1  0.63430000  0.47790000  0.18800000  1.0 0.1108328954
H  H162  1  0.36570000  0.52210000  0.68800000  1.0 0.1108328954
H  H163  1  0.97790000  0.86570000  0.93800000  1.0 0.1108328954
H  H164  1  0.02210000  0.13430000  0.43800000  1.0 0.1108328954
H  H165  1  0.13430000  0.02210000  0.56200000  1.0 0.1108328954
H  H166  1  0.86570000  0.97790000  0.06200000  1.0 0.1108328954
H  H167  1  0.47790000  0.63430000  0.81200000  1.0 0.1108328954
H  H168  1  0.52210000  0.36570000  0.31200000  1.0 0.1108328954
H  H169  1  0.67100000  0.49310000  0.24240000  1.0 0.1209171504
H  H170  1  0.32900000  0.50690000  0.74240000  1.0 0.1209171504
H  H171  1  0.99310000  0.82900000  0.99240000  1.0 0.1209171504
H  H172  1  0.00690000  0.17100000  0.49240000  1.0 0.1209171504
H  H173  1  0.17100000  0.00690000  0.50760000  1.0 0.1209171504
H  H174  1  0.82900000  0.99310000  0.00760000  1.0 0.1209171504
H  H175  1  0.49310000  0.67100000  0.75760000  1.0 0.1209171504
H  H176  1  0.50690000  0.32900000  0.25760000  1.0 0.1209171504
H  H177  1  0.60030000  0.52980000  0.19150000  1.0 0.1108328954
H  H178  1  0.39970000  0.47020000  0.69150000  1.0 0.1108328954
H  H179  1  0.02980000  0.89970000  0.94150000  1.0 0.1108328954
H  H180  1  0.97020000  0.10030000  0.44150000  1.0 0.1108328954
H  H181  1  0.10030000  0.97020000  0.55850000  1.0 0.1108328954
H  H182  1  0.89970000  0.02980000  0.05850000  1.0 0.1108328954
H  H183  1  0.52980000  0.60030000  0.80850000  1.0 0.1108328954
H  H184  1  0.47020000  0.39970000  0.30850000  1.0 0.1108328954
H  H185  1  0.64340000  0.60510000  0.20710000  1.0 0.1287221503
H  H186  1  0.35660000  0.39490000  0.70710000  1.0 0.1287221503
H  H187  1  0.10510000  0.85660000  0.95710000  1.0 0.1287221503
H  H188  1  0.89490000  0.14340000  0.45710000  1.0 0.1287221503
H  H189  1  0.14340000  0.89490000  0.54290000  1.0 0.1287221503
H  H190  1  0.85660000  0.10510000  0.04290000  1.0 0.1287221503
H  H191  1  0.60510000  0.64340000  0.79290000  1.0 0.1287221503
H  H192  1  0.39490000  0.35660000  0.29290000  1.0 0.1287221503
H  H193  1  0.68510000  0.57030000  0.19940000  1.0 0.1287221503
H  H194  1  0.31490000  0.42970000  0.69940000  1.0 0.1287221503
H  H195  1  0.07030000  0.81490000  0.94940000  1.0 0.1287221503
H  H196  1  0.92970000  0.18510000  0.44940000  1.0 0.1287221503
H  H197  1  0.18510000  0.92970000  0.55060000  1.0 0.1287221503
H  H198  1  0.81490000  0.07030000  0.05060000  1.0 0.1287221503
H  H199  1  0.57030000  0.68510000  0.80060000  1.0 0.1287221503
H  H200  1  0.42970000  0.31490000  0.30060000  1.0 0.1287221503
H  H201  1  0.59680000  0.57070000  0.04690000  1.0 0.0991621693
H  H202  1  0.40320000  0.42930000  0.54690000  1.0 0.0991621693
H  H203  1  0.07070000  0.90320000  0.79690000  1.0 0.0991621693
H  H204  1  0.92930000  0.09680000  0.29690000  1.0 0.0991621693
H  H205  1  0.09680000  0.92930000  0.70310000  1.0 0.0991621693
H  H206  1  0.90320000  0.07070000  0.20310000  1.0 0.0991621693
H  H207  1  0.57070000  0.59680000  0.95310000  1.0 0.0991621693
H  H208  1  0.42930000  0.40320000  0.45310000  1.0 0.0991621693
H  H209  1  0.71720000  0.60720000  0.13720000  1.0 0.1108328954
H  H210  1  0.28280000  0.39280000  0.63720000  1.0 0.1108328954
H  H211  1  0.10720000  0.78280000  0.88720000  1.0 0.1108328954
H  H212  1  0.89280000  0.21720000  0.38720000  1.0 0.1108328954
H  H213  1  0.21720000  0.89280000  0.61280000  1.0 0.1108328954
H  H214  1  0.78280000  0.10720000  0.11280000  1.0 0.1108328954
H  H215  1  0.60720000  0.71720000  0.86280000  1.0 0.1108328954
H  H216  1  0.39280000  0.28280000  0.36280000  1.0 0.1108328954
H  H217  1  0.74910000  0.62940000  0.03710000  1.0 0.1108328954
H  H218  1  0.25090000  0.37060000  0.53710000  1.0 0.1108328954
H  H219  1  0.12940000  0.75090000  0.78710000  1.0 0.1108328954
H  H220  1  0.87060000  0.24910000  0.28710000  1.0 0.1108328954
H  H221  1  0.24910000  0.87060000  0.71290000  1.0 0.1108328954
H  H222  1  0.75090000  0.12940000  0.21290000  1.0 0.1108328954
H  H223  1  0.62940000  0.74910000  0.96290000  1.0 0.1108328954
H  H224  1  0.37060000  0.25090000  0.46290000  1.0 0.1108328954
H  H225  1  0.70490000  0.62230000  0.94190000  1.0 0.1108328954
H  H226  1  0.29510000  0.37770000  0.44190000  1.0 0.1108328954
H  H227  1  0.12230000  0.79510000  0.69190000  1.0 0.1108328954
H  H228  1  0.87770000  0.20490000  0.19190000  1.0 0.1108328954
H  H229  1  0.20490000  0.87770000  0.80810000  1.0 0.1108328954
H  H230  1  0.79510000  0.12230000  0.30810000  1.0 0.1108328954
H  H231  1  0.62230000  0.70490000  0.05810000  1.0 0.1108328954
H  H232  1  0.37770000  0.29510000  0.55810000  1.0 0.1108328954
H  H233  1  0.62870000  0.59290000  0.94680000  1.0 0.0991621693
H  H234  1  0.37130000  0.40710000  0.44680000  1.0 0.0991621693
H  H235  1  0.09290000  0.87130000  0.69680000  1.0 0.0991621693
H  H236  1  0.90710000  0.12870000  0.19680000  1.0 0.0991621693
H  H237  1  0.12870000  0.90710000  0.80320000  1.0 0.0902718875
H  H238  1  0.87130000  0.09290000  0.30320000  1.0 0.0991621693
H  H239  1  0.59290000  0.62870000  0.05320000  1.0 0.0991621693
H  H240  1  0.40710000  0.37130000  0.55320000  1.0 0.0991621693
H  H241  1  0.45810000  0.58810000  0.17180000  1.0 0.1108328954
H  H242  1  0.54190000  0.41190000  0.67180000  1.0 0.1108328954
H  H243  1  0.08810000  0.04190000  0.92180000  1.0 0.1108328954
H  H244  1  0.91190000  0.95810000  0.42180000  1.0 0.1108328954
H  H245  1  0.95810000  0.91190000  0.57820000  1.0 0.1108328954
H  H246  1  0.04190000  0.08810000  0.07820000  1.0 0.1108328954
H  H247  1  0.58810000  0.45810000  0.82820000  1.0 0.1108328954
H  H248  1  0.41190000  0.54190000  0.32820000  1.0 0.1108328954
H  H249  1  0.33890000  0.66240000  0.14590000  1.0 0.1108328954
H  H250  1  0.66110000  0.33760000  0.64590000  1.0 0.1108328954
H  H251  1  0.16240000  0.16110000  0.89590000  1.0 0.1108328954
H  H252  1  0.83760000  0.83890000  0.39590000  1.0 0.1108328954
H  H253  1  0.83890000  0.83760000  0.60410000  1.0 0.1108328954
H  H254  1  0.16110000  0.16240000  0.10410000  1.0 0.1108328954
H  H255  1  0.66240000  0.33890000  0.85410000  1.0 0.1108328954
H  H256  1  0.33760000  0.66110000  0.35410000  1.0 0.1108328954
H  H257  1  0.44110000  0.71540000  0.25850000  1.0 0.1209171504
H  H258  1  0.55890000  0.28460000  0.75850000  1.0 0.1209171504
H  H259  1  0.21540000  0.05890000  0.00850000  1.0 0.1209171504
H  H260  1  0.78460000  0.94110000  0.50850000  1.0 0.1209171504
H  H261  1  0.94110000  0.78460000  0.49150000  1.0 0.1209171504
H  H262  1  0.05890000  0.21540000  0.99150000  1.0 0.1209171504
H  H263  1  0.71540000  0.44110000  0.74150000  1.0 0.1209171504
H  H264  1  0.28460000  0.55890000  0.24150000  1.0 0.1209171504
H  H265  1  0.30950000  0.73250000  0.14400000  1.0 0.1209171504
H  H266  1  0.69050000  0.26750000  0.64400000  1.0 0.1209171504
H  H267  1  0.23250000  0.19050000  0.89400000  1.0 0.1209171504
H  H268  1  0.76750000  0.80950000  0.39400000  1.0 0.1209171504
H  H269  1  0.80950000  0.76750000  0.60600000  1.0 0.1209171504
H  H270  1  0.19050000  0.23250000  0.10600000  1.0 0.1209171504
H  H271  1  0.73250000  0.30950000  0.85600000  1.0 0.1209171504
H  H272  1  0.26750000  0.69050000  0.35600000  1.0 0.1209171504
H  H273  1  0.26030000  0.79420000  0.17920000  1.0 0.1287221503
H  H274  1  0.73970000  0.20580000  0.67920000  1.0 0.1287221503
H  H275  1  0.29420000  0.23970000  0.92920000  1.0 0.1287221503
H  H276  1  0.70580000  0.76030000  0.42920000  1.0 0.1287221503
H  H277  1  0.76030000  0.70580000  0.57080000  1.0 0.1287221503
H  H278  1  0.23970000  0.29420000  0.07080000  1.0 0.1287221503
H  H279  1  0.79420000  0.26030000  0.82080000  1.0 0.1287221503
H  H280  1  0.20580000  0.73970000  0.32080000  1.0 0.1287221503
H  H281  1  0.38650000  0.75070000  0.30510000  1.0 0.1209171504
H  H282  1  0.61350000  0.24930000  0.80510000  1.0 0.1209171504
H  H283  1  0.25070000  0.11350000  0.05510000  1.0 0.1209171504
H  H284  1  0.74930000  0.88650000  0.55510000  1.0 0.1209171504
H  H285  1  0.88650000  0.74930000  0.44490000  1.0 0.1209171504
H  H286  1  0.11350000  0.25070000  0.94490000  1.0 0.1209171504
H  H287  1  0.75070000  0.38650000  0.69490000  1.0 0.1209171504
H  H288  1  0.24930000  0.61350000  0.19490000  1.0 0.1209171504
H  H289  1  0.43490000  0.53620000  0.11400000  1.0 0.1209171504
H  H290  1  0.56510000  0.46380000  0.61400000  1.0 0.1209171504
H  H291  1  0.03620000  0.06510000  0.86400000  1.0 0.1209171504
H  H292  1  0.96380000  0.93490000  0.36400000  1.0 0.1209171504
H  H293  1  0.93490000  0.96380000  0.63600000  1.0 0.1209171504
H  H294  1  0.06510000  0.03620000  0.13600000  1.0 0.1209171504
H  H295  1  0.53620000  0.43490000  0.88600000  1.0 0.1209171504
H  H296  1  0.46380000  0.56510000  0.38600000  1.0 0.1209171504
H  H297  1  0.40780000  0.47700000  0.05800000  1.0 0.1391779701
H  H298  1  0.59220000  0.52300000  0.55800000  1.0 0.1391779701
H  H299  1  0.97700000  0.09220000  0.80800000  1.0 0.1391779701
H  H300  1  0.02300000  0.90780000  0.30800000  1.0 0.1391779701
H  H301  1  0.90780000  0.02300000  0.69200000  1.0 0.1391779701
H  H302  1  0.09220000  0.97700000  0.19200000  1.0 0.1391779701
H  H303  1  0.47700000  0.40780000  0.94200000  1.0 0.1391779701
H  H304  1  0.52300000  0.59220000  0.44200000  1.0 0.1391779701
H  H305  1  0.31440000  0.60780000  0.08510000  1.0 0.1287221503
H  H306  1  0.68560000  0.39220000  0.58510000  1.0 0.1287221503
H  H307  1  0.10780000  0.18560000  0.83510000  1.0 0.1287221503
H  H308  1  0.89220000  0.81440000  0.33510000  1.0 0.1287221503
H  H309  1  0.81440000  0.89220000  0.66490000  1.0 0.1287221503
H  H310  1  0.18560000  0.10780000  0.16490000  1.0 0.1287221503
H  H311  1  0.60780000  0.31440000  0.91490000  1.0 0.1287221503
H  H312  1  0.39220000  0.68560000  0.41490000  1.0 0.1287221503
H  H313  1  0.50560000  0.70410000  0.30710000  1.0 0.1209171504
H  H314  1  0.49440000  0.29590000  0.80710000  1.0 0.1209171504
H  H315  1  0.20410000  0.99440000  0.05710000  1.0 0.1209171504
H  H316  1  0.79590000  0.00560000  0.55710000  1.0 0.1209171504
H  H317  1  0.00560000  0.79590000  0.44290000  1.0 0.1209171504
H  H318  1  0.99440000  0.20410000  0.94290000  1.0 0.1209171504
H  H319  1  0.70410000  0.50560000  0.69290000  1.0 0.1209171504
H  H320  1  0.29590000  0.49440000  0.19290000  1.0 0.1209171504
H  H321  1  0.57740000  0.69460000  0.35140000  1.0 0.1391779701
H  H322  1  0.42260000  0.30540000  0.85140000  1.0 0.1391779701
H  H323  1  0.19460000  0.92260000  0.10140000  1.0 0.1391779701
H  H324  1  0.80540000  0.07740000  0.60140000  1.0 0.1391779701
H  H325  1  0.07740000  0.80540000  0.39860000  1.0 0.1391779701
H  H326  1  0.92260000  0.19460000  0.89860000  1.0 0.1391779701
H  H327  1  0.69460000  0.57740000  0.64860000  1.0 0.1391779701
H  H328  1  0.30540000  0.42260000  0.14860000  1.0 0.1391779701
H  H329  1  0.51830000  0.58360000  0.21440000  1.0 0.1209171504
H  H330  1  0.48170000  0.41640000  0.71440000  1.0 0.1209171504
H  H331  1  0.08360000  0.98170000  0.96440000  1.0 0.1209171504
H  H332  1  0.91640000  0.01830000  0.46440000  1.0 0.1209171504
H  H333  1  0.01830000  0.91640000  0.53560000  1.0 0.1209171504
H  H334  1  0.98170000  0.08360000  0.03560000  1.0 0.1209171504
H  H335  1  0.58360000  0.51830000  0.78560000  1.0 0.1209171504
H  H336  1  0.41640000  0.48170000  0.28560000  1.0 0.1209171504
C  C1  1  0.33380000  0.79460000  0.41850000  1.0 0.590084243
C  C2  1  0.66620000  0.20540000  0.91850000  1.0 0.590084243
C  C3  1  0.29460000  0.16620000  0.16850000  1.0 0.590084243
C  C4  1  0.70540000  0.83380000  0.66850000  1.0 0.590084243
C  C5  1  0.83380000  0.70540000  0.33150000  1.0 0.590084243
C  C6  1  0.16620000  0.29460000  0.83150000  1.0 0.590084243
C  C7  1  0.79460000  0.33380000  0.58150000  1.0 0.590084243
C  C8  1  0.20540000  0.66620000  0.08150000  1.0 0.590084243
C  C9  1  0.36020000  0.86560000  0.44510000  1.0 -0.1098796175
C  C10  1  0.63980000  0.13440000  0.94510000  1.0 -0.1098796175
C  C11  1  0.36560000  0.13980000  0.19510000  1.0 -0.1098796175
C  C12  1  0.63440000  0.86020000  0.69510000  1.0 -0.1098796175
C  C13  1  0.86020000  0.63440000  0.30490000  1.0 -0.1098796175
C  C14  1  0.13980000  0.36560000  0.80490000  1.0 -0.1098796175
C  C15  1  0.86560000  0.36020000  0.55490000  1.0 -0.1098796175
C  C16  1  0.13440000  0.63980000  0.05490000  1.0 -0.1098796175
C  C17  1  0.35960000  0.86520000  0.37110000  1.0 0.0902718875
C  C18  1  0.64040000  0.13480000  0.87110000  1.0 0.0902718875
C  C19  1  0.36520000  0.14040000  0.12110000  1.0 0.0902718875
C  C20  1  0.63480000  0.85960000  0.62110000  1.0 0.0902718875
C  C21  1  0.85960000  0.63480000  0.37890000  1.0 0.0902718875
C  C22  1  0.14040000  0.36520000  0.87890000  1.0 0.0902718875
C  C23  1  0.86520000  0.35960000  0.62890000  1.0 0.0902718875
C  C24  1  0.13480000  0.64040000  0.12890000  1.0 0.0902718875
C  C25  1  0.40880000  0.87090000  0.33620000  1.0 -0.2925095973
C  C26  1  0.59120000  0.12910000  0.83620000  1.0 -0.2925095973
C  C27  1  0.37090000  0.09120000  0.08620000  1.0 -0.2925095973
C  C28  1  0.62910000  0.90880000  0.58620000  1.0 -0.2925095973
C  C29  1  0.90880000  0.62910000  0.41380000  1.0 -0.2925095973
C  C30  1  0.09120000  0.37090000  0.91380000  1.0 -0.2925095973
C  C31  1  0.87090000  0.40880000  0.66380000  1.0 -0.2925095973
C  C32  1  0.12910000  0.59120000  0.16380000  1.0 -0.2925095973
C  C33  1  0.42750000  0.92010000  0.34950000  1.0 0.1287221503
C  C34  1  0.57250000  0.07990000  0.84950000  1.0 0.1287221503
C  C35  1  0.42010000  0.07250000  0.09950000  1.0 0.1287221503
C  C36  1  0.57990000  0.92750000  0.59950000  1.0 0.1287221503
C  C37  1  0.92750000  0.57990000  0.40050000  1.0 0.1287221503
C  C38  1  0.07250000  0.42010000  0.90050000  1.0 0.1287221503
C  C39  1  0.92010000  0.42750000  0.65050000  1.0 0.1287221503
C  C40  1  0.07990000  0.57250000  0.15050000  1.0 0.1287221503
C  C41  1  0.40720000  0.95910000  0.31980000  1.0 -0.1862749549
C  C42  1  0.59280000  0.04090000  0.81980000  1.0 -0.1862749549
C  C43  1  0.45910000  0.09280000  0.06980000  1.0 -0.1862749549
C  C44  1  0.54090000  0.90720000  0.56980000  1.0 -0.1862749549
C  C45  1  0.90720000  0.54090000  0.43020000  1.0 -0.1862749549
C  C46  1  0.09280000  0.45910000  0.93020000  1.0 -0.1862749549
C  C47  1  0.95910000  0.40720000  0.68020000  1.0 -0.1862749549
C  C48  1  0.04090000  0.59280000  0.18020000  1.0 -0.1862749549
C  C49  1  0.42410000  0.00200000  0.32520000  1.0 -0.0971577824
C  C50  1  0.57590000  0.99800000  0.82520000  1.0 -0.0971577824
C  C51  1  0.50200000  0.07590000  0.07520000  1.0 -0.0971577824
C  C52  1  0.49800000  0.92410000  0.57520000  1.0 -0.0971577824
C  C53  1  0.92410000  0.49800000  0.42480000  1.0 -0.0971577824
C  C54  1  0.07590000  0.50200000  0.92480000  1.0 -0.0971577824
C  C55  1  0.00200000  0.42410000  0.67480000  1.0 -0.0971577824
C  C56  1  0.99800000  0.57590000  0.17480000  1.0 -0.0971577824
C  C57  1  0.46090000  0.01060000  0.36160000  1.0 -0.122321425
C  C58  1  0.53910000  0.98940000  0.86160000  1.0 -0.122321425
C  C59  1  0.51060000  0.03910000  0.11160000  1.0 -0.122321425
C  C60  1  0.48940000  0.96090000  0.61160000  1.0 -0.122321425
C  C61  1  0.96090000  0.48940000  0.38840000  1.0 -0.122321425
C  C62  1  0.03910000  0.51060000  0.88840000  1.0 -0.122321425
C  C63  1  0.01060000  0.46090000  0.63840000  1.0 -0.122321425
C  C64  1  0.98940000  0.53910000  0.13840000  1.0 -0.122321425
C  C65  1  0.47960000  0.97260000  0.40150000  1.0 -0.0971577824
C  C66  1  0.52040000  0.02740000  0.90150000  1.0 -0.0971577824
C  C67  1  0.47260000  0.02040000  0.15150000  1.0 -0.0971577824
C  C68  1  0.52740000  0.97960000  0.65150000  1.0 -0.0971577824
C  C69  1  0.97960000  0.52740000  0.34850000  1.0 -0.0971577824
C  C70  1  0.02040000  0.47260000  0.84850000  1.0 -0.0971577824
C  C71  1  0.97260000  0.47960000  0.59850000  1.0 -0.0971577824
C  C72  1  0.02740000  0.52040000  0.09850000  1.0 -0.0971577824
C  C73  1  0.46250000  0.92770000  0.38730000  1.0 -0.1469806624
C  C74  1  0.53750000  0.07230000  0.88730000  1.0 -0.1469806624
C  C75  1  0.42770000  0.03750000  0.13730000  1.0 -0.1469806624
C  C76  1  0.57230000  0.96250000  0.63730000  1.0 -0.1469806624
C  C77  1  0.96250000  0.57230000  0.36270000  1.0 -0.1469806624
C  C78  1  0.03750000  0.42770000  0.86270000  1.0 -0.1469806624
C  C79  1  0.92770000  0.46250000  0.61270000  1.0 -0.1469806624
C  C80  1  0.07230000  0.53750000  0.11270000  1.0 -0.1469806624
C  C81  1  0.23280000  0.53900000  0.05210000  1.0 0.5768324467
C  C82  1  0.76720000  0.46100000  0.55210000  1.0 0.5768324467
C  C83  1  0.03900000  0.26720000  0.80210000  1.0 0.5768324467
C  C84  1  0.96100000  0.73280000  0.30210000  1.0 0.5768324467
C  C85  1  0.73280000  0.96100000  0.69790000  1.0 0.5768324467
C  C86  1  0.26720000  0.03900000  0.19790000  1.0 0.5768324467
C  C87  1  0.53900000  0.23280000  0.94790000  1.0 0.5768324467
C  C88  1  0.46100000  0.76720000  0.44790000  1.0 0.5768324467
C  C89  1  0.20510000  0.54630000  0.94970000  1.0 -0.0134797299
C  C90  1  0.79490000  0.45370000  0.44970000  1.0 -0.0134797299
C  C91  1  0.04630000  0.29490000  0.69970000  1.0 -0.0134797299
C  C92  1  0.95370000  0.70510000  0.19970000  1.0 -0.0134797299
C  C93  1  0.70510000  0.95370000  0.80030000  1.0 -0.0134797299
C  C94  1  0.29490000  0.04630000  0.30030000  1.0 -0.0134797299
C  C95  1  0.54630000  0.20510000  0.05030000  1.0 -0.0134797299
C  C96  1  0.45370000  0.79490000  0.55030000  1.0 -0.0134797299
C  C97  1  0.26070000  0.56080000  0.94680000  1.0 0.0476112514
C  C98  1  0.73930000  0.43920000  0.44680000  1.0 0.0476112514
C  C99  1  0.06080000  0.23930000  0.69680000  1.0 0.0476112514
C  C100  1  0.93920000  0.76070000  0.19680000  1.0 0.0476112514
C  C101  1  0.76070000  0.93920000  0.80320000  1.0 0.0476112514
C  C102  1  0.23930000  0.06080000  0.30320000  1.0 0.0476112514
C  C103  1  0.56080000  0.26070000  0.05320000  1.0 0.0476112514
C  C104  1  0.43920000  0.73930000  0.55320000  1.0 0.0476112514
C  C105  1  0.27317000  0.61138000  0.93223000  1.0 -0.2515814179
C  C106  1  0.72683000  0.38862000  0.43223000  1.0 -0.2515814179
C  C107  1  0.11138000  0.22683000  0.68223000  1.0 -0.2515814179
C  C108  1  0.88862000  0.77317000  0.18223000  1.0 -0.2515814179
C  C109  1  0.77317000  0.88862000  0.81777000  1.0 -0.2515814179
C  C110  1  0.22683000  0.11138000  0.31777000  1.0 -0.2515814179
C  C111  1  0.61138000  0.27317000  0.06777000  1.0 -0.2515814179
C  C112  1  0.38862000  0.72683000  0.56777000  1.0 -0.2515814179
C  C113  1  0.25133000  0.63168000  0.86557000  1.0 0.1209171504
C  C114  1  0.74867000  0.36832000  0.36557000  1.0 0.1209171504
C  C115  1  0.13168000  0.24867000  0.61557000  1.0 0.1209171504
C  C116  1  0.86832000  0.75133000  0.11557000  1.0 0.1209171504
C  C117  1  0.75133000  0.86832000  0.88443000  1.0 0.1209171504
C  C118  1  0.24867000  0.13168000  0.38443000  1.0 0.1209171504
C  C119  1  0.63168000  0.25133000  0.13443000  1.0 0.1209171504
C  C120  1  0.36832000  0.74867000  0.63443000  1.0 0.1209171504
C  C121  1  0.22055000  0.65668000  0.82557000  1.0 -0.1862749549
C  C122  1  0.77945000  0.34332000  0.32557000  1.0 -0.1862749549
C  C123  1  0.15668000  0.27945000  0.57557000  1.0 -0.1862749549
C  C124  1  0.84332000  0.72055000  0.07557000  1.0 -0.1862749549
C  C125  1  0.72055000  0.84332000  0.92443000  1.0 -0.1862749549
C  C126  1  0.27945000  0.15668000  0.42443000  1.0 -0.1862749549
C  C127  1  0.65668000  0.22055000  0.17443000  1.0 -0.1862749549
C  C128  1  0.34332000  0.77945000  0.67443000  1.0 -0.1862749549
C  C129  1  0.22957000  0.66067000  0.75876000  1.0 -0.0971577824
C  C130  1  0.77043000  0.33933000  0.25876000  1.0 -0.0971577824
C  C131  1  0.16067000  0.27043000  0.50876000  1.0 -0.0971577824
C  C132  1  0.83933000  0.72957000  0.00876000  1.0 -0.0971577824
C  C133  1  0.72957000  0.83933000  0.99124000  1.0 -0.0971577824
C  C134  1  0.27043000  0.16067000  0.49124000  1.0 -0.0971577824
C  C135  1  0.66067000  0.22957000  0.24124000  1.0 -0.0971577824
C  C136  1  0.33933000  0.77043000  0.74124000  1.0 -0.0971577824
C  C137  1  0.26938000  0.63966000  0.73194000  1.0 -0.1098796175
C  C138  1  0.73062000  0.36034000  0.23194000  1.0 -0.1098796175
C  C139  1  0.13966000  0.23062000  0.48194000  1.0 -0.1098796175
C  C140  1  0.86034000  0.76938000  0.98194000  1.0 -0.1098796175
C  C141  1  0.76938000  0.86034000  0.01806000  1.0 -0.1098796175
C  C142  1  0.23062000  0.13966000  0.51806000  1.0 -0.1098796175
C  C143  1  0.63966000  0.26938000  0.26806000  1.0 -0.1098796175
C  C144  1  0.36034000  0.73062000  0.76806000  1.0 -0.1098796175
C  C145  1  0.30017000  0.61466000  0.77194000  1.0 -0.1098796175
C  C146  1  0.69983000  0.38534000  0.27194000  1.0 -0.1098796175
C  C147  1  0.11466000  0.19983000  0.52194000  1.0 -0.1098796175
C  C148  1  0.88534000  0.80017000  0.02194000  1.0 -0.1098796175
C  C149  1  0.80017000  0.88534000  0.97806000  1.0 -0.1098796175
C  C150  1  0.19983000  0.11466000  0.47806000  1.0 -0.1098796175
C  C151  1  0.61466000  0.30017000  0.22806000  1.0 -0.1098796175
C  C152  1  0.38534000  0.69983000  0.72806000  1.0 -0.1098796175
C  C153  1  0.29114000  0.61066000  0.83875000  1.0 -0.1299746203
C  C154  1  0.70886000  0.38934000  0.33875000  1.0 -0.1299746203
C  C155  1  0.11066000  0.20886000  0.58875000  1.0 -0.1299746203
C  C156  1  0.88934000  0.79114000  0.08875000  1.0 -0.1299746203
C  C157  1  0.79114000  0.88934000  0.91125000  1.0 -0.1299746203
C  C158  1  0.20886000  0.11066000  0.41125000  1.0 -0.1299746203
C  C159  1  0.61066000  0.29114000  0.16125000  1.0 -0.1299746203
C  C160  1  0.38934000  0.70886000  0.66125000  1.0 -0.1299746203
C  C161  1  0.58440000  0.51338000  0.30346000  1.0 0.3224695059
C  C162  1  0.41560000  0.48662000  0.80346000  1.0 0.3289426225
C  C163  1  0.01338000  0.91560000  0.05346000  1.0 0.3224695059
C  C164  1  0.98662000  0.08440000  0.55346000  1.0 0.3289426225
C  C165  1  0.08440000  0.98662000  0.44654000  1.0 0.3224695059
C  C166  1  0.91560000  0.01338000  0.94654000  1.0 0.3289426225
C  C167  1  0.51338000  0.58440000  0.69654000  1.0 0.3289426225
C  C168  1  0.48662000  0.41560000  0.19654000  1.0 0.3224695059
C  C169  1  0.63803000  0.49392000  0.22980000  1.0 -0.0859441902
C  C170  1  0.36197000  0.50608000  0.72980000  1.0 -0.0859441902
C  C171  1  0.99392000  0.86197000  0.97980000  1.0 -0.0859441902
C  C172  1  0.00608000  0.13803000  0.47980000  1.0 -0.0859441902
C  C173  1  0.13803000  0.00608000  0.52020000  1.0 -0.0859441902
C  C174  1  0.86197000  0.99392000  0.02020000  1.0 -0.0859441902
C  C175  1  0.49392000  0.63803000  0.77020000  1.0 -0.0859441902
C  C176  1  0.50608000  0.36197000  0.27020000  1.0 -0.0859441902
C  C177  1  0.62313000  0.53576000  0.22660000  1.0 0.0902718875
C  C178  1  0.37687000  0.46424000  0.72660000  1.0 0.0902718875
C  C179  1  0.03576000  0.87687000  0.97660000  1.0 0.0902718875
C  C180  1  0.96424000  0.12313000  0.47660000  1.0 0.0902718875
C  C181  1  0.12313000  0.96424000  0.52340000  1.0 0.0902718875
C  C182  1  0.87687000  0.03576000  0.02340000  1.0 0.0902718875
C  C183  1  0.53576000  0.62313000  0.77340000  1.0 0.0902718875
C  C184  1  0.46424000  0.37687000  0.27340000  1.0 0.0902718875
C  C185  1  0.65244000  0.57538000  0.18713000  1.0 -0.3597929781
C  C186  1  0.34756000  0.42462000  0.68713000  1.0 -0.3597929781
C  C187  1  0.07538000  0.84756000  0.93713000  1.0 -0.3597929781
C  C188  1  0.92462000  0.15244000  0.43713000  1.0 -0.3597929781
C  C189  1  0.15244000  0.92462000  0.56287000  1.0 -0.3597929781
C  C190  1  0.84756000  0.07538000  0.06287000  1.0 -0.3597929781
C  C191  1  0.57538000  0.65244000  0.81287000  1.0 -0.3597929781
C  C192  1  0.42462000  0.34756000  0.31287000  1.0 -0.3597929781
C  C193  1  0.62731000  0.58246000  0.04491000  1.0 -0.1764692893
C  C194  1  0.37269000  0.41754000  0.54491000  1.0 -0.1764692893
C  C195  1  0.08246000  0.87269000  0.79491000  1.0 -0.1764692893
C  C196  1  0.91754000  0.12731000  0.29491000  1.0 -0.1764692893
C  C197  1  0.12731000  0.91754000  0.70509000  1.0 -0.1764692893
C  C198  1  0.87269000  0.08246000  0.20509000  1.0 -0.1764692893
C  C199  1  0.58246000  0.62731000  0.95509000  1.0 -0.1764692893
C  C200  1  0.41754000  0.37269000  0.45509000  1.0 -0.1764692893
C  C201  1  0.65381000  0.58672000  0.10196000  1.0 0.0701133194
C  C202  1  0.34619000  0.41328000  0.60196000  1.0 0.0701133194
C  C203  1  0.08672000  0.84619000  0.85196000  1.0 0.0701133194
C  C204  1  0.91328000  0.15381000  0.35196000  1.0 0.0701133194
C  C205  1  0.15381000  0.91328000  0.64804000  1.0 0.0701133194
C  C206  1  0.84619000  0.08672000  0.14804000  1.0 0.0701133194
C  C207  1  0.58672000  0.65381000  0.89804000  1.0 0.0701133194
C  C208  1  0.41328000  0.34619000  0.39804000  1.0 0.0701133194
C  C209  1  0.69945000  0.60432000  0.09902000  1.0 -0.1372836247
C  C210  1  0.30055000  0.39568000  0.59902000  1.0 -0.1372836247
C  C211  1  0.10432000  0.80055000  0.84902000  1.0 -0.1372836247
C  C212  1  0.89568000  0.19945000  0.34902000  1.0 -0.1372836247
C  C213  1  0.19945000  0.89568000  0.65098000  1.0 -0.1372836247
C  C214  1  0.80055000  0.10432000  0.15098000  1.0 -0.1372836247
C  C215  1  0.60432000  0.69945000  0.90098000  1.0 -0.1372836247
C  C216  1  0.39568000  0.30055000  0.40098000  1.0 -0.1372836247
C  C217  1  0.71858000  0.61764000  0.03903000  1.0 -0.1098796175
C  C218  1  0.28142000  0.38236000  0.53903000  1.0 -0.1098796175
C  C219  1  0.11764000  0.78142000  0.78903000  1.0 -0.1098796175
C  C220  1  0.88236000  0.21858000  0.28903000  1.0 -0.1098796175
C  C221  1  0.21858000  0.88236000  0.71097000  1.0 -0.1098796175
C  C222  1  0.78142000  0.11764000  0.21097000  1.0 -0.1098796175
C  C223  1  0.61764000  0.71858000  0.96097000  1.0 -0.1098796175
C  C224  1  0.38236000  0.28142000  0.46097000  1.0 -0.1098796175
C  C225  1  0.69207000  0.61337000  0.98199000  1.0 -0.1098796175
C  C226  1  0.30793000  0.38663000  0.48199000  1.0 -0.1098796175
C  C227  1  0.11337000  0.80793000  0.73199000  1.0 -0.1098796175
C  C228  1  0.88663000  0.19207000  0.23199000  1.0 -0.1098796175
C  C229  1  0.19207000  0.88663000  0.76801000  1.0 -0.1098796175
C  C230  1  0.80793000  0.11337000  0.26801000  1.0 -0.1098796175
C  C231  1  0.61337000  0.69207000  0.01801000  1.0 -0.1098796175
C  C232  1  0.38663000  0.30793000  0.51801000  1.0 -0.1098796175
C  C233  1  0.64644000  0.59578000  0.98493000  1.0 -0.1299746203
C  C234  1  0.35356000  0.40422000  0.48493000  1.0 -0.1299746203
C  C235  1  0.09578000  0.85356000  0.73493000  1.0 -0.1299746203
C  C236  1  0.90422000  0.14644000  0.23493000  1.0 -0.1299746203
C  C237  1  0.14644000  0.90422000  0.76507000  1.0 -0.1299746203
C  C238  1  0.85356000  0.09578000  0.26507000  1.0 -0.1299746203
C  C239  1  0.59578000  0.64644000  0.01507000  1.0 -0.1299746203
C  C240  1  0.40422000  0.35356000  0.51507000  1.0 -0.1299746203
C  C241  1  0.44039000  0.61525000  0.17830000  1.0 -0.2204555371
C  C242  1  0.55961000  0.38475000  0.67830000  1.0 -0.2204555371
C  C243  1  0.11525000  0.05961000  0.92830000  1.0 -0.2204555371
C  C244  1  0.88475000  0.94039000  0.42830000  1.0 -0.2204555371
C  C245  1  0.94039000  0.88475000  0.57170000  1.0 -0.2204555371
C  C246  1  0.05961000  0.11525000  0.07170000  1.0 -0.2204555371
C  C247  1  0.61525000  0.44039000  0.82170000  1.0 -0.2204555371
C  C248  1  0.38475000  0.55961000  0.32170000  1.0 -0.2204555371
C  C249  1  0.39600000  0.61980000  0.14880000  1.0 0.077211332
C  C250  1  0.60400000  0.38020000  0.64880000  1.0 0.077211332
C  C251  1  0.11980000  0.10400000  0.89880000  1.0 0.077211332
C  C252  1  0.88020000  0.89600000  0.39880000  1.0 0.077211332
C  C253  1  0.89600000  0.88020000  0.60120000  1.0 0.077211332
C  C254  1  0.10400000  0.11980000  0.10120000  1.0 0.077211332
C  C255  1  0.61980000  0.39600000  0.85120000  1.0 0.077211332
C  C256  1  0.38020000  0.60400000  0.35120000  1.0 0.077211332
C  C257  1  0.36890000  0.65980000  0.16390000  1.0 -0.1862749549
C  C258  1  0.63110000  0.34020000  0.66390000  1.0 -0.1862749549
C  C259  1  0.15980000  0.13110000  0.91390000  1.0 -0.1862749549
C  C260  1  0.84020000  0.86890000  0.41390000  1.0 -0.1862749549
C  C261  1  0.86890000  0.84020000  0.58610000  1.0 -0.1862749549
C  C262  1  0.13110000  0.15980000  0.08610000  1.0 -0.1862749549
C  C263  1  0.65980000  0.36890000  0.83610000  1.0 -0.1862749549
C  C264  1  0.34020000  0.63110000  0.33610000  1.0 -0.1862749549
C  C265  1  0.38480000  0.69510000  0.20440000  1.0 0.0902718875
C  C266  1  0.61520000  0.30490000  0.70440000  1.0 0.0902718875
C  C267  1  0.19510000  0.11520000  0.95440000  1.0 0.0902718875
C  C268  1  0.80490000  0.88480000  0.45440000  1.0 0.0902718875
C  C269  1  0.88480000  0.80490000  0.54560000  1.0 0.0902718875
C  C270  1  0.11520000  0.19510000  0.04560000  1.0 0.0902718875
C  C271  1  0.69510000  0.38480000  0.79560000  1.0 0.0902718875
C  C272  1  0.30490000  0.61520000  0.29560000  1.0 0.0902718875
C  C273  1  0.42980000  0.69160000  0.23140000  1.0 -0.2036295817
C  C274  1  0.57020000  0.30840000  0.73140000  1.0 -0.2036295817
C  C275  1  0.19160000  0.07020000  0.98140000  1.0 -0.2036295817
C  C276  1  0.80840000  0.92980000  0.48140000  1.0 -0.2036295817
C  C277  1  0.92980000  0.80840000  0.51860000  1.0 -0.2036295817
C  C278  1  0.07020000  0.19160000  0.01860000  1.0 -0.2036295817
C  C279  1  0.69160000  0.42980000  0.76860000  1.0 -0.2036295817
C  C280  1  0.30840000  0.57020000  0.26860000  1.0 -0.2036295817
C  C281  1  0.45820000  0.65230000  0.21820000  1.0 0.0902718875
C  C282  1  0.54180000  0.34770000  0.71820000  1.0 0.0902718875
C  C283  1  0.15230000  0.04180000  0.96820000  1.0 0.0902718875
C  C284  1  0.84770000  0.95820000  0.46820000  1.0 0.0902718875
C  C285  1  0.95820000  0.84770000  0.53180000  1.0 0.0902718875
C  C286  1  0.04180000  0.15230000  0.03180000  1.0 0.0902718875
C  C287  1  0.65230000  0.45820000  0.78180000  1.0 0.0902718875
C  C288  1  0.34770000  0.54180000  0.28180000  1.0 0.0902718875
C  C289  1  0.35310000  0.73440000  0.22320000  1.0 0.0991621693
C  C290  1  0.64690000  0.26560000  0.72320000  1.0 0.0991621693
C  C291  1  0.23440000  0.14690000  0.97320000  1.0 0.0991621693
C  C292  1  0.76560000  0.85310000  0.47320000  1.0 0.0991621693
C  C293  1  0.85310000  0.76560000  0.52680000  1.0 0.0991621693
C  C294  1  0.14690000  0.23440000  0.02680000  1.0 0.0991621693
C  C295  1  0.73440000  0.35310000  0.77680000  1.0 0.0991621693
C  C296  1  0.26560000  0.64690000  0.27680000  1.0 0.0991621693
C  C297  1  0.31520000  0.74760000  0.18370000  1.0 -0.1601126991
C  C298  1  0.68480000  0.25240000  0.68370000  1.0 -0.1601126991
C  C299  1  0.24760000  0.18480000  0.93370000  1.0 -0.1601126991
C  C300  1  0.75240000  0.81520000  0.43370000  1.0 -0.1601126991
C  C301  1  0.81520000  0.75240000  0.56630000  1.0 -0.1601126991
C  C302  1  0.18480000  0.24760000  0.06630000  1.0 -0.1601126991
C  C303  1  0.74760000  0.31520000  0.81630000  1.0 -0.1601126991
C  C304  1  0.25240000  0.68480000  0.31630000  1.0 -0.1601126991
C  C305  1  0.28520000  0.78510000  0.20580000  1.0 -0.0757620489
C  C306  1  0.71480000  0.21490000  0.70580000  1.0 -0.0757620489
C  C307  1  0.28510000  0.21480000  0.95580000  1.0 -0.0757620489
C  C308  1  0.71490000  0.78520000  0.45580000  1.0 -0.0757620489
C  C309  1  0.78520000  0.71490000  0.54420000  1.0 -0.0757620489
C  C310  1  0.21480000  0.28510000  0.04420000  1.0 -0.0757620489
C  C311  1  0.78510000  0.28520000  0.79420000  1.0 -0.0757620489
C  C312  1  0.21490000  0.71480000  0.29420000  1.0 -0.0757620489
C  C313  1  0.29170000  0.80770000  0.26370000  1.0 -0.1098796175
C  C314  1  0.70830000  0.19230000  0.76370000  1.0 -0.1098796175
C  C315  1  0.30770000  0.20830000  0.01370000  1.0 -0.1098796175
C  C316  1  0.69230000  0.79170000  0.51370000  1.0 -0.1098796175
C  C317  1  0.79170000  0.69230000  0.48630000  1.0 -0.1098796175
C  C318  1  0.20830000  0.30770000  0.98630000  1.0 -0.1098796175
C  C319  1  0.80770000  0.29170000  0.73630000  1.0 -0.1098796175
C  C320  1  0.19230000  0.70830000  0.23630000  1.0 -0.1098796175
C  C321  1  0.33020000  0.79630000  0.30120000  1.0 0.1942699435
C  C322  1  0.66980000  0.20370000  0.80120000  1.0 0.1942699435
C  C323  1  0.29630000  0.16980000  0.05120000  1.0 0.1942699435
C  C324  1  0.70370000  0.83020000  0.55120000  1.0 0.1942699435
C  C325  1  0.83020000  0.70370000  0.44880000  1.0 0.1942699435
C  C326  1  0.16980000  0.29630000  0.94880000  1.0 0.1942699435
C  C327  1  0.79630000  0.33020000  0.69880000  1.0 0.1942699435
C  C328  1  0.20370000  0.66980000  0.19880000  1.0 0.1942699435
C  C329  1  0.36060000  0.75860000  0.27940000  1.0 -0.2204555371
C  C330  1  0.63940000  0.24140000  0.77940000  1.0 -0.2204555371
C  C331  1  0.25860000  0.13940000  0.02940000  1.0 -0.2204555371
C  C332  1  0.74140000  0.86060000  0.52940000  1.0 -0.2204555371
C  C333  1  0.86060000  0.74140000  0.47060000  1.0 -0.2204555371
C  C334  1  0.13940000  0.25860000  0.97060000  1.0 -0.2204555371
C  C335  1  0.75860000  0.36060000  0.72060000  1.0 -0.2204555371
C  C336  1  0.24140000  0.63940000  0.22060000  1.0 -0.2204555371
C  C337  1  0.37820000  0.58160000  0.10770000  1.0 0.0902718875
C  C338  1  0.62180000  0.41840000  0.60770000  1.0 0.0902718875
C  C339  1  0.08160000  0.12180000  0.85770000  1.0 0.0902718875
C  C340  1  0.91840000  0.87820000  0.35770000  1.0 0.0902718875
C  C341  1  0.87820000  0.91840000  0.64230000  1.0 0.0902718875
C  C342  1  0.12180000  0.08160000  0.14230000  1.0 0.0902718875
C  C343  1  0.58160000  0.37820000  0.89230000  1.0 0.0902718875
C  C344  1  0.41840000  0.62180000  0.39230000  1.0 0.0902718875
C  C345  1  0.40490000  0.53860000  0.09620000  1.0 -0.1372836247
C  C346  1  0.59510000  0.46140000  0.59620000  1.0 -0.1372836247
C  C347  1  0.03860000  0.09510000  0.84620000  1.0 -0.1372836247
C  C348  1  0.96140000  0.90490000  0.34620000  1.0 -0.1372836247
C  C349  1  0.90490000  0.96140000  0.65380000  1.0 -0.1372836247
C  C350  1  0.09510000  0.03860000  0.15380000  1.0 -0.1372836247
C  C351  1  0.53860000  0.40490000  0.90380000  1.0 -0.1372836247
C  C352  1  0.46140000  0.59510000  0.40380000  1.0 -0.1372836247
C  C353  1  0.38900000  0.50360000  0.06240000  1.0 -0.0706594554
C  C354  1  0.61100000  0.49640000  0.56240000  1.0 -0.0706594554
C  C355  1  0.00360000  0.11100000  0.81240000  1.0 -0.0706594554
C  C356  1  0.99640000  0.88900000  0.31240000  1.0 -0.0706594554
C  C357  1  0.88900000  0.99640000  0.68760000  1.0 -0.0706594554
C  C358  1  0.11100000  0.00360000  0.18760000  1.0 -0.0706594554
C  C359  1  0.50360000  0.38900000  0.93760000  1.0 -0.0706594554
C  C360  1  0.49640000  0.61100000  0.43760000  1.0 -0.0706594554
C  C361  1  0.34380000  0.50370000  0.03160000  1.0 -0.122321425
C  C362  1  0.65620000  0.49630000  0.53160000  1.0 -0.122321425
C  C363  1  0.00370000  0.15620000  0.78160000  1.0 -0.122321425
C  C364  1  0.99630000  0.84380000  0.28160000  1.0 -0.122321425
C  C365  1  0.84380000  0.99630000  0.71840000  1.0 -0.122321425
C  C366  1  0.15620000  0.00370000  0.21840000  1.0 -0.122321425
C  C367  1  0.50370000  0.34380000  0.96840000  1.0 -0.122321425
C  C368  1  0.49630000  0.65620000  0.46840000  1.0 -0.122321425
C  C369  1  0.31760000  0.54350000  0.04150000  1.0 0.1754551487
C  C370  1  0.68240000  0.45650000  0.54150000  1.0 0.1754551487
C  C371  1  0.04350000  0.18240000  0.79150000  1.0 0.1754551487
C  C372  1  0.95650000  0.81760000  0.29150000  1.0 0.1754551487
C  C373  1  0.81760000  0.95650000  0.70850000  1.0 0.1754551487
C  C374  1  0.18240000  0.04350000  0.20850000  1.0 0.1754551487
C  C375  1  0.54350000  0.31760000  0.95850000  1.0 0.1754551487
C  C376  1  0.45650000  0.68240000  0.45850000  1.0 0.1754551487
C  C377  1  0.33380000  0.58180000  0.07920000  1.0 -0.2319337457
C  C378  1  0.66620000  0.41820000  0.57920000  1.0 -0.2319337457
C  C379  1  0.08180000  0.16620000  0.82920000  1.0 -0.2319337457
C  C380  1  0.91820000  0.83380000  0.32920000  1.0 -0.2319337457
C  C381  1  0.83380000  0.91820000  0.67080000  1.0 -0.2319337457
C  C382  1  0.16620000  0.08180000  0.17080000  1.0 -0.2319337457
C  C383  1  0.58180000  0.33380000  0.92080000  1.0 -0.2319337457
C  C384  1  0.41820000  0.66620000  0.42080000  1.0 -0.2319337457
C  C385  1  0.50550000  0.64650000  0.25130000  1.0 0.0902718875
C  C386  1  0.49450000  0.35350000  0.75130000  1.0 0.0902718875
C  C387  1  0.14650000  0.99450000  0.00130000  1.0 0.0902718875
C  C388  1  0.85350000  0.00550000  0.50130000  1.0 0.0902718875
C  C389  1  0.00550000  0.85350000  0.49870000  1.0 0.0902718875
C  C390  1  0.99450000  0.14650000  0.99870000  1.0 0.0902718875
C  C391  1  0.64650000  0.50550000  0.74870000  1.0 0.0902718875
C  C392  1  0.35350000  0.49450000  0.24870000  1.0 0.0902718875
C  C393  1  0.52320000  0.67770000  0.29590000  1.0 -0.1299746203
C  C394  1  0.47680000  0.32230000  0.79590000  1.0 -0.1299746203
C  C395  1  0.17770000  0.97680000  0.04590000  1.0 -0.1299746203
C  C396  1  0.82230000  0.02320000  0.54590000  1.0 -0.1299746203
C  C397  1  0.02320000  0.82230000  0.45410000  1.0 -0.1299746203
C  C398  1  0.97680000  0.17770000  0.95410000  1.0 -0.1299746203
C  C399  1  0.67770000  0.52320000  0.70410000  1.0 -0.1299746203
C  C400  1  0.32230000  0.47680000  0.20410000  1.0 -0.1299746203
C  C401  1  0.56560000  0.67100000  0.32420000  1.0 -0.0757620489
C  C402  1  0.43440000  0.32900000  0.82420000  1.0 -0.0757620489
C  C403  1  0.17100000  0.93440000  0.07420000  1.0 -0.0757620489
C  C404  1  0.82900000  0.06560000  0.57420000  1.0 -0.0757620489
C  C405  1  0.06560000  0.82900000  0.42580000  1.0 -0.0757620489
C  C406  1  0.93440000  0.17100000  0.92580000  1.0 -0.0757620489
C  C407  1  0.67100000  0.56560000  0.67580000  1.0 -0.0757620489
C  C408  1  0.32900000  0.43440000  0.17580000  1.0 -0.0757620489
C  C409  1  0.59240000  0.63130000  0.31480000  1.0 -0.0971577824
C  C410  1  0.40760000  0.36870000  0.81480000  1.0 -0.0971577824
C  C411  1  0.13130000  0.90760000  0.06480000  1.0 -0.0971577824
C  C412  1  0.86870000  0.09240000  0.56480000  1.0 -0.0971577824
C  C413  1  0.09240000  0.86870000  0.43520000  1.0 -0.0971577824
C  C414  1  0.90760000  0.13130000  0.93520000  1.0 -0.0971577824
C  C415  1  0.63130000  0.59240000  0.68520000  1.0 -0.0971577824
C  C416  1  0.36870000  0.40760000  0.18520000  1.0 -0.0971577824
C  C417  1  0.57200000  0.59690000  0.27300000  1.0 0.1550442907
C  C418  1  0.42800000  0.40310000  0.77300000  1.0 0.1550442907
C  C419  1  0.09690000  0.92800000  0.02300000  1.0 0.1550442907
C  C420  1  0.90310000  0.07200000  0.52300000  1.0 0.1550442907
C  C421  1  0.07200000  0.90310000  0.47700000  1.0 0.1550442907
C  C422  1  0.92800000  0.09690000  0.97700000  1.0 0.1550442907
C  C423  1  0.59690000  0.57200000  0.72700000  1.0 0.1550442907
C  C424  1  0.40310000  0.42800000  0.22700000  1.0 0.1550442907
C  C425  1  0.53050000  0.60620000  0.24270000  1.0 -0.2319337457
C  C426  1  0.46950000  0.39380000  0.74270000  1.0 -0.2319337457
C  C427  1  0.10620000  0.96950000  0.99270000  1.0 -0.2319337457
C  C428  1  0.89380000  0.03050000  0.49270000  1.0 -0.2319337457
C  C429  1  0.03050000  0.89380000  0.50730000  1.0 -0.2319337457
C  C430  1  0.96950000  0.10620000  0.00730000  1.0 -0.2319337457
C  C431  1  0.60620000  0.53050000  0.75730000  1.0 -0.2319337457
C  C432  1  0.39380000  0.46950000  0.25730000  1.0 -0.2319337457
C  C433  1  0.25420000  0.84300000  0.28210000  1.0 0.590084243
C  C434  1  0.74580000  0.15700000  0.78210000  1.0 0.590084243
C  C435  1  0.34300000  0.24580000  0.03210000  1.0 0.590084243
C  C436  1  0.65700000  0.75420000  0.53210000  1.0 0.590084243
C  C437  1  0.75420000  0.65700000  0.46790000  1.0 0.590084243
C  C438  1  0.24580000  0.34300000  0.96790000  1.0 0.590084243
C  C439  1  0.84300000  0.25420000  0.71790000  1.0 0.590084243
C  C440  1  0.15700000  0.74580000  0.21790000  1.0 0.590084243
C  C441  1  0.32840000  0.46090000  0.99460000  1.0 0.6041450831
C  C442  1  0.67160000  0.53910000  0.49460000  1.0 0.6041450831
C  C443  1  0.96090000  0.17160000  0.74460000  1.0 0.6041450831
C  C444  1  0.03910000  0.82840000  0.24460000  1.0 0.6041450831
C  C445  1  0.82840000  0.03910000  0.75540000  1.0 0.6041450831
C  C446  1  0.17160000  0.96090000  0.25540000  1.0 0.6041450831
C  C447  1  0.46090000  0.32840000  0.00540000  1.0 0.6041450831
C  C448  1  0.53910000  0.67160000  0.50540000  1.0 0.6041450831
C  C449  1  0.63610000  0.62360000  0.35360000  1.0 0.590084243
C  C450  1  0.36390000  0.37640000  0.85360000  1.0 0.590084243
C  C451  1  0.12360000  0.86390000  0.10360000  1.0 0.590084243
C  C452  1  0.87640000  0.13610000  0.60360000  1.0 0.590084243
C  C453  1  0.13610000  0.87640000  0.39640000  1.0 0.590084243
C  C454  1  0.86390000  0.12360000  0.89640000  1.0 0.590084243
C  C455  1  0.62360000  0.63610000  0.64640000  1.0 0.590084243
C  C456  1  0.37640000  0.36390000  0.14640000  1.0 0.590084243
N  N1  1  0.34080000  0.81700000  0.36110000  1.0 -0.2118944531
N  N2  1  0.65920000  0.18300000  0.86110000  1.0 -0.2118944531
N  N3  1  0.31700000  0.15920000  0.11110000  1.0 -0.2118944531
N  N4  1  0.68300000  0.84080000  0.61110000  1.0 -0.2118944531
N  N5  1  0.84080000  0.68300000  0.38890000  1.0 -0.2118944531
N  N6  1  0.15920000  0.31700000  0.88890000  1.0 -0.2118944531
N  N7  1  0.81700000  0.34080000  0.63890000  1.0 -0.2118944531
N  N8  1  0.18300000  0.65920000  0.13890000  1.0 -0.2118944531
N  N9  1  0.27070000  0.54870000  0.01470000  1.0 -0.2319337457
N  N10  1  0.72930000  0.45130000  0.51470000  1.0 -0.2319337457
N  N11  1  0.04870000  0.22930000  0.76470000  1.0 -0.2319337457
N  N12  1  0.95130000  0.77070000  0.26470000  1.0 -0.2319337457
N  N13  1  0.77070000  0.95130000  0.73530000  1.0 -0.2319337457
N  N14  1  0.22930000  0.04870000  0.23530000  1.0 -0.2319337457
N  N15  1  0.54870000  0.27070000  0.98530000  1.0 -0.2319337457
N  N16  1  0.45130000  0.72930000  0.48530000  1.0 -0.2319337457
N  N17  1  0.59458000  0.54997000  0.26601000  1.0 -0.1469806624
N  N18  1  0.40542000  0.45003000  0.76601000  1.0 -0.1469806624
N  N19  1  0.04997000  0.90542000  0.01601000  1.0 -0.1469806624
N  N20  1  0.95003000  0.09458000  0.51601000  1.0 -0.1469806624
N  N21  1  0.09458000  0.95003000  0.48399000  1.0 -0.1469806624
N  N22  1  0.90542000  0.04997000  0.98399000  1.0 -0.1469806624
N  N23  1  0.54997000  0.59458000  0.73399000  1.0 -0.1469806624
N  N24  1  0.45003000  0.40542000  0.23399000  1.0 -0.1469806624
O  O1  1  0.32310000  0.75270000  0.42570000  1.0 -0.5080784415
O  O2  1  0.67690000  0.24730000  0.92570000  1.0 -0.5080784415
O  O3  1  0.25270000  0.17690000  0.17570000  1.0 -0.5080784415
O  O4  1  0.74730000  0.82310000  0.67570000  1.0 -0.5080784415
O  O5  1  0.82310000  0.74730000  0.32430000  1.0 -0.5080784415
O  O6  1  0.17690000  0.25270000  0.82430000  1.0 -0.5080784415
O  O7  1  0.75270000  0.32310000  0.57430000  1.0 -0.5080784415
O  O8  1  0.24730000  0.67690000  0.07430000  1.0 -0.5080784415
O  O9  1  0.34680000  0.82140000  0.47000000  1.0 -0.2118944531
O  O10  1  0.65320000  0.17860000  0.97000000  1.0 -0.2118944531
O  O11  1  0.32140000  0.15320000  0.22000000  1.0 -0.2118944531
O  O12  1  0.67860000  0.84680000  0.72000000  1.0 -0.2118944531
O  O13  1  0.84680000  0.67860000  0.28000000  1.0 -0.2118944531
O  O14  1  0.15320000  0.32140000  0.78000000  1.0 -0.2118944531
O  O15  1  0.82140000  0.34680000  0.53000000  1.0 -0.2118944531
O  O16  1  0.17860000  0.65320000  0.03000000  1.0 -0.2118944531
O  O17  1  0.23030000  0.53140000  0.10950000  1.0 -0.4708019612
O  O18  1  0.76970000  0.46860000  0.60950000  1.0 -0.4708019612
O  O19  1  0.03140000  0.26970000  0.85950000  1.0 -0.4708019612
O  O20  1  0.96860000  0.73030000  0.35950000  1.0 -0.4708019612
O  O21  1  0.73030000  0.96860000  0.64050000  1.0 -0.4708019612
O  O22  1  0.26970000  0.03140000  0.14050000  1.0 -0.4708019612
O  O23  1  0.53140000  0.23030000  0.89050000  1.0 -0.4708019612
O  O24  1  0.46860000  0.76970000  0.39050000  1.0 -0.4708019612
O  O25  1  0.19410000  0.54070000  0.01070000  1.0 -0.1764692893
O  O26  1  0.80590000  0.45930000  0.51070000  1.0 -0.1764692893
O  O27  1  0.04070000  0.30590000  0.76070000  1.0 -0.1764692893
O  O28  1  0.95930000  0.69410000  0.26070000  1.0 -0.1764692893
O  O29  1  0.69410000  0.95930000  0.73930000  1.0 -0.1764692893
O  O30  1  0.30590000  0.04070000  0.23930000  1.0 -0.1764692893
O  O31  1  0.54070000  0.19410000  0.98930000  1.0 -0.1764692893
O  O32  1  0.45930000  0.80590000  0.48930000  1.0 -0.1764692893
O  O33  1  0.57690000  0.50871000  0.36310000  1.0 -0.456770783
O  O34  1  0.42310000  0.49129000  0.86310000  1.0 -0.4547358719
O  O35  1  0.00871000  0.92310000  0.11310000  1.0 -0.456770783
O  O36  1  0.99129000  0.07690000  0.61310000  1.0 -0.456770783
O  O37  1  0.07690000  0.99129000  0.38690000  1.0 -0.456770783
O  O38  1  0.92310000  0.00871000  0.88690000  1.0 -0.456770783
O  O39  1  0.50871000  0.57690000  0.63690000  1.0 -0.456770783
O  O40  1  0.49129000  0.42310000  0.13690000  1.0 -0.456770783
O  O41  1  0.61175000  0.47489000  0.27451000  1.0 -0.1601126991
O  O42  1  0.38825000  0.52511000  0.77451000  1.0 -0.1601126991
O  O43  1  0.97489000  0.88825000  0.02451000  1.0 -0.1601126991
O  O44  1  0.02511000  0.11175000  0.52451000  1.0 -0.1601126991
O  O45  1  0.11175000  0.02511000  0.47549000  1.0 -0.1601126991
O  O46  1  0.88825000  0.97489000  0.97549000  1.0 -0.1601126991
O  O47  1  0.47489000  0.61175000  0.72549000  1.0 -0.1601126991
O  O48  1  0.52511000  0.38825000  0.22549000  1.0 -0.1601126991
O  O49  1  0.25894000  0.86381000  0.33655000  1.0 -0.5581760374
O  O50  1  0.74106000  0.13619000  0.83655000  1.0 -0.5581760374
O  O51  1  0.36381000  0.24106000  0.08655000  1.0 -0.5581760374
O  O52  1  0.63619000  0.75894000  0.58655000  1.0 -0.5581760374
O  O53  1  0.75894000  0.63619000  0.41345000  1.0 -0.5581760374
O  O54  1  0.24106000  0.36381000  0.91345000  1.0 -0.5581760374
O  O55  1  0.86381000  0.25894000  0.66345000  1.0 -0.5581760374
O  O56  1  0.13619000  0.74106000  0.16345000  1.0 -0.5581760374
O  O57  1  0.22131000  0.84910000  0.24551000  1.0 -0.502079722
O  O58  1  0.77869000  0.15090000  0.74551000  1.0 -0.502079722
O  O59  1  0.34910000  0.27869000  0.99551000  1.0 -0.502079722
O  O60  1  0.65090000  0.72131000  0.49551000  1.0 -0.502079722
O  O61  1  0.72131000  0.65090000  0.50449000  1.0 -0.502079722
O  O62  1  0.27869000  0.34910000  0.00449000  1.0 -0.502079722
O  O63  1  0.84910000  0.22131000  0.75449000  1.0 -0.502079722
O  O64  1  0.15090000  0.77869000  0.25449000  1.0 -0.502079722
O  O65  1  0.35525000  0.42541000  0.99791000  1.0 -0.5581760374
O  O66  1  0.64475000  0.57459000  0.49791000  1.0 -0.5581760374
O  O67  1  0.92541000  0.14475000  0.74791000  1.0 -0.5581760374
O  O68  1  0.07459000  0.85525000  0.24791000  1.0 -0.5581760374
O  O69  1  0.85525000  0.07459000  0.75209000  1.0 -0.5581760374
O  O70  1  0.14475000  0.92541000  0.25209000  1.0 -0.5581760374
O  O71  1  0.42541000  0.35525000  0.00209000  1.0 -0.5581760374
O  O72  1  0.57459000  0.64475000  0.50209000  1.0 -0.5581760374
O  O73  1  0.29232000  0.46282000  0.95832000  1.0 -0.5713019041
O  O74  1  0.70768000  0.53718000  0.45832000  1.0 -0.5713019041
O  O75  1  0.96282000  0.20768000  0.70832000  1.0 -0.5713019041
O  O76  1  0.03718000  0.79232000  0.20832000  1.0 -0.5713019041
O  O77  1  0.79232000  0.03718000  0.79168000  1.0 -0.5713019041
O  O78  1  0.20768000  0.96282000  0.29168000  1.0 -0.5713019041
O  O79  1  0.46282000  0.29232000  0.04168000  1.0 -0.5713019041
O  O80  1  0.53718000  0.70768000  0.54168000  1.0 -0.5713019041
O  O81  1  0.64564000  0.65126000  0.39691000  1.0 -0.5080784415
O  O82  1  0.35436000  0.34874000  0.89691000  1.0 -0.5080784415
O  O83  1  0.15126000  0.85436000  0.14691000  1.0 -0.5080784415
O  O84  1  0.84874000  0.14564000  0.64691000  1.0 -0.5080784415
O  O85  1  0.14564000  0.84874000  0.35309000  1.0 -0.5080784415
O  O86  1  0.85436000  0.15126000  0.85309000  1.0 -0.5080784415
O  O87  1  0.65126000  0.64564000  0.60309000  1.0 -0.5080784415
O  O88  1  0.34874000  0.35436000  0.10309000  1.0 -0.5080784415
O  O89  1  0.66282000  0.58966000  0.33677000  1.0 -0.5470715431
O  O90  1  0.33718000  0.41034000  0.83677000  1.0 -0.5470715431
O  O91  1  0.08966000  0.83718000  0.08677000  1.0 -0.5470715431
O  O92  1  0.91034000  0.16282000  0.58677000  1.0 -0.5470715431
O  O93  1  0.16282000  0.91034000  0.41323000  1.0 -0.5470715431
O  O94  1  0.83718000  0.08966000  0.91323000  1.0 -0.5470715431
O  O95  1  0.58966000  0.66282000  0.66323000  1.0 -0.5470715431
O  O96  1  0.41034000  0.33718000  0.16323000  1.0 -0.5470715431
