# DDEC6 charges by PACMAN v1.1 (https://github.com/mtap-research/PACMAN-charge/)
data_ONIRIP_ion_pacman
_symmetry_space_group_name_H-M   'P 1'
_cell_length_a   16.38620000
_cell_length_b   16.38620000
_cell_length_c   24.57800000
_cell_angle_alpha   87.05570000
_cell_angle_beta   92.94430000
_cell_angle_gamma   86.23130000
_symmetry_Int_Tables_number   1
_chemical_formula_structural   NaCd4H66C108(N2O3)6
_chemical_formula_sum   'Na2 Cd8 H132 C216 N24 O36'
_cell_volume   6566.48494876
_cell_formula_units_Z   2
loop_
 _symmetry_equiv_pos_site_id
 _symmetry_equiv_pos_as_xyz
  1  'x, y, z'
loop_
 _atom_site_type_symbol
 _atom_site_label
 _atom_site_symmetry_multiplicity
 _atom_site_fract_x
 _atom_site_fract_y
 _atom_site_fract_z
 _atom_site_occupancy
 _atom_site_charge
Na  Na1  1  0.76850000  0.76850000  0.25000000  1.0 0.5848739141
Na  Na2  1  0.23150000  0.23150000  0.75000000  1.0 0.5848739141
Cd  Cd1  1  0.89418000  0.59642000  0.67226000  1.0 0.8618504399
Cd  Cd2  1  0.08905000  0.57791000  0.74297000  1.0 0.9388978178
Cd  Cd3  1  0.59642000  0.89418000  0.82774000  1.0 0.8618504399
Cd  Cd4  1  0.57791000  0.08905000  0.75703000  1.0 0.9388978178
Cd  Cd5  1  0.10582000  0.40358000  0.32774000  1.0 0.8618504399
Cd  Cd6  1  0.91095000  0.42209000  0.25703000  1.0 0.9388978178
Cd  Cd7  1  0.40358000  0.10582000  0.17226000  1.0 0.8618504399
Cd  Cd8  1  0.42209000  0.91095000  0.24297000  1.0 0.9388978178
H  H1  1  0.21751000  0.35217000  0.96873000  1.0 0.1376625865
H  H2  1  0.16661000  0.22007000  0.47617000  1.0 0.1116338614
H  H3  1  0.14269000  0.18307000  0.38065000  1.0 0.1116338614
H  H4  1  0.16224000  0.97452000  0.48658000  1.0 0.1287106065
H  H5  1  0.32493000  0.33245000  0.82582000  1.0 0.1199258681
H  H6  1  0.06228000  0.31730000  0.49554000  1.0 0.1199258681
H  H7  1  0.44742000  0.25268000  0.96948000  1.0 0.1376625865
H  H8  1  0.39293000  0.17327000  0.04401000  1.0 0.1199258681
H  H9  1  0.21108000  0.18212000  0.29987000  1.0 0.1199258681
H  H10  1  0.01566000  0.43630000  0.52977000  1.0 0.1199258681
H  H11  1  0.23833000  0.46557000  0.81012000  1.0 0.1116338614
H  H12  1  0.10403000  0.85261000  0.70071000  1.0 0.1199258681
H  H13  1  0.00902000  0.78466000  0.55767000  1.0 0.1116338614
H  H14  1  0.42507000  0.19989000  0.80482000  1.0 0.1012694066
H  H15  1  0.30126000  0.00414000  0.44571000  1.0 0.1116338614
H  H16  1  0.14191000  0.97129000  0.65574000  1.0 0.1116338614
H  H17  1  0.07626000  0.10580000  0.60794000  1.0 0.1199258681
H  H18  1  0.11972000  0.22218000  0.64841000  1.0 0.1012694066
H  H19  1  0.07655000  0.34905000  0.68113000  1.0 0.1116338614
H  H20  1  0.36999000  0.00661000  0.36443000  1.0 0.1116338614
H  H21  1  0.32400000  0.29900000  0.20662000  1.0 0.1287106065
H  H22  1  0.09882000  0.28642000  0.93363000  1.0 0.1199258681
H  H23  1  0.04291000  0.90275000  0.51639000  1.0 0.1199258681
H  H24  1  0.26555000  0.44651000  0.03864000  1.0 0.1287106065
H  H25  1  0.26521000  0.43179000  0.20434000  1.0 0.1012694066
H  H26  1  0.94561000  0.46247000  0.80427000  1.0 0.1376625865
H  H27  1  0.71117000  0.21929000  0.81648000  1.0 0.1376625865
H  H28  1  0.95899000  0.29595000  0.93194000  1.0 0.1116338614
H  H29  1  0.55452000  0.36498000  0.94033000  1.0 0.1287106065
H  H30  1  0.21548000  0.49634000  0.11952000  1.0 0.1012694066
H  H31  1  0.88153000  0.38329000  0.86771000  1.0 0.1116338614
H  H32  1  0.69563000  0.36165000  0.94622000  1.0 0.1199258681
H  H33  1  0.77397000  0.28631000  0.88916000  1.0 0.1012694066
H  H34  1  0.35217000  0.21751000  0.53127000  1.0 0.1376625865
H  H35  1  0.22007000  0.16661000  0.02383000  1.0 0.1116338614
H  H36  1  0.18307000  0.14269000  0.11935000  1.0 0.1116338614
H  H37  1  0.97452000  0.16224000  0.01342000  1.0 0.1287106065
H  H38  1  0.33245000  0.32493000  0.67418000  1.0 0.1199258681
H  H39  1  0.31730000  0.06228000  0.00446000  1.0 0.1199258681
H  H40  1  0.25268000  0.44742000  0.53052000  1.0 0.1376625865
H  H41  1  0.17327000  0.39293000  0.45599000  1.0 0.1199258681
H  H42  1  0.18212000  0.21108000  0.20013000  1.0 0.1199258681
H  H43  1  0.43630000  0.01566000  0.97023000  1.0 0.1199258681
H  H44  1  0.46557000  0.23833000  0.68988000  1.0 0.1116338614
H  H45  1  0.85261000  0.10403000  0.79929000  1.0 0.1199258681
H  H46  1  0.78466000  0.00902000  0.94233000  1.0 0.1116338614
H  H47  1  0.19989000  0.42507000  0.69518000  1.0 0.1012694066
H  H48  1  0.00414000  0.30126000  0.05429000  1.0 0.1116338614
H  H49  1  0.97129000  0.14191000  0.84426000  1.0 0.1116338614
H  H50  1  0.10580000  0.07626000  0.89206000  1.0 0.1199258681
H  H51  1  0.22218000  0.11972000  0.85159000  1.0 0.1012694066
H  H52  1  0.34905000  0.07655000  0.81887000  1.0 0.1116338614
H  H53  1  0.00661000  0.36999000  0.13557000  1.0 0.1116338614
H  H54  1  0.29900000  0.32400000  0.29338000  1.0 0.1287106065
H  H55  1  0.28642000  0.09882000  0.56637000  1.0 0.1199258681
H  H56  1  0.90275000  0.04291000  0.98361000  1.0 0.1199258681
H  H57  1  0.44651000  0.26555000  0.46136000  1.0 0.1287106065
H  H58  1  0.43179000  0.26521000  0.29566000  1.0 0.1012694066
H  H59  1  0.46247000  0.94561000  0.69573000  1.0 0.1376625865
H  H60  1  0.21929000  0.71117000  0.68352000  1.0 0.1376625865
H  H61  1  0.29595000  0.95899000  0.56806000  1.0 0.1116338614
H  H62  1  0.36498000  0.55452000  0.55967000  1.0 0.1287106065
H  H63  1  0.49634000  0.21548000  0.38048000  1.0 0.1012694066
H  H64  1  0.38329000  0.88153000  0.63229000  1.0 0.1116338614
H  H65  1  0.36165000  0.69563000  0.55378000  1.0 0.1199258681
H  H66  1  0.28631000  0.77397000  0.61084000  1.0 0.1012694066
H  H67  1  0.78249000  0.64783000  0.03127000  1.0 0.1376625865
H  H68  1  0.83339000  0.77993000  0.52383000  1.0 0.1116338614
H  H69  1  0.85731000  0.81693000  0.61935000  1.0 0.1116338614
H  H70  1  0.83776000  0.02548000  0.51342000  1.0 0.1287106065
H  H71  1  0.67507000  0.66755000  0.17418000  1.0 0.1199258681
H  H72  1  0.93772000  0.68270000  0.50446000  1.0 0.1199258681
H  H73  1  0.55258000  0.74732000  0.03052000  1.0 0.1376625865
H  H74  1  0.60707000  0.82673000  0.95599000  1.0 0.1199258681
H  H75  1  0.78892000  0.81788000  0.70013000  1.0 0.1199258681
H  H76  1  0.98434000  0.56370000  0.47023000  1.0 0.1199258681
H  H77  1  0.76167000  0.53443000  0.18988000  1.0 0.1116338614
H  H78  1  0.89597000  0.14739000  0.29929000  1.0 0.1199258681
H  H79  1  0.99098000  0.21534000  0.44233000  1.0 0.1116338614
H  H80  1  0.57493000  0.80011000  0.19518000  1.0 0.1012694066
H  H81  1  0.69874000  0.99586000  0.55429000  1.0 0.1116338614
H  H82  1  0.85809000  0.02871000  0.34426000  1.0 0.1116338614
H  H83  1  0.92374000  0.89420000  0.39206000  1.0 0.1199258681
H  H84  1  0.88028000  0.77782000  0.35159000  1.0 0.1012694066
H  H85  1  0.92345000  0.65095000  0.31887000  1.0 0.1116338614
H  H86  1  0.63001000  0.99339000  0.63557000  1.0 0.1116338614
H  H87  1  0.67600000  0.70100000  0.79338000  1.0 0.1287106065
H  H88  1  0.90118000  0.71358000  0.06637000  1.0 0.1199258681
H  H89  1  0.95709000  0.09725000  0.48361000  1.0 0.1199258681
H  H90  1  0.73445000  0.55349000  0.96136000  1.0 0.1287106065
H  H91  1  0.73479000  0.56821000  0.79566000  1.0 0.1012694066
H  H92  1  0.05439000  0.53753000  0.19573000  1.0 0.1376625865
H  H93  1  0.28883000  0.78071000  0.18352000  1.0 0.1376625865
H  H94  1  0.04101000  0.70405000  0.06806000  1.0 0.1116338614
H  H95  1  0.44548000  0.63502000  0.05967000  1.0 0.1287106065
H  H96  1  0.78452000  0.50366000  0.88048000  1.0 0.1012694066
H  H97  1  0.11847000  0.61671000  0.13229000  1.0 0.1116338614
H  H98  1  0.30437000  0.63835000  0.05378000  1.0 0.1199258681
H  H99  1  0.22604000  0.71369000  0.11084000  1.0 0.1012694066
H  H100  1  0.64783000  0.78249000  0.46873000  1.0 0.1376625865
H  H101  1  0.77993000  0.83339000  0.97617000  1.0 0.1116338614
H  H102  1  0.81693000  0.85731000  0.88065000  1.0 0.1116338614
H  H103  1  0.02548000  0.83776000  0.98658000  1.0 0.1287106065
H  H104  1  0.66755000  0.67507000  0.32582000  1.0 0.1199258681
H  H105  1  0.68270000  0.93772000  0.99554000  1.0 0.1199258681
H  H106  1  0.74732000  0.55258000  0.46948000  1.0 0.1376625865
H  H107  1  0.82673000  0.60707000  0.54401000  1.0 0.1199258681
H  H108  1  0.81788000  0.78892000  0.79987000  1.0 0.1199258681
H  H109  1  0.56370000  0.98434000  0.02977000  1.0 0.1199258681
H  H110  1  0.53443000  0.76167000  0.31012000  1.0 0.1116338614
H  H111  1  0.14739000  0.89597000  0.20071000  1.0 0.1199258681
H  H112  1  0.21534000  0.99098000  0.05767000  1.0 0.1116338614
H  H113  1  0.80011000  0.57493000  0.30482000  1.0 0.1012694066
H  H114  1  0.99586000  0.69874000  0.94571000  1.0 0.1116338614
H  H115  1  0.02871000  0.85809000  0.15574000  1.0 0.1116338614
H  H116  1  0.89420000  0.92374000  0.10794000  1.0 0.1199258681
H  H117  1  0.77782000  0.88028000  0.14841000  1.0 0.1012694066
H  H118  1  0.65095000  0.92345000  0.18113000  1.0 0.1116338614
H  H119  1  0.99339000  0.63001000  0.86443000  1.0 0.1116338614
H  H120  1  0.70100000  0.67600000  0.70662000  1.0 0.1287106065
H  H121  1  0.71358000  0.90118000  0.43363000  1.0 0.1199258681
H  H122  1  0.09725000  0.95709000  0.01639000  1.0 0.1199258681
H  H123  1  0.55349000  0.73445000  0.53864000  1.0 0.1287106065
H  H124  1  0.56821000  0.73479000  0.70434000  1.0 0.1012694066
H  H125  1  0.53753000  0.05439000  0.30427000  1.0 0.1376625865
H  H126  1  0.78071000  0.28883000  0.31648000  1.0 0.1376625865
H  H127  1  0.70405000  0.04101000  0.43194000  1.0 0.1116338614
H  H128  1  0.63502000  0.44548000  0.44033000  1.0 0.1287106065
H  H129  1  0.50366000  0.78452000  0.61952000  1.0 0.1012694066
H  H130  1  0.61671000  0.11847000  0.36771000  1.0 0.1116338614
H  H131  1  0.63835000  0.30437000  0.44622000  1.0 0.1199258681
H  H132  1  0.71369000  0.22604000  0.38916000  1.0 0.1012694066
C  C1  1  0.26280000  0.33600000  0.94960000  1.0 -0.2956116206
C  C2  1  0.15460000  0.17220000  0.49530000  1.0 -0.226987789
C  C3  1  0.33260000  0.30300000  0.97760000  1.0 0.2092756511
C  C4  1  0.17250000  0.09530000  0.47390000  1.0 0.086238501
C  C5  1  0.18780000  0.14640000  0.37750000  1.0 -0.1508435067
C  C6  1  0.15240000  0.02480000  0.50190000  1.0 -0.2086613631
C  C7  1  0.32670000  0.32450000  0.86360000  1.0 -0.3503197996
C  C8  1  0.06480000  0.32200000  0.53310000  1.0 -0.1508435067
C  C9  1  0.21510000  0.09230000  0.42110000  1.0 0.0703817758
C  C10  1  0.25890000  0.34570000  0.89350000  1.0 0.2235708827
C  C11  1  0.11830000  0.02690000  0.55180000  1.0 0.0793410161
C  C12  1  0.40110000  0.27750000  0.95040000  1.0 -0.2948908982
C  C13  1  0.36940000  0.21700000  0.06170000  1.0 0.1199258681
C  C14  1  0.39900000  0.29020000  0.89350000  1.0 0.2283673131
C  C15  1  0.09700000  0.25520000  0.56730000  1.0 0.0703817758
C  C16  1  0.05310000  0.80410000  0.63190000  1.0 -0.0290269038
C  C17  1  0.33760000  0.09280000  0.27270000  1.0 0.5635788236
C  C18  1  0.30890000  0.33950000  0.07430000  1.0 0.1012694066
C  C19  1  0.22850000  0.14550000  0.32890000  1.0 -0.0865099669
C  C20  1  0.10480000  0.37340000  0.87530000  1.0 0.1012694066
C  C21  1  0.03730000  0.39330000  0.55350000  1.0 -0.0977547249
C  C22  1  0.09630000  0.94930000  0.58040000  1.0 0.0630946876
C  C23  1  0.19090000  0.44470000  0.82280000  1.0 0.0703817758
C  C24  1  0.09290000  0.86210000  0.66330000  1.0 -0.0977547249
C  C25  1  0.29460000  0.09040000  0.32400000  1.0 -0.0437206818
C  C26  1  0.32830000  0.29510000  0.12520000  1.0 0.1376625865
C  C27  1  0.03590000  0.82190000  0.57820000  1.0 -0.0977547249
C  C28  1  0.47170000  0.21850000  0.82200000  1.0 0.1199258681
C  C29  1  0.28220000  0.04000000  0.41660000  1.0 -0.1508435067
C  C30  1  0.55100000  0.28180000  0.87940000  1.0 0.1012694066
C  C31  1  0.11840000  0.17580000  0.54590000  1.0 0.0703817758
C  C32  1  0.11450000  0.93330000  0.63620000  1.0 -0.163243734
C  C33  1  0.10010000  0.10350000  0.57450000  1.0 -0.226987789
C  C34  1  0.05970000  0.42810000  0.83540000  1.0 0.1524005898
C  C35  1  0.99770000  0.47790000  0.63170000  1.0 0.5635788236
C  C36  1  0.10000000  0.26520000  0.62410000  1.0 -0.1812411702
C  C37  1  0.07250000  0.34170000  0.64380000  1.0 -0.1308577365
C  C38  1  0.32300000  0.04080000  0.36710000  1.0 -0.0865099669
C  C39  1  0.03190000  0.72430000  0.65950000  1.0 0.5635788236
C  C40  1  0.31100000  0.32840000  0.17360000  1.0 -0.1687588152
C  C41  1  0.04100000  0.40300000  0.61000000  1.0 -0.0204510075
C  C42  1  0.59740000  0.24060000  0.84160000  1.0 0.1376625865
C  C43  1  0.06840000  0.32340000  0.90930000  1.0 -0.1687588152
C  C44  1  0.05650000  0.89270000  0.55340000  1.0 -0.1446785709
C  C45  1  0.27340000  0.41600000  0.07160000  1.0 -0.1897103755
C  C46  1  0.27390000  0.40610000  0.17200000  1.0 -0.1103960226
C  C47  1  0.97590000  0.42970000  0.83120000  1.0 -0.1687588152
C  C48  1  0.68010000  0.24410000  0.84250000  1.0 -0.163243734
C  C49  1  0.98580000  0.32820000  0.90720000  1.0 -0.1103960226
C  C50  1  0.58620000  0.33300000  0.91810000  1.0 -0.1812411702
C  C51  1  0.24850000  0.44790000  0.12050000  1.0 -0.1103960226
C  C52  1  0.93840000  0.38140000  0.86810000  1.0 -0.1103960226
C  C53  1  0.66940000  0.33180000  0.92020000  1.0 -0.1197660022
C  C54  1  0.71710000  0.28750000  0.88490000  1.0 -0.1197660022
C  C55  1  0.33600000  0.26280000  0.55040000  1.0 -0.2948908982
C  C56  1  0.17220000  0.15460000  0.00470000  1.0 -0.226987789
C  C57  1  0.30300000  0.33260000  0.52240000  1.0 0.2092756511
C  C58  1  0.09530000  0.17250000  0.02610000  1.0 0.086238501
C  C59  1  0.14640000  0.18780000  0.12250000  1.0 -0.1508435067
C  C60  1  0.02480000  0.15240000  0.99810000  1.0 -0.2086613631
C  C61  1  0.32450000  0.32670000  0.63640000  1.0 -0.3503197996
C  C62  1  0.32200000  0.06480000  0.96690000  1.0 -0.1508435067
C  C63  1  0.09230000  0.21510000  0.07890000  1.0 0.0703817758
C  C64  1  0.34570000  0.25890000  0.60650000  1.0 0.2235708827
C  C65  1  0.02690000  0.11830000  0.94820000  1.0 0.0793410161
C  C66  1  0.27750000  0.40110000  0.54960000  1.0 -0.2948908982
C  C67  1  0.21700000  0.36940000  0.43830000  1.0 0.1199258681
C  C68  1  0.29020000  0.39900000  0.60650000  1.0 0.2283673131
C  C69  1  0.25520000  0.09700000  0.93270000  1.0 0.0703817758
C  C70  1  0.80410000  0.05310000  0.86810000  1.0 -0.0290269038
C  C71  1  0.09280000  0.33760000  0.22730000  1.0 0.5635788236
C  C72  1  0.33950000  0.30890000  0.42570000  1.0 0.1012694066
C  C73  1  0.14550000  0.22850000  0.17110000  1.0 -0.0865099669
C  C74  1  0.37340000  0.10480000  0.62470000  1.0 0.1012694066
C  C75  1  0.39330000  0.03730000  0.94650000  1.0 -0.0977547249
C  C76  1  0.94930000  0.09630000  0.91960000  1.0 0.0630946876
C  C77  1  0.44470000  0.19090000  0.67720000  1.0 0.0703817758
C  C78  1  0.86210000  0.09290000  0.83670000  1.0 -0.0977547249
C  C79  1  0.09040000  0.29460000  0.17600000  1.0 -0.0437206818
C  C80  1  0.29510000  0.32830000  0.37480000  1.0 0.1376625865
C  C81  1  0.82190000  0.03590000  0.92180000  1.0 -0.0977547249
C  C82  1  0.21850000  0.47170000  0.67800000  1.0 0.1199258681
C  C83  1  0.04000000  0.28220000  0.08340000  1.0 -0.1508435067
C  C84  1  0.28180000  0.55100000  0.62060000  1.0 0.1012694066
C  C85  1  0.17580000  0.11840000  0.95410000  1.0 0.0703817758
C  C86  1  0.93330000  0.11450000  0.86380000  1.0 -0.163243734
C  C87  1  0.10350000  0.10010000  0.92550000  1.0 -0.226987789
C  C88  1  0.42810000  0.05970000  0.66460000  1.0 0.1524005898
C  C89  1  0.47790000  0.99770000  0.86830000  1.0 0.5635788236
C  C90  1  0.26520000  0.10000000  0.87590000  1.0 -0.1812411702
C  C91  1  0.34170000  0.07250000  0.85620000  1.0 -0.1308577365
C  C92  1  0.04080000  0.32300000  0.13290000  1.0 -0.0865099669
C  C93  1  0.72430000  0.03190000  0.84050000  1.0 0.5635788236
C  C94  1  0.32840000  0.31100000  0.32640000  1.0 -0.1687588152
C  C95  1  0.40300000  0.04100000  0.89000000  1.0 -0.0204510075
C  C96  1  0.24060000  0.59740000  0.65840000  1.0 0.1376625865
C  C97  1  0.32340000  0.06840000  0.59070000  1.0 -0.1687588152
C  C98  1  0.89270000  0.05650000  0.94660000  1.0 -0.1446785709
C  C99  1  0.41600000  0.27340000  0.42840000  1.0 -0.1897103755
C  C100  1  0.40610000  0.27390000  0.32800000  1.0 -0.1103960226
C  C101  1  0.42970000  0.97590000  0.66880000  1.0 -0.1687588152
C  C102  1  0.24410000  0.68010000  0.65750000  1.0 -0.163243734
C  C103  1  0.32820000  0.98580000  0.59280000  1.0 -0.1103960226
C  C104  1  0.33300000  0.58620000  0.58190000  1.0 -0.1812411702
C  C105  1  0.44790000  0.24850000  0.37950000  1.0 -0.1103960226
C  C106  1  0.38140000  0.93840000  0.63190000  1.0 -0.1103960226
C  C107  1  0.33180000  0.66940000  0.57980000  1.0 -0.1197660022
C  C108  1  0.28750000  0.71710000  0.61510000  1.0 -0.1197660022
C  C109  1  0.73720000  0.66400000  0.05040000  1.0 -0.2948908982
C  C110  1  0.84540000  0.82780000  0.50470000  1.0 -0.226987789
C  C111  1  0.66740000  0.69700000  0.02240000  1.0 0.2092756511
C  C112  1  0.82750000  0.90470000  0.52610000  1.0 0.086238501
C  C113  1  0.81220000  0.85360000  0.62250000  1.0 -0.1508435067
C  C114  1  0.84760000  0.97520000  0.49810000  1.0 -0.2086613631
C  C115  1  0.67330000  0.67550000  0.13640000  1.0 -0.3503197996
C  C116  1  0.93520000  0.67800000  0.46690000  1.0 -0.1508435067
C  C117  1  0.78490000  0.90770000  0.57890000  1.0 0.0703817758
C  C118  1  0.74110000  0.65430000  0.10650000  1.0 0.2235708827
C  C119  1  0.88170000  0.97310000  0.44820000  1.0 0.0793410161
C  C120  1  0.59890000  0.72250000  0.04960000  1.0 -0.2948908982
C  C121  1  0.63060000  0.78300000  0.93830000  1.0 0.1199258681
C  C122  1  0.60100000  0.70980000  0.10650000  1.0 0.2283673131
C  C123  1  0.90300000  0.74480000  0.43270000  1.0 0.0703817758
C  C124  1  0.94690000  0.19590000  0.36810000  1.0 -0.0290269038
C  C125  1  0.66240000  0.90720000  0.72730000  1.0 0.5635788236
C  C126  1  0.69110000  0.66050000  0.92570000  1.0 0.1012694066
C  C127  1  0.77150000  0.85450000  0.67110000  1.0 -0.0865099669
C  C128  1  0.89520000  0.62660000  0.12470000  1.0 0.1012694066
C  C129  1  0.96270000  0.60670000  0.44650000  1.0 -0.0977547249
C  C130  1  0.90370000  0.05070000  0.41960000  1.0 0.0630946876
C  C131  1  0.80910000  0.55530000  0.17720000  1.0 0.0703817758
C  C132  1  0.90710000  0.13790000  0.33670000  1.0 -0.0977547249
C  C133  1  0.70540000  0.90960000  0.67600000  1.0 -0.0437206818
C  C134  1  0.67170000  0.70490000  0.87480000  1.0 0.1376625865
C  C135  1  0.96410000  0.17810000  0.42180000  1.0 -0.0977547249
C  C136  1  0.52830000  0.78150000  0.17800000  1.0 0.1199258681
C  C137  1  0.71780000  0.96000000  0.58340000  1.0 -0.1508435067
C  C138  1  0.44900000  0.71820000  0.12060000  1.0 0.1012694066
C  C139  1  0.88160000  0.82420000  0.45410000  1.0 0.0703817758
C  C140  1  0.88550000  0.06670000  0.36380000  1.0 -0.163243734
C  C141  1  0.89990000  0.89650000  0.42550000  1.0 -0.226987789
C  C142  1  0.94030000  0.57190000  0.16460000  1.0 0.1524005898
C  C143  1  0.00230000  0.52210000  0.36830000  1.0 0.5635788236
C  C144  1  0.90000000  0.73480000  0.37590000  1.0 -0.1812411702
C  C145  1  0.92750000  0.65830000  0.35620000  1.0 -0.1308577365
C  C146  1  0.67700000  0.95920000  0.63290000  1.0 -0.0865099669
C  C147  1  0.96810000  0.27570000  0.34050000  1.0 0.5635788236
C  C148  1  0.68900000  0.67160000  0.82640000  1.0 -0.1687588152
C  C149  1  0.95900000  0.59700000  0.39000000  1.0 -0.0204510075
C  C150  1  0.40260000  0.75940000  0.15840000  1.0 0.1376625865
C  C151  1  0.93160000  0.67660000  0.09070000  1.0 -0.1687588152
C  C152  1  0.94350000  0.10730000  0.44660000  1.0 -0.1446785709
C  C153  1  0.72660000  0.58400000  0.92840000  1.0 -0.1897103755
C  C154  1  0.72610000  0.59390000  0.82800000  1.0 -0.1103960226
C  C155  1  0.02410000  0.57030000  0.16880000  1.0 -0.1687588152
C  C156  1  0.31990000  0.75590000  0.15750000  1.0 -0.163243734
C  C157  1  0.01420000  0.67180000  0.09280000  1.0 -0.1103960226
C  C158  1  0.41380000  0.66700000  0.08190000  1.0 -0.1812411702
C  C159  1  0.75150000  0.55210000  0.87950000  1.0 -0.1103960226
C  C160  1  0.06160000  0.61860000  0.13190000  1.0 -0.1103960226
C  C161  1  0.33060000  0.66820000  0.07980000  1.0 -0.1197660022
C  C162  1  0.28290000  0.71250000  0.11510000  1.0 -0.1197660022
C  C163  1  0.66400000  0.73720000  0.44960000  1.0 -0.2948908982
C  C164  1  0.82780000  0.84540000  0.99530000  1.0 -0.226987789
C  C165  1  0.69700000  0.66740000  0.47760000  1.0 0.2092756511
C  C166  1  0.90470000  0.82750000  0.97390000  1.0 0.086238501
C  C167  1  0.85360000  0.81220000  0.87750000  1.0 -0.1508435067
C  C168  1  0.97520000  0.84760000  0.00190000  1.0 -0.2086613631
C  C169  1  0.67550000  0.67330000  0.36360000  1.0 -0.3503197996
C  C170  1  0.67800000  0.93520000  0.03310000  1.0 -0.1508435067
C  C171  1  0.90770000  0.78490000  0.92110000  1.0 0.0703817758
C  C172  1  0.65430000  0.74110000  0.39350000  1.0 0.2235708827
C  C173  1  0.97310000  0.88170000  0.05180000  1.0 0.0793410161
C  C174  1  0.72250000  0.59890000  0.45040000  1.0 -0.2948908982
C  C175  1  0.78300000  0.63060000  0.56170000  1.0 0.1199258681
C  C176  1  0.70980000  0.60100000  0.39350000  1.0 0.2283673131
C  C177  1  0.74480000  0.90300000  0.06730000  1.0 0.0703817758
C  C178  1  0.19590000  0.94690000  0.13190000  1.0 -0.0290269038
C  C179  1  0.90720000  0.66240000  0.77270000  1.0 0.5635788236
C  C180  1  0.66050000  0.69110000  0.57430000  1.0 0.1012694066
C  C181  1  0.85450000  0.77150000  0.82890000  1.0 -0.0865099669
C  C182  1  0.62660000  0.89520000  0.37530000  1.0 0.1012694066
C  C183  1  0.60670000  0.96270000  0.05350000  1.0 -0.0977547249
C  C184  1  0.05070000  0.90370000  0.08040000  1.0 0.0630946876
C  C185  1  0.55530000  0.80910000  0.32280000  1.0 0.0703817758
C  C186  1  0.13790000  0.90710000  0.16330000  1.0 -0.0977547249
C  C187  1  0.90960000  0.70540000  0.82400000  1.0 -0.0437206818
C  C188  1  0.70490000  0.67170000  0.62520000  1.0 0.1376625865
C  C189  1  0.17810000  0.96410000  0.07820000  1.0 -0.0977547249
C  C190  1  0.78150000  0.52830000  0.32200000  1.0 0.1199258681
C  C191  1  0.96000000  0.71780000  0.91660000  1.0 -0.1508435067
C  C192  1  0.71820000  0.44900000  0.37940000  1.0 0.1012694066
C  C193  1  0.82420000  0.88160000  0.04590000  1.0 0.0703817758
C  C194  1  0.06670000  0.88550000  0.13620000  1.0 -0.163243734
C  C195  1  0.89650000  0.89990000  0.07450000  1.0 -0.226987789
C  C196  1  0.57190000  0.94030000  0.33540000  1.0 0.1524005898
C  C197  1  0.52210000  0.00230000  0.13170000  1.0 0.5635788236
C  C198  1  0.73480000  0.90000000  0.12410000  1.0 -0.1812411702
C  C199  1  0.65830000  0.92750000  0.14380000  1.0 -0.1308577365
C  C200  1  0.95920000  0.67700000  0.86710000  1.0 -0.0865099669
C  C201  1  0.27570000  0.96810000  0.15950000  1.0 0.5635788236
C  C202  1  0.67160000  0.68900000  0.67360000  1.0 -0.1687588152
C  C203  1  0.59700000  0.95900000  0.11000000  1.0 -0.0204510075
C  C204  1  0.75940000  0.40260000  0.34160000  1.0 0.1376625865
C  C205  1  0.67660000  0.93160000  0.40930000  1.0 -0.1687588152
C  C206  1  0.10730000  0.94350000  0.05340000  1.0 -0.1446785709
C  C207  1  0.58400000  0.72660000  0.57160000  1.0 -0.1897103755
C  C208  1  0.59390000  0.72610000  0.67200000  1.0 -0.1103960226
C  C209  1  0.57030000  0.02410000  0.33120000  1.0 -0.1687588152
C  C210  1  0.75590000  0.31990000  0.34250000  1.0 -0.163243734
C  C211  1  0.67180000  0.01420000  0.40720000  1.0 -0.1103960226
C  C212  1  0.66700000  0.41380000  0.41810000  1.0 -0.1812411702
C  C213  1  0.55210000  0.75150000  0.62050000  1.0 -0.1103960226
C  C214  1  0.61860000  0.06160000  0.36810000  1.0 -0.1103960226
C  C215  1  0.66820000  0.33060000  0.42020000  1.0 -0.1197660022
C  C216  1  0.71250000  0.28290000  0.38490000  1.0 -0.1197660022
N  N1  1  0.33470000  0.28770000  0.03460000  1.0 -0.0679417966
N  N2  1  0.36590000  0.21790000  0.11460000  1.0 -0.3503197996
N  N3  1  0.46810000  0.26770000  0.86500000  1.0 -0.0679417966
N  N4  1  0.18850000  0.38310000  0.86520000  1.0 -0.0829597047
N  N5  1  0.54400000  0.19960000  0.80700000  1.0 -0.3503197996
N  N6  1  0.11420000  0.46880000  0.80350000  1.0 -0.3503197996
N  N7  1  0.28770000  0.33470000  0.46540000  1.0 -0.0679417966
N  N8  1  0.21790000  0.36590000  0.38540000  1.0 -0.3503197996
N  N9  1  0.26770000  0.46810000  0.63500000  1.0 -0.0679417966
N  N10  1  0.38310000  0.18850000  0.63480000  1.0 -0.0829597047
N  N11  1  0.19960000  0.54400000  0.69300000  1.0 -0.3503197996
N  N12  1  0.46880000  0.11420000  0.69650000  1.0 -0.3503197996
N  N13  1  0.66530000  0.71230000  0.96540000  1.0 -0.0679417966
N  N14  1  0.63410000  0.78210000  0.88540000  1.0 -0.3503197996
N  N15  1  0.53190000  0.73230000  0.13500000  1.0 -0.0679417966
N  N16  1  0.81150000  0.61690000  0.13480000  1.0 -0.0829597047
N  N17  1  0.45600000  0.80040000  0.19300000  1.0 -0.3503197996
N  N18  1  0.88580000  0.53120000  0.19650000  1.0 -0.3503197996
N  N19  1  0.71230000  0.66530000  0.53460000  1.0 -0.0679417966
N  N20  1  0.78210000  0.63410000  0.61460000  1.0 -0.3503197996
N  N21  1  0.73230000  0.53190000  0.36500000  1.0 -0.0679417966
N  N22  1  0.61690000  0.81150000  0.36520000  1.0 -0.0829597047
N  N23  1  0.80040000  0.45600000  0.30700000  1.0 -0.3503197996
N  N24  1  0.53120000  0.88580000  0.30350000  1.0 -0.3503197996
O  O1  1  0.40030000  0.04210000  0.26750000  1.0 -0.5964701778
O  O2  1  0.31290000  0.14310000  0.23450000  1.0 -0.5159743732
O  O3  1  0.94250000  0.51750000  0.60190000  1.0 -0.5375317937
O  O4  1  0.97870000  0.68710000  0.63630000  1.0 -0.5375317937
O  O5  1  0.01720000  0.49620000  0.67970000  1.0 -0.5896728045
O  O6  1  0.06820000  0.70480000  0.70480000  1.0 -0.5159743732
O  O7  1  0.16040000  0.65380000  0.80770000  1.0 -0.4988488164
O  O8  1  0.79660000  0.44600000  0.70910000  1.0 0.1524005898
O  O9  1  0.82558000  0.49222000  0.70680000  1.0 0.0630946876
O  O10  1  0.04210000  0.40030000  0.23250000  1.0 -0.5964701778
O  O11  1  0.14310000  0.31290000  0.26550000  1.0 -0.5159743732
O  O12  1  0.51750000  0.94250000  0.89810000  1.0 -0.5375317937
O  O13  1  0.68710000  0.97870000  0.86370000  1.0 -0.5375317937
O  O14  1  0.49620000  0.01720000  0.82030000  1.0 -0.5896728045
O  O15  1  0.70480000  0.06820000  0.79520000  1.0 -0.5159743732
O  O16  1  0.65380000  0.16040000  0.69230000  1.0 -0.4887405342
O  O17  1  0.44600000  0.79660000  0.79090000  1.0 0.1524005898
O  O18  1  0.49222000  0.82558000  0.79320000  1.0 0.045429516
O  O19  1  0.59970000  0.95790000  0.73250000  1.0 -0.5964701778
O  O20  1  0.68710000  0.85690000  0.76550000  1.0 -0.5159743732
O  O21  1  0.05750000  0.48250000  0.39810000  1.0 -0.5375317937
O  O22  1  0.02130000  0.31290000  0.36370000  1.0 -0.5375317937
O  O23  1  0.98280000  0.50380000  0.32030000  1.0 -0.5896728045
O  O24  1  0.93180000  0.29520000  0.29520000  1.0 -0.5159743732
O  O25  1  0.83960000  0.34620000  0.19230000  1.0 -0.4988488164
O  O26  1  0.20340000  0.55400000  0.29090000  1.0 0.1524005898
O  O27  1  0.17442000  0.50778000  0.29320000  1.0 0.0442588621
O  O28  1  0.95790000  0.59970000  0.76750000  1.0 -0.5964701778
O  O29  1  0.85690000  0.68710000  0.73450000  1.0 -0.5159743732
O  O30  1  0.48250000  0.05750000  0.10190000  1.0 -0.5375317937
O  O31  1  0.31290000  0.02130000  0.13630000  1.0 -0.5375317937
O  O32  1  0.50380000  0.98280000  0.17970000  1.0 -0.5896728045
O  O33  1  0.29520000  0.93180000  0.20480000  1.0 -0.5159743732
O  O34  1  0.34620000  0.83960000  0.30770000  1.0 -0.4988488164
O  O35  1  0.55400000  0.20340000  0.20910000  1.0 0.1524005898
O  O36  1  0.50778000  0.17442000  0.20680000  1.0 0.0442588621
