# DDEC6 charges by PACMAN v1.1 (https://github.com/mtap-research/PACMAN-charge/)
data_ONIROV_ion_pacman
_symmetry_space_group_name_H-M   'P 1'
_cell_length_a   16.52240000
_cell_length_b   16.52240000
_cell_length_c   24.89000000
_cell_angle_alpha   86.86530000
_cell_angle_beta   93.13470000
_cell_angle_gamma   86.44390000
_symmetry_Int_Tables_number   1
_chemical_formula_structural   NaCd2H32C54(N2O3)3
_chemical_formula_sum   'Na4 Cd8 H128 C216 N24 O36'
_cell_volume   6759.97614711
_cell_formula_units_Z   4
loop_
 _symmetry_equiv_pos_site_id
 _symmetry_equiv_pos_as_xyz
  1  'x, y, z'
loop_
 _atom_site_type_symbol
 _atom_site_label
 _atom_site_symmetry_multiplicity
 _atom_site_fract_x
 _atom_site_fract_y
 _atom_site_fract_z
 _atom_site_occupancy
 _atom_site_charge
Na  Na1  1  0.11950000  0.60670000  0.04970000  1.0 0.7260597507
Na  Na2  1  0.60670000  0.11950000  0.45030000  1.0 0.7237768034
Na  Na3  1  0.88050000  0.39330000  0.95030000  1.0 0.7237768034
Na  Na4  1  0.39330000  0.88050000  0.54970000  1.0 0.7260597507
Cd  Cd1  1  0.57821000  0.08915000  0.26044000  1.0 0.9365562658
Cd  Cd2  1  0.10414000  0.39872000  0.83159000  1.0 0.843628184
Cd  Cd3  1  0.08915000  0.57821000  0.23956000  1.0 0.9365562658
Cd  Cd4  1  0.39872000  0.10414000  0.66841000  1.0 0.843628184
Cd  Cd5  1  0.42179000  0.91085000  0.73956000  1.0 0.9365562658
Cd  Cd6  1  0.89586000  0.60128000  0.16841000  1.0 0.843628184
Cd  Cd7  1  0.91085000  0.42179000  0.76044000  1.0 0.9365562658
Cd  Cd8  1  0.60128000  0.89586000  0.33159000  1.0 0.843628184
H  H1  1  0.46916000  0.23670000  0.19177000  1.0 0.1092013385
H  H2  1  0.22215000  0.16039000  0.52527000  1.0 0.1014442125
H  H3  1  0.97629000  0.17361000  0.51121000  1.0 0.1196776793
H  H4  1  0.25108000  0.44432000  0.03175000  1.0 0.1307872718
H  H5  1  0.34296000  0.33018000  0.17198000  1.0 0.1307872718
H  H6  1  0.17471000  0.38495000  0.95784000  1.0 0.1092013385
H  H7  1  0.34827000  0.21539000  0.03246000  1.0 0.1388068962
H  H8  1  0.18061000  0.13985000  0.62594000  1.0 0.1092013385
H  H9  1  0.00406000  0.37058000  0.63411000  1.0 0.1014442125
H  H10  1  0.31421000  0.05869000  0.50557000  1.0 0.1092013385
H  H11  1  0.00510000  0.30320000  0.55870000  1.0 0.1092013385
H  H12  1  0.43876000  0.02190000  0.47276000  1.0 0.1014442125
H  H13  1  0.17063000  0.20321000  0.70440000  1.0 0.1092013385
H  H14  1  0.29504000  0.31334000  0.79709000  1.0 0.1307872718
H  H15  1  0.96822000  0.14766000  0.34779000  1.0 0.1388068962
H  H16  1  0.46354000  0.94610000  0.19363000  1.0 0.1307872718
H  H17  1  0.37793000  0.89349000  0.13683000  1.0 0.1092013385
H  H18  1  0.22525000  0.12257000  0.35720000  1.0 0.1092013385
H  H19  1  0.33867000  0.07513000  0.32228000  1.0 0.1196776793
H  H20  1  0.10773000  0.08031000  0.39649000  1.0 0.1092013385
H  H21  1  0.28694000  0.95958000  0.08004000  1.0 0.1092013385
H  H22  1  0.78645000  0.01019000  0.44554000  1.0 0.1092013385
H  H23  1  0.44103000  0.26473000  0.95981000  1.0 0.1196776793
H  H24  1  0.29482000  0.10298000  0.06936000  1.0 0.1196776793
H  H25  1  0.19973000  0.42663000  0.19077000  1.0 0.1092013385
H  H26  1  0.43414000  0.26782000  0.80212000  1.0 0.1014442125
H  H27  1  0.90746000  0.05040000  0.48839000  1.0 0.1196776793
H  H28  1  0.21065000  0.71983000  0.17605000  1.0 0.1196776793
H  H29  1  0.48835000  0.20523000  0.88267000  1.0 0.1092013385
H  H30  1  0.29714000  0.77322000  0.11227000  1.0 0.1092013385
H  H31  1  0.36867000  0.55597000  0.06214000  1.0 0.1307872718
H  H32  1  0.37986000  0.69290000  0.06466000  1.0 0.1196776793
H  H33  1  0.23670000  0.46916000  0.30823000  1.0 0.1092013385
H  H34  1  0.16039000  0.22215000  0.97473000  1.0 0.1014442125
H  H35  1  0.17361000  0.97629000  0.98879000  1.0 0.1196776793
H  H36  1  0.44432000  0.25108000  0.46825000  1.0 0.1307872718
H  H37  1  0.33018000  0.34296000  0.32802000  1.0 0.1307872718
H  H38  1  0.38495000  0.17471000  0.54216000  1.0 0.1092013385
H  H39  1  0.21539000  0.34827000  0.46754000  1.0 0.1388068962
H  H40  1  0.13985000  0.18061000  0.87406000  1.0 0.1092013385
H  H41  1  0.37058000  0.00406000  0.86589000  1.0 0.1014442125
H  H42  1  0.05869000  0.31421000  0.99443000  1.0 0.1092013385
H  H43  1  0.30320000  0.00510000  0.94130000  1.0 0.1092013385
H  H44  1  0.02190000  0.43876000  0.02724000  1.0 0.1014442125
H  H45  1  0.20321000  0.17063000  0.79560000  1.0 0.1092013385
H  H46  1  0.31334000  0.29504000  0.70291000  1.0 0.1307872718
H  H47  1  0.14766000  0.96822000  0.15221000  1.0 0.1388068962
H  H48  1  0.94610000  0.46354000  0.30637000  1.0 0.1307872718
H  H49  1  0.89349000  0.37793000  0.36317000  1.0 0.1092013385
H  H50  1  0.12257000  0.22525000  0.14280000  1.0 0.1092013385
H  H51  1  0.07513000  0.33867000  0.17772000  1.0 0.1196776793
H  H52  1  0.08031000  0.10773000  0.10351000  1.0 0.1092013385
H  H53  1  0.95958000  0.28694000  0.41996000  1.0 0.1092013385
H  H54  1  0.01019000  0.78645000  0.05446000  1.0 0.1092013385
H  H55  1  0.26473000  0.44103000  0.54019000  1.0 0.1196776793
H  H56  1  0.10298000  0.29482000  0.43064000  1.0 0.1196776793
H  H57  1  0.42663000  0.19973000  0.30923000  1.0 0.1092013385
H  H58  1  0.26782000  0.43414000  0.69788000  1.0 0.1014442125
H  H59  1  0.05040000  0.90746000  0.01161000  1.0 0.1196776793
H  H60  1  0.71983000  0.21065000  0.32395000  1.0 0.1196776793
H  H61  1  0.20523000  0.48835000  0.61733000  1.0 0.1092013385
H  H62  1  0.77322000  0.29714000  0.38773000  1.0 0.1092013385
H  H63  1  0.55597000  0.36867000  0.43786000  1.0 0.1307872718
H  H64  1  0.69290000  0.37986000  0.43534000  1.0 0.1196776793
H  H65  1  0.53084000  0.76330000  0.80823000  1.0 0.1092013385
H  H66  1  0.77785000  0.83961000  0.47473000  1.0 0.1014442125
H  H67  1  0.02371000  0.82639000  0.48880000  1.0 0.1196776793
H  H68  1  0.74892000  0.55568000  0.96825000  1.0 0.1307872718
H  H69  1  0.65704000  0.66982000  0.82802000  1.0 0.1307872718
H  H70  1  0.82529000  0.61505000  0.04216000  1.0 0.1092013385
H  H71  1  0.65173000  0.78461000  0.96754000  1.0 0.1388068962
H  H72  1  0.81939000  0.86015000  0.37406000  1.0 0.1092013385
H  H73  1  0.99594000  0.62942000  0.36589000  1.0 0.1014442125
H  H74  1  0.68579000  0.94131000  0.49443000  1.0 0.1092013385
H  H75  1  0.99490000  0.69680000  0.44130000  1.0 0.1092013385
H  H76  1  0.56124000  0.97810000  0.52724000  1.0 0.1014442125
H  H77  1  0.82937000  0.79679000  0.29560000  1.0 0.1092013385
H  H78  1  0.70496000  0.68666000  0.20291000  1.0 0.1307872718
H  H79  1  0.03178000  0.85234000  0.65222000  1.0 0.1388068962
H  H80  1  0.53646000  0.05390000  0.80637000  1.0 0.1307872718
H  H81  1  0.62207000  0.10651000  0.86317000  1.0 0.1092013385
H  H82  1  0.77475000  0.87743000  0.64280000  1.0 0.1092013385
H  H83  1  0.66133000  0.92487000  0.67772000  1.0 0.1196776793
H  H84  1  0.89227000  0.91969000  0.60351000  1.0 0.1092013385
H  H85  1  0.71306000  0.04042000  0.91996000  1.0 0.1092013385
H  H86  1  0.21355000  0.98981000  0.55446000  1.0 0.1092013385
H  H87  1  0.55897000  0.73527000  0.04019000  1.0 0.1196776793
H  H88  1  0.70518000  0.89702000  0.93064000  1.0 0.1196776793
H  H89  1  0.80027000  0.57337000  0.80923000  1.0 0.1092013385
H  H90  1  0.56586000  0.73218000  0.19788000  1.0 0.1014442125
H  H91  1  0.09254000  0.94960000  0.51161000  1.0 0.1196776793
H  H92  1  0.78935000  0.28017000  0.82395000  1.0 0.1196776793
H  H93  1  0.51165000  0.79477000  0.11733000  1.0 0.1092013385
H  H94  1  0.70286000  0.22678000  0.88773000  1.0 0.1092013385
H  H95  1  0.63133000  0.44403000  0.93786000  1.0 0.1307872718
H  H96  1  0.62014000  0.30710000  0.93534000  1.0 0.1196776793
H  H97  1  0.76330000  0.53084000  0.69177000  1.0 0.1014442125
H  H98  1  0.83961000  0.77785000  0.02527000  1.0 0.1014442125
H  H99  1  0.82639000  0.02371000  0.01120000  1.0 0.1196776793
H  H100  1  0.55568000  0.74892000  0.53175000  1.0 0.1307872718
H  H101  1  0.66982000  0.65704000  0.67198000  1.0 0.1307872718
H  H102  1  0.61505000  0.82529000  0.45784000  1.0 0.1092013385
H  H103  1  0.78461000  0.65173000  0.53246000  1.0 0.1388068962
H  H104  1  0.86015000  0.81939000  0.12594000  1.0 0.1092013385
H  H105  1  0.62942000  0.99594000  0.13411000  1.0 0.1014442125
H  H106  1  0.94131000  0.68579000  0.00557000  1.0 0.1092013385
H  H107  1  0.69680000  0.99490000  0.05870000  1.0 0.1092013385
H  H108  1  0.97810000  0.56124000  0.97276000  1.0 0.1014442125
H  H109  1  0.79679000  0.82937000  0.20440000  1.0 0.1092013385
H  H110  1  0.68666000  0.70496000  0.29709000  1.0 0.1307872718
H  H111  1  0.85234000  0.03178000  0.84779000  1.0 0.1388068962
H  H112  1  0.05390000  0.53646000  0.69363000  1.0 0.1307872718
H  H113  1  0.10651000  0.62207000  0.63683000  1.0 0.1092013385
H  H114  1  0.87743000  0.77475000  0.85720000  1.0 0.1092013385
H  H115  1  0.92487000  0.66133000  0.82228000  1.0 0.1196776793
H  H116  1  0.91969000  0.89227000  0.89649000  1.0 0.1092013385
H  H117  1  0.04042000  0.71306000  0.58004000  1.0 0.1092013385
H  H118  1  0.98981000  0.21355000  0.94554000  1.0 0.1092013385
H  H119  1  0.73527000  0.55897000  0.45981000  1.0 0.1196776793
H  H120  1  0.89702000  0.70518000  0.56936000  1.0 0.1196776793
H  H121  1  0.57337000  0.80027000  0.69077000  1.0 0.1092013385
H  H122  1  0.73218000  0.56586000  0.30212000  1.0 0.1014442125
H  H123  1  0.94960000  0.09254000  0.98839000  1.0 0.1196776793
H  H124  1  0.28017000  0.78935000  0.67605000  1.0 0.1196776793
H  H125  1  0.79477000  0.51165000  0.38267000  1.0 0.1092013385
H  H126  1  0.22678000  0.70286000  0.61227000  1.0 0.1092013385
H  H127  1  0.44403000  0.63133000  0.56214000  1.0 0.1307872718
H  H128  1  0.30710000  0.62014000  0.56466000  1.0 0.1196776793
C  C1  1  0.08810000  0.33490000  0.72880000  1.0 0.548140363
C  C2  1  0.35120000  0.26000000  0.10720000  1.0 0.2282199721
C  C3  1  0.09840000  0.17400000  0.52950000  1.0 0.0716075789
C  C4  1  0.44930000  0.19010000  0.17820000  1.0 0.1092013385
C  C5  1  0.17370000  0.15110000  0.50650000  1.0 -0.2114241048
C  C6  1  0.02640000  0.15780000  0.49850000  1.0 -0.2165877958
C  C7  1  0.30450000  0.33490000  0.02620000  1.0 0.1839802276
C  C8  1  0.37550000  0.10590000  0.12780000  1.0 0.0788649238
C  C9  1  0.27900000  0.40020000  0.05080000  1.0 -0.2848700721
C  C10  1  0.33170000  0.33070000  0.13490000  1.0 -0.3017726381
C  C11  1  0.33360000  0.30980000  0.92640000  1.0 0.0880162428
C  C12  1  0.80650000  0.05730000  0.37200000  1.0 -0.0510471774
C  C13  1  0.09330000  0.21390000  0.57850000  1.0 0.0622198294
C  C14  1  0.09100000  0.29560000  0.67960000  1.0 -0.0898376606
C  C15  1  0.21880000  0.36460000  0.94000000  1.0 0.1196776793
C  C16  1  0.29170000  0.32750000  0.87980000  1.0 0.1388068962
C  C17  1  0.33700000  0.26100000  0.05170000  1.0 -0.3017726381
C  C18  1  0.25640000  0.09300000  0.43590000  1.0 0.0788649238
C  C19  1  0.02820000  0.11920000  0.45020000  1.0 0.0716075789
C  C20  1  0.14460000  0.18520000  0.62710000  1.0 -0.1580867434
C  C21  1  0.03880000  0.32440000  0.63270000  1.0 -0.0898376606
C  C22  1  0.32000000  0.06280000  0.46860000  1.0 -0.1882132225
C  C23  1  0.04100000  0.28380000  0.58720000  1.0 -0.1580867434
C  C24  1  0.39450000  0.03750000  0.44900000  1.0 -0.1882132225
C  C25  1  0.43200000  0.06520000  0.16670000  1.0 0.1388068962
C  C26  1  0.13950000  0.22510000  0.67420000  1.0 -0.0776545469
C  C27  1  0.32510000  0.30530000  0.82990000  1.0 -0.167619421
C  C28  1  0.93040000  0.12100000  0.36730000  1.0 -0.1580867434
C  C29  1  0.17650000  0.11710000  0.45930000  1.0 0.0716075789
C  C30  1  0.29640000  0.40000000  0.10800000  1.0 0.1924305718
C  C31  1  0.42980000  0.97940000  0.16940000  1.0 -0.1580867434
C  C32  1  0.37730000  0.94990000  0.13560000  1.0 -0.1079302457
C  C33  1  0.40230000  0.03590000  0.39250000  1.0 -0.0692722489
C  C34  1  0.26720000  0.09860000  0.38030000  1.0 -0.1524438103
C  C35  1  0.72350000  0.02910000  0.34440000  1.0 0.5400460522
C  C36  1  0.33500000  0.07120000  0.35950000  1.0 -0.1079302457
C  C37  1  0.10470000  0.10210000  0.43000000  1.0 -0.2114241048
C  C38  1  0.95110000  0.09870000  0.42180000  1.0 0.0716075789
C  C39  1  0.32410000  0.98710000  0.10040000  1.0 -0.1202819384
C  C40  1  0.24530000  0.59570000  0.16040000  1.0 0.1307872718
C  C41  1  0.86360000  0.10720000  0.34280000  1.0 0.0261443324
C  C42  1  0.47740000  0.00000000  0.37240000  1.0 0.5317552398
C  C43  1  0.82310000  0.03810000  0.42580000  1.0 -0.1347881992
C  C44  1  0.41020000  0.27140000  0.92730000  1.0 -0.2114241048
C  C45  1  0.28830000  0.54950000  0.12450000  1.0 0.0716075789
C  C46  1  0.32730000  0.07210000  0.09560000  1.0 -0.1580867434
C  C47  1  0.22170000  0.47290000  0.17630000  1.0 0.0501396731
C  C48  1  0.40600000  0.27080000  0.83340000  1.0 -0.1079302457
C  C49  1  0.89680000  0.06120000  0.45150000  1.0 -0.167619421
C  C50  1  0.24300000  0.68680000  0.15570000  1.0 -0.1828767684
C  C51  1  0.44340000  0.24220000  0.88090000  1.0 -0.1031100441
C  C52  1  0.29500000  0.71720000  0.11720000  1.0 -0.1580867434
C  C53  1  0.33980000  0.58660000  0.08580000  1.0 -0.2114241048
C  C54  1  0.34320000  0.66820000  0.08630000  1.0 -0.1202819384
C  C55  1  0.33490000  0.08810000  0.77120000  1.0 0.548140363
C  C56  1  0.26000000  0.35120000  0.39280000  1.0 0.2282199721
C  C57  1  0.17400000  0.09840000  0.97050000  1.0 0.0716075789
C  C58  1  0.19010000  0.44930000  0.32180000  1.0 0.1092013385
C  C59  1  0.15110000  0.17370000  0.99350000  1.0 -0.2114241048
C  C60  1  0.15780000  0.02640000  0.00150000  1.0 -0.2165877958
C  C61  1  0.33490000  0.30450000  0.47380000  1.0 0.1839802276
C  C62  1  0.10590000  0.37550000  0.37220000  1.0 0.0788649238
C  C63  1  0.40020000  0.27900000  0.44920000  1.0 -0.2848700721
C  C64  1  0.33070000  0.33170000  0.36510000  1.0 -0.3017726381
C  C65  1  0.30980000  0.33360000  0.57360000  1.0 0.0880162428
C  C66  1  0.05730000  0.80650000  0.12800000  1.0 -0.0510471774
C  C67  1  0.21390000  0.09330000  0.92150000  1.0 0.0622198294
C  C68  1  0.29560000  0.09100000  0.82040000  1.0 -0.0898376606
C  C69  1  0.36460000  0.21880000  0.56000000  1.0 0.1196776793
C  C70  1  0.32750000  0.29170000  0.62020000  1.0 0.1388068962
C  C71  1  0.26100000  0.33700000  0.44830000  1.0 -0.3017726381
C  C72  1  0.09300000  0.25640000  0.06410000  1.0 0.0788649238
C  C73  1  0.11920000  0.02820000  0.04980000  1.0 0.0716075789
C  C74  1  0.18520000  0.14460000  0.87290000  1.0 -0.1580867434
C  C75  1  0.32440000  0.03880000  0.86730000  1.0 -0.0898376606
C  C76  1  0.06280000  0.32000000  0.03140000  1.0 -0.1882132225
C  C77  1  0.28380000  0.04100000  0.91280000  1.0 -0.1580867434
C  C78  1  0.03750000  0.39450000  0.05100000  1.0 -0.1882132225
C  C79  1  0.06520000  0.43200000  0.33333333  1.0 0.1388068962
C  C80  1  0.22510000  0.13950000  0.82580000  1.0 -0.0776545469
C  C81  1  0.30530000  0.32510000  0.67010000  1.0 -0.167619421
C  C82  1  0.12100000  0.93040000  0.13270000  1.0 -0.1580867434
C  C83  1  0.11710000  0.17650000  0.04070000  1.0 0.0716075789
C  C84  1  0.40000000  0.29640000  0.39200000  1.0 0.1924305718
C  C85  1  0.97940000  0.42980000  0.33060000  1.0 -0.1580867434
C  C86  1  0.94990000  0.37730000  0.36440000  1.0 -0.1079302457
C  C87  1  0.03590000  0.40230000  0.10750000  1.0 -0.0692722489
C  C88  1  0.09860000  0.26720000  0.11970000  1.0 -0.1524438103
C  C89  1  0.02910000  0.72350000  0.15560000  1.0 0.5400460522
C  C90  1  0.07120000  0.33500000  0.14050000  1.0 -0.1079302457
C  C91  1  0.10210000  0.10470000  0.07000000  1.0 -0.2114241048
C  C92  1  0.09870000  0.95110000  0.07820000  1.0 0.0716075789
C  C93  1  0.98710000  0.32410000  0.39960000  1.0 -0.1202819384
C  C94  1  0.59570000  0.24530000  0.33960000  1.0 0.1307872718
C  C95  1  0.10720000  0.86360000  0.15720000  1.0 0.0261443324
C  C96  1  0.00000000  0.47740000  0.12760000  1.0 0.5317552398
C  C97  1  0.03810000  0.82310000  0.07420000  1.0 -0.1347881992
C  C98  1  0.27140000  0.41020000  0.57270000  1.0 -0.2114241048
C  C99  1  0.54950000  0.28830000  0.37550000  1.0 0.0716075789
C  C100  1  0.07210000  0.32730000  0.40440000  1.0 -0.1580867434
C  C101  1  0.47290000  0.22170000  0.32370000  1.0 0.0501396731
C  C102  1  0.27080000  0.40600000  0.66666667  1.0 -0.1079302457
C  C103  1  0.06120000  0.89680000  0.04850000  1.0 -0.167619421
C  C104  1  0.68680000  0.24300000  0.34430000  1.0 -0.1828767684
C  C105  1  0.24220000  0.44340000  0.61910000  1.0 -0.1031100441
C  C106  1  0.71720000  0.29500000  0.38280000  1.0 -0.1580867434
C  C107  1  0.58660000  0.33980000  0.41420000  1.0 -0.2114241048
C  C108  1  0.66820000  0.34320000  0.41370000  1.0 -0.1202819384
C  C109  1  0.91190000  0.66510000  0.27120000  1.0 0.548140363
C  C110  1  0.64880000  0.74000000  0.89280000  1.0 0.2282199721
C  C111  1  0.90160000  0.82600000  0.47050000  1.0 0.0716075789
C  C112  1  0.55070000  0.80990000  0.82180000  1.0 0.1092013385
C  C113  1  0.82630000  0.84890000  0.49350000  1.0 -0.2114241048
C  C114  1  0.97360000  0.84220000  0.50150000  1.0 -0.2165877958
C  C115  1  0.69550000  0.66510000  0.97380000  1.0 0.1839802276
C  C116  1  0.62450000  0.89410000  0.87220000  1.0 0.0788649238
C  C117  1  0.72100000  0.59980000  0.94920000  1.0 -0.2848700721
C  C118  1  0.66830000  0.66930000  0.86510000  1.0 -0.3017726381
C  C119  1  0.66640000  0.69020000  0.07360000  1.0 0.0880162428
C  C120  1  0.19350000  0.94270000  0.62800000  1.0 -0.0510471774
C  C121  1  0.90670000  0.78610000  0.42150000  1.0 0.0622198294
C  C122  1  0.90900000  0.70440000  0.32040000  1.0 -0.0898376606
C  C123  1  0.78120000  0.63540000  0.06000000  1.0 0.1196776793
C  C124  1  0.70830000  0.67250000  0.12020000  1.0 0.1388068962
C  C125  1  0.66300000  0.73900000  0.94830000  1.0 -0.3017726381
C  C126  1  0.74360000  0.90700000  0.56410000  1.0 0.0788649238
C  C127  1  0.97180000  0.88080000  0.54980000  1.0 0.0716075789
C  C128  1  0.85540000  0.81480000  0.37290000  1.0 -0.1580867434
C  C129  1  0.96120000  0.67560000  0.36730000  1.0 -0.0898376606
C  C130  1  0.68000000  0.93720000  0.53140000  1.0 -0.1882132225
C  C131  1  0.95900000  0.71620000  0.41280000  1.0 -0.1580867434
C  C132  1  0.60550000  0.96250000  0.55100000  1.0 -0.1882132225
C  C133  1  0.56800000  0.93480000  0.83330000  1.0 0.1388068962
C  C134  1  0.86050000  0.77490000  0.32580000  1.0 -0.0776545469
C  C135  1  0.67490000  0.69470000  0.17010000  1.0 -0.167619421
C  C136  1  0.06960000  0.87900000  0.63270000  1.0 -0.1580867434
C  C137  1  0.82350000  0.88290000  0.54070000  1.0 0.0716075789
C  C138  1  0.70360000  0.60000000  0.89200000  1.0 0.1924305718
C  C139  1  0.57020000  0.02060000  0.83060000  1.0 -0.1580867434
C  C140  1  0.62270000  0.05010000  0.86440000  1.0 -0.1079302457
C  C141  1  0.59770000  0.96410000  0.60750000  1.0 -0.0692722489
C  C142  1  0.73280000  0.90140000  0.61970000  1.0 -0.1524438103
C  C143  1  0.27650000  0.97090000  0.65560000  1.0 0.5400460522
C  C144  1  0.66500000  0.92880000  0.64050000  1.0 -0.1079302457
C  C145  1  0.89530000  0.89790000  0.57000000  1.0 -0.2114241048
C  C146  1  0.04890000  0.90130000  0.57820000  1.0 0.0716075789
C  C147  1  0.67590000  0.01290000  0.89960000  1.0 -0.1202819384
C  C148  1  0.75470000  0.40430000  0.83960000  1.0 0.1307872718
C  C149  1  0.13640000  0.89280000  0.65720000  1.0 0.0261443324
C  C150  1  0.52260000  0.00000000  0.62760000  1.0 0.5317552398
C  C151  1  0.17690000  0.96190000  0.57420000  1.0 -0.1347881992
C  C152  1  0.58980000  0.72860000  0.07270000  1.0 -0.2114241048
C  C153  1  0.71170000  0.45050000  0.87550000  1.0 0.0716075789
C  C154  1  0.67270000  0.92790000  0.90440000  1.0 -0.1580867434
C  C155  1  0.77830000  0.52710000  0.82370000  1.0 0.0501396731
C  C156  1  0.59400000  0.72920000  0.16660000  1.0 -0.1079302457
C  C157  1  0.10320000  0.93880000  0.54850000  1.0 -0.167619421
C  C158  1  0.75700000  0.31320000  0.84430000  1.0 -0.1828767684
C  C159  1  0.55660000  0.75780000  0.11910000  1.0 -0.1031100441
C  C160  1  0.70500000  0.28280000  0.88280000  1.0 -0.1580867434
C  C161  1  0.66020000  0.41340000  0.91420000  1.0 -0.2114241048
C  C162  1  0.65680000  0.33180000  0.91370000  1.0 -0.1202819384
C  C163  1  0.66510000  0.91190000  0.22880000  1.0 0.548140363
C  C164  1  0.74000000  0.64880000  0.60720000  1.0 0.2282199721
C  C165  1  0.82600000  0.90160000  0.02950000  1.0 0.0716075789
C  C166  1  0.80990000  0.55070000  0.67820000  1.0 0.1092013385
C  C167  1  0.84890000  0.82630000  0.00650000  1.0 -0.2114241048
C  C168  1  0.84220000  0.97360000  0.99850000  1.0 -0.2165877958
C  C169  1  0.66510000  0.69550000  0.52620000  1.0 0.1839802276
C  C170  1  0.89410000  0.62450000  0.62780000  1.0 0.0788649238
C  C171  1  0.59980000  0.72100000  0.55080000  1.0 -0.2848700721
C  C172  1  0.66930000  0.66830000  0.63490000  1.0 -0.3017726381
C  C173  1  0.69020000  0.66640000  0.42640000  1.0 0.0880162428
C  C174  1  0.94270000  0.19350000  0.87200000  1.0 -0.0510471774
C  C175  1  0.78610000  0.90670000  0.07850000  1.0 0.0622198294
C  C176  1  0.70440000  0.90900000  0.17960000  1.0 -0.0898376606
C  C177  1  0.63540000  0.78120000  0.44000000  1.0 0.1196776793
C  C178  1  0.67250000  0.70830000  0.37980000  1.0 0.1388068962
C  C179  1  0.73900000  0.66300000  0.55170000  1.0 -0.3017726381
C  C180  1  0.90700000  0.74360000  0.93590000  1.0 0.0788649238
C  C181  1  0.88080000  0.97180000  0.95020000  1.0 0.0716075789
C  C182  1  0.81480000  0.85540000  0.12710000  1.0 -0.1580867434
C  C183  1  0.67560000  0.96120000  0.13270000  1.0 -0.0898376606
C  C184  1  0.93720000  0.68000000  0.96860000  1.0 -0.1882132225
C  C185  1  0.71620000  0.95900000  0.08720000  1.0 -0.1580867434
C  C186  1  0.96250000  0.60550000  0.94900000  1.0 -0.1882132225
C  C187  1  0.93480000  0.56800000  0.66666667  1.0 0.1388068962
C  C188  1  0.77490000  0.86050000  0.17420000  1.0 -0.0776545469
C  C189  1  0.69470000  0.67490000  0.32990000  1.0 -0.167619421
C  C190  1  0.87900000  0.06960000  0.86730000  1.0 -0.1580867434
C  C191  1  0.88290000  0.82350000  0.95930000  1.0 0.0716075789
C  C192  1  0.60000000  0.70360000  0.60800000  1.0 0.1924305718
C  C193  1  0.02060000  0.57020000  0.66940000  1.0 -0.1580867434
C  C194  1  0.05010000  0.62270000  0.63560000  1.0 -0.1079302457
C  C195  1  0.96410000  0.59770000  0.89250000  1.0 -0.0692722489
C  C196  1  0.90140000  0.73280000  0.88030000  1.0 -0.1524438103
C  C197  1  0.97090000  0.27650000  0.84440000  1.0 0.5400460522
C  C198  1  0.92880000  0.66500000  0.85950000  1.0 -0.1079302457
C  C199  1  0.89790000  0.89530000  0.93000000  1.0 -0.2114241048
C  C200  1  0.90130000  0.04890000  0.92180000  1.0 0.0716075789
C  C201  1  0.01290000  0.67590000  0.60040000  1.0 -0.1202819384
C  C202  1  0.40430000  0.75470000  0.66040000  1.0 0.1307872718
C  C203  1  0.89280000  0.13640000  0.84280000  1.0 0.0261443324
C  C204  1  0.00000000  0.52260000  0.87240000  1.0 0.5317552398
C  C205  1  0.96190000  0.17690000  0.92580000  1.0 -0.1347881992
C  C206  1  0.72860000  0.58980000  0.42730000  1.0 -0.2114241048
C  C207  1  0.45050000  0.71170000  0.62450000  1.0 0.0716075789
C  C208  1  0.92790000  0.67270000  0.59560000  1.0 -0.1580867434
C  C209  1  0.52710000  0.77830000  0.67630000  1.0 0.0501396731
C  C210  1  0.72920000  0.59400000  0.33340000  1.0 -0.1079302457
C  C211  1  0.93880000  0.10320000  0.95150000  1.0 -0.167619421
C  C212  1  0.31320000  0.75700000  0.65570000  1.0 -0.1828767684
C  C213  1  0.75780000  0.55660000  0.38090000  1.0 -0.1031100441
C  C214  1  0.28280000  0.70500000  0.61720000  1.0 -0.1580867434
C  C215  1  0.41340000  0.66020000  0.58580000  1.0 -0.2114241048
C  C216  1  0.33180000  0.65680000  0.58630000  1.0 -0.1202819384
N  N1  1  0.38730000  0.19130000  0.13570000  1.0 -0.0898376606
N  N2  1  0.28700000  0.33480000  0.96410000  1.0 -0.0393494432
N  N3  1  0.20470000  0.54690000  0.19320000  1.0 -0.3679956575
N  N4  1  0.21990000  0.36230000  0.88810000  1.0 -0.3274441798
N  N5  1  0.27350000  0.47110000  0.13670000  1.0 -0.0510471774
N  N6  1  0.47420000  0.11960000  0.19520000  1.0 -0.3274441798
N  N7  1  0.19130000  0.38730000  0.36430000  1.0 -0.0898376606
N  N8  1  0.33480000  0.28700000  0.53590000  1.0 -0.0393494432
N  N9  1  0.54690000  0.20470000  0.30680000  1.0 -0.3679956575
N  N10  1  0.36230000  0.21990000  0.61190000  1.0 -0.3274441798
N  N11  1  0.47110000  0.27350000  0.36330000  1.0 -0.0510471774
N  N12  1  0.11960000  0.47420000  0.30480000  1.0 -0.3274441798
N  N13  1  0.61270000  0.80870000  0.86430000  1.0 -0.0898376606
N  N14  1  0.71300000  0.66520000  0.03590000  1.0 -0.0393494432
N  N15  1  0.79530000  0.45310000  0.80680000  1.0 -0.3679956575
N  N16  1  0.78010000  0.63770000  0.11190000  1.0 -0.3274441798
N  N17  1  0.72650000  0.52890000  0.86330000  1.0 -0.0510471774
N  N18  1  0.52580000  0.88040000  0.80480000  1.0 -0.3274441798
N  N19  1  0.80870000  0.61270000  0.63570000  1.0 -0.0898376606
N  N20  1  0.66520000  0.71300000  0.46410000  1.0 -0.0393494432
N  N21  1  0.45310000  0.79530000  0.69320000  1.0 -0.3679956575
N  N22  1  0.63770000  0.78010000  0.38810000  1.0 -0.3274441798
N  N23  1  0.52890000  0.72650000  0.63670000  1.0 -0.0510471774
N  N24  1  0.88040000  0.52580000  0.69520000  1.0 -0.3274441798
O  O1  1  0.13990000  0.31150000  0.76710000  1.0 -0.5436566909
O  O2  1  0.03830000  0.39770000  0.73450000  1.0 -0.6099680503
O  O3  1  0.69490000  0.97910000  0.36710000  1.0 -0.475746109
O  O4  1  0.70510000  0.07070000  0.29690000  1.0 -0.5604636063
O  O5  1  0.49450000  0.01970000  0.32230000  1.0 -0.6357622434
O  O6  1  0.51750000  0.94570000  0.39700000  1.0 -0.5198913057
O  O7  1  0.66120000  0.15740000  0.19280000  1.0 -0.3679956575
O  O8  1  0.20090000  0.55050000  0.78590000  1.0 0.1388068962
O  O9  1  0.17790000  0.50330000  0.79270000  1.0 0.0880162428
O  O10  1  0.31150000  0.13990000  0.73290000  1.0 -0.5436566909
O  O11  1  0.39770000  0.03830000  0.76550000  1.0 -0.6099680503
O  O12  1  0.97910000  0.69490000  0.13290000  1.0 -0.475746109
O  O13  1  0.07070000  0.70510000  0.20310000  1.0 -0.5604636063
O  O14  1  0.01970000  0.49450000  0.17770000  1.0 -0.6357622434
O  O15  1  0.94570000  0.51750000  0.10300000  1.0 -0.5198913057
O  O16  1  0.15740000  0.66120000  0.30720000  1.0 -0.3617375333
O  O17  1  0.55050000  0.20090000  0.71410000  1.0 0.1388068962
O  O18  1  0.50330000  0.17790000  0.70730000  1.0 0.0880162428
O  O19  1  0.86010000  0.68850000  0.23290000  1.0 -0.5436566909
O  O20  1  0.96170000  0.60230000  0.26550000  1.0 -0.6099680503
O  O21  1  0.30510000  0.02090000  0.63290000  1.0 -0.475746109
O  O22  1  0.29490000  0.92930000  0.70310000  1.0 -0.5604636063
O  O23  1  0.50550000  0.98030000  0.67770000  1.0 -0.6357622434
O  O24  1  0.48250000  0.05430000  0.60300000  1.0 -0.5198913057
O  O25  1  0.33880000  0.84260000  0.80720000  1.0 -0.3617375333
O  O26  1  0.79910000  0.44950000  0.21410000  1.0 0.1388068962
O  O27  1  0.82210000  0.49670000  0.20730000  1.0 0.0880162428
O  O28  1  0.68850000  0.86010000  0.26710000  1.0 -0.5436566909
O  O29  1  0.60230000  0.96170000  0.23450000  1.0 -0.6099680503
O  O30  1  0.02090000  0.30510000  0.86710000  1.0 -0.475746109
O  O31  1  0.92930000  0.29490000  0.79690000  1.0 -0.5604636063
O  O32  1  0.98030000  0.50550000  0.82230000  1.0 -0.6357622434
O  O33  1  0.05430000  0.48250000  0.89700000  1.0 -0.5198913057
O  O34  1  0.84260000  0.33880000  0.69280000  1.0 -0.3617375333
O  O35  1  0.44950000  0.79910000  0.28590000  1.0 0.1388068962
O  O36  1  0.49670000  0.82210000  0.29270000  1.0 0.0880162428
