# DDEC6 charges by PACMAN v1.1 (https://github.com/mtap-research/PACMAN-charge/)
data_ONIVUF_ion_pacman
_symmetry_space_group_name_H-M   'P 1'
_cell_length_a   16.30650000
_cell_length_b   16.30650000
_cell_length_c   24.80100000
_cell_angle_alpha   87.20250000
_cell_angle_beta   92.79750000
_cell_angle_gamma   86.80940000
_symmetry_Int_Tables_number   1
_chemical_formula_structural   Cd4H66C108I3(N3O4)4
_chemical_formula_sum   'Cd8 H132 C216 I6 N24 O32'
_cell_volume   6567.78202119
_cell_formula_units_Z   2
loop_
 _symmetry_equiv_pos_site_id
 _symmetry_equiv_pos_as_xyz
  1  'x, y, z'
loop_
 _atom_site_type_symbol
 _atom_site_label
 _atom_site_symmetry_multiplicity
 _atom_site_fract_x
 _atom_site_fract_y
 _atom_site_fract_z
 _atom_site_occupancy
 _atom_site_charge
Cd  Cd1  1  0.61011000  0.90217000  0.32881000  1.0 0.9349372647
Cd  Cd2  1  0.41503000  0.92551000  0.25944000  1.0 0.9387960546
Cd  Cd3  1  0.90217000  0.61011000  0.17119000  1.0 0.9349372647
Cd  Cd4  1  0.92551000  0.41503000  0.24056000  1.0 0.9387960546
Cd  Cd5  1  0.38989000  0.09783000  0.67119000  1.0 0.9349372647
Cd  Cd6  1  0.58497000  0.07449000  0.74056000  1.0 0.9387960546
Cd  Cd7  1  0.09783000  0.38989000  0.82881000  1.0 0.9349372647
Cd  Cd8  1  0.07449000  0.58497000  0.75944000  1.0 0.9387960546
H  H1  1  0.28536000  0.14360000  0.03141000  1.0 0.142043927
H  H2  1  0.26231000  0.03351000  0.18886000  1.0 0.1121705646
H  H3  1  0.49065000  0.06563000  0.46828000  1.0 0.1278951947
H  H4  1  0.33668000  0.52440000  0.51722000  1.0 0.1278951947
H  H5  1  0.10918000  0.32542000  0.95805000  1.0 0.1208789491
H  H6  1  0.17123000  0.16343000  0.17104000  1.0 0.142043927
H  H7  1  0.29791000  0.32649000  0.70382000  1.0 0.1208789491
H  H8  1  0.38025000  0.27919000  0.35476000  1.0 0.1048446335
H  H9  1  0.43848000  0.18156000  0.50346000  1.0 0.1208789491
H  H10  1  0.19515000  0.48933000  0.55496000  1.0 0.1121705646
H  H11  1  0.54724000  0.21382000  0.07563000  1.0 0.1121705646
H  H12  1  0.40056000  0.21620000  0.06871000  1.0 0.1208789491
H  H13  1  0.05143000  0.23941000  0.03228000  1.0 0.1499618552
H  H14  1  0.42529000  0.39863000  0.39423000  1.0 0.1208789491
H  H15  1  0.34149000  0.28185000  0.52852000  1.0 0.1121705646
H  H16  1  0.48659000  0.72467000  0.44122000  1.0 0.1208789491
H  H17  1  0.35794000  0.52744000  0.34801000  1.0 0.1121705646
H  H18  1  0.36331000  0.32135000  0.62308000  1.0 0.1208789491
H  H19  1  0.07836000  0.29966000  0.19261000  1.0 0.1121705646
H  H20  1  0.43080000  0.16422000  0.31936000  1.0 0.1208789491
H  H21  1  0.61879000  0.12369000  0.13668000  1.0 0.1208789491
H  H22  1  0.17673000  0.19973000  0.79579000  1.0 0.142043927
H  H23  1  0.45584000  0.60454000  0.48690000  1.0 0.1208789491
H  H24  1  0.55561000  0.03123000  0.19027000  1.0 0.1499618552
H  H25  1  0.78480000  0.29320000  0.17472000  1.0 0.1278951947
H  H26  1  0.72375000  0.22087000  0.10577000  1.0 0.1208789491
H  H27  1  0.24966000  0.05374000  0.96162000  1.0 0.1278951947
H  H28  1  0.94734000  0.15676000  0.04935000  1.0 0.1208789491
H  H29  1  0.79769000  0.15739000  0.04446000  1.0 0.1208789491
H  H30  1  0.25778000  0.07518000  0.79972000  1.0 0.1208789491
H  H31  1  0.25383000  0.99039000  0.88216000  1.0 0.1208789491
H  H32  1  0.39163000  0.64867000  0.30417000  1.0 0.1278951947
H  H33  1  0.12748000  0.49032000  0.63537000  1.0 0.1121705646
H  H34  1  0.14360000  0.28536000  0.46859000  1.0 0.142043927
H  H35  1  0.03351000  0.26231000  0.31114000  1.0 0.1121705646
H  H36  1  0.06563000  0.49065000  0.03172000  1.0 0.1278951947
H  H37  1  0.52440000  0.33668000  0.98278000  1.0 0.1278951947
H  H38  1  0.32542000  0.10918000  0.54195000  1.0 0.1208789491
H  H39  1  0.16343000  0.17123000  0.32896000  1.0 0.142043927
H  H40  1  0.32649000  0.29791000  0.79618000  1.0 0.1208789491
H  H41  1  0.27919000  0.38025000  0.14524000  1.0 0.1048446335
H  H42  1  0.18156000  0.43848000  0.99654000  1.0 0.1208789491
H  H43  1  0.48933000  0.19515000  0.94504000  1.0 0.1121705646
H  H44  1  0.21382000  0.54724000  0.42437000  1.0 0.1121705646
H  H45  1  0.21620000  0.40056000  0.43129000  1.0 0.1208789491
H  H46  1  0.23941000  0.05143000  0.46772000  1.0 0.1499618552
H  H47  1  0.39863000  0.42529000  0.10577000  1.0 0.1208789491
H  H48  1  0.28185000  0.34149000  0.97148000  1.0 0.1121705646
H  H49  1  0.72467000  0.48659000  0.05878000  1.0 0.1208789491
H  H50  1  0.52744000  0.35794000  0.15199000  1.0 0.1121705646
H  H51  1  0.32135000  0.36331000  0.87692000  1.0 0.1208789491
H  H52  1  0.29966000  0.07836000  0.30739000  1.0 0.1121705646
H  H53  1  0.16422000  0.43080000  0.18064000  1.0 0.1208789491
H  H54  1  0.12369000  0.61879000  0.36332000  1.0 0.1208789491
H  H55  1  0.19973000  0.17673000  0.70421000  1.0 0.142043927
H  H56  1  0.60454000  0.45584000  0.01310000  1.0 0.1208789491
H  H57  1  0.03123000  0.55561000  0.30973000  1.0 0.1499618552
H  H58  1  0.29320000  0.78480000  0.32528000  1.0 0.1278951947
H  H59  1  0.22087000  0.72375000  0.39423000  1.0 0.1208789491
H  H60  1  0.05374000  0.24966000  0.53838000  1.0 0.1278951947
H  H61  1  0.15676000  0.94734000  0.45065000  1.0 0.1208789491
H  H62  1  0.15739000  0.79769000  0.45554000  1.0 0.1208789491
H  H63  1  0.07518000  0.25778000  0.70028000  1.0 0.1208789491
H  H64  1  0.99039000  0.25383000  0.61784000  1.0 0.1208789491
H  H65  1  0.64867000  0.39163000  0.19583000  1.0 0.1278951947
H  H66  1  0.49032000  0.12748000  0.86463000  1.0 0.1121705646
H  H67  1  0.71464000  0.85640000  0.96859000  1.0 0.142043927
H  H68  1  0.73769000  0.96649000  0.81114000  1.0 0.1121705646
H  H69  1  0.50935000  0.93437000  0.53172000  1.0 0.1278951947
H  H70  1  0.66332000  0.47560000  0.48278000  1.0 0.1278951947
H  H71  1  0.89082000  0.67458000  0.04195000  1.0 0.1208789491
H  H72  1  0.82877000  0.83657000  0.82896000  1.0 0.142043927
H  H73  1  0.70209000  0.67351000  0.29618000  1.0 0.1208789491
H  H74  1  0.61975000  0.72081000  0.64524000  1.0 0.1048446335
H  H75  1  0.56152000  0.81844000  0.49654000  1.0 0.1208789491
H  H76  1  0.80485000  0.51067000  0.44504000  1.0 0.1121705646
H  H77  1  0.45276000  0.78618000  0.92437000  1.0 0.1121705646
H  H78  1  0.59944000  0.78380000  0.93129000  1.0 0.1208789491
H  H79  1  0.94857000  0.76059000  0.96772000  1.0 0.1499618552
H  H80  1  0.57471000  0.60137000  0.60577000  1.0 0.1208789491
H  H81  1  0.65851000  0.71815000  0.47148000  1.0 0.1121705646
H  H82  1  0.51341000  0.27533000  0.55878000  1.0 0.1208789491
H  H83  1  0.64206000  0.47256000  0.65199000  1.0 0.1121705646
H  H84  1  0.63669000  0.67865000  0.37692000  1.0 0.1208789491
H  H85  1  0.92164000  0.70034000  0.80739000  1.0 0.1121705646
H  H86  1  0.56920000  0.83578000  0.68064000  1.0 0.1208789491
H  H87  1  0.38121000  0.87631000  0.86332000  1.0 0.1208789491
H  H88  1  0.82327000  0.80027000  0.20421000  1.0 0.142043927
H  H89  1  0.54416000  0.39546000  0.51310000  1.0 0.1208789491
H  H90  1  0.44439000  0.96877000  0.80973000  1.0 0.1499618552
H  H91  1  0.21520000  0.70680000  0.82528000  1.0 0.1278951947
H  H92  1  0.27625000  0.77913000  0.89423000  1.0 0.1208789491
H  H93  1  0.75034000  0.94626000  0.03838000  1.0 0.1278951947
H  H94  1  0.05266000  0.84324000  0.95065000  1.0 0.1208789491
H  H95  1  0.20231000  0.84261000  0.95554000  1.0 0.1208789491
H  H96  1  0.74222000  0.92482000  0.20028000  1.0 0.1208789491
H  H97  1  0.74617000  0.00961000  0.11784000  1.0 0.1208789491
H  H98  1  0.60837000  0.35133000  0.69583000  1.0 0.1278951947
H  H99  1  0.87252000  0.50968000  0.36463000  1.0 0.1121705646
H  H100  1  0.85640000  0.71464000  0.53141000  1.0 0.142043927
H  H101  1  0.96649000  0.73769000  0.68886000  1.0 0.1121705646
H  H102  1  0.93437000  0.50935000  0.96828000  1.0 0.1278951947
H  H103  1  0.47560000  0.66332000  0.01722000  1.0 0.1278951947
H  H104  1  0.67458000  0.89082000  0.45805000  1.0 0.1208789491
H  H105  1  0.83657000  0.82877000  0.67104000  1.0 0.142043927
H  H106  1  0.67351000  0.70209000  0.20382000  1.0 0.1208789491
H  H107  1  0.72081000  0.61975000  0.85476000  1.0 0.1048446335
H  H108  1  0.81844000  0.56152000  0.00346000  1.0 0.1208789491
H  H109  1  0.51067000  0.80485000  0.05496000  1.0 0.1121705646
H  H110  1  0.78618000  0.45276000  0.57563000  1.0 0.1121705646
H  H111  1  0.78380000  0.59944000  0.56871000  1.0 0.1208789491
H  H112  1  0.76059000  0.94857000  0.53228000  1.0 0.1499618552
H  H113  1  0.60137000  0.57471000  0.89423000  1.0 0.1208789491
H  H114  1  0.71815000  0.65851000  0.02852000  1.0 0.1121705646
H  H115  1  0.27533000  0.51341000  0.94122000  1.0 0.1208789491
H  H116  1  0.47256000  0.64206000  0.84801000  1.0 0.1121705646
H  H117  1  0.67865000  0.63669000  0.12308000  1.0 0.1208789491
H  H118  1  0.70034000  0.92164000  0.69261000  1.0 0.1121705646
H  H119  1  0.83578000  0.56920000  0.81936000  1.0 0.1208789491
H  H120  1  0.87631000  0.38121000  0.63668000  1.0 0.1208789491
H  H121  1  0.80027000  0.82327000  0.29579000  1.0 0.142043927
H  H122  1  0.39546000  0.54416000  0.98690000  1.0 0.1208789491
H  H123  1  0.96877000  0.44439000  0.69027000  1.0 0.1499618552
H  H124  1  0.70680000  0.21520000  0.67472000  1.0 0.1278951947
H  H125  1  0.77913000  0.27625000  0.60577000  1.0 0.1208789491
H  H126  1  0.94626000  0.75034000  0.46162000  1.0 0.1278951947
H  H127  1  0.84324000  0.05266000  0.54935000  1.0 0.1208789491
H  H128  1  0.84261000  0.20231000  0.54446000  1.0 0.1208789491
H  H129  1  0.92482000  0.74222000  0.29972000  1.0 0.1208789491
H  H130  1  0.00961000  0.74617000  0.38216000  1.0 0.1208789491
H  H131  1  0.35133000  0.60837000  0.80417000  1.0 0.1278951947
H  H132  1  0.50968000  0.87252000  0.13537000  1.0 0.1121705646
C  C1  1  0.39420000  0.12780000  0.12760000  1.0 0.1121705646
C  C2  1  0.24000000  0.16080000  0.05010000  1.0 -0.2620154508
C  C3  1  0.31030000  0.05370000  0.17610000  1.0 0.142043927
C  C4  1  0.32810000  0.40390000  0.52750000  1.0 0.0795387538
C  C5  1  0.46780000  0.10860000  0.44540000  1.0 -0.0987528923
C  C6  1  0.34770000  0.47490000  0.50110000  1.0 -0.1908683417
C  C7  1  0.23990000  0.15170000  0.10480000  1.0 0.2216058932
C  C8  1  0.28690000  0.40570000  0.57950000  1.0 0.0704956371
C  C9  1  0.20640000  0.40780000  0.67730000  1.0 -0.0422646622
C  C10  1  0.13270000  0.28190000  0.94010000  1.0 0.1121705646
C  C11  1  0.17130000  0.17330000  0.13380000  1.0 -0.2620154508
C  C12  1  0.27670000  0.35850000  0.67370000  1.0 -0.0801527252
C  C13  1  0.40320000  0.23620000  0.37760000  1.0 -0.1315191016
C  C14  1  0.10370000  0.20970000  0.10490000  1.0 0.1986779384
C  C15  1  0.16350000  0.40630000  0.72860000  1.0 0.5584341847
C  C16  1  0.46690000  0.77750000  0.34090000  1.0 0.5713562332
C  C17  1  0.16760000  0.19780000  0.02280000  1.0 0.2093100808
C  C18  1  0.43780000  0.17840000  0.46610000  1.0 -0.1495147708
C  C19  1  0.21600000  0.45580000  0.58450000  1.0 -0.1495147708
C  C20  1  0.44210000  0.07210000  0.16550000  1.0 0.142043927
C  C21  1  0.51900000  0.17840000  0.09760000  1.0 -0.0987528923
C  C22  1  0.43100000  0.18060000  0.09350000  1.0 -0.1840178765
C  C23  1  0.09990000  0.21890000  0.05070000  1.0 -0.2478476651
C  C24  1  0.40670000  0.24470000  0.43430000  1.0 0.0594834685
C  C25  1  0.40200000  0.40020000  0.42770000  1.0 -0.2055274882
C  C26  1  0.44010000  0.69490000  0.36960000  1.0 -0.0224346761
C  C27  1  0.46460000  0.10100000  0.39000000  1.0 -0.001510204
C  C28  1  0.34940000  0.33000000  0.50830000  1.0 -0.2043435611
C  C29  1  0.46050000  0.68410000  0.42300000  1.0 -0.0987528923
C  C30  1  0.38390000  0.56710000  0.36720000  1.0 -0.1413544929
C  C31  1  0.38410000  0.32650000  0.45700000  1.0 0.0889113731
C  C32  1  0.31650000  0.35610000  0.62520000  1.0 -0.1413544929
C  C33  1  0.03080000  0.28120000  0.17620000  1.0 0.1576238982
C  C34  1  0.43220000  0.16780000  0.35670000  1.0 -0.0987528923
C  C35  1  0.38300000  0.47700000  0.45160000  1.0 0.0795387538
C  C36  1  0.40330000  0.55350000  0.42280000  1.0 0.0704956371
C  C37  1  0.50640000  0.02440000  0.36710000  1.0 0.5584341847
C  C38  1  0.17350000  0.20390000  0.87590000  1.0 0.142043927
C  C39  1  0.56170000  0.12350000  0.13430000  1.0 -0.1078528483
C  C40  1  0.95080000  0.21900000  0.12080000  1.0 0.0889113731
C  C41  1  0.19200000  0.17160000  0.82860000  1.0 -0.1495147708
C  C42  1  0.44200000  0.61280000  0.45010000  1.0 -0.1413544929
C  C43  1  0.52460000  0.06920000  0.16730000  1.0 -0.1315191016
C  C44  1  0.90240000  0.26080000  0.15550000  1.0 0.1208789491
C  C45  1  0.81660000  0.26440000  0.15100000  1.0 -0.1413544929
C  C46  1  0.19370000  0.15870000  0.92380000  1.0 0.0795387538
C  C47  1  0.78070000  0.22210000  0.10870000  1.0 -0.1165186372
C  C48  1  0.23240000  0.08000000  0.92860000  1.0 -0.1699150763
C  C49  1  0.91560000  0.18100000  0.07510000  1.0 -0.1908683417
C  C50  1  0.82490000  0.18330000  0.07210000  1.0 -0.0987528923
C  C51  1  0.23460000  0.09520000  0.83040000  1.0 -0.0691823587
C  C52  1  0.24200000  0.04680000  0.88230000  1.0 -0.0987528923
C  C53  1  0.40360000  0.63920000  0.34110000  1.0 -0.0801527252
C  C54  1  0.17510000  0.45690000  0.63300000  1.0 -0.0801527252
C  C55  1  0.12780000  0.39420000  0.37240000  1.0 0.1121705646
C  C56  1  0.16080000  0.24000000  0.44990000  1.0 -0.2620154508
C  C57  1  0.05370000  0.31030000  0.32390000  1.0 0.142043927
C  C58  1  0.40390000  0.32810000  0.97250000  1.0 0.0795387538
C  C59  1  0.10860000  0.46780000  0.05460000  1.0 -0.0987528923
C  C60  1  0.47490000  0.34770000  0.99890000  1.0 -0.1908683417
C  C61  1  0.15170000  0.23990000  0.39520000  1.0 0.2216058932
C  C62  1  0.40570000  0.28690000  0.92050000  1.0 0.0704956371
C  C63  1  0.40780000  0.20640000  0.82270000  1.0 -0.0422646622
C  C64  1  0.28190000  0.13270000  0.55990000  1.0 0.1121705646
C  C65  1  0.17330000  0.17130000  0.36620000  1.0 -0.2620154508
C  C66  1  0.35850000  0.27670000  0.82630000  1.0 -0.0801527252
C  C67  1  0.23620000  0.40320000  0.12240000  1.0 -0.1315191016
C  C68  1  0.20970000  0.10370000  0.39510000  1.0 0.1986779384
C  C69  1  0.40630000  0.16350000  0.77140000  1.0 0.5584341847
C  C70  1  0.77750000  0.46690000  0.15910000  1.0 0.5713562332
C  C71  1  0.19780000  0.16760000  0.47720000  1.0 0.2093100808
C  C72  1  0.17840000  0.43780000  0.03390000  1.0 -0.1495147708
C  C73  1  0.45580000  0.21600000  0.91550000  1.0 -0.1495147708
C  C74  1  0.07210000  0.44210000  0.33450000  1.0 0.142043927
C  C75  1  0.17840000  0.51900000  0.40240000  1.0 -0.0987528923
C  C76  1  0.18060000  0.43100000  0.40650000  1.0 -0.1840178765
C  C77  1  0.21890000  0.09990000  0.44930000  1.0 -0.2478476651
C  C78  1  0.24470000  0.40670000  0.06570000  1.0 0.0594834685
C  C79  1  0.40020000  0.40200000  0.07230000  1.0 -0.2055274882
C  C80  1  0.69490000  0.44010000  0.13040000  1.0 -0.0224346761
C  C81  1  0.10100000  0.46460000  0.11000000  1.0 -0.001510204
C  C82  1  0.33000000  0.34940000  0.99170000  1.0 -0.2043435611
C  C83  1  0.68410000  0.46050000  0.07700000  1.0 -0.0987528923
C  C84  1  0.56710000  0.38390000  0.13280000  1.0 -0.1413544929
C  C85  1  0.32650000  0.38410000  0.04300000  1.0 0.0889113731
C  C86  1  0.35610000  0.31650000  0.87480000  1.0 -0.1413544929
C  C87  1  0.28120000  0.03080000  0.32380000  1.0 0.1576238982
C  C88  1  0.16780000  0.43220000  0.14330000  1.0 -0.0987528923
C  C89  1  0.47700000  0.38300000  0.04840000  1.0 0.0795387538
C  C90  1  0.55350000  0.40330000  0.07720000  1.0 0.0704956371
C  C91  1  0.02440000  0.50640000  0.13290000  1.0 0.5584341847
C  C92  1  0.20390000  0.17350000  0.62410000  1.0 0.142043927
C  C93  1  0.12350000  0.56170000  0.36570000  1.0 -0.1078528483
C  C94  1  0.21900000  0.95080000  0.37920000  1.0 0.0889113731
C  C95  1  0.17160000  0.19200000  0.67140000  1.0 -0.1495147708
C  C96  1  0.61280000  0.44200000  0.04990000  1.0 -0.1413544929
C  C97  1  0.06920000  0.52460000  0.33270000  1.0 -0.1315191016
C  C98  1  0.26080000  0.90240000  0.34450000  1.0 0.1278951947
C  C99  1  0.26440000  0.81660000  0.34900000  1.0 -0.1413544929
C  C100  1  0.15870000  0.19370000  0.57620000  1.0 0.0795387538
C  C101  1  0.22210000  0.78070000  0.39130000  1.0 -0.1165186372
C  C102  1  0.08000000  0.23240000  0.57140000  1.0 -0.1699150763
C  C103  1  0.18100000  0.91560000  0.42490000  1.0 -0.1908683417
C  C104  1  0.18330000  0.82490000  0.42790000  1.0 -0.0987528923
C  C105  1  0.09520000  0.23460000  0.66960000  1.0 -0.0691823587
C  C106  1  0.04680000  0.24200000  0.61770000  1.0 -0.0987528923
C  C107  1  0.63920000  0.40360000  0.15890000  1.0 -0.0801527252
C  C108  1  0.45690000  0.17510000  0.86700000  1.0 -0.0801527252
C  C109  1  0.60580000  0.87220000  0.87240000  1.0 0.1121705646
C  C110  1  0.76000000  0.83920000  0.94990000  1.0 -0.2620154508
C  C111  1  0.68970000  0.94630000  0.82390000  1.0 0.142043927
C  C112  1  0.67190000  0.59610000  0.47250000  1.0 0.0795387538
C  C113  1  0.53220000  0.89140000  0.55460000  1.0 -0.0987528923
C  C114  1  0.65230000  0.52510000  0.49890000  1.0 -0.1908683417
C  C115  1  0.76010000  0.84830000  0.89520000  1.0 0.2216058932
C  C116  1  0.71310000  0.59430000  0.42050000  1.0 0.0704956371
C  C117  1  0.79360000  0.59220000  0.32270000  1.0 -0.0422646622
C  C118  1  0.86730000  0.71810000  0.05990000  1.0 0.1121705646
C  C119  1  0.82870000  0.82670000  0.86620000  1.0 -0.2620154508
C  C120  1  0.72330000  0.64150000  0.32630000  1.0 -0.0801527252
C  C121  1  0.59680000  0.76380000  0.62240000  1.0 -0.1315191016
C  C122  1  0.89630000  0.79030000  0.89510000  1.0 0.1986779384
C  C123  1  0.83650000  0.59370000  0.27140000  1.0 0.5584341847
C  C124  1  0.53310000  0.22250000  0.65910000  1.0 0.5713562332
C  C125  1  0.83240000  0.80220000  0.97720000  1.0 0.2093100808
C  C126  1  0.56220000  0.82160000  0.53390000  1.0 -0.1495147708
C  C127  1  0.78400000  0.54420000  0.41550000  1.0 -0.1495147708
C  C128  1  0.55790000  0.92790000  0.83450000  1.0 0.142043927
C  C129  1  0.48100000  0.82160000  0.90240000  1.0 -0.0987528923
C  C130  1  0.56900000  0.81940000  0.90650000  1.0 -0.1840178765
C  C131  1  0.90010000  0.78110000  0.94930000  1.0 -0.2478476651
C  C132  1  0.59330000  0.75530000  0.56570000  1.0 0.0594834685
C  C133  1  0.59800000  0.59980000  0.57230000  1.0 -0.2055274882
C  C134  1  0.55990000  0.30510000  0.63040000  1.0 -0.0224346761
C  C135  1  0.53540000  0.89900000  0.61000000  1.0 -0.001510204
C  C136  1  0.65060000  0.67000000  0.49170000  1.0 -0.2043435611
C  C137  1  0.53950000  0.31590000  0.57700000  1.0 -0.0987528923
C  C138  1  0.61610000  0.43290000  0.63280000  1.0 -0.1413544929
C  C139  1  0.61590000  0.67350000  0.54300000  1.0 0.0889113731
C  C140  1  0.68350000  0.64390000  0.37480000  1.0 -0.1413544929
C  C141  1  0.96920000  0.71880000  0.82380000  1.0 0.1576238982
C  C142  1  0.56780000  0.83220000  0.64330000  1.0 -0.0987528923
C  C143  1  0.61700000  0.52300000  0.54840000  1.0 0.0795387538
C  C144  1  0.59670000  0.44650000  0.57720000  1.0 0.0704956371
C  C145  1  0.49360000  0.97560000  0.63290000  1.0 0.5584341847
C  C146  1  0.82650000  0.79610000  0.12410000  1.0 0.142043927
C  C147  1  0.43830000  0.87650000  0.86570000  1.0 -0.1078528483
C  C148  1  0.04920000  0.78100000  0.87920000  1.0 0.0889113731
C  C149  1  0.80800000  0.82840000  0.17140000  1.0 -0.1495147708
C  C150  1  0.55800000  0.38720000  0.54990000  1.0 -0.1413544929
C  C151  1  0.47540000  0.93080000  0.83270000  1.0 -0.1315191016
C  C152  1  0.09760000  0.73920000  0.84450000  1.0 0.1208789491
C  C153  1  0.18340000  0.73560000  0.84900000  1.0 -0.1413544929
C  C154  1  0.80630000  0.84130000  0.07620000  1.0 0.0795387538
C  C155  1  0.21930000  0.77790000  0.89130000  1.0 -0.1165186372
C  C156  1  0.76760000  0.92000000  0.07140000  1.0 -0.1699150763
C  C157  1  0.08440000  0.81900000  0.92490000  1.0 -0.1908683417
C  C158  1  0.17510000  0.81670000  0.92790000  1.0 -0.0987528923
C  C159  1  0.76540000  0.90480000  0.16960000  1.0 -0.0691823587
C  C160  1  0.75800000  0.95320000  0.11770000  1.0 -0.0987528923
C  C161  1  0.59640000  0.36080000  0.65890000  1.0 -0.0801527252
C  C162  1  0.82490000  0.54310000  0.36700000  1.0 -0.0801527252
C  C163  1  0.87220000  0.60580000  0.62760000  1.0 0.1121705646
C  C164  1  0.83920000  0.76000000  0.55010000  1.0 -0.2620154508
C  C165  1  0.94630000  0.68970000  0.67610000  1.0 0.142043927
C  C166  1  0.59610000  0.67190000  0.02750000  1.0 0.0795387538
C  C167  1  0.89140000  0.53220000  0.94540000  1.0 -0.0987528923
C  C168  1  0.52510000  0.65230000  0.00110000  1.0 -0.1908683417
C  C169  1  0.84830000  0.76010000  0.60480000  1.0 0.2216058932
C  C170  1  0.59430000  0.71310000  0.07950000  1.0 0.0704956371
C  C171  1  0.59220000  0.79360000  0.17730000  1.0 -0.0422646622
C  C172  1  0.71810000  0.86730000  0.44010000  1.0 0.1121705646
C  C173  1  0.82670000  0.82870000  0.63380000  1.0 -0.2620154508
C  C174  1  0.64150000  0.72330000  0.17370000  1.0 -0.0801527252
C  C175  1  0.76380000  0.59680000  0.87760000  1.0 -0.1315191016
C  C176  1  0.79030000  0.89630000  0.60490000  1.0 0.1986779384
C  C177  1  0.59370000  0.83650000  0.22860000  1.0 0.5584341847
C  C178  1  0.22250000  0.53310000  0.84090000  1.0 0.5713562332
C  C179  1  0.80220000  0.83240000  0.52280000  1.0 0.2093100808
C  C180  1  0.82160000  0.56220000  0.96610000  1.0 -0.1495147708
C  C181  1  0.54420000  0.78400000  0.08450000  1.0 -0.1495147708
C  C182  1  0.92790000  0.55790000  0.66550000  1.0 0.142043927
C  C183  1  0.82160000  0.48100000  0.59760000  1.0 -0.0987528923
C  C184  1  0.81940000  0.56900000  0.59350000  1.0 -0.1840178765
C  C185  1  0.78110000  0.90010000  0.55070000  1.0 -0.2478476651
C  C186  1  0.75530000  0.59330000  0.93430000  1.0 0.0594834685
C  C187  1  0.59980000  0.59800000  0.92770000  1.0 -0.2055274882
C  C188  1  0.30510000  0.55990000  0.86960000  1.0 -0.0224346761
C  C189  1  0.89900000  0.53540000  0.89000000  1.0 -0.001510204
C  C190  1  0.67000000  0.65060000  0.00830000  1.0 -0.2043435611
C  C191  1  0.31590000  0.53950000  0.92300000  1.0 -0.0987528923
C  C192  1  0.43290000  0.61610000  0.86720000  1.0 -0.1413544929
C  C193  1  0.67350000  0.61590000  0.95700000  1.0 0.0889113731
C  C194  1  0.64390000  0.68350000  0.12520000  1.0 -0.1413544929
C  C195  1  0.71880000  0.96920000  0.67620000  1.0 0.1576238982
C  C196  1  0.83220000  0.56780000  0.85670000  1.0 -0.0987528923
C  C197  1  0.52300000  0.61700000  0.95160000  1.0 0.0795387538
C  C198  1  0.44650000  0.59670000  0.92280000  1.0 0.0704956371
C  C199  1  0.97560000  0.49360000  0.86710000  1.0 0.5584341847
C  C200  1  0.79610000  0.82650000  0.37590000  1.0 0.142043927
C  C201  1  0.87650000  0.43830000  0.63430000  1.0 -0.1078528483
C  C202  1  0.78100000  0.04920000  0.62080000  1.0 0.0889113731
C  C203  1  0.82840000  0.80800000  0.32860000  1.0 -0.1495147708
C  C204  1  0.38720000  0.55800000  0.95010000  1.0 -0.1413544929
C  C205  1  0.93080000  0.47540000  0.66730000  1.0 -0.1315191016
C  C206  1  0.73920000  0.09760000  0.65550000  1.0 0.1208789491
C  C207  1  0.73560000  0.18340000  0.65100000  1.0 -0.1413544929
C  C208  1  0.84130000  0.80630000  0.42380000  1.0 0.0795387538
C  C209  1  0.77790000  0.21930000  0.60870000  1.0 -0.1165186372
C  C210  1  0.92000000  0.76760000  0.42860000  1.0 -0.1699150763
C  C211  1  0.81900000  0.08440000  0.57510000  1.0 -0.1908683417
C  C212  1  0.81670000  0.17510000  0.57210000  1.0 -0.0987528923
C  C213  1  0.90480000  0.76540000  0.33040000  1.0 -0.0691823587
C  C214  1  0.95320000  0.75800000  0.38230000  1.0 -0.0987528923
C  C215  1  0.36080000  0.59640000  0.84110000  1.0 -0.0801527252
C  C216  1  0.54310000  0.82490000  0.13300000  1.0 -0.0801527252
I  I1  1  0.27910000  0.27910000  0.25000000  1.0 -0.3968951888
I  I2  1  0.40306000  0.40306000  0.25000000  1.0 -0.0307609486
I  I3  1  0.52752000  0.52752000  0.25000000  1.0 -0.1840178765
I  I4  1  0.72090000  0.72090000  0.75000000  1.0 -0.3968951888
I  I5  1  0.59694000  0.59694000  0.75000000  1.0 -0.0307609486
I  I6  1  0.47248000  0.47248000  0.75000000  1.0 -0.1908683417
N  N1  1  0.31160000  0.11140000  0.13580000  1.0 -0.0691823587
N  N2  1  0.13690000  0.27990000  0.88630000  1.0 -0.3198534064
N  N3  1  0.03120000  0.23300000  0.13480000  1.0 -0.0422646622
N  N4  1  0.16790000  0.21010000  0.96510000  1.0 -0.0503699817
N  N5  1  0.38330000  0.02930000  0.19530000  1.0 -0.3365280368
N  N6  1  0.95900000  0.29960000  0.19140000  1.0 -0.3465694897
N  N7  1  0.11140000  0.31160000  0.36420000  1.0 -0.0691823587
N  N8  1  0.27990000  0.13690000  0.61370000  1.0 -0.3198534064
N  N9  1  0.23300000  0.03120000  0.36520000  1.0 -0.0422646622
N  N10  1  0.21010000  0.16790000  0.53490000  1.0 -0.0503699817
N  N11  1  0.02930000  0.38330000  0.30470000  1.0 -0.3365280368
N  N12  1  0.29960000  0.95900000  0.30860000  1.0 -0.3465694897
N  N13  1  0.68840000  0.88860000  0.86420000  1.0 -0.0691823587
N  N14  1  0.86310000  0.72010000  0.11370000  1.0 -0.3198534064
N  N15  1  0.96880000  0.76700000  0.86520000  1.0 -0.0422646622
N  N16  1  0.83210000  0.78990000  0.03490000  1.0 -0.0503699817
N  N17  1  0.61670000  0.97070000  0.80470000  1.0 -0.3365280368
N  N18  1  0.04100000  0.70040000  0.80860000  1.0 -0.3465694897
N  N19  1  0.88860000  0.68840000  0.63580000  1.0 -0.0691823587
N  N20  1  0.72010000  0.86310000  0.38630000  1.0 -0.3198534064
N  N21  1  0.76700000  0.96880000  0.63480000  1.0 -0.0422646622
N  N22  1  0.78990000  0.83210000  0.46510000  1.0 -0.0503699817
N  N23  1  0.97070000  0.61670000  0.69530000  1.0 -0.3365280368
N  N24  1  0.70040000  0.04100000  0.69140000  1.0 -0.3465694897
O  O1  1  0.43160000  0.79680000  0.29530000  1.0 -0.5082999207
O  O2  1  0.09760000  0.45500000  0.73290000  1.0 -0.5693089105
O  O3  1  0.18890000  0.35930000  0.76630000  1.0 -0.4836399891
O  O4  1  0.51610000  0.81930000  0.36440000  1.0 -0.5416511633
O  O5  1  0.56260000  0.98700000  0.39560000  1.0 -0.5189114548
O  O6  1  0.35260000  0.83840000  0.19320000  1.0 -0.3326026462
O  O7  1  0.48660000  0.00960000  0.31860000  1.0 -0.5784655549
O  O8  1  0.68680000  0.01000000  0.29430000  1.0 -0.416398072
O  O9  1  0.79680000  0.43160000  0.20470000  1.0 -0.5082999207
O  O10  1  0.45500000  0.09760000  0.76710000  1.0 -0.5693089105
O  O11  1  0.35930000  0.18890000  0.73370000  1.0 -0.4836399891
O  O12  1  0.81930000  0.51610000  0.13560000  1.0 -0.5416511633
O  O13  1  0.98700000  0.56260000  0.10440000  1.0 -0.5189114548
O  O14  1  0.83840000  0.35260000  0.30680000  1.0 -0.3326026462
O  O15  1  0.00960000  0.48660000  0.18140000  1.0 -0.5784655549
O  O16  1  0.01000000  0.68680000  0.20570000  1.0 -0.416398072
O  O17  1  0.56840000  0.20320000  0.70470000  1.0 -0.5082999207
O  O18  1  0.90240000  0.54500000  0.26710000  1.0 -0.5693089105
O  O19  1  0.81110000  0.64070000  0.23370000  1.0 -0.4836399891
O  O20  1  0.48390000  0.18070000  0.63560000  1.0 -0.5416511633
O  O21  1  0.43740000  0.01300000  0.60440000  1.0 -0.5189114548
O  O22  1  0.64740000  0.16160000  0.80680000  1.0 -0.3326026462
O  O23  1  0.51340000  0.99040000  0.68140000  1.0 -0.5784655549
O  O24  1  0.31320000  0.99000000  0.70570000  1.0 -0.416398072
O  O25  1  0.20320000  0.56840000  0.79530000  1.0 -0.5082999207
O  O26  1  0.54500000  0.90240000  0.23290000  1.0 -0.5693089105
O  O27  1  0.64070000  0.81110000  0.26630000  1.0 -0.4836399891
O  O28  1  0.18070000  0.48390000  0.86440000  1.0 -0.5416511633
O  O29  1  0.01300000  0.43740000  0.89560000  1.0 -0.5189114548
O  O30  1  0.16160000  0.64740000  0.69320000  1.0 -0.3326026462
O  O31  1  0.99040000  0.51340000  0.81860000  1.0 -0.5784655549
O  O32  1  0.99000000  0.31320000  0.79430000  1.0 -0.4131811299
