# DDEC6 charges by PACMAN v1.1 (https://github.com/mtap-research/PACMAN-charge/)
data_ONIVOZ_FSR_pacman
_symmetry_space_group_name_H-M   'P 1'
_cell_length_a   16.37570000
_cell_length_b   16.37570000
_cell_length_c   24.67200000
_cell_angle_alpha   87.20160000
_cell_angle_beta   92.79840000
_cell_angle_gamma   86.41950000
_symmetry_Int_Tables_number   1
_chemical_formula_structural   Cd2H35C54(N3O4)2
_chemical_formula_sum   'Cd8 H140 C216 N24 O32'
_cell_volume   6586.40763300
_cell_formula_units_Z   4
loop_
 _symmetry_equiv_pos_site_id
 _symmetry_equiv_pos_as_xyz
  1  'x, y, z'
loop_
 _atom_site_type_symbol
 _atom_site_label
 _atom_site_symmetry_multiplicity
 _atom_site_fract_x
 _atom_site_fract_y
 _atom_site_fract_z
 _atom_site_occupancy
 _atom_site_charge
Cd  Cd1  1  0.40161000  0.10817000  0.17069000  1.0 0.9265250905
Cd  Cd2  1  0.08670000  0.57642000  0.74102000  1.0 0.9767466379
Cd  Cd3  1  0.10817000  0.40161000  0.32931000  1.0 0.9265250905
Cd  Cd4  1  0.57642000  0.08670000  0.75898000  1.0 0.9767466379
Cd  Cd5  1  0.59839000  0.89183000  0.82931000  1.0 0.9265250905
Cd  Cd6  1  0.91330000  0.42358000  0.25898000  1.0 0.9767466379
Cd  Cd7  1  0.89183000  0.59839000  0.67069000  1.0 0.9265250905
Cd  Cd8  1  0.42358000  0.91330000  0.24102000  1.0 0.9767466379
H  H1  1  0.21520000  0.35660000  0.96846000  1.0 0.1390235407
H  H2  1  0.16760000  0.21926000  0.47650000  1.0 0.1119935099
H  H3  1  0.21016000  0.65030000  0.82568000  1.0 0.3993450148
H  H4  1  0.12986000  0.71446000  0.81887000  1.0 0.3993450148
H  H5  1  0.39514000  0.17660000  0.04207000  1.0 0.1202093519
H  H6  1  0.37173000  0.00771000  0.36508000  1.0 0.1119935099
H  H7  1  0.42244000  0.19862000  0.80641000  1.0 0.1119935099
H  H8  1  0.20730000  0.17850000  0.29876000  1.0 0.1202093519
H  H9  1  0.01614000  0.43698000  0.53142000  1.0 0.1295353856
H  H10  1  0.06165000  0.31521000  0.49833000  1.0 0.1202093519
H  H11  1  0.32549000  0.33493000  0.82593000  1.0 0.1390235407
H  H12  1  0.44792000  0.25972000  0.96652000  1.0 0.1390235407
H  H13  1  0.14047000  0.18247000  0.38085000  1.0 0.1202093519
H  H14  1  0.16510000  0.97550000  0.48419000  1.0 0.1202093519
H  H15  1  0.32503000  0.29847000  0.20638000  1.0 0.1390235407
H  H16  1  0.30445000  0.00521000  0.44523000  1.0 0.1119935099
H  H17  1  0.23697000  0.46615000  0.81066000  1.0 0.1119935099
H  H18  1  0.09736000  0.28422000  0.93107000  1.0 0.1202093519
H  H19  1  0.07915000  0.10251000  0.60720000  1.0 0.1202093519
H  H20  1  0.15065000  0.96367000  0.65310000  1.0 0.1202093519
H  H21  1  0.00653000  0.78069000  0.55491000  1.0 0.1119935099
H  H22  1  0.12860000  0.22258000  0.64863000  1.0 0.1119935099
H  H23  1  0.07142000  0.33906000  0.68244000  1.0 0.1119935099
H  H24  1  0.10626000  0.85246000  0.69505000  1.0 0.1202093519
H  H25  1  0.95434000  0.28838000  0.92555000  1.0 0.1008944381
H  H26  1  0.71789000  0.21227000  0.82433000  1.0 0.1295353856
H  H27  1  0.25916000  0.44672000  0.03925000  1.0 0.1202093519
H  H28  1  0.25420000  0.42862000  0.20373000  1.0 0.1202093519
H  H29  1  0.04335000  0.90181000  0.51216000  1.0 0.1202093519
H  H30  1  0.94445000  0.46709000  0.80541000  1.0 0.1527066143
H  H31  1  0.55196000  0.35942000  0.94245000  1.0 0.1295353856
H  H32  1  0.88105000  0.37897000  0.86339000  1.0 0.1119935099
H  H33  1  0.24873000  0.51101000  0.12063000  1.0 0.1008944381
H  H34  1  0.76663000  0.26353000  0.89986000  1.0 0.1202093519
H  H35  1  0.69143000  0.37419000  0.94255000  1.0 0.1202093519
H  H36  1  0.35660000  0.21520000  0.53154000  1.0 0.1390235407
H  H37  1  0.21926000  0.16760000  0.02350000  1.0 0.1119935099
H  H38  1  0.65030000  0.21016000  0.67432000  1.0 0.3993450148
H  H39  1  0.71446000  0.12986000  0.68113000  1.0 0.3993450148
H  H40  1  0.17660000  0.39514000  0.45793000  1.0 0.1202093519
H  H41  1  0.00771000  0.37173000  0.13492000  1.0 0.1119935099
H  H42  1  0.19862000  0.42244000  0.69359000  1.0 0.1119935099
H  H43  1  0.17850000  0.20730000  0.20124000  1.0 0.1202093519
H  H44  1  0.43698000  0.01614000  0.96858000  1.0 0.1202093519
H  H45  1  0.31521000  0.06165000  0.00167000  1.0 0.1202093519
H  H46  1  0.33493000  0.32549000  0.67407000  1.0 0.1390235407
H  H47  1  0.25972000  0.44792000  0.53348000  1.0 0.1390235407
H  H48  1  0.18247000  0.14047000  0.11915000  1.0 0.1202093519
H  H49  1  0.97550000  0.16510000  0.01581000  1.0 0.1202093519
H  H50  1  0.29847000  0.32503000  0.29362000  1.0 0.1390235407
H  H51  1  0.00521000  0.30445000  0.05477000  1.0 0.1119935099
H  H52  1  0.46615000  0.23697000  0.68934000  1.0 0.1119935099
H  H53  1  0.28422000  0.09736000  0.56893000  1.0 0.1202093519
H  H54  1  0.10251000  0.07915000  0.89280000  1.0 0.1202093519
H  H55  1  0.96367000  0.15065000  0.84690000  1.0 0.1202093519
H  H56  1  0.78069000  0.00653000  0.94509000  1.0 0.1119935099
H  H57  1  0.22258000  0.12860000  0.85137000  1.0 0.1119935099
H  H58  1  0.33906000  0.07142000  0.81756000  1.0 0.1119935099
H  H59  1  0.85246000  0.10626000  0.80495000  1.0 0.1202093519
H  H60  1  0.28838000  0.95434000  0.57445000  1.0 0.1008944381
H  H61  1  0.21227000  0.71789000  0.67567000  1.0 0.1295353856
H  H62  1  0.44672000  0.25916000  0.46075000  1.0 0.1202093519
H  H63  1  0.42862000  0.25420000  0.29627000  1.0 0.1202093519
H  H64  1  0.90181000  0.04335000  0.98784000  1.0 0.1202093519
H  H65  1  0.46709000  0.94445000  0.69459000  1.0 0.1527066143
H  H66  1  0.35942000  0.55196000  0.55755000  1.0 0.1295353856
H  H67  1  0.37897000  0.88105000  0.63661000  1.0 0.1119935099
H  H68  1  0.51101000  0.24873000  0.37937000  1.0 0.1008944381
H  H69  1  0.26353000  0.76663000  0.60014000  1.0 0.1202093519
H  H70  1  0.37419000  0.69143000  0.55745000  1.0 0.1202093519
H  H71  1  0.78480000  0.64340000  0.03154000  1.0 0.1390235407
H  H72  1  0.83240000  0.78074000  0.52350000  1.0 0.1119935099
H  H73  1  0.78984000  0.34970000  0.17432000  1.0 0.3993450148
H  H74  1  0.87014000  0.28554000  0.18113000  1.0 0.3993450148
H  H75  1  0.60486000  0.82340000  0.95793000  1.0 0.1202093519
H  H76  1  0.62827000  0.99229000  0.63492000  1.0 0.1119935099
H  H77  1  0.57756000  0.80138000  0.19359000  1.0 0.1119935099
H  H78  1  0.79270000  0.82150000  0.70124000  1.0 0.1202093519
H  H79  1  0.98386000  0.56302000  0.46858000  1.0 0.1202093519
H  H80  1  0.93835000  0.68479000  0.50167000  1.0 0.1202093519
H  H81  1  0.67451000  0.66507000  0.17407000  1.0 0.1390235407
H  H82  1  0.55208000  0.74028000  0.03348000  1.0 0.1390235407
H  H83  1  0.85953000  0.81753000  0.61915000  1.0 0.1202093519
H  H84  1  0.83490000  0.02450000  0.51581000  1.0 0.1202093519
H  H85  1  0.67497000  0.70153000  0.79362000  1.0 0.1390235407
H  H86  1  0.69555000  0.99479000  0.55477000  1.0 0.1119935099
H  H87  1  0.76303000  0.53385000  0.18934000  1.0 0.1119935099
H  H88  1  0.90264000  0.71578000  0.06893000  1.0 0.1202093519
H  H89  1  0.92085000  0.89749000  0.39280000  1.0 0.1202093519
H  H90  1  0.84935000  0.03633000  0.34690000  1.0 0.1202093519
H  H91  1  0.99347000  0.21931000  0.44509000  1.0 0.1119935099
H  H92  1  0.87140000  0.77742000  0.35137000  1.0 0.1119935099
H  H93  1  0.92858000  0.66094000  0.31756000  1.0 0.1119935099
H  H94  1  0.89374000  0.14754000  0.30495000  1.0 0.1202093519
H  H95  1  0.04566000  0.71162000  0.07445000  1.0 0.1008944381
H  H96  1  0.28211000  0.78773000  0.17567000  1.0 0.1295353856
H  H97  1  0.74084000  0.55328000  0.96075000  1.0 0.1202093519
H  H98  1  0.74580000  0.57138000  0.79627000  1.0 0.1202093519
H  H99  1  0.95665000  0.09819000  0.48784000  1.0 0.1202093519
H  H100  1  0.05555000  0.53291000  0.19459000  1.0 0.1527066143
H  H101  1  0.44804000  0.64058000  0.05755000  1.0 0.1295353856
H  H102  1  0.11895000  0.62103000  0.13661000  1.0 0.1119935099
H  H103  1  0.75127000  0.48899000  0.87937000  1.0 0.1008944381
H  H104  1  0.23337000  0.73647000  0.10014000  1.0 0.1202093519
H  H105  1  0.30857000  0.62581000  0.05745000  1.0 0.1202093519
H  H106  1  0.64340000  0.78480000  0.46846000  1.0 0.1390235407
H  H107  1  0.78074000  0.83240000  0.97650000  1.0 0.1119935099
H  H108  1  0.34970000  0.78984000  0.32568000  1.0 0.3993450148
H  H109  1  0.28554000  0.87014000  0.31887000  1.0 0.3993450148
H  H110  1  0.82340000  0.60486000  0.54207000  1.0 0.1202093519
H  H111  1  0.99229000  0.62827000  0.86508000  1.0 0.1119935099
H  H112  1  0.80138000  0.57756000  0.30641000  1.0 0.1119935099
H  H113  1  0.82150000  0.79270000  0.79876000  1.0 0.1202093519
H  H114  1  0.56302000  0.98386000  0.03142000  1.0 0.1295353856
H  H115  1  0.68479000  0.93835000  0.99833000  1.0 0.1202093519
H  H116  1  0.66507000  0.67451000  0.32593000  1.0 0.1390235407
H  H117  1  0.74028000  0.55208000  0.46652000  1.0 0.1390235407
H  H118  1  0.81753000  0.85953000  0.88085000  1.0 0.1202093519
H  H119  1  0.02450000  0.83490000  0.98419000  1.0 0.1202093519
H  H120  1  0.70153000  0.67497000  0.70638000  1.0 0.1390235407
H  H121  1  0.99479000  0.69555000  0.94523000  1.0 0.1119935099
H  H122  1  0.53385000  0.76303000  0.31066000  1.0 0.1119935099
H  H123  1  0.71578000  0.90264000  0.43107000  1.0 0.1202093519
H  H124  1  0.89749000  0.92085000  0.10720000  1.0 0.1202093519
H  H125  1  0.03633000  0.84935000  0.15310000  1.0 0.1202093519
H  H126  1  0.21931000  0.99347000  0.05491000  1.0 0.1119935099
H  H127  1  0.77742000  0.87140000  0.14863000  1.0 0.1119935099
H  H128  1  0.66094000  0.92858000  0.18244000  1.0 0.1119935099
H  H129  1  0.14754000  0.89374000  0.19505000  1.0 0.1202093519
H  H130  1  0.71162000  0.04566000  0.42555000  1.0 0.1008944381
H  H131  1  0.78773000  0.28211000  0.32433000  1.0 0.1295353856
H  H132  1  0.55328000  0.74084000  0.53925000  1.0 0.1202093519
H  H133  1  0.57138000  0.74580000  0.70373000  1.0 0.1202093519
H  H134  1  0.09819000  0.95665000  0.01216000  1.0 0.1202093519
H  H135  1  0.53291000  0.05555000  0.30541000  1.0 0.1527066143
H  H136  1  0.64058000  0.44804000  0.44245000  1.0 0.1295353856
H  H137  1  0.62103000  0.11895000  0.36339000  1.0 0.1119935099
H  H138  1  0.48899000  0.75127000  0.62063000  1.0 0.1008944381
H  H139  1  0.73647000  0.23337000  0.39986000  1.0 0.1202093519
H  H140  1  0.62581000  0.30857000  0.44255000  1.0 0.1202093519
C  C1  1  0.26020000  0.33940000  0.94940000  1.0 -0.2722864332
C  C2  1  0.25830000  0.34830000  0.89390000  1.0 0.2092446182
C  C3  1  0.15540000  0.17100000  0.49500000  1.0 -0.2088229656
C  C4  1  0.33140000  0.30380000  0.97690000  1.0 0.2092446182
C  C5  1  0.10600000  0.37300000  0.87300000  1.0 0.1119935099
C  C6  1  0.17490000  0.09750000  0.47320000  1.0 0.0792266993
C  C7  1  0.36950000  0.21910000  0.05990000  1.0 0.1295353856
C  C8  1  0.32460000  0.04160000  0.36790000  1.0 -0.1066994972
C  C9  1  0.46910000  0.21910000  0.82220000  1.0 0.1008944381
C  C10  1  0.22680000  0.14420000  0.32830000  1.0 -0.0751551421
C  C11  1  0.29520000  0.09180000  0.32370000  1.0 -0.0404584644
C  C12  1  0.11790000  0.17510000  0.54420000  1.0 0.0792266993
C  C13  1  0.59430000  0.24050000  0.84270000  1.0 0.1202093519
C  C14  1  0.03590000  0.39350000  0.55510000  1.0 -0.0998035833
C  C15  1  0.21500000  0.09440000  0.42100000  1.0 0.0685065104
C  C16  1  0.06410000  0.32050000  0.53570000  1.0 -0.1512821224
C  C17  1  0.32740000  0.32680000  0.86360000  1.0 -0.2942223282
C  C18  1  0.05480000  0.80400000  0.63130000  1.0 -0.0292067783
C  C19  1  0.40000000  0.28200000  0.94820000  1.0 -0.2760226833
C  C20  1  0.18600000  0.14640000  0.37770000  1.0 -0.1416670712
C  C21  1  0.15470000  0.02530000  0.49990000  1.0 -0.2038026028
C  C22  1  0.03750000  0.40090000  0.61130000  1.0 -0.0208657309
C  C23  1  0.32720000  0.29740000  0.12320000  1.0 0.1390235407
C  C24  1  0.09550000  0.25510000  0.56840000  1.0 0.0631758926
C  C25  1  0.31120000  0.32840000  0.17390000  1.0 -0.1416670712
C  C26  1  0.28510000  0.04070000  0.41620000  1.0 -0.1653230743
C  C27  1  0.18910000  0.44690000  0.82390000  1.0 0.0631758926
C  C28  1  0.06740000  0.32060000  0.90650000  1.0 -0.1896458114
C  C29  1  0.05960000  0.42980000  0.83370000  1.0 0.1527066143
C  C30  1  0.39590000  0.29390000  0.89120000  1.0 0.2092446182
C  C31  1  0.10140000  0.10100000  0.57330000  1.0 -0.2088229656
C  C32  1  0.54800000  0.28440000  0.87810000  1.0 0.0792266993
C  C33  1  0.33740000  0.09300000  0.27150000  1.0 0.5603007022
C  C34  1  0.31010000  0.34030000  0.07360000  1.0 0.0861956148
C  C35  1  0.11920000  0.92900000  0.63330000  1.0 -0.1512821224
C  C36  1  0.02900000  0.72440000  0.65730000  1.0 0.5603007022
C  C37  1  0.03410000  0.81870000  0.57440000  1.0 -0.1066994972
C  C38  1  0.10290000  0.26390000  0.62550000  1.0 -0.1653230743
C  C39  1  0.09810000  0.94990000  0.57770000  1.0 0.0685065104
C  C40  1  0.11880000  0.02680000  0.55020000  1.0 0.0685065104
C  C41  1  0.07100000  0.33460000  0.64500000  1.0 -0.1200105952
C  C42  1  0.09490000  0.86110000  0.65780000  1.0 -0.0998035833
C  C43  1  0.98210000  0.32310000  0.90300000  1.0 -0.1200105952
C  C44  1  0.68410000  0.23830000  0.84830000  1.0 -0.131909314
C  C45  1  0.27480000  0.41880000  0.07220000  1.0 -0.2038026028
C  C46  1  0.27320000  0.40700000  0.17220000  1.0 -0.0917348759
C  C47  1  0.05640000  0.89160000  0.54910000  1.0 -0.1512821224
C  C48  1  0.97510000  0.43150000  0.83020000  1.0 -0.1623859362
C  C49  1  0.99670000  0.47570000  0.63330000  1.0 0.5603007022
C  C50  1  0.58460000  0.33180000  0.91850000  1.0 -0.1653230743
C  C51  1  0.93790000  0.37830000  0.86510000  1.0 -0.1066994972
C  C52  1  0.26310000  0.45510000  0.12070000  1.0 -0.0998035833
C  C53  1  0.71180000  0.27560000  0.88920000  1.0 -0.0998035833
C  C54  1  0.66560000  0.33640000  0.92180000  1.0 -0.0998035833
C  C55  1  0.33940000  0.26020000  0.55060000  1.0 -0.2722864332
C  C56  1  0.34830000  0.25830000  0.60610000  1.0 0.2092446182
C  C57  1  0.17100000  0.15540000  0.00500000  1.0 -0.2088229656
C  C58  1  0.30380000  0.33140000  0.52310000  1.0 0.2092446182
C  C59  1  0.37300000  0.10600000  0.62700000  1.0 0.1119935099
C  C60  1  0.09750000  0.17490000  0.02680000  1.0 0.0792266993
C  C61  1  0.21910000  0.36950000  0.44010000  1.0 0.1295353856
C  C62  1  0.04160000  0.32460000  0.13210000  1.0 -0.1066994972
C  C63  1  0.21910000  0.46910000  0.67780000  1.0 0.1008944381
C  C64  1  0.14420000  0.22680000  0.17170000  1.0 -0.0751551421
C  C65  1  0.09180000  0.29520000  0.17630000  1.0 -0.0404584644
C  C66  1  0.17510000  0.11790000  0.95580000  1.0 0.0792266993
C  C67  1  0.24050000  0.59430000  0.65730000  1.0 0.1202093519
C  C68  1  0.39350000  0.03590000  0.94490000  1.0 -0.0998035833
C  C69  1  0.09440000  0.21500000  0.07900000  1.0 0.0685065104
C  C70  1  0.32050000  0.06410000  0.96430000  1.0 -0.1512821224
C  C71  1  0.32680000  0.32740000  0.63640000  1.0 -0.2942223282
C  C72  1  0.80400000  0.05480000  0.86870000  1.0 -0.0292067783
C  C73  1  0.28200000  0.40000000  0.55180000  1.0 -0.2760226833
C  C74  1  0.14640000  0.18600000  0.12230000  1.0 -0.1416670712
C  C75  1  0.02530000  0.15470000  0.00010000  1.0 -0.2038026028
C  C76  1  0.40090000  0.03750000  0.88870000  1.0 -0.0208657309
C  C77  1  0.29740000  0.32720000  0.37680000  1.0 0.1390235407
C  C78  1  0.25510000  0.09550000  0.93160000  1.0 0.0631758926
C  C79  1  0.32840000  0.31120000  0.32610000  1.0 -0.1416670712
C  C80  1  0.04070000  0.28510000  0.08380000  1.0 -0.1653230743
C  C81  1  0.44690000  0.18910000  0.67610000  1.0 0.0631758926
C  C82  1  0.32060000  0.06740000  0.59350000  1.0 -0.1896458114
C  C83  1  0.42980000  0.05960000  0.66630000  1.0 0.1527066143
C  C84  1  0.29390000  0.39590000  0.60880000  1.0 0.2092446182
C  C85  1  0.10100000  0.10140000  0.92670000  1.0 -0.2088229656
C  C86  1  0.28440000  0.54800000  0.62190000  1.0 0.0792266993
C  C87  1  0.09300000  0.33740000  0.22850000  1.0 0.5603007022
C  C88  1  0.34030000  0.31010000  0.42640000  1.0 0.0861956148
C  C89  1  0.92900000  0.11920000  0.86670000  1.0 -0.1512821224
C  C90  1  0.72440000  0.02900000  0.84270000  1.0 0.5603007022
C  C91  1  0.81870000  0.03410000  0.92560000  1.0 -0.0998035833
C  C92  1  0.26390000  0.10290000  0.87450000  1.0 -0.1653230743
C  C93  1  0.94990000  0.09810000  0.92230000  1.0 0.0631758926
C  C94  1  0.02680000  0.11880000  0.94980000  1.0 0.0685065104
C  C95  1  0.33460000  0.07100000  0.85500000  1.0 -0.1200105952
C  C96  1  0.86110000  0.09490000  0.84220000  1.0 -0.0998035833
C  C97  1  0.32310000  0.98210000  0.59700000  1.0 -0.1200105952
C  C98  1  0.23830000  0.68410000  0.65170000  1.0 -0.131909314
C  C99  1  0.41880000  0.27480000  0.42780000  1.0 -0.2038026028
C  C100  1  0.40700000  0.27320000  0.32780000  1.0 -0.0917348759
C  C101  1  0.89160000  0.05640000  0.95090000  1.0 -0.1512821224
C  C102  1  0.43150000  0.97510000  0.66980000  1.0 -0.1623859362
C  C103  1  0.47570000  0.99670000  0.86670000  1.0 0.5603007022
C  C104  1  0.33180000  0.58460000  0.58150000  1.0 -0.1623859362
C  C105  1  0.37830000  0.93790000  0.63490000  1.0 -0.1066994972
C  C106  1  0.45510000  0.26310000  0.37930000  1.0 -0.0998035833
C  C107  1  0.27560000  0.71180000  0.61080000  1.0 -0.0998035833
C  C108  1  0.33640000  0.66560000  0.57820000  1.0 -0.0998035833
C  C109  1  0.73980000  0.66060000  0.05060000  1.0 -0.2722864332
C  C110  1  0.74170000  0.65170000  0.10610000  1.0 0.2092446182
C  C111  1  0.84460000  0.82900000  0.50500000  1.0 -0.2038026028
C  C112  1  0.66860000  0.69620000  0.02310000  1.0 0.2092446182
C  C113  1  0.89400000  0.62700000  0.12700000  1.0 0.1119935099
C  C114  1  0.82510000  0.90250000  0.52680000  1.0 0.0792266993
C  C115  1  0.63050000  0.78090000  0.94010000  1.0 0.1295353856
C  C116  1  0.67540000  0.95840000  0.63210000  1.0 -0.1066994972
C  C117  1  0.53090000  0.78090000  0.17780000  1.0 0.1008944381
C  C118  1  0.77320000  0.85580000  0.67170000  1.0 -0.0751551421
C  C119  1  0.70480000  0.90820000  0.67630000  1.0 -0.0404584644
C  C120  1  0.88210000  0.82490000  0.45580000  1.0 0.0792266993
C  C121  1  0.40570000  0.75950000  0.15730000  1.0 0.1202093519
C  C122  1  0.96410000  0.60650000  0.44490000  1.0 -0.0998035833
C  C123  1  0.78500000  0.90560000  0.57900000  1.0 0.0685065104
C  C124  1  0.93590000  0.67950000  0.46430000  1.0 -0.1512821224
C  C125  1  0.67260000  0.67320000  0.13640000  1.0 -0.2942223282
C  C126  1  0.94520000  0.19600000  0.36870000  1.0 -0.0292067783
C  C127  1  0.60000000  0.71800000  0.05180000  1.0 -0.2760226833
C  C128  1  0.81400000  0.85360000  0.62230000  1.0 -0.1416670712
C  C129  1  0.84530000  0.97470000  0.50010000  1.0 -0.2038026028
C  C130  1  0.96250000  0.59910000  0.38870000  1.0 -0.0208657309
C  C131  1  0.67280000  0.70260000  0.87680000  1.0 0.1390235407
C  C132  1  0.90450000  0.74490000  0.43160000  1.0 0.0631758926
C  C133  1  0.68880000  0.67160000  0.82610000  1.0 -0.1416670712
C  C134  1  0.71490000  0.95930000  0.58380000  1.0 -0.1653230743
C  C135  1  0.81090000  0.55310000  0.17610000  1.0 0.0631758926
C  C136  1  0.93260000  0.67940000  0.09350000  1.0 -0.1896458114
C  C137  1  0.94040000  0.57020000  0.16630000  1.0 0.1527066143
C  C138  1  0.60410000  0.70610000  0.10880000  1.0 0.2092446182
C  C139  1  0.89860000  0.89900000  0.42670000  1.0 -0.2088229656
C  C140  1  0.45200000  0.71560000  0.12190000  1.0 0.0792266993
C  C141  1  0.66260000  0.90700000  0.72850000  1.0 0.5603007022
C  C142  1  0.68990000  0.65970000  0.92640000  1.0 0.0861956148
C  C143  1  0.88080000  0.07100000  0.36670000  1.0 -0.1512821224
C  C144  1  0.97100000  0.27560000  0.34270000  1.0 0.5603007022
C  C145  1  0.96590000  0.18130000  0.42560000  1.0 -0.0998035833
C  C146  1  0.89710000  0.73610000  0.37450000  1.0 -0.1653230743
C  C147  1  0.90190000  0.05010000  0.42230000  1.0 0.0631758926
C  C148  1  0.88120000  0.97320000  0.44980000  1.0 0.0685065104
C  C149  1  0.92900000  0.66540000  0.35500000  1.0 -0.1200105952
C  C150  1  0.90510000  0.13890000  0.34220000  1.0 -0.0998035833
C  C151  1  0.01790000  0.67690000  0.09700000  1.0 -0.1200105952
C  C152  1  0.31590000  0.76170000  0.15170000  1.0 -0.131909314
C  C153  1  0.72520000  0.58120000  0.92780000  1.0 -0.2038026028
C  C154  1  0.72680000  0.59300000  0.82780000  1.0 -0.0917348759
C  C155  1  0.94360000  0.10840000  0.45090000  1.0 -0.1512821224
C  C156  1  0.02490000  0.56850000  0.16980000  1.0 -0.1623859362
C  C157  1  0.00330000  0.52430000  0.36670000  1.0 0.5603007022
C  C158  1  0.41540000  0.66820000  0.08150000  1.0 -0.1653230743
C  C159  1  0.06210000  0.62170000  0.13490000  1.0 -0.1066994972
C  C160  1  0.73690000  0.54490000  0.87930000  1.0 -0.0998035833
C  C161  1  0.28820000  0.72440000  0.11080000  1.0 -0.0998035833
C  C162  1  0.33440000  0.66360000  0.07820000  1.0 -0.0998035833
C  C163  1  0.66060000  0.73980000  0.44940000  1.0 -0.2722864332
C  C164  1  0.65170000  0.74170000  0.39390000  1.0 0.2092446182
C  C165  1  0.82900000  0.84460000  0.99500000  1.0 -0.2088229656
C  C166  1  0.69620000  0.66860000  0.47690000  1.0 0.2092446182
C  C167  1  0.62700000  0.89400000  0.37300000  1.0 0.1119935099
C  C168  1  0.90250000  0.82510000  0.97320000  1.0 0.0792266993
C  C169  1  0.78090000  0.63050000  0.55990000  1.0 0.1295353856
C  C170  1  0.95840000  0.67540000  0.86790000  1.0 -0.1066994972
C  C171  1  0.78090000  0.53090000  0.32220000  1.0 0.1008944381
C  C172  1  0.85580000  0.77320000  0.82830000  1.0 -0.0751551421
C  C173  1  0.90820000  0.70480000  0.82370000  1.0 -0.0404584644
C  C174  1  0.82490000  0.88210000  0.04420000  1.0 0.0792266993
C  C175  1  0.75950000  0.40570000  0.34270000  1.0 0.1202093519
C  C176  1  0.60650000  0.96410000  0.05510000  1.0 -0.0998035833
C  C177  1  0.90560000  0.78500000  0.92100000  1.0 0.0685065104
C  C178  1  0.67950000  0.93590000  0.03570000  1.0 -0.1512821224
C  C179  1  0.67320000  0.67260000  0.36360000  1.0 -0.2942223282
C  C180  1  0.19600000  0.94520000  0.13130000  1.0 -0.0292067783
C  C181  1  0.71800000  0.60000000  0.44820000  1.0 -0.2760226833
C  C182  1  0.85360000  0.81400000  0.87770000  1.0 -0.1416670712
C  C183  1  0.97470000  0.84530000  0.99990000  1.0 -0.2038026028
C  C184  1  0.59910000  0.96250000  0.11130000  1.0 -0.0208657309
C  C185  1  0.70260000  0.67280000  0.62320000  1.0 0.1390235407
C  C186  1  0.74490000  0.90450000  0.06840000  1.0 0.0631758926
C  C187  1  0.67160000  0.68880000  0.67390000  1.0 -0.1416670712
C  C188  1  0.95930000  0.71490000  0.91620000  1.0 -0.1653230743
C  C189  1  0.55310000  0.81090000  0.32390000  1.0 0.0631758926
C  C190  1  0.67940000  0.93260000  0.40650000  1.0 -0.1896458114
C  C191  1  0.57020000  0.94040000  0.33370000  1.0 0.1527066143
C  C192  1  0.70610000  0.60410000  0.39120000  1.0 0.2092446182
C  C193  1  0.89900000  0.89860000  0.07330000  1.0 -0.2088229656
C  C194  1  0.71560000  0.45200000  0.37810000  1.0 0.0792266993
C  C195  1  0.90700000  0.66260000  0.77150000  1.0 0.5603007022
C  C196  1  0.65970000  0.68990000  0.57360000  1.0 0.0861956148
C  C197  1  0.07100000  0.88080000  0.13330000  1.0 -0.1512821224
C  C198  1  0.27560000  0.97100000  0.15730000  1.0 0.5603007022
C  C199  1  0.18130000  0.96590000  0.07440000  1.0 -0.0998035833
C  C200  1  0.73610000  0.89710000  0.12550000  1.0 -0.1653230743
C  C201  1  0.05010000  0.90190000  0.07770000  1.0 0.0685065104
C  C202  1  0.97320000  0.88120000  0.05020000  1.0 0.0685065104
C  C203  1  0.66540000  0.92900000  0.14500000  1.0 -0.1200105952
C  C204  1  0.13890000  0.90510000  0.15780000  1.0 -0.0998035833
C  C205  1  0.67690000  0.01790000  0.40300000  1.0 -0.1200105952
C  C206  1  0.76170000  0.31590000  0.34830000  1.0 -0.131909314
C  C207  1  0.58120000  0.72520000  0.57220000  1.0 -0.2038026028
C  C208  1  0.59300000  0.72680000  0.67220000  1.0 -0.0917348759
C  C209  1  0.10840000  0.94360000  0.04910000  1.0 -0.1512821224
C  C210  1  0.56850000  0.02490000  0.33020000  1.0 -0.1623859362
C  C211  1  0.52430000  0.00330000  0.13330000  1.0 0.5603007022
C  C212  1  0.66820000  0.41540000  0.41850000  1.0 -0.1653230743
C  C213  1  0.62170000  0.06210000  0.36510000  1.0 -0.1066994972
C  C214  1  0.54490000  0.73690000  0.62070000  1.0 -0.0998035833
C  C215  1  0.72440000  0.28820000  0.38920000  1.0 -0.0998035833
C  C216  1  0.66360000  0.33440000  0.42180000  1.0 -0.0917348759
N  N1  1  0.36380000  0.21840000  0.11280000  1.0 -0.3221838133
N  N2  1  0.18810000  0.38590000  0.86500000  1.0 -0.0615825163
N  N3  1  0.46730000  0.26910000  0.86340000  1.0 -0.0404584644
N  N4  1  0.54320000  0.20160000  0.80620000  1.0 -0.3634941162
N  N5  1  0.11510000  0.47450000  0.80590000  1.0 -0.3460388439
N  N6  1  0.33390000  0.28850000  0.03390000  1.0 -0.0615825163
N  N7  1  0.21840000  0.36380000  0.38720000  1.0 -0.3221838133
N  N8  1  0.38590000  0.18810000  0.63500000  1.0 -0.0615825163
N  N9  1  0.26910000  0.46730000  0.63660000  1.0 -0.0404584644
N  N10  1  0.20160000  0.54320000  0.69380000  1.0 -0.3634941162
N  N11  1  0.47450000  0.11510000  0.69410000  1.0 -0.3460388439
N  N12  1  0.28850000  0.33390000  0.46610000  1.0 -0.0615825163
N  N13  1  0.63620000  0.78160000  0.88720000  1.0 -0.3221838133
N  N14  1  0.81190000  0.61410000  0.13500000  1.0 -0.0615825163
N  N15  1  0.53270000  0.73090000  0.13660000  1.0 -0.0404584644
N  N16  1  0.45680000  0.79840000  0.19380000  1.0 -0.3634941162
N  N17  1  0.88490000  0.52550000  0.19410000  1.0 -0.3460388439
N  N18  1  0.66610000  0.71150000  0.96610000  1.0 -0.0615825163
N  N19  1  0.78160000  0.63620000  0.61280000  1.0 -0.3221838133
N  N20  1  0.61410000  0.81190000  0.36500000  1.0 -0.0615825163
N  N21  1  0.73090000  0.53270000  0.36340000  1.0 -0.0404584644
N  N22  1  0.79840000  0.45680000  0.30620000  1.0 -0.3634941162
N  N23  1  0.52550000  0.88490000  0.30590000  1.0 -0.3460388439
N  N24  1  0.71150000  0.66610000  0.53390000  1.0 -0.0615825163
O  O1  1  0.39980000  0.04480000  0.26650000  1.0 -0.5632216888
O  O2  1  0.31380000  0.14460000  0.23400000  1.0 -0.5092652695
O  O3  1  0.97540000  0.68880000  0.63380000  1.0 -0.5413955705
O  O4  1  0.06690000  0.70350000  0.70180000  1.0 -0.5497858482
O  O5  1  0.94190000  0.51430000  0.60370000  1.0 -0.5239294128
O  O6  1  0.01420000  0.49380000  0.68170000  1.0 -0.5868124025
O  O7  1  0.15240000  0.65940000  0.80570000  1.0 -0.7825064914
O  O8  1  0.50760000  0.18240000  0.20630000  1.0 -0.4589371564
O  O9  1  0.04480000  0.39980000  0.23350000  1.0 -0.5632216888
O  O10  1  0.14460000  0.31380000  0.26600000  1.0 -0.5092652695
O  O11  1  0.68880000  0.97540000  0.86620000  1.0 -0.5413955705
O  O12  1  0.70350000  0.06690000  0.79820000  1.0 -0.5497858482
O  O13  1  0.51430000  0.94190000  0.89630000  1.0 -0.5239294128
O  O14  1  0.49380000  0.01420000  0.81830000  1.0 -0.5868124025
O  O15  1  0.65940000  0.15240000  0.69430000  1.0 -0.7825064914
O  O16  1  0.18240000  0.50760000  0.29370000  1.0 -0.4589371564
O  O17  1  0.60020000  0.95520000  0.73350000  1.0 -0.5632216888
O  O18  1  0.68620000  0.85540000  0.76600000  1.0 -0.5092652695
O  O19  1  0.02460000  0.31120000  0.36620000  1.0 -0.5413955705
O  O20  1  0.93310000  0.29650000  0.29820000  1.0 -0.5497858482
O  O21  1  0.05810000  0.48570000  0.39630000  1.0 -0.5239294128
O  O22  1  0.98580000  0.50620000  0.31830000  1.0 -0.5868124025
O  O23  1  0.84760000  0.34060000  0.19430000  1.0 -0.7825064914
O  O24  1  0.49240000  0.81760000  0.79370000  1.0 -0.4589371564
O  O25  1  0.95520000  0.60020000  0.76650000  1.0 -0.5632216888
O  O26  1  0.85540000  0.68620000  0.73400000  1.0 -0.5092652695
O  O27  1  0.31120000  0.02460000  0.13380000  1.0 -0.5413955705
O  O28  1  0.29650000  0.93310000  0.20180000  1.0 -0.5497858482
O  O29  1  0.48570000  0.05810000  0.10370000  1.0 -0.5239294128
O  O30  1  0.50620000  0.98580000  0.18170000  1.0 -0.5868124025
O  O31  1  0.34060000  0.84760000  0.30570000  1.0 -0.7825064914
O  O32  1  0.81760000  0.49240000  0.70630000  1.0 -0.4589371564
