# DDEC6 charges by PACMAN v1.1 (https://github.com/mtap-research/PACMAN-charge/)
data_ONOBUR_ASR_pacman
_symmetry_space_group_name_H-M   'P 1'
_cell_length_a   10.35080000
_cell_length_b   16.30260000
_cell_length_c   19.44350000
_cell_angle_alpha   94.39300000
_cell_angle_beta   101.76800000
_cell_angle_gamma   104.19100000
_symmetry_Int_Tables_number   1
_chemical_formula_structural   CdH22C36(NO)4
_chemical_formula_sum   'Cd3 H66 C108 N12 O12'
_cell_volume   3086.18620954
_cell_formula_units_Z   3
loop_
 _symmetry_equiv_pos_site_id
 _symmetry_equiv_pos_as_xyz
  1  'x, y, z'
loop_
 _atom_site_type_symbol
 _atom_site_label
 _atom_site_symmetry_multiplicity
 _atom_site_fract_x
 _atom_site_fract_y
 _atom_site_fract_z
 _atom_site_occupancy
 _atom_site_charge
Cd  Cd1  1  0.62882000  0.05004000  0.30277000  1.0 0.854811534
Cd  Cd2  1  0.37118000  0.94996000  0.69723000  1.0 0.854811534
Cd  Cd3  1  0.00000000  0.50000000  0.00000000  1.0 0.9208883492
H  H1  1  0.06489000  0.19291000  0.46697000  1.0 0.1194868747
H  H2  1  0.35423000  0.42567000  0.59838000  1.0 0.1127674726
H  H3  1  0.54948000  0.94922000  0.86665000  1.0 0.1127674726
H  H4  1  0.83225000  0.34611000  0.39545000  1.0 0.1194868747
H  H5  1  0.83433000  0.79272000  0.91505000  1.0 0.1455452217
H  H6  1  0.83424000  0.65644000  0.97515000  1.0 0.1272906975
H  H7  1  0.22079000  0.55044000  0.43986000  1.0 0.1194868747
H  H8  1  0.42564000  0.78514000  0.55166000  1.0 0.1194868747
H  H9  1  0.74308000  0.61825000  0.63693000  1.0 0.1127674726
H  H10  1  0.55823000  0.66666667  0.59024000  1.0 0.1194868747
H  H11  1  0.24383000  0.31007000  0.51748000  1.0 0.1194868747
H  H12  1  0.47743000  0.90313000  0.49355000  1.0 0.1272906975
H  H13  1  0.46341000  0.46146000  0.71642000  1.0 0.1194868747
H  H14  1  0.89476000  0.87919000  0.12158000  1.0 0.1399983772
H  H15  1  0.61406000  0.89556000  0.63545000  1.0 0.1455452217
H  H16  1  0.48250000  0.75138000  0.32245000  1.0 0.1127674726
H  H17  1  0.01183000  0.46345000  0.44400000  1.0 0.1127674726
H  H18  1  0.63202000  0.45826000  0.81266000  1.0 0.1194868747
H  H19  1  0.92820000  0.84016000  0.82565000  1.0 0.1194868747
H  H20  1  0.85732000  0.13237000  0.02231000  1.0 0.1194868747
H  H21  1  0.71898000  0.00210000  0.97214000  1.0 0.1399983772
H  H22  1  0.91292000  0.60671000  0.72932000  1.0 0.1194868747
H  H23  1  0.79175000  0.84057000  0.61617000  1.0 0.1194868747
H  H24  1  0.41411000  0.63322000  0.37792000  1.0 0.1127674726
H  H25  1  0.72837000  0.92786000  0.18031000  1.0 0.1194868747
H  H26  1  0.76178000  0.22113000  0.23835000  1.0 0.1399983772
H  H27  1  0.13371000  0.90300000  0.13676000  1.0 0.1194868747
H  H28  1  0.94786000  0.81625000  0.70968000  1.0 0.1194868747
H  H29  1  0.32972000  0.88669000  0.20857000  1.0 0.1127674726
H  H30  1  0.83933000  0.31835000  0.16623000  1.0 0.1272906975
H  H31  1  0.88151000  0.27503000  0.05928000  1.0 0.1047200372
H  H32  1  0.24793000  0.64091000  0.12402000  1.0 0.1399983772
H  H33  1  0.39204000  0.75932000  0.19936000  1.0 0.1194868747
H  H34  1  0.93511000  0.80709000  0.53303000  1.0 0.1194868747
H  H35  1  0.64577000  0.57433000  0.40162000  1.0 0.1127674726
H  H36  1  0.45052000  0.05078000  0.13335000  1.0 0.1127674726
H  H37  1  0.16775000  0.65389000  0.60455000  1.0 0.1194868747
H  H38  1  0.16567000  0.20728000  0.08495000  1.0 0.1455452217
H  H39  1  0.16576000  0.34356000  0.02485000  1.0 0.1272906975
H  H40  1  0.77921000  0.44956000  0.56014000  1.0 0.1194868747
H  H41  1  0.57436000  0.21486000  0.44834000  1.0 0.1194868747
H  H42  1  0.25692000  0.38175000  0.36307000  1.0 0.1127674726
H  H43  1  0.44177000  0.33333333  0.40976000  1.0 0.1194868747
H  H44  1  0.75617000  0.68993000  0.48252000  1.0 0.1194868747
H  H45  1  0.52257000  0.09687000  0.50645000  1.0 0.1272906975
H  H46  1  0.53659000  0.53854000  0.28358000  1.0 0.1194868747
H  H47  1  0.10524000  0.12081000  0.87842000  1.0 0.1399983772
H  H48  1  0.38594000  0.10444000  0.36455000  1.0 0.1455452217
H  H49  1  0.51750000  0.24862000  0.67755000  1.0 0.1127674726
H  H50  1  0.98817000  0.53655000  0.55600000  1.0 0.1127674726
H  H51  1  0.36798000  0.54174000  0.18734000  1.0 0.1194868747
H  H52  1  0.07180000  0.15984000  0.17435000  1.0 0.1194868747
H  H53  1  0.14268000  0.86763000  0.97769000  1.0 0.1194868747
H  H54  1  0.28102000  0.99790000  0.02786000  1.0 0.1399983772
H  H55  1  0.08708000  0.39329000  0.27068000  1.0 0.1194868747
H  H56  1  0.20825000  0.15943000  0.38383000  1.0 0.1194868747
H  H57  1  0.58589000  0.36678000  0.62208000  1.0 0.1127674726
H  H58  1  0.27163000  0.07214000  0.81969000  1.0 0.1194868747
H  H59  1  0.23822000  0.77887000  0.76165000  1.0 0.1399983772
H  H60  1  0.86629000  0.09700000  0.86324000  1.0 0.1194868747
H  H61  1  0.05214000  0.18375000  0.29032000  1.0 0.1194868747
H  H62  1  0.67028000  0.11331000  0.79143000  1.0 0.1127674726
H  H63  1  0.16067000  0.68165000  0.83377000  1.0 0.1272906975
H  H64  1  0.11849000  0.72497000  0.94072000  1.0 0.1047200372
H  H65  1  0.75207000  0.35909000  0.87598000  1.0 0.1399983772
H  H66  1  0.60796000  0.24068000  0.80064000  1.0 0.1194868747
C  C1  1  0.05430000  0.24730000  0.46210000  1.0 -0.1000006462
C  C2  1  0.26630000  0.47610000  0.51550000  1.0 0.0802486114
C  C3  1  0.36380000  0.47450000  0.57600000  1.0 -0.1963035727
C  C4  1  0.76770000  0.89760000  0.93200000  1.0 0.209412202
C  C5  1  0.81840000  0.18030000  0.38640000  1.0 0.5426003484
C  C6  1  0.59890000  0.93100000  0.83640000  1.0 0.1272906975
C  C7  1  0.91540000  0.33870000  0.41910000  1.0 -0.1000006462
C  C8  1  0.75660000  0.88140000  0.79940000  1.0 0.089273753
C  C9  1  0.41810000  0.69700000  0.47140000  1.0 0.0674662414
C  C10  1  0.92990000  0.25640000  0.42430000  1.0 -0.0260614126
C  C11  1  0.82730000  0.83260000  0.95000000  1.0 -0.268109739
C  C12  1  0.79840000  0.09210000  0.11070000  1.0 0.089273753
C  C13  1  0.91230000  0.68150000  0.01070000  1.0 0.1399983772
C  C14  1  0.58360000  0.54090000  0.66600000  1.0 0.0674662414
C  C15  1  0.76800000  0.11800000  0.17440000  1.0 0.1194868747
C  C16  1  0.47610000  0.54520000  0.60390000  1.0 0.0802486114
C  C17  1  0.28350000  0.54940000  0.48130000  1.0 -0.1875601562
C  C18  1  0.66370000  0.89830000  0.74230000  1.0 0.1399983772
C  C19  1  0.43580000  0.77810000  0.50530000  1.0 -0.1357922706
C  C20  1  0.72040000  0.58470000  0.67150000  1.0 -0.1522807407
C  C21  1  0.39340000  0.62060000  0.50880000  1.0 0.0802486114
C  C22  1  0.48700000  0.61830000  0.57070000  1.0 -0.1832417252
C  C23  1  0.16190000  0.31770000  0.49230000  1.0 -0.1522807407
C  C24  1  0.46860000  0.84910000  0.47080000  1.0 -0.0871598835
C  C25  1  0.55330000  0.49230000  0.71940000  1.0 -0.1522807407
C  C26  1  0.53100000  0.91650000  0.36620000  1.0 0.5520983783
C  C27  1  0.48840000  0.84000000  0.40240000  1.0 -0.0191234707
C  C28  1  0.86350000  0.88430000  0.07420000  1.0 -0.2833625081
C  C29  1  0.14910000  0.40020000  0.48550000  1.0 0.0674662414
C  C30  1  0.67560000  0.88400000  0.67300000  1.0 -0.1522807407
C  C31  1  0.46940000  0.75850000  0.36820000  1.0 -0.1000006462
C  C32  1  0.02300000  0.40910000  0.44860000  1.0 -0.1522807407
C  C33  1  0.87610000  0.82790000  0.02080000  1.0 0.209412202
C  C34  1  0.65480000  0.48930000  0.77660000  1.0 -0.1000006462
C  C35  1  0.86530000  0.85080000  0.78820000  1.0 -0.1963035727
C  C36  1  0.79020000  0.53170000  0.78120000  1.0 -0.0260614126
C  C37  1  0.83980000  0.14980000  0.06540000  1.0 -0.2103407683
C  C38  1  0.75650000  0.95740000  0.98430000  1.0 -0.2911048385
C  C39  1  0.80290000  0.94850000  0.05500000  1.0 0.209412202
C  C40  1  0.82220000  0.57890000  0.72750000  1.0 -0.1000006462
C  C41  1  0.90130000  0.52790000  0.84320000  1.0 0.5579954234
C  C42  1  0.78210000  0.85210000  0.66220000  1.0 -0.1000006462
C  C43  1  0.43120000  0.68760000  0.40210000  1.0 -0.1522807407
C  C44  1  0.06850000  0.77850000  0.09030000  1.0 0.089273753
C  C45  1  0.74480000  0.98330000  0.16900000  1.0 0.1194868747
C  C46  1  0.78190000  0.20350000  0.19610000  1.0 -0.1665926727
C  C47  1  0.15500000  0.85080000  0.13510000  1.0 -0.2103407683
C  C48  1  0.87590000  0.83670000  0.71890000  1.0 -0.0820095057
C  C49  1  0.10230000  0.70020000  0.08640000  1.0 0.1399983772
C  C50  1  0.27220000  0.84080000  0.17640000  1.0 -0.0871598835
C  C51  1  0.82650000  0.26040000  0.15260000  1.0 -0.0820095057
C  C52  1  0.85350000  0.23420000  0.08790000  1.0 -0.1000006462
C  C53  1  0.22430000  0.69230000  0.12700000  1.0 -0.1613070445
C  C54  1  0.30930000  0.76290000  0.17180000  1.0 -0.1000006462
C  C55  1  0.94570000  0.75270000  0.53790000  1.0 -0.1000006462
C  C56  1  0.73370000  0.52390000  0.48450000  1.0 0.0802486114
C  C57  1  0.63620000  0.52550000  0.42400000  1.0 -0.1963035727
C  C58  1  0.23230000  0.10240000  0.06800000  1.0 0.209412202
C  C59  1  0.18160000  0.81970000  0.61360000  1.0 0.5426003484
C  C60  1  0.40110000  0.06900000  0.16360000  1.0 0.1272906975
C  C61  1  0.08460000  0.66130000  0.58090000  1.0 -0.1000006462
C  C62  1  0.24340000  0.11860000  0.20060000  1.0 0.089273753
C  C63  1  0.58190000  0.30300000  0.52860000  1.0 0.0674662414
C  C64  1  0.07010000  0.74360000  0.57570000  1.0 -0.0260614126
C  C65  1  0.17270000  0.16740000  0.05000000  1.0 -0.268109739
C  C66  1  0.20160000  0.90790000  0.88930000  1.0 0.089273753
C  C67  1  0.08770000  0.31850000  0.98930000  1.0 0.1399983772
C  C68  1  0.41640000  0.45910000  0.33400000  1.0 0.0674662414
C  C69  1  0.23200000  0.88200000  0.82560000  1.0 0.1194868747
C  C70  1  0.52390000  0.45480000  0.39610000  1.0 0.0802486114
C  C71  1  0.71650000  0.45060000  0.51870000  1.0 -0.1875601562
C  C72  1  0.33630000  0.10170000  0.25770000  1.0 0.1399983772
C  C73  1  0.56420000  0.22190000  0.49470000  1.0 -0.1357922706
C  C74  1  0.27960000  0.41530000  0.32850000  1.0 -0.1522807407
C  C75  1  0.60660000  0.37940000  0.49120000  1.0 0.0802486114
C  C76  1  0.51300000  0.38170000  0.42930000  1.0 -0.1832417252
C  C77  1  0.83810000  0.68230000  0.50770000  1.0 -0.1522807407
C  C78  1  0.53140000  0.15090000  0.52920000  1.0 -0.0871598835
C  C79  1  0.44670000  0.50770000  0.28060000  1.0 -0.1522807407
C  C80  1  0.46900000  0.08350000  0.63380000  1.0 0.5520983783
C  C81  1  0.51160000  0.16000000  0.59760000  1.0 -0.0191234707
C  C82  1  0.13650000  0.11570000  0.92580000  1.0 -0.2833625081
C  C83  1  0.85090000  0.59980000  0.51450000  1.0 0.0674662414
C  C84  1  0.32440000  0.11600000  0.32700000  1.0 -0.1522807407
C  C85  1  0.53060000  0.24150000  0.63180000  1.0 -0.1000006462
C  C86  1  0.97700000  0.59090000  0.55140000  1.0 -0.1522807407
C  C87  1  0.12390000  0.17210000  0.97920000  1.0 0.209412202
C  C88  1  0.34520000  0.51070000  0.22340000  1.0 -0.1000006462
C  C89  1  0.13470000  0.14920000  0.21180000  1.0 -0.1963035727
C  C90  1  0.20980000  0.46830000  0.21880000  1.0 -0.0260614126
C  C91  1  0.16020000  0.85020000  0.93460000  1.0 -0.2103407683
C  C92  1  0.24350000  0.04260000  0.01570000  1.0 -0.2911048385
C  C93  1  0.19710000  0.05150000  0.94500000  1.0 0.209412202
C  C94  1  0.17780000  0.42110000  0.27250000  1.0 -0.1000006462
C  C95  1  0.09870000  0.47210000  0.15680000  1.0 0.5579954234
C  C96  1  0.21790000  0.14790000  0.33780000  1.0 -0.1000006462
C  C97  1  0.56880000  0.31240000  0.59790000  1.0 -0.1522807407
C  C98  1  0.93150000  0.22150000  0.90970000  1.0 0.089273753
C  C99  1  0.25520000  0.01670000  0.83100000  1.0 0.1194868747
C  C100  1  0.21810000  0.79650000  0.80390000  1.0 -0.1665926727
C  C101  1  0.84500000  0.14920000  0.86490000  1.0 -0.2103407683
C  C102  1  0.12410000  0.16330000  0.28110000  1.0 -0.0820095057
C  C103  1  0.89770000  0.29980000  0.91360000  1.0 0.1399983772
C  C104  1  0.72780000  0.15920000  0.82360000  1.0 -0.0871598835
C  C105  1  0.17350000  0.73960000  0.84740000  1.0 -0.0820095057
C  C106  1  0.14650000  0.76580000  0.91210000  1.0 -0.1000006462
C  C107  1  0.77570000  0.30770000  0.87300000  1.0 -0.1613070445
C  C108  1  0.69070000  0.23710000  0.82820000  1.0 -0.1000006462
N  N1  1  0.71260000  0.90390000  0.85950000  1.0 -0.0592975786
N  N2  1  0.56590000  0.92910000  0.76790000  1.0 -0.3387310706
N  N3  1  0.73220000  0.04720000  0.20900000  1.0 -0.3387310706
N  N4  1  0.94580000  0.76440000  0.04060000  1.0 -0.0657410103
N  N5  1  0.78440000  0.00570000  0.10910000  1.0 -0.0527954626
N  N6  1  0.00080000  0.64090000  0.03690000  1.0 -0.3387310706
N  N7  1  0.28740000  0.09610000  0.14050000  1.0 -0.0592975786
N  N8  1  0.43410000  0.07090000  0.23210000  1.0 -0.3387310706
N  N9  1  0.26780000  0.95280000  0.79100000  1.0 -0.3387310706
N  N10  1  0.05420000  0.23560000  0.95940000  1.0 -0.0657410103
N  N11  1  0.21560000  0.99430000  0.89090000  1.0 -0.0527954626
N  N12  1  0.99920000  0.35910000  0.96310000  1.0 -0.3387310706
O  O1  1  0.57620000  0.90680000  0.31053000  1.0 -0.5708419236
O  O2  1  0.83980000  0.10770000  0.38671000  1.0 -0.5248729738
O  O3  1  0.70760000  0.19140000  0.35239000  1.0 -0.5588325413
O  O4  1  0.86260000  0.51260000  0.89927000  1.0 -0.5812629315
O  O5  1  0.52330000  0.98750000  0.39101000  1.0 -0.5299457463
O  O6  1  0.01930000  0.53610000  0.83490000  1.0 -0.5588325413
O  O7  1  0.42380000  0.09320000  0.68947000  1.0 -0.5708419236
O  O8  1  0.16020000  0.89230000  0.61329000  1.0 -0.5248729738
O  O9  1  0.29240000  0.80860000  0.64761000  1.0 -0.5588325413
O  O10  1  0.13740000  0.48740000  0.10073000  1.0 -0.5812629315
O  O11  1  0.47670000  0.01250000  0.60899000  1.0 -0.5299457463
O  O12  1  0.98070000  0.46390000  0.16510000  1.0 -0.5588325413
