# DDEC6 charges by PACMAN v1.1 (https://github.com/mtap-research/PACMAN-charge/)
data_ONOCOM_FSR_pacman
_symmetry_space_group_name_H-M   'P 1'
_cell_length_a   16.36860000
_cell_length_b   16.36860000
_cell_length_c   24.73100000
_cell_angle_alpha   87.30250000
_cell_angle_beta   92.69750000
_cell_angle_gamma   86.62640000
_symmetry_Int_Tables_number   1
_chemical_formula_structural   CdC27N3O4
_chemical_formula_sum   'Cd8 C216 N24 O32'
_cell_volume   6599.13484133
_cell_formula_units_Z   8
loop_
 _symmetry_equiv_pos_site_id
 _symmetry_equiv_pos_as_xyz
  1  'x, y, z'
loop_
 _atom_site_type_symbol
 _atom_site_label
 _atom_site_symmetry_multiplicity
 _atom_site_fract_x
 _atom_site_fract_y
 _atom_site_fract_z
 _atom_site_occupancy
 _atom_site_charge
Cd  Cd1  1  0.40213000  0.10851000  0.67129000  1.0 0.9796874339
Cd  Cd2  1  0.08661000  0.57543000  0.24148000  1.0 0.9796874339
Cd  Cd3  1  0.10851000  0.40213000  0.82871000  1.0 0.9796874339
Cd  Cd4  1  0.57543000  0.08661000  0.25852000  1.0 0.9796874339
Cd  Cd5  1  0.59787000  0.89149000  0.32871000  1.0 0.9796874339
Cd  Cd6  1  0.91339000  0.42457000  0.75852000  1.0 0.9796874339
Cd  Cd7  1  0.89149000  0.59787000  0.17129000  1.0 0.9796874339
Cd  Cd8  1  0.42457000  0.91339000  0.74148000  1.0 0.9796874339
C  C1  1  0.40030000  0.28010000  0.44860000  1.0 -0.2384394935
C  C2  1  0.90250000  0.82530000  0.47250000  1.0 0.0483283514
C  C3  1  0.07050000  0.87930000  0.63120000  1.0 -0.0470556612
C  C4  1  0.27270000  0.96810000  0.65690000  1.0 0.6259715
C  C5  1  0.25990000  0.34750000  0.39590000  1.0 0.2260375509
C  C6  1  0.18710000  0.44670000  0.32410000  1.0 0.087730178
C  C7  1  0.95690000  0.67450000  0.36780000  1.0 0.0227787871
C  C8  1  0.90810000  0.70610000  0.32370000  1.0 -0.0470556612
C  C9  1  0.10440000  0.37020000  0.37240000  1.0 0.1133127289
C  C10  1  0.36430000  0.21530000  0.56010000  1.0 0.1387177521
C  C11  1  0.33140000  0.30400000  0.47640000  1.0 0.222837567
C  C12  1  0.25630000  0.33590000  0.45290000  1.0 -0.2562641053
C  C13  1  0.97610000  0.84530000  0.49970000  1.0 -0.0470556612
C  C14  1  0.18230000  0.96390000  0.57430000  1.0 0.0310568395
C  C15  1  0.46920000  0.21740000  0.32270000  1.0 0.0682332831
C  C16  1  0.85520000  0.81620000  0.37670000  1.0 -0.0226641471
C  C17  1  0.90370000  0.66070000  0.27010000  1.0 0.5959062019
C  C18  1  0.82860000  0.84600000  0.49460000  1.0 -0.0827260519
C  C19  1  0.19440000  0.94980000  0.63000000  1.0 -0.0880766584
C  C20  1  0.85650000  0.77690000  0.32840000  1.0 0.0602290475
C  C21  1  0.30730000  0.34070000  0.57480000  1.0 0.087730178
C  C22  1  0.67930000  0.93430000  0.53600000  1.0 -0.0391585561
C  C23  1  0.32490000  0.32450000  0.36420000  1.0 -0.2507937767
C  C24  1  0.54810000  0.28210000  0.37910000  1.0 0.1005099101
C  C25  1  0.31070000  0.32870000  0.67380000  1.0 -0.0311257007
C  C26  1  0.05910000  0.42810000  0.33630000  1.0 0.1387177521
C  C27  1  0.60120000  0.96400000  0.61030000  1.0 -0.0391585561
C  C28  1  0.61070000  0.96350000  0.55650000  1.0 -0.0226641471
C  C29  1  0.14040000  0.89920000  0.65700000  1.0 0.0400304051
C  C30  1  0.27700000  0.40700000  0.67220000  1.0 0.0310568395
C  C31  1  0.83030000  0.88230000  0.54630000  1.0 0.0602290475
C  C32  1  0.67730000  0.24350000  0.34770000  1.0 -0.0226641471
C  C33  1  0.74140000  0.90100000  0.62540000  1.0 0.0227787871
C  C34  1  0.39540000  0.29400000  0.39340000  1.0 0.2260375509
C  C35  1  0.52570000  0.00190000  0.63590000  1.0 0.6071900466
C  C36  1  0.90250000  0.78750000  0.42290000  1.0 0.0682332831
C  C37  1  0.74860000  0.90540000  0.56730000  1.0 0.087730178
C  C38  1  0.26800000  0.41840000  0.57240000  1.0 -0.1152918151
C  C39  1  0.97400000  0.43100000  0.33230000  1.0 -0.0470556612
C  C40  1  0.97610000  0.32170000  0.40170000  1.0 0.080126046
C  C41  1  0.90030000  0.89890000  0.57300000  1.0 -0.0574941447
C  C42  1  0.97340000  0.88080000  0.54960000  1.0 0.080126046
C  C43  1  0.95960000  0.71640000  0.41590000  1.0 0.0310568395
C  C44  1  0.93660000  0.38120000  0.36550000  1.0 0.0106450709
C  C45  1  0.04860000  0.90180000  0.57820000  1.0 0.0682332831
C  C46  1  0.10710000  0.94370000  0.55290000  1.0 -0.0391585561
C  C47  1  0.06650000  0.31550000  0.40690000  1.0 -0.1613239508
C  C48  1  0.32980000  0.29700000  0.62420000  1.0 0.1307304391
C  C49  1  0.25150000  0.45190000  0.62170000  1.0 0.0602290475
C  C50  1  0.66666667  0.93070000  0.64650000  1.0 0.0602290475
C  C51  1  0.58040000  0.33080000  0.41790000  1.0 -0.129011493
C  C52  1  0.59100000  0.23900000  0.34050000  1.0 0.1584274621
C  C53  1  0.66240000  0.33300000  0.42180000  1.0 0.0602290475
C  C54  1  0.71550000  0.28170000  0.39340000  1.0 0.0310568395
C  C55  1  0.28010000  0.40030000  0.05140000  1.0 -0.2384394935
C  C56  1  0.82530000  0.90250000  0.02750000  1.0 0.0483283514
C  C57  1  0.87930000  0.07050000  0.86880000  1.0 -0.0470556612
C  C58  1  0.96810000  0.27270000  0.84310000  1.0 0.6259715
C  C59  1  0.34750000  0.25990000  0.10410000  1.0 0.222837567
C  C60  1  0.44670000  0.18710000  0.17590000  1.0 0.087730178
C  C61  1  0.67450000  0.95690000  0.13220000  1.0 0.0227787871
C  C62  1  0.70610000  0.90810000  0.17630000  1.0 -0.0470556612
C  C63  1  0.37020000  0.10440000  0.12760000  1.0 0.1133127289
C  C64  1  0.21530000  0.36430000  0.93990000  1.0 0.1387177521
C  C65  1  0.30400000  0.33140000  0.02360000  1.0 0.222837567
C  C66  1  0.33590000  0.25630000  0.04710000  1.0 -0.2562641053
C  C67  1  0.84530000  0.97610000  0.00030000  1.0 -0.0470556612
C  C68  1  0.96390000  0.18230000  0.92570000  1.0 0.0310568395
C  C69  1  0.21740000  0.46920000  0.17730000  1.0 0.0682332831
C  C70  1  0.81620000  0.85520000  0.12330000  1.0 -0.0226641471
C  C71  1  0.66070000  0.90370000  0.22990000  1.0 0.5959062019
C  C72  1  0.84600000  0.82860000  0.00540000  1.0 -0.0827260519
C  C73  1  0.94980000  0.19440000  0.87000000  1.0 -0.0880766584
C  C74  1  0.77690000  0.85650000  0.17160000  1.0 0.0602290475
C  C75  1  0.34070000  0.30730000  0.92520000  1.0 0.087730178
C  C76  1  0.93430000  0.67930000  0.96400000  1.0 -0.0470556612
C  C77  1  0.32450000  0.32490000  0.13580000  1.0 -0.2507937767
C  C78  1  0.28210000  0.54810000  0.12090000  1.0 0.1005099101
C  C79  1  0.32870000  0.31070000  0.82620000  1.0 -0.0311257007
C  C80  1  0.42810000  0.05910000  0.16370000  1.0 0.1387177521
C  C81  1  0.96400000  0.60120000  0.88970000  1.0 -0.0391585561
C  C82  1  0.96350000  0.61070000  0.94350000  1.0 -0.0226641471
C  C83  1  0.89920000  0.14040000  0.84300000  1.0 0.0400304051
C  C84  1  0.40700000  0.27700000  0.82780000  1.0 0.0310568395
C  C85  1  0.88230000  0.83030000  0.95370000  1.0 0.0602290475
C  C86  1  0.24350000  0.67730000  0.15230000  1.0 -0.0311257007
C  C87  1  0.90100000  0.74140000  0.87460000  1.0 0.0227787871
C  C88  1  0.29400000  0.39540000  0.10660000  1.0 0.2260375509
C  C89  1  0.00190000  0.52570000  0.86410000  1.0 0.6071900466
C  C90  1  0.78750000  0.90250000  0.07710000  1.0 0.0682332831
C  C91  1  0.90540000  0.74860000  0.93270000  1.0 0.087730178
C  C92  1  0.41840000  0.26800000  0.92760000  1.0 -0.1145229301
C  C93  1  0.43100000  0.97400000  0.16770000  1.0 -0.0470556612
C  C94  1  0.32170000  0.97610000  0.09830000  1.0 0.080126046
C  C95  1  0.89890000  0.90030000  0.92700000  1.0 -0.0574941447
C  C96  1  0.88080000  0.97340000  0.95040000  1.0 0.080126046
C  C97  1  0.71640000  0.95960000  0.08410000  1.0 0.0310568395
C  C98  1  0.38120000  0.93660000  0.13450000  1.0 0.0106450709
C  C99  1  0.90180000  0.04860000  0.92180000  1.0 0.0682332831
C  C100  1  0.94370000  0.10710000  0.94710000  1.0 -0.0311257007
C  C101  1  0.31550000  0.06650000  0.09310000  1.0 -0.1613239508
C  C102  1  0.29700000  0.32980000  0.87580000  1.0 0.1307304391
C  C103  1  0.45190000  0.25150000  0.87830000  1.0 0.0602290475
C  C104  1  0.93070000  0.66666667  0.85350000  1.0 0.0602290475
C  C105  1  0.33080000  0.58040000  0.08210000  1.0 -0.129011493
C  C106  1  0.23900000  0.59100000  0.15950000  1.0 0.1584274621
C  C107  1  0.33300000  0.66240000  0.07820000  1.0 0.0602290475
C  C108  1  0.28170000  0.71550000  0.10660000  1.0 0.0227787871
C  C109  1  0.59970000  0.71990000  0.55140000  1.0 -0.2384394935
C  C110  1  0.09750000  0.17470000  0.52750000  1.0 0.0483283514
C  C111  1  0.92950000  0.12070000  0.36880000  1.0 -0.0470556612
C  C112  1  0.72730000  0.03190000  0.34310000  1.0 0.6259715
C  C113  1  0.74010000  0.65250000  0.60410000  1.0 0.2260375509
C  C114  1  0.81290000  0.55330000  0.67590000  1.0 0.080126046
C  C115  1  0.04310000  0.32550000  0.63220000  1.0 0.0227787871
C  C116  1  0.09190000  0.29390000  0.67630000  1.0 -0.0470556612
C  C117  1  0.89560000  0.62980000  0.62760000  1.0 0.1133127289
C  C118  1  0.63570000  0.78470000  0.43990000  1.0 0.1387177521
C  C119  1  0.66860000  0.69600000  0.52360000  1.0 0.222837567
C  C120  1  0.74370000  0.66410000  0.54710000  1.0 -0.2562641053
C  C121  1  0.02390000  0.15470000  0.50030000  1.0 -0.0470556612
C  C122  1  0.81770000  0.03610000  0.42570000  1.0 0.0310568395
C  C123  1  0.53080000  0.78260000  0.67730000  1.0 0.0682332831
C  C124  1  0.14480000  0.18380000  0.62330000  1.0 -0.0226641471
C  C125  1  0.09630000  0.33930000  0.72990000  1.0 0.5959062019
C  C126  1  0.17140000  0.15400000  0.50540000  1.0 -0.0827260519
C  C127  1  0.80560000  0.05020000  0.37000000  1.0 -0.0880766584
C  C128  1  0.14350000  0.22310000  0.67160000  1.0 0.0602290475
C  C129  1  0.69270000  0.65930000  0.42520000  1.0 0.087730178
C  C130  1  0.32070000  0.06570000  0.46400000  1.0 -0.0470556612
C  C131  1  0.67510000  0.67550000  0.63580000  1.0 -0.2507937767
C  C132  1  0.45190000  0.71790000  0.62090000  1.0 0.1005099101
C  C133  1  0.68930000  0.67130000  0.32620000  1.0 -0.0311257007
C  C134  1  0.94090000  0.57190000  0.66370000  1.0 0.1387177521
C  C135  1  0.39880000  0.03600000  0.38970000  1.0 -0.0391585561
C  C136  1  0.38930000  0.03650000  0.44350000  1.0 -0.0226641471
C  C137  1  0.85960000  0.10080000  0.34300000  1.0 0.0400304051
C  C138  1  0.72300000  0.59300000  0.32780000  1.0 0.0310568395
C  C139  1  0.16970000  0.11770000  0.45370000  1.0 0.0602290475
C  C140  1  0.32270000  0.75650000  0.65230000  1.0 -0.0311257007
C  C141  1  0.25860000  0.09900000  0.37460000  1.0 0.0227787871
C  C142  1  0.60460000  0.70600000  0.60660000  1.0 0.222837567
C  C143  1  0.47430000  0.99810000  0.36410000  1.0 0.6071900466
C  C144  1  0.09750000  0.21250000  0.57710000  1.0 0.0682332831
C  C145  1  0.25140000  0.09460000  0.43270000  1.0 0.087730178
C  C146  1  0.73200000  0.58160000  0.42760000  1.0 -0.1152918151
C  C147  1  0.02600000  0.56900000  0.66770000  1.0 -0.0470556612
C  C148  1  0.02390000  0.67830000  0.59830000  1.0 0.080126046
C  C149  1  0.09970000  0.10110000  0.42700000  1.0 -0.0574941447
C  C150  1  0.02660000  0.11920000  0.45040000  1.0 0.080126046
C  C151  1  0.04040000  0.28360000  0.58410000  1.0 0.0310568395
C  C152  1  0.06340000  0.61880000  0.63450000  1.0 0.0106450709
C  C153  1  0.95140000  0.09820000  0.42180000  1.0 0.0682332831
C  C154  1  0.89290000  0.05630000  0.44710000  1.0 -0.0311257007
C  C155  1  0.93350000  0.68450000  0.59310000  1.0 -0.1541510334
C  C156  1  0.67020000  0.70300000  0.37580000  1.0 0.1307304391
C  C157  1  0.74850000  0.54810000  0.37830000  1.0 0.0602290475
C  C158  1  0.33333333  0.06930000  0.35350000  1.0 0.0602290475
C  C159  1  0.41960000  0.66920000  0.58210000  1.0 -0.129011493
C  C160  1  0.40900000  0.76100000  0.65950000  1.0 0.1584274621
C  C161  1  0.33760000  0.66700000  0.57820000  1.0 0.0602290475
C  C162  1  0.28450000  0.71830000  0.60660000  1.0 0.0310568395
C  C163  1  0.71990000  0.59970000  0.94860000  1.0 -0.2384394935
C  C164  1  0.17470000  0.09750000  0.97250000  1.0 0.0483283514
C  C165  1  0.12070000  0.92950000  0.13120000  1.0 -0.0470556612
C  C166  1  0.03190000  0.72730000  0.15690000  1.0 0.6259715
C  C167  1  0.65250000  0.74010000  0.89590000  1.0 0.222837567
C  C168  1  0.55330000  0.81290000  0.82410000  1.0 0.087730178
C  C169  1  0.32550000  0.04310000  0.86780000  1.0 0.0227787871
C  C170  1  0.29390000  0.09190000  0.82370000  1.0 -0.0470556612
C  C171  1  0.62980000  0.89560000  0.87240000  1.0 0.1133127289
C  C172  1  0.78470000  0.63570000  0.06010000  1.0 0.1387177521
C  C173  1  0.69600000  0.66860000  0.97640000  1.0 0.222837567
C  C174  1  0.66410000  0.74370000  0.95290000  1.0 -0.2562641053
C  C175  1  0.15470000  0.02390000  0.99970000  1.0 -0.0470556612
C  C176  1  0.03610000  0.81770000  0.07430000  1.0 0.0310568395
C  C177  1  0.78260000  0.53080000  0.82270000  1.0 0.0682332831
C  C178  1  0.18380000  0.14480000  0.87670000  1.0 -0.0226641471
C  C179  1  0.33930000  0.09630000  0.77010000  1.0 0.5959062019
C  C180  1  0.15400000  0.17140000  0.99460000  1.0 -0.0827260519
C  C181  1  0.05020000  0.80560000  0.13000000  1.0 -0.0880766584
C  C182  1  0.22310000  0.14350000  0.82840000  1.0 0.0602290475
C  C183  1  0.65930000  0.69270000  0.07480000  1.0 0.087730178
C  C184  1  0.06570000  0.32070000  0.03600000  1.0 -0.0391585561
C  C185  1  0.67550000  0.67510000  0.86420000  1.0 -0.2562641053
C  C186  1  0.71790000  0.45190000  0.87910000  1.0 0.1005099101
C  C187  1  0.67130000  0.68930000  0.17380000  1.0 -0.0311257007
C  C188  1  0.57190000  0.94090000  0.83630000  1.0 0.1387177521
C  C189  1  0.03600000  0.39880000  0.11030000  1.0 -0.0391585561
C  C190  1  0.03650000  0.38930000  0.05650000  1.0 -0.0226641471
C  C191  1  0.10080000  0.85960000  0.15700000  1.0 0.0400304051
C  C192  1  0.59300000  0.72300000  0.17220000  1.0 0.0310568395
C  C193  1  0.11770000  0.16970000  0.04630000  1.0 0.0602290475
C  C194  1  0.75650000  0.32270000  0.84770000  1.0 -0.0311257007
C  C195  1  0.09900000  0.25860000  0.12540000  1.0 0.0227787871
C  C196  1  0.70600000  0.60460000  0.89340000  1.0 0.2260375509
C  C197  1  0.99810000  0.47430000  0.13590000  1.0 0.6071900466
C  C198  1  0.21250000  0.09750000  0.92290000  1.0 0.0682332831
C  C199  1  0.09460000  0.25140000  0.06730000  1.0 0.087730178
C  C200  1  0.58160000  0.73200000  0.07240000  1.0 -0.1145229301
C  C201  1  0.56900000  0.02600000  0.83230000  1.0 -0.0470556612
C  C202  1  0.67830000  0.02390000  0.90170000  1.0 0.080126046
C  C203  1  0.10110000  0.09970000  0.07300000  1.0 -0.0574941447
C  C204  1  0.11920000  0.02660000  0.04960000  1.0 0.080126046
C  C205  1  0.28360000  0.04040000  0.91590000  1.0 0.0310568395
C  C206  1  0.61880000  0.06340000  0.86550000  1.0 0.0106450709
C  C207  1  0.09820000  0.95140000  0.07820000  1.0 0.0682332831
C  C208  1  0.05630000  0.89290000  0.05290000  1.0 -0.0391585561
C  C209  1  0.68450000  0.93350000  0.90690000  1.0 -0.1613239508
C  C210  1  0.70300000  0.67020000  0.12420000  1.0 0.1307304391
C  C211  1  0.54810000  0.74850000  0.12170000  1.0 0.0602290475
C  C212  1  0.06930000  0.33333333  0.14650000  1.0 0.0602290475
C  C213  1  0.66920000  0.41960000  0.91790000  1.0 -0.129011493
C  C214  1  0.76100000  0.40900000  0.84050000  1.0 0.1584274621
C  C215  1  0.66700000  0.33760000  0.92180000  1.0 0.0602290475
C  C216  1  0.71830000  0.28450000  0.89340000  1.0 0.0310568395
N  N1  1  0.18510000  0.38530000  0.36480000  1.0 -0.0470556612
N  N2  1  0.33420000  0.28880000  0.53330000  1.0 -0.0470556612
N  N3  1  0.36440000  0.21960000  0.61300000  1.0 -0.3221550768
N  N4  1  0.46680000  0.26900000  0.36310000  1.0 -0.0391585561
N  N5  1  0.11620000  0.46940000  0.30780000  1.0 -0.3015481152
N  N6  1  0.54270000  0.20330000  0.30510000  1.0 -0.3015481152
N  N7  1  0.38530000  0.18510000  0.13520000  1.0 -0.0470556612
N  N8  1  0.28880000  0.33420000  0.96670000  1.0 -0.0470556612
N  N9  1  0.21960000  0.36440000  0.88700000  1.0 -0.3221550768
N  N10  1  0.26900000  0.46680000  0.13690000  1.0 -0.0311257007
N  N11  1  0.46940000  0.11620000  0.19220000  1.0 -0.3050607702
N  N12  1  0.20330000  0.54270000  0.19490000  1.0 -0.3015481152
N  N13  1  0.81490000  0.61470000  0.63520000  1.0 -0.0470556612
N  N14  1  0.66580000  0.71120000  0.46670000  1.0 -0.0391585561
N  N15  1  0.63560000  0.78040000  0.38700000  1.0 -0.3221550768
N  N16  1  0.53320000  0.73100000  0.63690000  1.0 -0.0391585561
N  N17  1  0.88380000  0.53060000  0.69220000  1.0 -0.3015481152
N  N18  1  0.45730000  0.79670000  0.69490000  1.0 -0.3015481152
N  N19  1  0.61470000  0.81490000  0.86480000  1.0 -0.0470556612
N  N20  1  0.71120000  0.66580000  0.03330000  1.0 -0.0470556612
N  N21  1  0.78040000  0.63560000  0.11300000  1.0 -0.3221550768
N  N22  1  0.73100000  0.53320000  0.86310000  1.0 -0.0391585561
N  N23  1  0.53060000  0.88380000  0.80780000  1.0 -0.3015481152
N  N24  1  0.79670000  0.45730000  0.80510000  1.0 -0.3015481152
O  O1  1  0.29840000  0.93320000  0.70350000  1.0 -0.5213245114
O  O2  1  0.95470000  0.60030000  0.26620000  1.0 -0.5322681626
O  O3  1  0.85470000  0.68570000  0.23620000  1.0 -0.4425110554
O  O4  1  0.31020000  0.02680000  0.63460000  1.0 -0.5513080617
O  O5  1  0.50750000  0.18810000  0.70490000  1.0 -0.2562641053
O  O6  1  0.48540000  0.06100000  0.60550000  1.0 -0.5213245114
O  O7  1  0.15500000  0.65480000  0.30450000  1.0 -0.2507937767
O  O8  1  0.50680000  0.98540000  0.68160000  1.0 -0.5213245114
O  O9  1  0.93320000  0.29840000  0.79650000  1.0 -0.5213245114
O  O10  1  0.60030000  0.95470000  0.23380000  1.0 -0.5322681626
O  O11  1  0.68570000  0.85470000  0.26380000  1.0 -0.4425110554
O  O12  1  0.02680000  0.31020000  0.86540000  1.0 -0.5513080617
O  O13  1  0.18810000  0.50750000  0.79510000  1.0 -0.2507937767
O  O14  1  0.06100000  0.48540000  0.89450000  1.0 -0.5213245114
O  O15  1  0.65480000  0.15500000  0.19550000  1.0 -0.2562641053
O  O16  1  0.98540000  0.50680000  0.81840000  1.0 -0.5213245114
O  O17  1  0.70160000  0.06680000  0.29650000  1.0 -0.5213245114
O  O18  1  0.04530000  0.39970000  0.73380000  1.0 -0.5322681626
O  O19  1  0.14530000  0.31430000  0.76380000  1.0 -0.4425110554
O  O20  1  0.68980000  0.97320000  0.36540000  1.0 -0.5513080617
O  O21  1  0.49250000  0.81190000  0.29510000  1.0 -0.2562641053
O  O22  1  0.51460000  0.93900000  0.39450000  1.0 -0.5120913943
O  O23  1  0.84500000  0.34520000  0.69550000  1.0 -0.2384394935
O  O24  1  0.49320000  0.01460000  0.31840000  1.0 -0.5213245114
O  O25  1  0.06680000  0.70160000  0.20350000  1.0 -0.5213245114
O  O26  1  0.39970000  0.04530000  0.76620000  1.0 -0.5322681626
O  O27  1  0.31430000  0.14530000  0.73620000  1.0 -0.4425110554
O  O28  1  0.97320000  0.68980000  0.13460000  1.0 -0.5513080617
O  O29  1  0.81190000  0.49250000  0.20490000  1.0 -0.2507937767
O  O30  1  0.93900000  0.51460000  0.10550000  1.0 -0.5213245114
O  O31  1  0.34520000  0.84500000  0.80450000  1.0 -0.2507937767
O  O32  1  0.01460000  0.49320000  0.18160000  1.0 -0.5213245114
