# DDEC6 charges by PACMAN v1.1 (https://github.com/mtap-research/PACMAN-charge/)
data_ONOCAY_ion_pacman
_symmetry_space_group_name_H-M   'P 1'
_cell_length_a   16.27640000
_cell_length_b   16.27640000
_cell_length_c   24.79400000
_cell_angle_alpha   87.08540000
_cell_angle_beta   92.91460000
_cell_angle_gamma   86.92800000
_symmetry_Int_Tables_number   1
_chemical_formula_structural   Cd4H74C108I3(N3O4)4
_chemical_formula_sum   'Cd8 H148 C216 I6 N24 O32'
_cell_volume   6541.07426264
_cell_formula_units_Z   2
loop_
 _symmetry_equiv_pos_site_id
 _symmetry_equiv_pos_as_xyz
  1  'x, y, z'
loop_
 _atom_site_type_symbol
 _atom_site_label
 _atom_site_symmetry_multiplicity
 _atom_site_fract_x
 _atom_site_fract_y
 _atom_site_fract_z
 _atom_site_occupancy
 _atom_site_charge
Cd  Cd1  1  0.59724000  0.89070000  0.32815000  1.0 0.9069551323
Cd  Cd2  1  0.57450000  0.08632000  0.25876000  1.0 0.9675517176
Cd  Cd3  1  0.89070000  0.59724000  0.17185000  1.0 0.9069551323
Cd  Cd4  1  0.08632000  0.57450000  0.24124000  1.0 0.9675517176
Cd  Cd5  1  0.40276000  0.10930000  0.67185000  1.0 0.9069551323
Cd  Cd6  1  0.42550000  0.91368000  0.74124000  1.0 0.9675517176
Cd  Cd7  1  0.10930000  0.40276000  0.82815000  1.0 0.9069551323
Cd  Cd8  1  0.91368000  0.42550000  0.75876000  1.0 0.9675517176
H  H1  1  0.65296000  0.14402000  0.14599000  1.0 0.3859274183
H  H2  1  0.70554000  0.19304000  0.19726000  1.0 0.3977977653
H  H3  1  0.43472000  0.83134000  0.28383000  1.0 0.408183137
H  H4  1  0.49568000  0.75576000  0.28434000  1.0 0.3977977653
H  H5  1  0.43630000  0.01820000  0.46708000  1.0 0.1279500775
H  H6  1  0.97460000  0.16180000  0.51671000  1.0 0.1191483353
H  H7  1  0.78573000  0.64351000  0.53118000  1.0 0.1386057855
H  H8  1  0.10470000  0.07522000  0.39600000  1.0 0.1279500775
H  H9  1  0.01714000  0.38098000  0.63156000  1.0 0.109439443
H  H10  1  0.67078000  0.66846000  0.66972000  1.0 0.1279500775
H  H11  1  0.60968000  0.82946000  0.45448000  1.0 0.1191483353
H  H12  1  0.22229000  0.16271000  0.52761000  1.0 0.1028562505
H  H13  1  0.32010000  0.05958000  0.50634000  1.0 0.109439443
H  H14  1  0.21906000  0.11378000  0.35581000  1.0 0.1028562505
H  H15  1  0.90751000  0.71955000  0.56731000  1.0 0.1191483353
H  H16  1  0.00171000  0.30149000  0.55416000  1.0 0.109439443
H  H17  1  0.55573000  0.75137000  0.53238000  1.0 0.1386057855
H  H18  1  0.75655000  0.53639000  0.69070000  1.0 0.1191483353
H  H19  1  0.18278000  0.20656000  0.69907000  1.0 0.1279500775
H  H20  1  0.33759000  0.07901000  0.31960000  1.0 0.109439443
H  H21  1  0.57458000  0.80238000  0.69272000  1.0 0.109439443
H  H22  1  0.89339000  0.04299000  0.48351000  1.0 0.1279500775
H  H23  1  0.05061000  0.70333000  0.57059000  1.0 0.109439443
H  H24  1  0.17461000  0.13743000  0.62617000  1.0 0.1191483353
H  H25  1  0.85696000  0.11304000  0.30325000  1.0 0.1191483353
H  H26  1  0.77691000  0.01399000  0.43813000  1.0 0.1191483353
H  H27  1  0.97781000  0.12823000  0.34438000  1.0 0.109439443
H  H28  1  0.11178000  0.63204000  0.64555000  1.0 0.109439443
H  H29  1  0.27655000  0.77971000  0.68144000  1.0 0.1191483353
H  H30  1  0.05866000  0.53530000  0.69191000  1.0 0.1386057855
H  H31  1  0.44424000  0.65164000  0.55492000  1.0 0.1191483353
H  H32  1  0.22611000  0.71837000  0.60268000  1.0 0.109439443
H  H33  1  0.69083000  0.69867000  0.29672000  1.0 0.1279500775
H  H34  1  0.74645000  0.54709000  0.45707000  1.0 0.1279500775
H  H35  1  0.29695000  0.66003000  0.54507000  1.0 0.1191483353
H  H36  1  0.76601000  0.49855000  0.38484000  1.0 0.1191483353
H  H37  1  0.72389000  0.55467000  0.29526000  1.0 0.0883460949
H  H38  1  0.14402000  0.65296000  0.35401000  1.0 0.3859274183
H  H39  1  0.19304000  0.70554000  0.30274000  1.0 0.3977977653
H  H40  1  0.83134000  0.43472000  0.21617000  1.0 0.408183137
H  H41  1  0.75576000  0.49568000  0.21566000  1.0 0.3977977653
H  H42  1  0.01820000  0.43630000  0.03292000  1.0 0.1279500775
H  H43  1  0.16180000  0.97460000  0.98329000  1.0 0.1279500775
H  H44  1  0.64351000  0.78573000  0.96882000  1.0 0.1386057855
H  H45  1  0.07522000  0.10470000  0.10400000  1.0 0.1279500775
H  H46  1  0.38098000  0.01714000  0.86844000  1.0 0.109439443
H  H47  1  0.66846000  0.67078000  0.83028000  1.0 0.1279500775
H  H48  1  0.82946000  0.60968000  0.04552000  1.0 0.1191483353
H  H49  1  0.16271000  0.22229000  0.97239000  1.0 0.1028562505
H  H50  1  0.05958000  0.32010000  0.99366000  1.0 0.109439443
H  H51  1  0.11378000  0.21906000  0.14419000  1.0 0.1028562505
H  H52  1  0.71955000  0.90751000  0.93269000  1.0 0.1191483353
H  H53  1  0.30149000  0.00171000  0.94584000  1.0 0.109439443
H  H54  1  0.75137000  0.55573000  0.96762000  1.0 0.1279500775
H  H55  1  0.53639000  0.75655000  0.80930000  1.0 0.1191483353
H  H56  1  0.20656000  0.18278000  0.80093000  1.0 0.1279500775
H  H57  1  0.07901000  0.33759000  0.18040000  1.0 0.109439443
H  H58  1  0.80238000  0.57458000  0.80728000  1.0 0.109439443
H  H59  1  0.04299000  0.89339000  0.01649000  1.0 0.1279500775
H  H60  1  0.70333000  0.05061000  0.92941000  1.0 0.109439443
H  H61  1  0.13743000  0.17461000  0.87383000  1.0 0.1191483353
H  H62  1  0.11304000  0.85696000  0.19675000  1.0 0.1191483353
H  H63  1  0.01399000  0.77691000  0.06187000  1.0 0.1191483353
H  H64  1  0.12823000  0.97781000  0.15562000  1.0 0.109439443
H  H65  1  0.63204000  0.11178000  0.85445000  1.0 0.109439443
H  H66  1  0.77971000  0.27655000  0.81856000  1.0 0.1191483353
H  H67  1  0.53530000  0.05866000  0.80809000  1.0 0.1386057855
H  H68  1  0.65164000  0.44424000  0.94508000  1.0 0.1191483353
H  H69  1  0.71837000  0.22611000  0.89732000  1.0 0.109439443
H  H70  1  0.69867000  0.69083000  0.20328000  1.0 0.1279500775
H  H71  1  0.54709000  0.74645000  0.04293000  1.0 0.1279500775
H  H72  1  0.66003000  0.29695000  0.95493000  1.0 0.1191483353
H  H73  1  0.49855000  0.76601000  0.11516000  1.0 0.1191483353
H  H74  1  0.55467000  0.72389000  0.20474000  1.0 0.0883460949
H  H75  1  0.34704000  0.85598000  0.85401000  1.0 0.3859274183
H  H76  1  0.29446000  0.80696000  0.80274000  1.0 0.3977977653
H  H77  1  0.56528000  0.16866000  0.71617000  1.0 0.408183137
H  H78  1  0.50432000  0.24424000  0.71566000  1.0 0.3977977653
H  H79  1  0.56370000  0.98180000  0.53292000  1.0 0.1279500775
H  H80  1  0.02540000  0.83820000  0.48329000  1.0 0.1279500775
H  H81  1  0.21427000  0.35649000  0.46882000  1.0 0.1386057855
H  H82  1  0.89530000  0.92478000  0.60400000  1.0 0.1279500775
H  H83  1  0.98286000  0.61902000  0.36844000  1.0 0.109439443
H  H84  1  0.32922000  0.33154000  0.33028000  1.0 0.1279500775
H  H85  1  0.39032000  0.17054000  0.54552000  1.0 0.1191483353
H  H86  1  0.77771000  0.83729000  0.47239000  1.0 0.1028562505
H  H87  1  0.67990000  0.94042000  0.49366000  1.0 0.109439443
H  H88  1  0.78094000  0.88622000  0.64419000  1.0 0.1028562505
H  H89  1  0.09249000  0.28045000  0.43269000  1.0 0.1191483353
H  H90  1  0.99829000  0.69851000  0.44584000  1.0 0.109439443
H  H91  1  0.44427000  0.24863000  0.46762000  1.0 0.1386057855
H  H92  1  0.24345000  0.46361000  0.30930000  1.0 0.1191483353
H  H93  1  0.81722000  0.79344000  0.30093000  1.0 0.1279500775
H  H94  1  0.66241000  0.92099000  0.68040000  1.0 0.109439443
H  H95  1  0.42542000  0.19762000  0.30728000  1.0 0.109439443
H  H96  1  0.10661000  0.95701000  0.51649000  1.0 0.1279500775
H  H97  1  0.94939000  0.29667000  0.42941000  1.0 0.109439443
H  H98  1  0.82539000  0.86257000  0.37383000  1.0 0.1191483353
H  H99  1  0.14304000  0.88696000  0.69675000  1.0 0.1191483353
H  H100  1  0.22309000  0.98601000  0.56187000  1.0 0.1191483353
H  H101  1  0.02219000  0.87177000  0.65562000  1.0 0.109439443
H  H102  1  0.88822000  0.36796000  0.35445000  1.0 0.109439443
H  H103  1  0.72345000  0.22029000  0.31856000  1.0 0.1191483353
H  H104  1  0.94134000  0.46470000  0.30809000  1.0 0.1386057855
H  H105  1  0.55576000  0.34836000  0.44508000  1.0 0.1191483353
H  H106  1  0.77389000  0.28163000  0.39732000  1.0 0.109439443
H  H107  1  0.30917000  0.30133000  0.70328000  1.0 0.1279500775
H  H108  1  0.25355000  0.45291000  0.54293000  1.0 0.1279500775
H  H109  1  0.70305000  0.33997000  0.45493000  1.0 0.1191483353
H  H110  1  0.23399000  0.50145000  0.61516000  1.0 0.1191483353
H  H111  1  0.27611000  0.44533000  0.70474000  1.0 0.0883460949
H  H112  1  0.85598000  0.34704000  0.64599000  1.0 0.3859274183
H  H113  1  0.80696000  0.29446000  0.69726000  1.0 0.3977977653
H  H114  1  0.16866000  0.56528000  0.78383000  1.0 0.408183137
H  H115  1  0.24424000  0.50432000  0.78434000  1.0 0.3977977653
H  H116  1  0.98180000  0.56370000  0.96708000  1.0 0.1279500775
H  H117  1  0.83820000  0.02540000  0.01671000  1.0 0.1191483353
H  H118  1  0.35649000  0.21427000  0.03118000  1.0 0.1386057855
H  H119  1  0.92478000  0.89530000  0.89600000  1.0 0.1279500775
H  H120  1  0.61902000  0.98286000  0.13156000  1.0 0.109439443
H  H121  1  0.33154000  0.32922000  0.16972000  1.0 0.1279500775
H  H122  1  0.17054000  0.39032000  0.95448000  1.0 0.1191483353
H  H123  1  0.83729000  0.77771000  0.02761000  1.0 0.1028562505
H  H124  1  0.94042000  0.67990000  0.00634000  1.0 0.109439443
H  H125  1  0.88622000  0.78094000  0.85581000  1.0 0.1028562505
H  H126  1  0.28045000  0.09249000  0.06731000  1.0 0.1191483353
H  H127  1  0.69851000  0.99829000  0.05416000  1.0 0.109439443
H  H128  1  0.24863000  0.44427000  0.03238000  1.0 0.1386057855
H  H129  1  0.46361000  0.24345000  0.19070000  1.0 0.1191483353
H  H130  1  0.79344000  0.81722000  0.19907000  1.0 0.1279500775
H  H131  1  0.92099000  0.66241000  0.81960000  1.0 0.109439443
H  H132  1  0.19762000  0.42542000  0.19272000  1.0 0.109439443
H  H133  1  0.95701000  0.10661000  0.98351000  1.0 0.1279500775
H  H134  1  0.29667000  0.94939000  0.07059000  1.0 0.109439443
H  H135  1  0.86257000  0.82539000  0.12617000  1.0 0.1191483353
H  H136  1  0.88696000  0.14304000  0.80325000  1.0 0.1191483353
H  H137  1  0.98601000  0.22309000  0.93813000  1.0 0.1191483353
H  H138  1  0.87177000  0.02219000  0.84438000  1.0 0.109439443
H  H139  1  0.36796000  0.88822000  0.14555000  1.0 0.109439443
H  H140  1  0.22029000  0.72345000  0.18144000  1.0 0.1191483353
H  H141  1  0.46470000  0.94134000  0.19191000  1.0 0.1386057855
H  H142  1  0.34836000  0.55576000  0.05492000  1.0 0.1191483353
H  H143  1  0.28163000  0.77389000  0.10268000  1.0 0.109439443
H  H144  1  0.30133000  0.30917000  0.79672000  1.0 0.1279500775
H  H145  1  0.45291000  0.25355000  0.95707000  1.0 0.1279500775
H  H146  1  0.33997000  0.70305000  0.04507000  1.0 0.1191483353
H  H147  1  0.50145000  0.23399000  0.88484000  1.0 0.1191483353
H  H148  1  0.44533000  0.27611000  0.79526000  1.0 0.0883460949
C  C1  1  0.09730000  0.17250000  0.52910000  1.0 0.0682145929
C  C2  1  0.39070000  0.03550000  0.44440000  1.0 -0.1010589059
C  C3  1  0.02520000  0.15200000  0.50180000  1.0 -0.2037650178
C  C4  1  0.74020000  0.66060000  0.54980000  1.0 -0.2800046529
C  C5  1  0.09040000  0.29180000  0.67730000  1.0 -0.0124678881
C  C6  1  0.74000000  0.65520000  0.60470000  1.0 0.1979681198
C  C7  1  0.10380000  0.09880000  0.42940000  1.0 -0.205976365
C  C8  1  0.04380000  0.32920000  0.63040000  1.0 -0.140481878
C  C9  1  0.67000000  0.67620000  0.63230000  1.0 -0.2428557332
C  C10  1  0.66310000  0.69550000  0.52210000  1.0 0.2075860743
C  C11  1  0.89110000  0.62690000  0.62680000  1.0 0.1279500775
C  C12  1  0.09580000  0.21140000  0.57830000  1.0 0.0590848365
C  C13  1  0.63310000  0.78490000  0.43750000  1.0 0.1279500775
C  C14  1  0.17350000  0.15270000  0.50840000  1.0 -0.2209514695
C  C15  1  0.17510000  0.11650000  0.45690000  1.0 0.0808881392
C  C16  1  0.80050000  0.05850000  0.36660000  1.0 -0.0623618736
C  C17  1  0.32260000  0.06180000  0.46890000  1.0 -0.1701274085
C  C18  1  0.60330000  0.70670000  0.60550000  1.0 0.1866156329
C  C19  1  0.26380000  0.09480000  0.37870000  1.0 -0.1225583863
C  C20  1  0.93580000  0.68140000  0.59170000  1.0 -0.1885379124
C  C21  1  0.03940000  0.28460000  0.58250000  1.0 -0.1701274085
C  C22  1  0.72240000  0.03480000  0.34300000  1.0 0.5258571897
C  C23  1  0.60090000  0.72230000  0.55000000  1.0 -0.2576892804
C  C24  1  0.80490000  0.55590000  0.67770000  1.0 0.0296502533
C  C25  1  0.14470000  0.22430000  0.67110000  1.0 -0.0912610379
C  C26  1  0.09530000  0.33830000  0.72950000  1.0 0.5367856716
C  C27  1  0.94110000  0.57510000  0.66470000  1.0 0.1191483353
C  C28  1  0.02940000  0.11740000  0.45320000  1.0 0.0883460949
C  C29  1  0.33220000  0.07100000  0.35660000  1.0 -0.1085911678
C  C30  1  0.52850000  0.78190000  0.67550000  1.0 0.1028562505
C  C31  1  0.25440000  0.09360000  0.43340000  1.0 0.0682145929
C  C32  1  0.88530000  0.05850000  0.44690000  1.0 -0.140481878
C  C33  1  0.44760000  0.72440000  0.62040000  1.0 0.0451868903
C  C34  1  0.94350000  0.09990000  0.42070000  1.0 0.0682145929
C  C35  1  0.01940000  0.67560000  0.59530000  1.0 -0.1085911678
C  C36  1  0.40020000  0.03120000  0.39190000  1.0 -0.0162939655
C  C37  1  0.14230000  0.18630000  0.62650000  1.0 -0.1274199941
C  C38  1  0.86520000  0.09720000  0.33980000  1.0 -0.0912610379
C  C39  1  0.81650000  0.04070000  0.41920000  1.0 -0.1085911678
C  C40  1  0.93420000  0.11100000  0.36410000  1.0 -0.1225583863
C  C41  1  0.05600000  0.62500000  0.63850000  1.0 -0.1274199941
C  C42  1  0.31040000  0.75900000  0.65560000  1.0 -0.205976365
C  C43  1  0.69160000  0.65920000  0.42530000  1.0 0.0808881392
C  C44  1  0.67030000  0.70190000  0.37520000  1.0 0.1191483353
C  C45  1  0.40450000  0.76250000  0.65690000  1.0 0.1750359331
C  C46  1  0.02670000  0.57250000  0.66880000  1.0 -0.140481878
C  C47  1  0.41220000  0.68080000  0.57830000  1.0 -0.1885379124
C  C48  1  0.47380000  0.99180000  0.36570000  1.0 0.5565402005
C  C49  1  0.28300000  0.71880000  0.60850000  1.0 -0.1225583863
C  C50  1  0.69320000  0.66580000  0.32860000  1.0 -0.1830641459
C  C51  1  0.73020000  0.57740000  0.42510000  1.0 -0.140481878
C  C52  1  0.32390000  0.68390000  0.57380000  1.0 -0.1010589059
C  C53  1  0.74000000  0.55100000  0.38280000  1.0 -0.0912610379
C  C54  1  0.71970000  0.58390000  0.32640000  1.0 -0.1535240393
C  C55  1  0.17250000  0.09730000  0.97090000  1.0 0.0682145929
C  C56  1  0.03550000  0.39070000  0.05560000  1.0 -0.1010589059
C  C57  1  0.15200000  0.02520000  0.99820000  1.0 -0.205976365
C  C58  1  0.66060000  0.74020000  0.95020000  1.0 -0.2800046529
C  C59  1  0.29180000  0.09040000  0.82270000  1.0 -0.0124678881
C  C60  1  0.65520000  0.74000000  0.89530000  1.0 0.1979681198
C  C61  1  0.09880000  0.10380000  0.07060000  1.0 -0.205976365
C  C62  1  0.32920000  0.04380000  0.86960000  1.0 -0.140481878
C  C63  1  0.67620000  0.67000000  0.86770000  1.0 -0.2428557332
C  C64  1  0.69550000  0.66310000  0.97790000  1.0 0.2075860743
C  C65  1  0.62690000  0.89110000  0.87320000  1.0 0.1279500775
C  C66  1  0.21140000  0.09580000  0.92170000  1.0 0.0590848365
C  C67  1  0.78490000  0.63310000  0.06250000  1.0 0.1279500775
C  C68  1  0.15270000  0.17350000  0.99160000  1.0 -0.2209514695
C  C69  1  0.11650000  0.17510000  0.04310000  1.0 0.0808881392
C  C70  1  0.05850000  0.80050000  0.13340000  1.0 -0.0623618736
C  C71  1  0.06180000  0.32260000  0.03110000  1.0 -0.1701274085
C  C72  1  0.70670000  0.60330000  0.89450000  1.0 0.1866156329
C  C73  1  0.09480000  0.26380000  0.12130000  1.0 -0.1225583863
C  C74  1  0.68140000  0.93580000  0.90830000  1.0 -0.1885379124
C  C75  1  0.28460000  0.03940000  0.91750000  1.0 -0.1701274085
C  C76  1  0.03480000  0.72240000  0.15700000  1.0 0.5258571897
C  C77  1  0.72230000  0.60090000  0.95000000  1.0 -0.2576892804
C  C78  1  0.55590000  0.80490000  0.82230000  1.0 0.0296502533
C  C79  1  0.22430000  0.14470000  0.82890000  1.0 -0.0912610379
C  C80  1  0.33830000  0.09530000  0.77050000  1.0 0.5367856716
C  C81  1  0.57510000  0.94110000  0.83530000  1.0 0.1191483353
C  C82  1  0.11740000  0.02940000  0.04680000  1.0 0.0883460949
C  C83  1  0.07100000  0.33220000  0.14340000  1.0 -0.1085911678
C  C84  1  0.78190000  0.52850000  0.82450000  1.0 0.1028562505
C  C85  1  0.09360000  0.25440000  0.06660000  1.0 0.0682145929
C  C86  1  0.05850000  0.88530000  0.05310000  1.0 -0.140481878
C  C87  1  0.72440000  0.44760000  0.87960000  1.0 0.0451868903
C  C88  1  0.09990000  0.94350000  0.07930000  1.0 0.0682145929
C  C89  1  0.67560000  0.01940000  0.90470000  1.0 -0.1085911678
C  C90  1  0.03120000  0.40020000  0.10810000  1.0 -0.0162939655
C  C91  1  0.18630000  0.14230000  0.87350000  1.0 -0.1274199941
C  C92  1  0.09720000  0.86520000  0.16020000  1.0 -0.0912610379
C  C93  1  0.04070000  0.81650000  0.08080000  1.0 -0.1085911678
C  C94  1  0.11100000  0.93420000  0.13590000  1.0 -0.1225583863
C  C95  1  0.62500000  0.05600000  0.86150000  1.0 -0.1274199941
C  C96  1  0.75900000  0.31040000  0.84440000  1.0 -0.2037650178
C  C97  1  0.65920000  0.69160000  0.07470000  1.0 0.0808881392
C  C98  1  0.70190000  0.67030000  0.12480000  1.0 0.1191483353
C  C99  1  0.76250000  0.40450000  0.84310000  1.0 0.1746907924
C  C100  1  0.57250000  0.02670000  0.83120000  1.0 -0.140481878
C  C101  1  0.68080000  0.41220000  0.92170000  1.0 -0.1885379124
C  C102  1  0.99180000  0.47380000  0.13430000  1.0 0.5565402005
C  C103  1  0.71880000  0.28300000  0.89150000  1.0 -0.1225583863
C  C104  1  0.66580000  0.69320000  0.17140000  1.0 -0.1830641459
C  C105  1  0.57740000  0.73020000  0.07490000  1.0 -0.140481878
C  C106  1  0.68390000  0.32390000  0.92620000  1.0 -0.1010589059
C  C107  1  0.55100000  0.74000000  0.11720000  1.0 -0.0912610379
C  C108  1  0.58390000  0.71970000  0.17360000  1.0 -0.1535240393
C  C109  1  0.90270000  0.82750000  0.47090000  1.0 0.0682145929
C  C110  1  0.60930000  0.96450000  0.55560000  1.0 -0.1010589059
C  C111  1  0.97480000  0.84800000  0.49820000  1.0 -0.205976365
C  C112  1  0.25980000  0.33940000  0.45020000  1.0 -0.2800046529
C  C113  1  0.90960000  0.70820000  0.32270000  1.0 -0.0124678881
C  C114  1  0.26000000  0.34480000  0.39530000  1.0 0.1979681198
C  C115  1  0.89620000  0.90120000  0.57060000  1.0 -0.205976365
C  C116  1  0.95620000  0.67080000  0.36960000  1.0 -0.140481878
C  C117  1  0.33000000  0.32380000  0.36770000  1.0 -0.2428557332
C  C118  1  0.33690000  0.30450000  0.47790000  1.0 0.2075860743
C  C119  1  0.10890000  0.37310000  0.37320000  1.0 0.1279500775
C  C120  1  0.90420000  0.78860000  0.42170000  1.0 0.0590848365
C  C121  1  0.36690000  0.21510000  0.56250000  1.0 0.1279500775
C  C122  1  0.82650000  0.84730000  0.49160000  1.0 -0.2209514695
C  C123  1  0.82490000  0.88350000  0.54310000  1.0 0.0808881392
C  C124  1  0.19950000  0.94150000  0.63340000  1.0 -0.0623618736
C  C125  1  0.67740000  0.93820000  0.53110000  1.0 -0.1701274085
C  C126  1  0.39670000  0.29330000  0.39450000  1.0 0.1866156329
C  C127  1  0.73620000  0.90520000  0.62130000  1.0 -0.1225583863
C  C128  1  0.06420000  0.31860000  0.40830000  1.0 -0.1885379124
C  C129  1  0.96060000  0.71540000  0.41750000  1.0 -0.1701274085
C  C130  1  0.27760000  0.96520000  0.65700000  1.0 0.5258571897
C  C131  1  0.39910000  0.27770000  0.45000000  1.0 -0.2576892804
C  C132  1  0.19510000  0.44410000  0.32230000  1.0 0.0296502533
C  C133  1  0.85530000  0.77570000  0.32890000  1.0 -0.0912610379
C  C134  1  0.90470000  0.66170000  0.27050000  1.0 0.5367856716
C  C135  1  0.05890000  0.42490000  0.33530000  1.0 0.1191483353
C  C136  1  0.97060000  0.88260000  0.54680000  1.0 0.0883460949
C  C137  1  0.66780000  0.92900000  0.64340000  1.0 -0.1085911678
C  C138  1  0.47150000  0.21810000  0.32450000  1.0 0.1028562505
C  C139  1  0.74560000  0.90640000  0.56660000  1.0 0.0682145929
C  C140  1  0.11470000  0.94150000  0.55310000  1.0 -0.140481878
C  C141  1  0.55240000  0.27560000  0.37960000  1.0 0.0451868903
C  C142  1  0.05650000  0.90010000  0.57930000  1.0 0.0682145929
C  C143  1  0.98060000  0.32440000  0.40470000  1.0 -0.1085911678
C  C144  1  0.59980000  0.96880000  0.60810000  1.0 -0.0162939655
C  C145  1  0.85770000  0.81370000  0.37350000  1.0 -0.1274199941
C  C146  1  0.13480000  0.90280000  0.66020000  1.0 -0.0912610379
C  C147  1  0.18350000  0.95930000  0.58080000  1.0 -0.1085911678
C  C148  1  0.06580000  0.88900000  0.63590000  1.0 -0.1225583863
C  C149  1  0.94400000  0.37500000  0.36150000  1.0 -0.1274199941
C  C150  1  0.68960000  0.24100000  0.34440000  1.0 -0.205976365
C  C151  1  0.30840000  0.34080000  0.57470000  1.0 0.0808881392
C  C152  1  0.32970000  0.29810000  0.62480000  1.0 0.1191483353
C  C153  1  0.59550000  0.23750000  0.34310000  1.0 0.1746907924
C  C154  1  0.97330000  0.42750000  0.33120000  1.0 -0.140481878
C  C155  1  0.58780000  0.31920000  0.42170000  1.0 -0.1885379124
C  C156  1  0.52620000  0.00820000  0.63430000  1.0 0.5565402005
C  C157  1  0.71700000  0.28120000  0.39150000  1.0 -0.1225583863
C  C158  1  0.30680000  0.33420000  0.67140000  1.0 -0.1830641459
C  C159  1  0.26980000  0.42260000  0.57490000  1.0 -0.140481878
C  C160  1  0.67610000  0.31610000  0.42620000  1.0 -0.1010589059
C  C161  1  0.26000000  0.44900000  0.61720000  1.0 -0.0912610379
C  C162  1  0.28030000  0.41610000  0.67360000  1.0 -0.1535240393
C  C163  1  0.82750000  0.90270000  0.02910000  1.0 0.0682145929
C  C164  1  0.96450000  0.60930000  0.94440000  1.0 -0.1010589059
C  C165  1  0.84800000  0.97480000  0.00180000  1.0 -0.2037650178
C  C166  1  0.33940000  0.25980000  0.04980000  1.0 -0.2800046529
C  C167  1  0.70820000  0.90960000  0.17730000  1.0 -0.0124678881
C  C168  1  0.34480000  0.26000000  0.10470000  1.0 0.1979681198
C  C169  1  0.90120000  0.89620000  0.92940000  1.0 -0.205976365
C  C170  1  0.67080000  0.95620000  0.13040000  1.0 -0.140481878
C  C171  1  0.32380000  0.33000000  0.13230000  1.0 -0.2428557332
C  C172  1  0.30450000  0.33690000  0.02210000  1.0 0.2075860743
C  C173  1  0.37310000  0.10890000  0.12680000  1.0 0.1279500775
C  C174  1  0.78860000  0.90420000  0.07830000  1.0 0.0590848365
C  C175  1  0.21510000  0.36690000  0.93750000  1.0 0.1279500775
C  C176  1  0.84730000  0.82650000  0.00840000  1.0 -0.2209514695
C  C177  1  0.88350000  0.82490000  0.95690000  1.0 0.0808881392
C  C178  1  0.94150000  0.19950000  0.86660000  1.0 -0.0623618736
C  C179  1  0.93820000  0.67740000  0.96890000  1.0 -0.1701274085
C  C180  1  0.29330000  0.39670000  0.10550000  1.0 0.1866156329
C  C181  1  0.90520000  0.73620000  0.87870000  1.0 -0.1225583863
C  C182  1  0.31860000  0.06420000  0.09170000  1.0 -0.1885379124
C  C183  1  0.71540000  0.96060000  0.08250000  1.0 -0.1701274085
C  C184  1  0.96520000  0.27760000  0.84300000  1.0 0.5258571897
C  C185  1  0.27770000  0.39910000  0.05000000  1.0 -0.2576892804
C  C186  1  0.44410000  0.19510000  0.17770000  1.0 0.0296502533
C  C187  1  0.77570000  0.85530000  0.17110000  1.0 -0.0912610379
C  C188  1  0.66170000  0.90470000  0.22950000  1.0 0.5367856716
C  C189  1  0.42490000  0.05890000  0.16470000  1.0 0.1191483353
C  C190  1  0.88260000  0.97060000  0.95320000  1.0 0.0883460949
C  C191  1  0.92900000  0.66780000  0.85660000  1.0 -0.1085911678
C  C192  1  0.21810000  0.47150000  0.17550000  1.0 0.1028562505
C  C193  1  0.90640000  0.74560000  0.93340000  1.0 0.0682145929
C  C194  1  0.94150000  0.11470000  0.94690000  1.0 -0.140481878
C  C195  1  0.27560000  0.55240000  0.12040000  1.0 0.0451868903
C  C196  1  0.90010000  0.05650000  0.92070000  1.0 0.0682145929
C  C197  1  0.32440000  0.98060000  0.09530000  1.0 -0.1085911678
C  C198  1  0.96880000  0.59980000  0.89190000  1.0 -0.0162939655
C  C199  1  0.81370000  0.85770000  0.12650000  1.0 -0.1274199941
C  C200  1  0.90280000  0.13480000  0.83980000  1.0 -0.0912610379
C  C201  1  0.95930000  0.18350000  0.91920000  1.0 -0.1085911678
C  C202  1  0.88900000  0.06580000  0.86410000  1.0 -0.1225583863
C  C203  1  0.37500000  0.94400000  0.13850000  1.0 -0.1274199941
C  C204  1  0.24100000  0.68960000  0.15560000  1.0 -0.2037650178
C  C205  1  0.34080000  0.30840000  0.92530000  1.0 0.0808881392
C  C206  1  0.29810000  0.32970000  0.87520000  1.0 0.1191483353
C  C207  1  0.23750000  0.59550000  0.15690000  1.0 0.1746907924
C  C208  1  0.42750000  0.97330000  0.16880000  1.0 -0.140481878
C  C209  1  0.31920000  0.58780000  0.07830000  1.0 -0.1885379124
C  C210  1  0.00820000  0.52620000  0.86570000  1.0 0.5565402005
C  C211  1  0.28120000  0.71700000  0.10850000  1.0 -0.1225583863
C  C212  1  0.33420000  0.30680000  0.82860000  1.0 -0.1830641459
C  C213  1  0.42260000  0.26980000  0.92510000  1.0 -0.140481878
C  C214  1  0.31610000  0.67610000  0.07380000  1.0 -0.1010589059
C  C215  1  0.44900000  0.26000000  0.88280000  1.0 -0.0912610379
C  C216  1  0.41610000  0.28030000  0.82640000  1.0 -0.1535240393
I  I1  1  0.77736000  0.77736000  0.75000000  1.0 -0.3990424777
I  I2  1  0.90124000  0.90124000  0.75000000  1.0 -0.068017777
I  I3  1  0.02630000  0.02630000  0.75000000  1.0 -0.2898200061
I  I4  1  0.22264000  0.22264000  0.25000000  1.0 -0.3990424777
I  I5  1  0.09876000  0.09876000  0.25000000  1.0 -0.068017777
I  I6  1  0.97370000  0.97370000  0.25000000  1.0 -0.2800046529
N  N1  1  0.81210000  0.61450000  0.63620000  1.0 -0.0314321711
N  N2  1  0.63750000  0.78250000  0.38660000  1.0 -0.3392371591
N  N3  1  0.66770000  0.71210000  0.46550000  1.0 -0.0835349857
N  N4  1  0.53250000  0.73470000  0.63200000  1.0 -0.0314321711
N  N5  1  0.45360000  0.79540000  0.69100000  1.0 -0.3142790403
N  N6  1  0.88340000  0.53260000  0.69550000  1.0 -0.3572805132
N  N7  1  0.61450000  0.81210000  0.86380000  1.0 -0.0314321711
N  N8  1  0.78250000  0.63750000  0.11340000  1.0 -0.3392371591
N  N9  1  0.71210000  0.66770000  0.03450000  1.0 -0.0835349857
N  N10  1  0.73470000  0.53250000  0.86800000  1.0 -0.0351914912
N  N11  1  0.79540000  0.45360000  0.80900000  1.0 -0.3154712822
N  N12  1  0.53260000  0.88340000  0.80450000  1.0 -0.3572805132
N  N13  1  0.18790000  0.38550000  0.36380000  1.0 -0.0314321711
N  N14  1  0.36250000  0.21750000  0.61340000  1.0 -0.3392371591
N  N15  1  0.33230000  0.28790000  0.53450000  1.0 -0.0835349857
N  N16  1  0.46750000  0.26530000  0.36800000  1.0 -0.0351914912
N  N17  1  0.54640000  0.20460000  0.30900000  1.0 -0.3142790403
N  N18  1  0.11660000  0.46740000  0.30450000  1.0 -0.3572805132
N  N19  1  0.38550000  0.18790000  0.13620000  1.0 -0.0314321711
N  N20  1  0.21750000  0.36250000  0.88660000  1.0 -0.3392371591
N  N21  1  0.28790000  0.33230000  0.96550000  1.0 -0.0835349857
N  N22  1  0.26530000  0.46750000  0.13200000  1.0 -0.0351914912
N  N23  1  0.20460000  0.54640000  0.19100000  1.0 -0.3142790403
N  N24  1  0.46740000  0.11660000  0.19550000  1.0 -0.3572805132
O  O1  1  0.04450000  0.40310000  0.73260000  1.0 -0.6065518315
O  O2  1  0.14090000  0.31110000  0.76470000  1.0 -0.4694639425
O  O3  1  0.70190000  0.07110000  0.29510000  1.0 -0.5072673018
O  O4  1  0.68150000  0.98970000  0.35970000  1.0 -0.4247024264
O  O5  1  0.48880000  0.01680000  0.31880000  1.0 -0.5882031824
O  O6  1  0.51370000  0.93870000  0.39550000  1.0 -0.5364500191
O  O7  1  0.65560000  0.14940000  0.19100000  1.0 -0.7873694207
O  O8  1  0.49190000  0.81330000  0.29350000  1.0 -0.7339089121
O  O9  1  0.40310000  0.04450000  0.76740000  1.0 -0.6065518315
O  O10  1  0.31110000  0.14090000  0.73530000  1.0 -0.4694639425
O  O11  1  0.07110000  0.70190000  0.20490000  1.0 -0.5072673018
O  O12  1  0.98970000  0.68150000  0.14030000  1.0 -0.4253799822
O  O13  1  0.01680000  0.48880000  0.18120000  1.0 -0.5882031824
O  O14  1  0.93870000  0.51370000  0.10450000  1.0 -0.5364500191
O  O15  1  0.14940000  0.65560000  0.30900000  1.0 -0.7873694207
O  O16  1  0.81330000  0.49190000  0.20650000  1.0 -0.7339089121
O  O17  1  0.95550000  0.59690000  0.26740000  1.0 -0.6065518315
O  O18  1  0.85910000  0.68890000  0.23530000  1.0 -0.4694639425
O  O19  1  0.29810000  0.92890000  0.70490000  1.0 -0.5072673018
O  O20  1  0.31850000  0.01030000  0.64030000  1.0 -0.4247024264
O  O21  1  0.51120000  0.98320000  0.68120000  1.0 -0.5882031824
O  O22  1  0.48630000  0.06130000  0.60450000  1.0 -0.5364500191
O  O23  1  0.34440000  0.85060000  0.80900000  1.0 -0.7873694207
O  O24  1  0.50810000  0.18670000  0.70650000  1.0 -0.7339089121
O  O25  1  0.59690000  0.95550000  0.23260000  1.0 -0.6065518315
O  O26  1  0.68890000  0.85910000  0.26470000  1.0 -0.4694639425
O  O27  1  0.92890000  0.29810000  0.79510000  1.0 -0.5072673018
O  O28  1  0.01030000  0.31850000  0.85970000  1.0 -0.4253799822
O  O29  1  0.98320000  0.51120000  0.81880000  1.0 -0.5882031824
O  O30  1  0.06130000  0.48630000  0.89550000  1.0 -0.5364500191
O  O31  1  0.85060000  0.34440000  0.69100000  1.0 -0.7873694207
O  O32  1  0.18670000  0.50810000  0.79350000  1.0 -0.7339089121
