# DDEC6 charges by PACMAN v1.1 (https://github.com/mtap-research/PACMAN-charge/)
data_OPAHIY_ASR_pacman
_symmetry_space_group_name_H-M   'P 1'
_cell_length_a   17.46500000
_cell_length_b   17.94990000
_cell_length_c   41.58700000
_cell_angle_alpha   90.00000000
_cell_angle_beta   90.00000000
_cell_angle_gamma   90.00000000
_symmetry_Int_Tables_number   1
_chemical_formula_structural   Cd3H88C127NO13
_chemical_formula_sum   'Cd12 H352 C508 N4 O52'
_cell_volume   13037.31671055
_cell_formula_units_Z   4
loop_
 _symmetry_equiv_pos_site_id
 _symmetry_equiv_pos_as_xyz
  1  'x, y, z'
loop_
 _atom_site_type_symbol
 _atom_site_label
 _atom_site_symmetry_multiplicity
 _atom_site_fract_x
 _atom_site_fract_y
 _atom_site_fract_z
 _atom_site_occupancy
 _atom_site_charge
Cd  Cd1  1  0.33341000  0.14948000  0.24200000  1.0 0.9796128937
Cd  Cd2  1  0.66659000  0.64948000  0.25800000  1.0 0.9796128937
Cd  Cd3  1  0.66659000  0.85052000  0.24200000  1.0 0.9796128937
Cd  Cd4  1  0.33341000  0.35052000  0.25800000  1.0 0.9796128937
Cd  Cd5  1  0.66659000  0.85052000  0.75800000  1.0 0.9796128937
Cd  Cd6  1  0.33341000  0.35052000  0.74200000  1.0 0.9796128937
Cd  Cd7  1  0.33341000  0.14948000  0.75800000  1.0 0.9796128937
Cd  Cd8  1  0.66659000  0.64948000  0.74200000  1.0 0.9796128937
Cd  Cd9  1  0.50000000  0.00000000  0.23401000  1.0 0.972339622
Cd  Cd10  1  0.50000000  0.50000000  0.26599000  1.0 0.972339622
Cd  Cd11  1  0.50000000  0.00000000  0.76599000  1.0 0.972339622
Cd  Cd12  1  0.50000000  0.50000000  0.73401000  1.0 0.972339622
H  H1  1  0.37230000  0.19810000  0.16620000  1.0 0.1186349737
H  H2  1  0.62770000  0.69810000  0.33380000  1.0 0.1186349737
H  H3  1  0.62770000  0.80190000  0.16620000  1.0 0.1186349737
H  H4  1  0.37230000  0.30190000  0.33380000  1.0 0.1186349737
H  H5  1  0.62770000  0.80190000  0.83380000  1.0 0.1186349737
H  H6  1  0.37230000  0.30190000  0.66620000  1.0 0.1186349737
H  H7  1  0.37230000  0.19810000  0.83380000  1.0 0.1186349737
H  H8  1  0.62770000  0.69810000  0.66620000  1.0 0.1186349737
H  H9  1  0.37190000  0.28320000  0.12420000  1.0 0.1186349737
H  H10  1  0.62810000  0.78320000  0.37580000  1.0 0.1186349737
H  H11  1  0.62810000  0.71680000  0.12420000  1.0 0.1186349737
H  H12  1  0.37190000  0.21680000  0.37580000  1.0 0.1186349737
H  H13  1  0.62810000  0.71680000  0.87580000  1.0 0.1186349737
H  H14  1  0.37190000  0.21680000  0.62420000  1.0 0.1186349737
H  H15  1  0.37190000  0.28320000  0.87580000  1.0 0.1186349737
H  H16  1  0.62810000  0.78320000  0.62420000  1.0 0.1186349737
H  H17  1  0.59600000  0.24820000  0.11220000  1.0 0.1277387173
H  H18  1  0.40400000  0.74820000  0.38780000  1.0 0.1277387173
H  H19  1  0.40400000  0.75180000  0.11220000  1.0 0.1277387173
H  H20  1  0.59600000  0.25180000  0.38780000  1.0 0.1277387173
H  H21  1  0.40400000  0.75180000  0.88780000  1.0 0.1277387173
H  H22  1  0.59600000  0.25180000  0.61220000  1.0 0.1277387173
H  H23  1  0.59600000  0.24820000  0.88780000  1.0 0.1277387173
H  H24  1  0.40400000  0.74820000  0.61220000  1.0 0.1277387173
H  H25  1  0.59540000  0.16390000  0.15340000  1.0 0.1277387173
H  H26  1  0.40460000  0.66390000  0.34660000  1.0 0.1277387173
H  H27  1  0.40460000  0.83610000  0.15340000  1.0 0.1277387173
H  H28  1  0.59540000  0.33610000  0.34660000  1.0 0.1277387173
H  H29  1  0.40460000  0.83610000  0.84660000  1.0 0.1277387173
H  H30  1  0.59540000  0.33610000  0.65340000  1.0 0.1277387173
H  H31  1  0.59540000  0.16390000  0.84660000  1.0 0.1277387173
H  H32  1  0.40460000  0.66390000  0.65340000  1.0 0.1277387173
H  H33  1  0.41370000  0.40510000  0.10170000  1.0 0.0611735713
H  H34  1  0.58630000  0.90510000  0.39830000  1.0 0.0611735713
H  H35  1  0.58630000  0.59490000  0.10170000  1.0 0.0611735713
H  H36  1  0.41370000  0.09490000  0.39830000  1.0 0.0611735713
H  H37  1  0.58630000  0.59490000  0.89830000  1.0 0.0611735713
H  H38  1  0.41370000  0.09490000  0.60170000  1.0 0.0611735713
H  H39  1  0.41370000  0.40510000  0.89830000  1.0 0.0611735713
H  H40  1  0.58630000  0.90510000  0.60170000  1.0 0.0611735713
H  H41  1  0.41180000  0.47790000  0.05540000  1.0 0.0675670297
H  H42  1  0.58820000  0.97790000  0.44460000  1.0 0.0675670297
H  H43  1  0.58820000  0.52210000  0.05540000  1.0 0.0675670297
H  H44  1  0.41180000  0.02210000  0.44460000  1.0 0.0675670297
H  H45  1  0.58820000  0.52210000  0.94460000  1.0 0.0675670297
H  H46  1  0.41180000  0.02210000  0.55540000  1.0 0.0675670297
H  H47  1  0.41180000  0.47790000  0.94460000  1.0 0.0675670297
H  H48  1  0.58820000  0.97790000  0.55540000  1.0 0.0675670297
H  H49  1  0.55750000  0.33640000  0.01250000  1.0 0.0799634885
H  H50  1  0.44250000  0.83640000  0.48750000  1.0 0.0799634885
H  H51  1  0.44250000  0.66360000  0.01250000  1.0 0.0799634885
H  H52  1  0.55750000  0.16360000  0.48750000  1.0 0.0799634885
H  H53  1  0.44250000  0.66360000  0.98750000  1.0 0.0799634885
H  H54  1  0.55750000  0.16360000  0.51250000  1.0 0.0799634885
H  H55  1  0.55750000  0.33640000  0.98750000  1.0 0.0799634885
H  H56  1  0.44250000  0.83640000  0.51250000  1.0 0.0799634885
H  H57  1  0.55710000  0.26260000  0.05790000  1.0 0.0908416789
H  H58  1  0.44290000  0.76260000  0.44210000  1.0 0.0908416789
H  H59  1  0.44290000  0.73740000  0.05790000  1.0 0.0908416789
H  H60  1  0.55710000  0.23740000  0.44210000  1.0 0.0908416789
H  H61  1  0.44290000  0.73740000  0.94210000  1.0 0.0908416789
H  H62  1  0.55710000  0.23740000  0.55790000  1.0 0.0908416789
H  H63  1  0.55710000  0.26260000  0.94210000  1.0 0.0908416789
H  H64  1  0.44290000  0.76260000  0.55790000  1.0 0.0908416789
H  H65  1  0.42350000  0.90960000  0.33130000  1.0 0.1186349737
H  H66  1  0.57650000  0.40960000  0.16870000  1.0 0.1186349737
H  H67  1  0.57650000  0.09040000  0.33130000  1.0 0.1186349737
H  H68  1  0.42350000  0.59040000  0.16870000  1.0 0.1186349737
H  H69  1  0.57650000  0.09040000  0.66870000  1.0 0.1186349737
H  H70  1  0.42350000  0.59040000  0.83130000  1.0 0.1186349737
H  H71  1  0.42350000  0.90960000  0.66870000  1.0 0.1186349737
H  H72  1  0.57650000  0.40960000  0.83130000  1.0 0.1186349737
H  H73  1  0.36550000  0.88230000  0.37980000  1.0 0.0799634885
H  H74  1  0.63450000  0.38230000  0.12020000  1.0 0.0799634885
H  H75  1  0.63450000  0.11770000  0.37980000  1.0 0.0799634885
H  H76  1  0.36550000  0.61770000  0.12020000  1.0 0.0799634885
H  H77  1  0.63450000  0.11770000  0.62020000  1.0 0.0799634885
H  H78  1  0.36550000  0.61770000  0.87980000  1.0 0.0799634885
H  H79  1  0.36550000  0.88230000  0.62020000  1.0 0.0799634885
H  H80  1  0.63450000  0.38230000  0.87980000  1.0 0.0799634885
H  H81  1  0.24530000  0.07130000  0.37430000  1.0 0.0799634885
H  H82  1  0.75470000  0.57130000  0.12570000  1.0 0.0799634885
H  H83  1  0.75470000  0.92870000  0.37430000  1.0 0.0799634885
H  H84  1  0.24530000  0.42870000  0.12570000  1.0 0.0799634885
H  H85  1  0.75470000  0.92870000  0.62570000  1.0 0.0799634885
H  H86  1  0.24530000  0.42870000  0.87430000  1.0 0.0799634885
H  H87  1  0.24530000  0.07130000  0.62570000  1.0 0.0799634885
H  H88  1  0.75470000  0.57130000  0.87430000  1.0 0.0799634885
H  H89  1  0.29870000  0.09810000  0.32420000  1.0 0.0908416789
H  H90  1  0.70130000  0.59810000  0.17580000  1.0 0.0908416789
H  H91  1  0.70130000  0.90190000  0.32420000  1.0 0.0908416789
H  H92  1  0.29870000  0.40190000  0.17580000  1.0 0.0908416789
H  H93  1  0.70130000  0.90190000  0.67580000  1.0 0.0908416789
H  H94  1  0.29870000  0.40190000  0.82420000  1.0 0.0908416789
H  H95  1  0.29870000  0.09810000  0.67580000  1.0 0.0908416789
H  H96  1  0.70130000  0.59810000  0.82420000  1.0 0.0908416789
H  H97  1  0.23130000  0.84740000  0.39910000  1.0 0.0908416789
H  H98  1  0.76870000  0.34740000  0.10090000  1.0 0.0908416789
H  H99  1  0.76870000  0.15260000  0.39910000  1.0 0.0908416789
H  H100  1  0.23130000  0.65260000  0.10090000  1.0 0.0908416789
H  H101  1  0.76870000  0.15260000  0.60090000  1.0 0.0908416789
H  H102  1  0.23130000  0.65260000  0.89910000  1.0 0.0908416789
H  H103  1  0.23130000  0.84740000  0.60090000  1.0 0.0908416789
H  H104  1  0.76870000  0.34740000  0.89910000  1.0 0.0908416789
H  H105  1  0.18110000  0.81420000  0.44890000  1.0 0.0908416789
H  H106  1  0.81890000  0.31420000  0.05110000  1.0 0.0908416789
H  H107  1  0.81890000  0.18580000  0.44890000  1.0 0.0908416789
H  H108  1  0.18110000  0.68580000  0.05110000  1.0 0.0908416789
H  H109  1  0.81890000  0.18580000  0.55110000  1.0 0.0908416789
H  H110  1  0.18110000  0.68580000  0.94890000  1.0 0.0908416789
H  H111  1  0.18110000  0.81420000  0.55110000  1.0 0.0908416789
H  H112  1  0.81890000  0.31420000  0.94890000  1.0 0.0908416789
H  H113  1  0.21790000  0.02380000  0.48060000  1.0 0.0908416789
H  H114  1  0.78210000  0.52380000  0.01940000  1.0 0.0908416789
H  H115  1  0.78210000  0.97620000  0.48060000  1.0 0.0908416789
H  H116  1  0.21790000  0.47620000  0.01940000  1.0 0.0908416789
H  H117  1  0.78210000  0.97620000  0.51940000  1.0 0.0908416789
H  H118  1  0.21790000  0.47620000  0.98060000  1.0 0.0908416789
H  H119  1  0.21790000  0.02380000  0.51940000  1.0 0.0908416789
H  H120  1  0.78210000  0.52380000  0.98060000  1.0 0.0908416789
H  H121  1  0.28620000  0.05000000  0.43410000  1.0 0.098643773
H  H122  1  0.71380000  0.55000000  0.06590000  1.0 0.098643773
H  H123  1  0.71380000  0.95000000  0.43410000  1.0 0.098643773
H  H124  1  0.28620000  0.45000000  0.06590000  1.0 0.098643773
H  H125  1  0.71380000  0.95000000  0.56590000  1.0 0.098643773
H  H126  1  0.28620000  0.45000000  0.93410000  1.0 0.098643773
H  H127  1  0.28620000  0.05000000  0.56590000  1.0 0.098643773
H  H128  1  0.71380000  0.55000000  0.93410000  1.0 0.098643773
H  H129  1  0.99710000  0.75270000  0.52140000  1.0 0.098643773
H  H130  1  0.00290000  0.25270000  0.97860000  1.0 0.098643773
H  H131  1  0.00290000  0.24730000  0.52140000  1.0 0.098643773
H  H132  1  0.99710000  0.74730000  0.97860000  1.0 0.098643773
H  H133  1  0.00290000  0.24730000  0.47860000  1.0 0.098643773
H  H134  1  0.99710000  0.74730000  0.02140000  1.0 0.098643773
H  H135  1  0.99710000  0.75270000  0.47860000  1.0 0.098643773
H  H136  1  0.00290000  0.25270000  0.02140000  1.0 0.098643773
H  H137  1  0.93110000  0.72650000  0.56800000  1.0 0.0908416789
H  H138  1  0.06890000  0.22650000  0.93200000  1.0 0.0908416789
H  H139  1  0.06890000  0.27350000  0.56800000  1.0 0.0908416789
H  H140  1  0.93110000  0.77350000  0.93200000  1.0 0.0908416789
H  H141  1  0.06890000  0.27350000  0.43200000  1.0 0.0908416789
H  H142  1  0.93110000  0.77350000  0.06800000  1.0 0.0908416789
H  H143  1  0.93110000  0.72650000  0.43200000  1.0 0.0908416789
H  H144  1  0.06890000  0.22650000  0.06800000  1.0 0.0908416789
H  H145  1  0.98880000  0.92720000  0.60350000  1.0 0.1090789027
H  H146  1  0.01120000  0.42720000  0.89650000  1.0 0.1090789027
H  H147  1  0.01120000  0.07280000  0.60350000  1.0 0.1090789027
H  H148  1  0.98880000  0.57280000  0.89650000  1.0 0.1090789027
H  H149  1  0.01120000  0.07280000  0.39650000  1.0 0.1090789027
H  H150  1  0.98880000  0.57280000  0.10350000  1.0 0.1090789027
H  H151  1  0.98880000  0.92720000  0.39650000  1.0 0.1090789027
H  H152  1  0.01120000  0.42720000  0.10350000  1.0 0.1090789027
H  H153  1  0.04720000  0.95520000  0.55450000  1.0 0.0799634885
H  H154  1  0.95280000  0.45520000  0.94550000  1.0 0.0799634885
H  H155  1  0.95280000  0.04480000  0.55450000  1.0 0.0799634885
H  H156  1  0.04720000  0.54480000  0.94550000  1.0 0.0799634885
H  H157  1  0.95280000  0.04480000  0.44550000  1.0 0.0799634885
H  H158  1  0.04720000  0.54480000  0.05450000  1.0 0.0799634885
H  H159  1  0.04720000  0.95520000  0.44550000  1.0 0.0799634885
H  H160  1  0.95280000  0.45520000  0.05450000  1.0 0.0799634885
H  H161  1  0.94030000  0.89650000  0.64500000  1.0 0.1090789027
H  H162  1  0.05970000  0.39650000  0.85500000  1.0 0.1090789027
H  H163  1  0.05970000  0.10350000  0.64500000  1.0 0.1090789027
H  H164  1  0.94030000  0.60350000  0.85500000  1.0 0.1090789027
H  H165  1  0.05970000  0.10350000  0.35500000  1.0 0.1090789027
H  H166  1  0.94030000  0.60350000  0.14500000  1.0 0.1090789027
H  H167  1  0.94030000  0.89650000  0.35500000  1.0 0.1090789027
H  H168  1  0.05970000  0.39650000  0.14500000  1.0 0.1090789027
H  H169  1  0.86590000  0.87100000  0.69140000  1.0 0.1186349737
H  H170  1  0.13410000  0.37100000  0.80860000  1.0 0.1186349737
H  H171  1  0.13410000  0.12900000  0.69140000  1.0 0.1186349737
H  H172  1  0.86590000  0.62900000  0.80860000  1.0 0.1186349737
H  H173  1  0.13410000  0.12900000  0.30860000  1.0 0.1186349737
H  H174  1  0.86590000  0.62900000  0.19140000  1.0 0.1186349737
H  H175  1  0.86590000  0.87100000  0.30860000  1.0 0.1186349737
H  H176  1  0.13410000  0.37100000  0.19140000  1.0 0.1186349737
H  H177  1  0.79220000  0.68220000  0.65140000  1.0 0.0799634885
H  H178  1  0.20780000  0.18220000  0.84860000  1.0 0.0799634885
H  H179  1  0.20780000  0.31780000  0.65140000  1.0 0.0799634885
H  H180  1  0.79220000  0.81780000  0.84860000  1.0 0.0799634885
H  H181  1  0.20780000  0.31780000  0.34860000  1.0 0.0799634885
H  H182  1  0.79220000  0.81780000  0.15140000  1.0 0.0799634885
H  H183  1  0.79220000  0.68220000  0.34860000  1.0 0.0799634885
H  H184  1  0.20780000  0.18220000  0.15140000  1.0 0.0799634885
H  H185  1  0.86590000  0.70600000  0.60520000  1.0 0.0675670297
H  H186  1  0.13410000  0.20600000  0.89480000  1.0 0.0675670297
H  H187  1  0.13410000  0.29400000  0.60520000  1.0 0.0675670297
H  H188  1  0.86590000  0.79400000  0.89480000  1.0 0.0675670297
H  H189  1  0.13410000  0.29400000  0.39480000  1.0 0.0675670297
H  H190  1  0.86590000  0.79400000  0.10520000  1.0 0.0675670297
H  H191  1  0.86590000  0.70600000  0.39480000  1.0 0.0675670297
H  H192  1  0.13410000  0.20600000  0.10520000  1.0 0.0675670297
H  H193  1  0.37750000  0.30010000  0.06690000  1.0 0.0908416789
H  H194  1  0.62250000  0.80010000  0.43310000  1.0 0.0908416789
H  H195  1  0.62250000  0.69990000  0.06690000  1.0 0.0908416789
H  H196  1  0.37750000  0.19990000  0.43310000  1.0 0.0908416789
H  H197  1  0.62250000  0.69990000  0.93310000  1.0 0.0908416789
H  H198  1  0.37750000  0.19990000  0.56690000  1.0 0.0908416789
H  H199  1  0.37750000  0.30010000  0.93310000  1.0 0.0908416789
H  H200  1  0.62250000  0.80010000  0.56690000  1.0 0.0908416789
H  H201  1  0.38460000  0.37440000  0.02150000  1.0 0.0908416789
H  H202  1  0.61540000  0.87440000  0.47850000  1.0 0.0908416789
H  H203  1  0.61540000  0.62560000  0.02150000  1.0 0.0908416789
H  H204  1  0.38460000  0.12560000  0.47850000  1.0 0.0908416789
H  H205  1  0.61540000  0.62560000  0.97850000  1.0 0.0908416789
H  H206  1  0.38460000  0.12560000  0.52150000  1.0 0.0908416789
H  H207  1  0.38460000  0.37440000  0.97850000  1.0 0.0908416789
H  H208  1  0.61540000  0.87440000  0.52150000  1.0 0.0908416789
H  H209  1  0.58850000  0.45060000  0.05090000  1.0 0.0430572239
H  H210  1  0.41150000  0.95060000  0.44910000  1.0 0.0430572239
H  H211  1  0.41150000  0.54940000  0.05090000  1.0 0.0430572239
H  H212  1  0.58850000  0.04940000  0.44910000  1.0 0.0430572239
H  H213  1  0.41150000  0.54940000  0.94910000  1.0 0.0430572239
H  H214  1  0.58850000  0.04940000  0.55090000  1.0 0.0430572239
H  H215  1  0.58850000  0.45060000  0.94910000  1.0 0.0430572239
H  H216  1  0.41150000  0.95060000  0.55090000  1.0 0.0430572239
H  H217  1  0.58540000  0.37240000  0.09490000  1.0 0.0500154065
H  H218  1  0.41460000  0.87240000  0.40510000  1.0 0.0500154065
H  H219  1  0.41460000  0.62760000  0.09490000  1.0 0.0500154065
H  H220  1  0.58540000  0.12760000  0.40510000  1.0 0.0500154065
H  H221  1  0.41460000  0.62760000  0.90510000  1.0 0.0500154065
H  H222  1  0.58540000  0.12760000  0.59490000  1.0 0.0500154065
H  H223  1  0.58540000  0.37240000  0.90510000  1.0 0.0500154065
H  H224  1  0.41460000  0.87240000  0.59490000  1.0 0.0500154065
H  H225  1  0.40420000  0.09390000  0.34330000  1.0 0.1186349737
H  H226  1  0.59580000  0.59390000  0.15670000  1.0 0.1186349737
H  H227  1  0.59580000  0.90610000  0.34330000  1.0 0.1186349737
H  H228  1  0.40420000  0.40610000  0.15670000  1.0 0.1186349737
H  H229  1  0.59580000  0.90610000  0.65670000  1.0 0.1186349737
H  H230  1  0.40420000  0.40610000  0.84330000  1.0 0.1186349737
H  H231  1  0.40420000  0.09390000  0.65670000  1.0 0.1186349737
H  H232  1  0.59580000  0.59390000  0.84330000  1.0 0.1186349737
H  H233  1  0.35330000  0.06460000  0.39270000  1.0 0.0799634885
H  H234  1  0.64670000  0.56460000  0.10730000  1.0 0.0799634885
H  H235  1  0.64670000  0.93540000  0.39270000  1.0 0.0799634885
H  H236  1  0.35330000  0.43540000  0.10730000  1.0 0.0799634885
H  H237  1  0.64670000  0.93540000  0.60730000  1.0 0.0799634885
H  H238  1  0.35330000  0.43540000  0.89270000  1.0 0.0799634885
H  H239  1  0.35330000  0.06460000  0.60730000  1.0 0.0799634885
H  H240  1  0.64670000  0.56460000  0.89270000  1.0 0.0799634885
H  H241  1  0.26370000  0.87710000  0.35770000  1.0 0.1090789027
H  H242  1  0.73630000  0.37710000  0.14230000  1.0 0.1090789027
H  H243  1  0.73630000  0.12290000  0.35770000  1.0 0.1090789027
H  H244  1  0.26370000  0.62290000  0.14230000  1.0 0.1090789027
H  H245  1  0.73630000  0.12290000  0.64230000  1.0 0.1090789027
H  H246  1  0.26370000  0.62290000  0.85770000  1.0 0.1090789027
H  H247  1  0.26370000  0.87710000  0.64230000  1.0 0.1090789027
H  H248  1  0.73630000  0.37710000  0.85770000  1.0 0.1090789027
H  H249  1  0.31770000  0.90260000  0.30850000  1.0 0.1186349737
H  H250  1  0.68230000  0.40260000  0.19150000  1.0 0.1186349737
H  H251  1  0.68230000  0.09740000  0.30850000  1.0 0.1186349737
H  H252  1  0.31770000  0.59740000  0.19150000  1.0 0.1186349737
H  H253  1  0.68230000  0.09740000  0.69150000  1.0 0.1186349737
H  H254  1  0.31770000  0.59740000  0.80850000  1.0 0.1186349737
H  H255  1  0.31770000  0.90260000  0.69150000  1.0 0.1186349737
H  H256  1  0.68230000  0.40260000  0.80850000  1.0 0.1186349737
H  H257  1  0.10730000  0.99400000  0.45410000  1.0 0.0611735713
H  H258  1  0.89270000  0.49400000  0.04590000  1.0 0.0611735713
H  H259  1  0.89270000  0.00600000  0.45410000  1.0 0.0611735713
H  H260  1  0.10730000  0.50600000  0.04590000  1.0 0.0611735713
H  H261  1  0.89270000  0.00600000  0.54590000  1.0 0.0611735713
H  H262  1  0.10730000  0.50600000  0.95410000  1.0 0.0611735713
H  H263  1  0.10730000  0.99400000  0.54590000  1.0 0.0611735713
H  H264  1  0.89270000  0.49400000  0.95410000  1.0 0.0611735713
H  H265  1  0.16280000  0.01340000  0.40400000  1.0 0.0799634885
H  H266  1  0.83720000  0.51340000  0.09600000  1.0 0.0799634885
H  H267  1  0.83720000  0.98660000  0.40400000  1.0 0.0799634885
H  H268  1  0.16280000  0.48660000  0.09600000  1.0 0.0799634885
H  H269  1  0.83720000  0.98660000  0.59600000  1.0 0.0799634885
H  H270  1  0.16280000  0.48660000  0.90400000  1.0 0.0799634885
H  H271  1  0.16280000  0.01340000  0.59600000  1.0 0.0799634885
H  H272  1  0.83720000  0.51340000  0.90400000  1.0 0.0799634885
H  H273  1  0.34720000  0.89600000  0.43290000  1.0 0.0611735713
H  H274  1  0.65280000  0.39600000  0.06710000  1.0 0.0611735713
H  H275  1  0.65280000  0.10400000  0.43290000  1.0 0.0611735713
H  H276  1  0.34720000  0.60400000  0.06710000  1.0 0.0611735713
H  H277  1  0.65280000  0.10400000  0.56710000  1.0 0.0611735713
H  H278  1  0.34720000  0.60400000  0.93290000  1.0 0.0611735713
H  H279  1  0.34720000  0.89600000  0.56710000  1.0 0.0611735713
H  H280  1  0.65280000  0.39600000  0.93290000  1.0 0.0611735713
H  H281  1  0.27660000  0.84940000  0.47620000  1.0 0.098643773
H  H282  1  0.72340000  0.34940000  0.02380000  1.0 0.098643773
H  H283  1  0.72340000  0.15060000  0.47620000  1.0 0.098643773
H  H284  1  0.27660000  0.65060000  0.02380000  1.0 0.098643773
H  H285  1  0.72340000  0.15060000  0.52380000  1.0 0.098643773
H  H286  1  0.27660000  0.65060000  0.97620000  1.0 0.098643773
H  H287  1  0.27660000  0.84940000  0.52380000  1.0 0.098643773
H  H288  1  0.72340000  0.34940000  0.97620000  1.0 0.098643773
H  H289  1  0.86310000  0.89410000  0.56180000  1.0 0.1186349737
H  H290  1  0.13690000  0.39410000  0.93820000  1.0 0.1186349737
H  H291  1  0.13690000  0.10590000  0.56180000  1.0 0.1186349737
H  H292  1  0.86310000  0.60590000  0.93820000  1.0 0.1186349737
H  H293  1  0.13690000  0.10590000  0.43820000  1.0 0.1186349737
H  H294  1  0.86310000  0.60590000  0.06180000  1.0 0.1186349737
H  H295  1  0.86310000  0.89410000  0.43820000  1.0 0.1186349737
H  H296  1  0.13690000  0.39410000  0.06180000  1.0 0.1186349737
H  H297  1  0.93230000  0.91130000  0.51430000  1.0 0.0611735713
H  H298  1  0.06770000  0.41130000  0.98570000  1.0 0.0611735713
H  H299  1  0.06770000  0.08870000  0.51430000  1.0 0.0611735713
H  H300  1  0.93230000  0.58870000  0.98570000  1.0 0.0611735713
H  H301  1  0.06770000  0.08870000  0.48570000  1.0 0.0611735713
H  H302  1  0.93230000  0.58870000  0.01430000  1.0 0.0611735713
H  H303  1  0.93230000  0.91130000  0.48570000  1.0 0.0611735713
H  H304  1  0.06770000  0.41130000  0.01430000  1.0 0.0611735713
H  H305  1  0.09860000  0.77960000  0.54910000  1.0 0.098643773
H  H306  1  0.90140000  0.27960000  0.95090000  1.0 0.098643773
H  H307  1  0.90140000  0.22040000  0.54910000  1.0 0.098643773
H  H308  1  0.09860000  0.72040000  0.95090000  1.0 0.098643773
H  H309  1  0.90140000  0.22040000  0.45090000  1.0 0.098643773
H  H310  1  0.09860000  0.72040000  0.04910000  1.0 0.098643773
H  H311  1  0.09860000  0.77960000  0.45090000  1.0 0.098643773
H  H312  1  0.90140000  0.27960000  0.04910000  1.0 0.098643773
H  H313  1  0.00660000  0.73780000  0.58730000  1.0 0.098643773
H  H314  1  0.99340000  0.23780000  0.91270000  1.0 0.098643773
H  H315  1  0.99340000  0.26220000  0.58730000  1.0 0.098643773
H  H316  1  0.00660000  0.76220000  0.91270000  1.0 0.098643773
H  H317  1  0.99340000  0.26220000  0.41270000  1.0 0.098643773
H  H318  1  0.00660000  0.76220000  0.08730000  1.0 0.098643773
H  H319  1  0.00660000  0.73780000  0.41270000  1.0 0.098643773
H  H320  1  0.99340000  0.23780000  0.08730000  1.0 0.098643773
H  H321  1  0.76920000  0.88710000  0.66050000  1.0 0.0908416789
H  H322  1  0.23080000  0.38710000  0.83950000  1.0 0.0908416789
H  H323  1  0.23080000  0.11290000  0.66050000  1.0 0.0908416789
H  H324  1  0.76920000  0.61290000  0.83950000  1.0 0.0908416789
H  H325  1  0.23080000  0.11290000  0.33950000  1.0 0.0908416789
H  H326  1  0.76920000  0.61290000  0.16050000  1.0 0.0908416789
H  H327  1  0.76920000  0.88710000  0.33950000  1.0 0.0908416789
H  H328  1  0.23080000  0.38710000  0.16050000  1.0 0.0908416789
H  H329  1  0.84090000  0.91250000  0.61530000  1.0 0.0799634885
H  H330  1  0.15910000  0.41250000  0.88470000  1.0 0.0799634885
H  H331  1  0.15910000  0.08750000  0.61530000  1.0 0.0799634885
H  H332  1  0.84090000  0.58750000  0.88470000  1.0 0.0799634885
H  H333  1  0.15910000  0.08750000  0.38470000  1.0 0.0799634885
H  H334  1  0.84090000  0.58750000  0.11530000  1.0 0.0799634885
H  H335  1  0.84090000  0.91250000  0.38470000  1.0 0.0799634885
H  H336  1  0.15910000  0.41250000  0.11530000  1.0 0.0799634885
H  H337  1  0.91610000  0.69940000  0.61650000  1.0 0.0675670297
H  H338  1  0.08390000  0.19940000  0.88350000  1.0 0.0675670297
H  H339  1  0.08390000  0.30060000  0.61650000  1.0 0.0675670297
H  H340  1  0.91610000  0.80060000  0.88350000  1.0 0.0675670297
H  H341  1  0.08390000  0.30060000  0.38350000  1.0 0.0675670297
H  H342  1  0.91610000  0.80060000  0.11650000  1.0 0.0675670297
H  H343  1  0.91610000  0.69940000  0.38350000  1.0 0.0675670297
H  H344  1  0.08390000  0.19940000  0.11650000  1.0 0.0675670297
H  H345  1  0.84720000  0.67620000  0.66170000  1.0 0.0675670297
H  H346  1  0.15280000  0.17620000  0.83830000  1.0 0.0675670297
H  H347  1  0.15280000  0.32380000  0.66170000  1.0 0.0675670297
H  H348  1  0.84720000  0.82380000  0.83830000  1.0 0.0675670297
H  H349  1  0.15280000  0.32380000  0.33830000  1.0 0.0675670297
H  H350  1  0.84720000  0.82380000  0.16170000  1.0 0.0675670297
H  H351  1  0.84720000  0.67620000  0.33830000  1.0 0.0675670297
H  H352  1  0.15280000  0.17620000  0.16170000  1.0 0.0675670297
C  C1  1  0.48490000  0.11720000  0.19142000  1.0 0.5702159473
C  C2  1  0.51510000  0.61720000  0.30858000  1.0 0.5702159473
C  C3  1  0.51510000  0.88280000  0.19142000  1.0 0.5702159473
C  C4  1  0.48490000  0.38280000  0.30858000  1.0 0.5702159473
C  C5  1  0.51510000  0.88280000  0.80858000  1.0 0.5702159473
C  C6  1  0.48490000  0.38280000  0.69142000  1.0 0.5702159473
C  C7  1  0.48490000  0.11720000  0.80858000  1.0 0.5702159473
C  C8  1  0.51510000  0.61720000  0.69142000  1.0 0.5702159473
C  C9  1  0.48380000  0.17380000  0.16475000  1.0 -0.0275411586
C  C10  1  0.51620000  0.67380000  0.33525000  1.0 -0.0275411586
C  C11  1  0.51620000  0.82620000  0.16475000  1.0 -0.0275411586
C  C12  1  0.48380000  0.32620000  0.33525000  1.0 -0.0275411586
C  C13  1  0.51620000  0.82620000  0.83525000  1.0 -0.0275411586
C  C14  1  0.48380000  0.32620000  0.66475000  1.0 -0.0275411586
C  C15  1  0.48380000  0.17380000  0.83525000  1.0 -0.0275411586
C  C16  1  0.51620000  0.67380000  0.66475000  1.0 -0.0275411586
C  C17  1  0.41770000  0.20850000  0.15540000  1.0 -0.1193135955
C  C18  1  0.58230000  0.70850000  0.34460000  1.0 -0.1193135955
C  C19  1  0.58230000  0.79150000  0.15540000  1.0 -0.1193135955
C  C20  1  0.41770000  0.29150000  0.34460000  1.0 -0.1193135955
C  C21  1  0.58230000  0.79150000  0.84460000  1.0 -0.1193135955
C  C22  1  0.41770000  0.29150000  0.65540000  1.0 -0.1193135955
C  C23  1  0.41770000  0.20850000  0.84460000  1.0 -0.1193135955
C  C24  1  0.58230000  0.70850000  0.65540000  1.0 -0.1193135955
C  C25  1  0.41700000  0.25920000  0.12995000  1.0 -0.2019863917
C  C26  1  0.58300000  0.75920000  0.37005000  1.0 -0.2019863917
C  C27  1  0.58300000  0.74080000  0.12995000  1.0 -0.2019863917
C  C28  1  0.41700000  0.24080000  0.37005000  1.0 -0.2019863917
C  C29  1  0.58300000  0.74080000  0.87005000  1.0 -0.2019863917
C  C30  1  0.41700000  0.24080000  0.62995000  1.0 -0.2019863917
C  C31  1  0.41700000  0.25920000  0.87005000  1.0 -0.2019863917
C  C32  1  0.58300000  0.75920000  0.62995000  1.0 -0.2019863917
C  C33  1  0.48400000  0.27340000  0.11332000  1.0 0.0675670297
C  C34  1  0.51600000  0.77340000  0.38668000  1.0 0.0675670297
C  C35  1  0.51600000  0.72660000  0.11332000  1.0 0.0675670297
C  C36  1  0.48400000  0.22660000  0.38668000  1.0 0.0675670297
C  C37  1  0.51600000  0.72660000  0.88668000  1.0 0.0675670297
C  C38  1  0.48400000  0.22660000  0.61332000  1.0 0.0675670297
C  C39  1  0.48400000  0.27340000  0.88668000  1.0 0.0675670297
C  C40  1  0.51600000  0.77340000  0.61332000  1.0 0.0675670297
C  C41  1  0.55040000  0.23800000  0.12292000  1.0 -0.159473621
C  C42  1  0.44960000  0.73800000  0.37708000  1.0 -0.159473621
C  C43  1  0.44960000  0.76200000  0.12292000  1.0 -0.159473621
C  C44  1  0.55040000  0.26200000  0.37708000  1.0 -0.159473621
C  C45  1  0.44960000  0.76200000  0.87708000  1.0 -0.159473621
C  C46  1  0.55040000  0.26200000  0.62292000  1.0 -0.159473621
C  C47  1  0.55040000  0.23800000  0.87708000  1.0 -0.159473621
C  C48  1  0.44960000  0.73800000  0.62292000  1.0 -0.159473621
C  C49  1  0.55030000  0.18820000  0.14784000  1.0 -0.0920175739
C  C50  1  0.44970000  0.68820000  0.35216000  1.0 -0.0920175739
C  C51  1  0.44970000  0.81180000  0.14784000  1.0 -0.0920175739
C  C52  1  0.55030000  0.31180000  0.35216000  1.0 -0.0920175739
C  C53  1  0.44970000  0.81180000  0.85216000  1.0 -0.0920175739
C  C54  1  0.55030000  0.31180000  0.64784000  1.0 -0.0920175739
C  C55  1  0.55030000  0.18820000  0.85216000  1.0 -0.0920175739
C  C56  1  0.44970000  0.68820000  0.64784000  1.0 -0.0920175739
C  C57  1  0.48360000  0.32450000  0.08476000  1.0 0.0611735713
C  C58  1  0.51640000  0.82450000  0.41524000  1.0 0.0611735713
C  C59  1  0.51640000  0.67550000  0.08476000  1.0 0.0611735713
C  C60  1  0.48360000  0.17550000  0.41524000  1.0 0.0611735713
C  C61  1  0.51640000  0.67550000  0.91524000  1.0 0.0611735713
C  C62  1  0.48360000  0.17550000  0.58476000  1.0 0.0611735713
C  C63  1  0.48360000  0.32450000  0.91524000  1.0 0.0611735713
C  C64  1  0.51640000  0.82450000  0.58476000  1.0 0.0611735713
C  C65  1  0.48940000  0.41780000  0.03034000  1.0 0.0611735713
C  C66  1  0.51060000  0.91780000  0.46966000  1.0 0.0611735713
C  C67  1  0.51060000  0.58220000  0.03034000  1.0 0.0611735713
C  C68  1  0.48940000  0.08220000  0.46966000  1.0 0.0611735713
C  C69  1  0.51060000  0.58220000  0.96966000  1.0 0.0611735713
C  C70  1  0.48940000  0.08220000  0.53034000  1.0 0.0611735713
C  C71  1  0.48940000  0.41780000  0.96966000  1.0 0.0611735713
C  C72  1  0.51060000  0.91780000  0.53034000  1.0 0.0611735713
C  C73  1  0.44220000  0.39060000  0.08380000  1.0 -0.1093503213
C  C74  1  0.55780000  0.89060000  0.41620000  1.0 -0.1093503213
C  C75  1  0.55780000  0.60940000  0.08380000  1.0 -0.1093503213
C  C76  1  0.44220000  0.10940000  0.41620000  1.0 -0.1093503213
C  C77  1  0.55780000  0.60940000  0.91620000  1.0 -0.1093503213
C  C78  1  0.44220000  0.10940000  0.58380000  1.0 -0.1093503213
C  C79  1  0.44220000  0.39060000  0.91620000  1.0 -0.1093503213
C  C80  1  0.55780000  0.89060000  0.58380000  1.0 -0.1093503213
C  C81  1  0.44270000  0.43580000  0.05632000  1.0 -0.1093503213
C  C82  1  0.55730000  0.93580000  0.44368000  1.0 -0.1093503213
C  C83  1  0.55730000  0.56420000  0.05632000  1.0 -0.1093503213
C  C84  1  0.44270000  0.06420000  0.44368000  1.0 -0.1093503213
C  C85  1  0.55730000  0.56420000  0.94368000  1.0 -0.1093503213
C  C86  1  0.44270000  0.06420000  0.55632000  1.0 -0.1093503213
C  C87  1  0.44270000  0.43580000  0.94368000  1.0 -0.1093503213
C  C88  1  0.55730000  0.93580000  0.55632000  1.0 -0.1093503213
C  C89  1  0.52970000  0.35090000  0.03050000  1.0 -0.0920175739
C  C90  1  0.47030000  0.85090000  0.46950000  1.0 -0.0920175739
C  C91  1  0.47030000  0.64910000  0.03050000  1.0 -0.0920175739
C  C92  1  0.52970000  0.14910000  0.46950000  1.0 -0.0920175739
C  C93  1  0.47030000  0.64910000  0.96950000  1.0 -0.0920175739
C  C94  1  0.52970000  0.14910000  0.53050000  1.0 -0.0920175739
C  C95  1  0.52970000  0.35090000  0.96950000  1.0 -0.0920175739
C  C96  1  0.47030000  0.85090000  0.53050000  1.0 -0.0920175739
C  C97  1  0.52810000  0.30610000  0.05762000  1.0 -0.0589213849
C  C98  1  0.47190000  0.80610000  0.44238000  1.0 -0.0589213849
C  C99  1  0.47190000  0.69390000  0.05762000  1.0 -0.0589213849
C  C100  1  0.52810000  0.19390000  0.44238000  1.0 -0.0589213849
C  C101  1  0.47190000  0.69390000  0.94238000  1.0 -0.0589213849
C  C102  1  0.52810000  0.19390000  0.55762000  1.0 -0.0589213849
C  C103  1  0.52810000  0.30610000  0.94238000  1.0 -0.0589213849
C  C104  1  0.47190000  0.80610000  0.55762000  1.0 -0.0589213849
C  C105  1  0.38540000  0.94100000  0.33900000  1.0 -0.0704394378
C  C106  1  0.61460000  0.44100000  0.16100000  1.0 -0.0704394378
C  C107  1  0.61460000  0.05900000  0.33900000  1.0 -0.0704394378
C  C108  1  0.38540000  0.55900000  0.16100000  1.0 -0.0704394378
C  C109  1  0.61460000  0.05900000  0.66100000  1.0 -0.0704394378
C  C110  1  0.38540000  0.55900000  0.83900000  1.0 -0.0704394378
C  C111  1  0.38540000  0.94100000  0.66100000  1.0 -0.0704394378
C  C112  1  0.61460000  0.44100000  0.83900000  1.0 -0.0704394378
C  C113  1  0.35160000  0.92490000  0.36850000  1.0 -0.0589213849
C  C114  1  0.64840000  0.42490000  0.13150000  1.0 -0.0589213849
C  C115  1  0.64840000  0.07510000  0.36850000  1.0 -0.0589213849
C  C116  1  0.35160000  0.57510000  0.13150000  1.0 -0.0589213849
C  C117  1  0.64840000  0.07510000  0.63150000  1.0 -0.0589213849
C  C118  1  0.35160000  0.57510000  0.86850000  1.0 -0.0589213849
C  C119  1  0.35160000  0.92490000  0.63150000  1.0 -0.0589213849
C  C120  1  0.64840000  0.42490000  0.86850000  1.0 -0.0589213849
C  C121  1  0.27930000  0.03800000  0.36480000  1.0 -0.0920175739
C  C122  1  0.72070000  0.53800000  0.13520000  1.0 -0.0920175739
C  C123  1  0.72070000  0.96200000  0.36480000  1.0 -0.0920175739
C  C124  1  0.27930000  0.46200000  0.13520000  1.0 -0.0920175739
C  C125  1  0.72070000  0.96200000  0.63520000  1.0 -0.0920175739
C  C126  1  0.27930000  0.46200000  0.86480000  1.0 -0.0920175739
C  C127  1  0.27930000  0.03800000  0.63520000  1.0 -0.0920175739
C  C128  1  0.72070000  0.53800000  0.86480000  1.0 -0.0920175739
C  C129  1  0.31140000  0.05430000  0.33482000  1.0 -0.0704394378
C  C130  1  0.68860000  0.55430000  0.16518000  1.0 -0.0704394378
C  C131  1  0.68860000  0.94570000  0.33482000  1.0 -0.0704394378
C  C132  1  0.31140000  0.44570000  0.16518000  1.0 -0.0704394378
C  C133  1  0.68860000  0.94570000  0.66518000  1.0 -0.0704394378
C  C134  1  0.31140000  0.44570000  0.83482000  1.0 -0.0704394378
C  C135  1  0.31140000  0.05430000  0.66518000  1.0 -0.0704394378
C  C136  1  0.68860000  0.55430000  0.83482000  1.0 -0.0704394378
C  C137  1  0.23120000  0.88150000  0.41590000  1.0 -0.1093503213
C  C138  1  0.76880000  0.38150000  0.08410000  1.0 -0.1093503213
C  C139  1  0.76880000  0.11850000  0.41590000  1.0 -0.1093503213
C  C140  1  0.23120000  0.61850000  0.08410000  1.0 -0.1093503213
C  C141  1  0.76880000  0.11850000  0.58410000  1.0 -0.1093503213
C  C142  1  0.23120000  0.61850000  0.91590000  1.0 -0.1093503213
C  C143  1  0.23120000  0.88150000  0.58410000  1.0 -0.1093503213
C  C144  1  0.76880000  0.38150000  0.91590000  1.0 -0.1093503213
C  C145  1  0.19690000  0.86300000  0.44527000  1.0 -0.0920175739
C  C146  1  0.80310000  0.36300000  0.05473000  1.0 -0.0920175739
C  C147  1  0.80310000  0.13700000  0.44527000  1.0 -0.0920175739
C  C148  1  0.19690000  0.63700000  0.05473000  1.0 -0.0920175739
C  C149  1  0.80310000  0.13700000  0.55473000  1.0 -0.0920175739
C  C150  1  0.19690000  0.63700000  0.94527000  1.0 -0.0920175739
C  C151  1  0.19690000  0.86300000  0.55473000  1.0 -0.0920175739
C  C152  1  0.80310000  0.36300000  0.94527000  1.0 -0.0920175739
C  C153  1  0.22110000  0.98770000  0.46455000  1.0 -0.0782061207
C  C154  1  0.77890000  0.48770000  0.03545000  1.0 -0.0782061207
C  C155  1  0.77890000  0.01230000  0.46455000  1.0 -0.0782061207
C  C156  1  0.22110000  0.51230000  0.03545000  1.0 -0.0782061207
C  C157  1  0.77890000  0.01230000  0.53545000  1.0 -0.0782061207
C  C158  1  0.22110000  0.51230000  0.96455000  1.0 -0.0782061207
C  C159  1  0.22110000  0.98770000  0.53545000  1.0 -0.0782061207
C  C160  1  0.77890000  0.48770000  0.96455000  1.0 -0.0782061207
C  C161  1  0.26070000  0.00470000  0.43623000  1.0 -0.1019138116
C  C162  1  0.73930000  0.50470000  0.06377000  1.0 -0.1019138116
C  C163  1  0.73930000  0.99530000  0.43623000  1.0 -0.1019138116
C  C164  1  0.26070000  0.49530000  0.06377000  1.0 -0.1019138116
C  C165  1  0.73930000  0.99530000  0.56377000  1.0 -0.1019138116
C  C166  1  0.26070000  0.49530000  0.93623000  1.0 -0.1019138116
C  C167  1  0.26070000  0.00470000  0.56377000  1.0 -0.1019138116
C  C168  1  0.73930000  0.50470000  0.93623000  1.0 -0.1019138116
C  C169  1  0.99280000  0.79010000  0.53680000  1.0 -0.0275411586
C  C170  1  0.00720000  0.29010000  0.96320000  1.0 -0.0275411586
C  C171  1  0.00720000  0.20990000  0.53680000  1.0 -0.0275411586
C  C172  1  0.99280000  0.70990000  0.96320000  1.0 -0.0275411586
C  C173  1  0.00720000  0.20990000  0.46320000  1.0 -0.0275411586
C  C174  1  0.99280000  0.70990000  0.03680000  1.0 -0.0275411586
C  C175  1  0.99280000  0.79010000  0.46320000  1.0 -0.0275411586
C  C176  1  0.00720000  0.29010000  0.03680000  1.0 -0.0275411586
C  C177  1  0.95130000  0.77380000  0.56460000  1.0 -0.0704394378
C  C178  1  0.04870000  0.27380000  0.93540000  1.0 -0.0704394378
C  C179  1  0.04870000  0.22620000  0.56460000  1.0 -0.0704394378
C  C180  1  0.95130000  0.72620000  0.93540000  1.0 -0.0704394378
C  C181  1  0.04870000  0.22620000  0.43540000  1.0 -0.0704394378
C  C182  1  0.95130000  0.72620000  0.06460000  1.0 -0.0704394378
C  C183  1  0.95130000  0.77380000  0.43540000  1.0 -0.0704394378
C  C184  1  0.04870000  0.27380000  0.06460000  1.0 -0.0704394378
C  C185  1  0.98510000  0.89520000  0.58593000  1.0 -0.1751377365
C  C186  1  0.01490000  0.39520000  0.91407000  1.0 -0.1746310822
C  C187  1  0.01490000  0.10480000  0.58593000  1.0 -0.1746310822
C  C188  1  0.98510000  0.60480000  0.91407000  1.0 -0.1751377365
C  C189  1  0.01490000  0.10480000  0.41407000  1.0 -0.1746310822
C  C190  1  0.98510000  0.60480000  0.08593000  1.0 -0.1751377365
C  C191  1  0.98510000  0.89520000  0.41407000  1.0 -0.1746310822
C  C192  1  0.01490000  0.39520000  0.08593000  1.0 -0.1751377365
C  C193  1  0.02330000  0.90920000  0.55683000  1.0 -0.1193135955
C  C194  1  0.97670000  0.40920000  0.94317000  1.0 -0.1193135955
C  C195  1  0.97670000  0.09080000  0.55683000  1.0 -0.1193135955
C  C196  1  0.02330000  0.59080000  0.94317000  1.0 -0.1193135955
C  C197  1  0.97670000  0.09080000  0.44317000  1.0 -0.1193135955
C  C198  1  0.02330000  0.59080000  0.05683000  1.0 -0.1193135955
C  C199  1  0.02330000  0.90920000  0.44317000  1.0 -0.1193135955
C  C200  1  0.97670000  0.40920000  0.05683000  1.0 -0.1193135955
C  C201  1  0.90530000  0.85750000  0.64485000  1.0 -0.0505872138
C  C202  1  0.09470000  0.35750000  0.85515000  1.0 -0.0505872138
C  C203  1  0.09470000  0.14250000  0.64485000  1.0 -0.0505872138
C  C204  1  0.90530000  0.64250000  0.85515000  1.0 -0.0505872138
C  C205  1  0.09470000  0.14250000  0.35515000  1.0 -0.0505872138
C  C206  1  0.90530000  0.64250000  0.14485000  1.0 -0.0505872138
C  C207  1  0.90530000  0.85750000  0.35515000  1.0 -0.0505872138
C  C208  1  0.09470000  0.35750000  0.14485000  1.0 -0.0505872138
C  C209  1  0.86070000  0.84250000  0.67284000  1.0 -0.1093503213
C  C210  1  0.13930000  0.34250000  0.82716000  1.0 -0.1093503213
C  C211  1  0.13930000  0.15750000  0.67284000  1.0 -0.1093503213
C  C212  1  0.86070000  0.65750000  0.82716000  1.0 -0.1093503213
C  C213  1  0.13930000  0.15750000  0.32716000  1.0 -0.1093503213
C  C214  1  0.86070000  0.65750000  0.17284000  1.0 -0.1093503213
C  C215  1  0.86070000  0.84250000  0.32716000  1.0 -0.1093503213
C  C216  1  0.13930000  0.34250000  0.17284000  1.0 -0.1093503213
C  C217  1  0.81590000  0.72810000  0.64863000  1.0 -0.0505872138
C  C218  1  0.18410000  0.22810000  0.85137000  1.0 -0.0505872138
C  C219  1  0.18410000  0.27190000  0.64863000  1.0 -0.0505872138
C  C220  1  0.81590000  0.77190000  0.85137000  1.0 -0.0505872138
C  C221  1  0.18410000  0.27190000  0.35137000  1.0 -0.0505872138
C  C222  1  0.81590000  0.77190000  0.14863000  1.0 -0.0505872138
C  C223  1  0.81590000  0.72810000  0.35137000  1.0 -0.0505872138
C  C224  1  0.18410000  0.22810000  0.14863000  1.0 -0.0505872138
C  C225  1  0.86070000  0.74280000  0.62083000  1.0 -0.0704394378
C  C226  1  0.13930000  0.24280000  0.87917000  1.0 -0.0704394378
C  C227  1  0.13930000  0.25720000  0.62083000  1.0 -0.0704394378
C  C228  1  0.86070000  0.75720000  0.87917000  1.0 -0.0704394378
C  C229  1  0.13930000  0.25720000  0.37917000  1.0 -0.0704394378
C  C230  1  0.86070000  0.75720000  0.12083000  1.0 -0.0704394378
C  C231  1  0.86070000  0.74280000  0.37917000  1.0 -0.0704394378
C  C232  1  0.13930000  0.24280000  0.12083000  1.0 -0.0704394378
C  C233  1  0.49420000  0.46290000  0.00000000  1.0 -0.2336544625
C  C234  1  0.50580000  0.96290000  0.50000000  1.0 -0.2336544625
C  C235  1  0.50580000  0.53710000  0.00000000  1.0 -0.2336544625
C  C236  1  0.49420000  0.03710000  0.50000000  1.0 -0.2336544625
C  C237  1  0.39630000  0.01840000  0.28808000  1.0 0.5458827683
C  C238  1  0.60370000  0.51840000  0.21192000  1.0 0.5458827683
C  C239  1  0.60370000  0.98160000  0.28808000  1.0 0.5458827683
C  C240  1  0.39630000  0.48160000  0.21192000  1.0 0.5458827683
C  C241  1  0.60370000  0.98160000  0.71192000  1.0 0.5458827683
C  C242  1  0.39630000  0.48160000  0.78808000  1.0 0.5458827683
C  C243  1  0.39630000  0.01840000  0.71192000  1.0 0.5458827683
C  C244  1  0.60370000  0.51840000  0.78808000  1.0 0.5458827683
C  C245  1  0.36400000  0.00270000  0.32066000  1.0 0.0026432521
C  C246  1  0.63600000  0.50270000  0.17934000  1.0 0.0026432521
C  C247  1  0.63600000  0.99730000  0.32066000  1.0 0.0026432521
C  C248  1  0.36400000  0.49730000  0.17934000  1.0 0.0026432521
C  C249  1  0.63600000  0.99730000  0.67934000  1.0 0.0026432521
C  C250  1  0.36400000  0.49730000  0.82066000  1.0 0.0026432521
C  C251  1  0.36400000  0.00270000  0.67934000  1.0 0.0026432521
C  C252  1  0.63600000  0.50270000  0.82066000  1.0 0.0026432521
C  C253  1  0.29820000  0.97180000  0.38069000  1.0 0.0500154065
C  C254  1  0.70180000  0.47180000  0.11931000  1.0 0.0500154065
C  C255  1  0.70180000  0.02820000  0.38069000  1.0 0.0500154065
C  C256  1  0.29820000  0.52820000  0.11931000  1.0 0.0500154065
C  C257  1  0.70180000  0.02820000  0.61931000  1.0 0.0500154065
C  C258  1  0.29820000  0.52820000  0.88069000  1.0 0.0500154065
C  C259  1  0.29820000  0.97180000  0.61931000  1.0 0.0500154065
C  C260  1  0.70180000  0.47180000  0.88069000  1.0 0.0500154065
C  C261  1  0.26150000  0.95410000  0.41170000  1.0 0.0500154065
C  C262  1  0.73850000  0.45410000  0.08830000  1.0 0.0500154065
C  C263  1  0.73850000  0.04590000  0.41170000  1.0 0.0500154065
C  C264  1  0.26150000  0.54590000  0.08830000  1.0 0.0500154065
C  C265  1  0.73850000  0.04590000  0.58830000  1.0 0.0500154065
C  C266  1  0.26150000  0.54590000  0.91170000  1.0 0.0500154065
C  C267  1  0.26150000  0.95410000  0.58830000  1.0 0.0500154065
C  C268  1  0.73850000  0.45410000  0.91170000  1.0 0.0500154065
C  C269  1  0.18570000  0.91820000  0.46978000  1.0 0.0799634885
C  C270  1  0.81430000  0.41820000  0.03022000  1.0 0.0799634885
C  C271  1  0.81430000  0.08180000  0.46978000  1.0 0.0799634885
C  C272  1  0.18570000  0.58180000  0.03022000  1.0 0.0799634885
C  C273  1  0.81430000  0.08180000  0.53022000  1.0 0.0799634885
C  C274  1  0.18570000  0.58180000  0.96978000  1.0 0.0799634885
C  C275  1  0.18570000  0.91820000  0.53022000  1.0 0.0799634885
C  C276  1  0.81430000  0.41820000  0.96978000  1.0 0.0799634885
C  C277  1  0.14260000  0.90040000  0.50000000  1.0 -0.2019863917
C  C278  1  0.85740000  0.40040000  0.00000000  1.0 -0.2019863917
C  C279  1  0.85740000  0.09960000  0.50000000  1.0 -0.2019863917
C  C280  1  0.14260000  0.59960000  0.00000000  1.0 -0.2019863917
C  C281  1  0.07200000  0.87370000  0.50000000  1.0 -0.2231055505
C  C282  1  0.92800000  0.37370000  0.00000000  1.0 -0.2231055505
C  C283  1  0.92800000  0.12630000  0.50000000  1.0 -0.2231055505
C  C284  1  0.07200000  0.62630000  0.00000000  1.0 -0.2231055505
C  C285  1  0.02810000  0.85760000  0.53041000  1.0 0.0611735713
C  C286  1  0.97190000  0.35760000  0.96959000  1.0 0.0611735713
C  C287  1  0.97190000  0.14240000  0.53041000  1.0 0.0611735713
C  C288  1  0.02810000  0.64240000  0.96959000  1.0 0.0611735713
C  C289  1  0.97190000  0.14240000  0.46959000  1.0 0.0611735713
C  C290  1  0.02810000  0.64240000  0.03041000  1.0 0.0611735713
C  C291  1  0.02810000  0.85760000  0.46959000  1.0 0.0611735713
C  C292  1  0.97190000  0.35760000  0.03041000  1.0 0.0611735713
C  C293  1  0.94100000  0.82950000  0.58688000  1.0 0.0500154065
C  C294  1  0.05900000  0.32950000  0.91312000  1.0 0.0500154065
C  C295  1  0.05900000  0.17050000  0.58688000  1.0 0.0500154065
C  C296  1  0.94100000  0.67050000  0.91312000  1.0 0.0500154065
C  C297  1  0.05900000  0.17050000  0.41312000  1.0 0.0500154065
C  C298  1  0.94100000  0.67050000  0.08688000  1.0 0.0500154065
C  C299  1  0.94100000  0.82950000  0.41312000  1.0 0.0500154065
C  C300  1  0.05900000  0.32950000  0.08688000  1.0 0.0500154065
C  C301  1  0.47750000  0.28060000  0.23950000  1.0 0.167150508
C  C302  1  0.52250000  0.78060000  0.26050000  1.0 0.167150508
C  C303  1  0.52250000  0.71940000  0.23950000  1.0 0.167150508
C  C304  1  0.47750000  0.21940000  0.26050000  1.0 0.167150508
C  C305  1  0.52250000  0.71940000  0.76050000  1.0 0.167150508
C  C306  1  0.47750000  0.21940000  0.73950000  1.0 0.167150508
C  C307  1  0.47750000  0.28060000  0.76050000  1.0 0.167150508
C  C308  1  0.52250000  0.78060000  0.73950000  1.0 0.167150508
C  C309  1  0.54950000  0.19850000  0.27590000  1.0 -0.0704394378
C  C310  1  0.45050000  0.69850000  0.22410000  1.0 -0.0704394378
C  C311  1  0.45050000  0.80150000  0.27590000  1.0 -0.0704394378
C  C312  1  0.54950000  0.30150000  0.22410000  1.0 -0.0704394378
C  C313  1  0.45050000  0.80150000  0.72410000  1.0 -0.0704394378
C  C314  1  0.54950000  0.30150000  0.77590000  1.0 -0.0704394378
C  C315  1  0.54950000  0.19850000  0.72410000  1.0 -0.0704394378
C  C316  1  0.45050000  0.69850000  0.77590000  1.0 -0.0704394378
C  C317  1  0.61340000  0.27070000  0.23050000  1.0 -0.0416048809
C  C318  1  0.38660000  0.77070000  0.26950000  1.0 -0.0416048809
C  C319  1  0.38660000  0.72930000  0.23050000  1.0 -0.0416048809
C  C320  1  0.61340000  0.22930000  0.26950000  1.0 -0.0416048809
C  C321  1  0.38660000  0.72930000  0.76950000  1.0 -0.0416048809
C  C322  1  0.61340000  0.22930000  0.73050000  1.0 -0.0416048809
C  C323  1  0.61340000  0.27070000  0.76950000  1.0 -0.0416048809
C  C324  1  0.38660000  0.77070000  0.73050000  1.0 -0.0416048809
C  C325  1  0.89750000  0.81200000  0.61646000  1.0 0.0430572239
C  C326  1  0.10250000  0.31200000  0.88354000  1.0 0.0430572239
C  C327  1  0.10250000  0.18800000  0.61646000  1.0 0.0430572239
C  C328  1  0.89750000  0.68800000  0.88354000  1.0 0.0430572239
C  C329  1  0.10250000  0.18800000  0.38354000  1.0 0.0430572239
C  C330  1  0.89750000  0.68800000  0.11646000  1.0 0.0430572239
C  C331  1  0.89750000  0.81200000  0.38354000  1.0 0.0430572239
C  C332  1  0.10250000  0.31200000  0.11646000  1.0 0.0430572239
C  C333  1  0.80850000  0.78310000  0.67135000  1.0 -0.0055380513
C  C334  1  0.19150000  0.28310000  0.82865000  1.0 -0.0055380513
C  C335  1  0.19150000  0.21690000  0.67135000  1.0 -0.0055380513
C  C336  1  0.80850000  0.71690000  0.82865000  1.0 -0.0055380513
C  C337  1  0.19150000  0.21690000  0.32865000  1.0 -0.0055380513
C  C338  1  0.80850000  0.71690000  0.17135000  1.0 -0.0055380513
C  C339  1  0.80850000  0.78310000  0.32865000  1.0 -0.0055380513
C  C340  1  0.19150000  0.28310000  0.17135000  1.0 -0.0055380513
C  C341  1  0.75850000  0.76710000  0.70040000  1.0 0.5395717689
C  C342  1  0.24150000  0.26710000  0.79960000  1.0 0.5395717689
C  C343  1  0.24150000  0.23290000  0.70040000  1.0 0.5395717689
C  C344  1  0.75850000  0.73290000  0.79960000  1.0 0.5395717689
C  C345  1  0.24150000  0.23290000  0.29960000  1.0 0.5395717689
C  C346  1  0.75850000  0.73290000  0.20040000  1.0 0.5395717689
C  C347  1  0.75850000  0.76710000  0.29960000  1.0 0.5395717689
C  C348  1  0.24150000  0.26710000  0.20040000  1.0 0.5395717689
C  C349  1  0.42130000  0.32820000  0.06310000  1.0 -0.0589213849
C  C350  1  0.57870000  0.82820000  0.43690000  1.0 -0.0589213849
C  C351  1  0.57870000  0.67180000  0.06310000  1.0 -0.0589213849
C  C352  1  0.42130000  0.17180000  0.43690000  1.0 -0.0589213849
C  C353  1  0.57870000  0.67180000  0.93690000  1.0 -0.0589213849
C  C354  1  0.42130000  0.17180000  0.56310000  1.0 -0.0589213849
C  C355  1  0.42130000  0.32820000  0.93690000  1.0 -0.0589213849
C  C356  1  0.57870000  0.82820000  0.56310000  1.0 -0.0589213849
C  C357  1  0.42520000  0.37360000  0.03590000  1.0 -0.0704394378
C  C358  1  0.57480000  0.87360000  0.46410000  1.0 -0.0704394378
C  C359  1  0.57480000  0.62640000  0.03590000  1.0 -0.0704394378
C  C360  1  0.42520000  0.12640000  0.46410000  1.0 -0.0704394378
C  C361  1  0.57480000  0.62640000  0.96410000  1.0 -0.0704394378
C  C362  1  0.42520000  0.12640000  0.53590000  1.0 -0.0704394378
C  C363  1  0.42520000  0.37360000  0.96410000  1.0 -0.0704394378
C  C364  1  0.57480000  0.87360000  0.53590000  1.0 -0.0704394378
C  C365  1  0.54730000  0.41820000  0.05350000  1.0 -0.1019138116
C  C366  1  0.45270000  0.91820000  0.44650000  1.0 -0.1019138116
C  C367  1  0.45270000  0.58180000  0.05350000  1.0 -0.1019138116
C  C368  1  0.54730000  0.08180000  0.44650000  1.0 -0.1019138116
C  C369  1  0.45270000  0.58180000  0.94650000  1.0 -0.1019138116
C  C370  1  0.54730000  0.08180000  0.55350000  1.0 -0.1019138116
C  C371  1  0.54730000  0.41820000  0.94650000  1.0 -0.1019138116
C  C372  1  0.45270000  0.91820000  0.55350000  1.0 -0.1019138116
C  C373  1  0.54540000  0.37180000  0.08010000  1.0 -0.1193135955
C  C374  1  0.45460000  0.87180000  0.41990000  1.0 -0.1193135955
C  C375  1  0.45460000  0.62820000  0.08010000  1.0 -0.1193135955
C  C376  1  0.54540000  0.12820000  0.41990000  1.0 -0.1193135955
C  C377  1  0.45460000  0.62820000  0.91990000  1.0 -0.1193135955
C  C378  1  0.54540000  0.12820000  0.58010000  1.0 -0.1193135955
C  C379  1  0.54540000  0.37180000  0.91990000  1.0 -0.1193135955
C  C380  1  0.45460000  0.87180000  0.58010000  1.0 -0.1193135955
C  C381  1  0.37550000  0.05060000  0.34590000  1.0 -0.0704394378
C  C382  1  0.62450000  0.55060000  0.15410000  1.0 -0.0704394378
C  C383  1  0.62450000  0.94940000  0.34590000  1.0 -0.0704394378
C  C384  1  0.37550000  0.44940000  0.15410000  1.0 -0.0704394378
C  C385  1  0.62450000  0.94940000  0.65410000  1.0 -0.0704394378
C  C386  1  0.37550000  0.44940000  0.84590000  1.0 -0.0704394378
C  C387  1  0.37550000  0.05060000  0.65410000  1.0 -0.0704394378
C  C388  1  0.62450000  0.55060000  0.84590000  1.0 -0.0704394378
C  C389  1  0.34350000  0.03310000  0.37540000  1.0 -0.0505872138
C  C390  1  0.65650000  0.53310000  0.12460000  1.0 -0.0505872138
C  C391  1  0.65650000  0.96690000  0.37540000  1.0 -0.0505872138
C  C392  1  0.34350000  0.46690000  0.12460000  1.0 -0.0505872138
C  C393  1  0.65650000  0.96690000  0.62460000  1.0 -0.0505872138
C  C394  1  0.34350000  0.46690000  0.87540000  1.0 -0.0505872138
C  C395  1  0.34350000  0.03310000  0.62460000  1.0 -0.0505872138
C  C396  1  0.65650000  0.53310000  0.87540000  1.0 -0.0505872138
C  C397  1  0.29080000  0.92120000  0.35480000  1.0 -0.0505872138
C  C398  1  0.70920000  0.42120000  0.14520000  1.0 -0.0505872138
C  C399  1  0.70920000  0.07880000  0.35480000  1.0 -0.0505872138
C  C400  1  0.29080000  0.57880000  0.14520000  1.0 -0.0505872138
C  C401  1  0.70920000  0.07880000  0.64520000  1.0 -0.0505872138
C  C402  1  0.29080000  0.57880000  0.85480000  1.0 -0.0505872138
C  C403  1  0.29080000  0.92120000  0.64520000  1.0 -0.0505872138
C  C404  1  0.70920000  0.42120000  0.85480000  1.0 -0.0505872138
C  C405  1  0.32300000  0.93630000  0.32532000  1.0 -0.0782061207
C  C406  1  0.67700000  0.43630000  0.17468000  1.0 -0.0782061207
C  C407  1  0.67700000  0.06370000  0.32532000  1.0 -0.0782061207
C  C408  1  0.32300000  0.56370000  0.17468000  1.0 -0.0782061207
C  C409  1  0.67700000  0.06370000  0.67468000  1.0 -0.0782061207
C  C410  1  0.32300000  0.56370000  0.82532000  1.0 -0.0782061207
C  C411  1  0.32300000  0.93630000  0.67468000  1.0 -0.0782061207
C  C412  1  0.67700000  0.43630000  0.82532000  1.0 -0.0782061207
C  C413  1  0.15310000  0.97040000  0.44889000  1.0 -0.1386038993
C  C414  1  0.84690000  0.47040000  0.05111000  1.0 -0.1386038993
C  C415  1  0.84690000  0.02960000  0.44889000  1.0 -0.1386038993
C  C416  1  0.15310000  0.52960000  0.05111000  1.0 -0.1386038993
C  C417  1  0.84690000  0.02960000  0.55111000  1.0 -0.1386038993
C  C418  1  0.15310000  0.52960000  0.94889000  1.0 -0.1386038993
C  C419  1  0.15310000  0.97040000  0.55111000  1.0 -0.1386038993
C  C420  1  0.84690000  0.47040000  0.94889000  1.0 -0.1386038993
C  C421  1  0.18800000  0.98420000  0.41912000  1.0 -0.1093503213
C  C422  1  0.81200000  0.48420000  0.08088000  1.0 -0.1093503213
C  C423  1  0.81200000  0.01580000  0.41912000  1.0 -0.1019138116
C  C424  1  0.18800000  0.51580000  0.08088000  1.0 -0.1093503213
C  C425  1  0.81200000  0.01580000  0.58088000  1.0 -0.1093503213
C  C426  1  0.18800000  0.51580000  0.91912000  1.0 -0.1019138116
C  C427  1  0.18800000  0.98420000  0.58088000  1.0 -0.1093503213
C  C428  1  0.81200000  0.48420000  0.91912000  1.0 -0.1019138116
C  C429  1  0.29620000  0.90990000  0.43541000  1.0 -0.0782061207
C  C430  1  0.70380000  0.40990000  0.06459000  1.0 -0.0782061207
C  C431  1  0.70380000  0.09010000  0.43541000  1.0 -0.0782061207
C  C432  1  0.29620000  0.59010000  0.06459000  1.0 -0.0782061207
C  C433  1  0.70380000  0.09010000  0.56459000  1.0 -0.0782061207
C  C434  1  0.29620000  0.59010000  0.93541000  1.0 -0.0782061207
C  C435  1  0.29620000  0.90990000  0.56459000  1.0 -0.0782061207
C  C436  1  0.70380000  0.40990000  0.93541000  1.0 -0.0782061207
C  C437  1  0.25620000  0.88600000  0.46286000  1.0 -0.0782061207
C  C438  1  0.74380000  0.38600000  0.03714000  1.0 -0.0782061207
C  C439  1  0.74380000  0.11400000  0.46286000  1.0 -0.0782061207
C  C440  1  0.25620000  0.61400000  0.03714000  1.0 -0.0782061207
C  C441  1  0.74380000  0.11400000  0.53714000  1.0 -0.0782061207
C  C442  1  0.25620000  0.61400000  0.96286000  1.0 -0.0782061207
C  C443  1  0.25620000  0.88600000  0.53714000  1.0 -0.0782061207
C  C444  1  0.74380000  0.38600000  0.96286000  1.0 -0.0782061207
C  C445  1  0.91170000  0.87330000  0.56000000  1.0 -0.1386038993
C  C446  1  0.08830000  0.37330000  0.94000000  1.0 -0.1386038993
C  C447  1  0.08830000  0.12670000  0.56000000  1.0 -0.1386038993
C  C448  1  0.91170000  0.62670000  0.94000000  1.0 -0.1386038993
C  C449  1  0.08830000  0.12670000  0.44000000  1.0 -0.1386038993
C  C450  1  0.91170000  0.62670000  0.06000000  1.0 -0.1386038993
C  C451  1  0.91170000  0.87330000  0.44000000  1.0 -0.1386038993
C  C452  1  0.08830000  0.37330000  0.06000000  1.0 -0.1386038993
C  C453  1  0.95340000  0.88570000  0.53160000  1.0 -0.1193135955
C  C454  1  0.04660000  0.38570000  0.96840000  1.0 -0.1193135955
C  C455  1  0.04660000  0.11430000  0.53160000  1.0 -0.1193135955
C  C456  1  0.95340000  0.61430000  0.96840000  1.0 -0.1193135955
C  C457  1  0.04660000  0.11430000  0.46840000  1.0 -0.1193135955
C  C458  1  0.95340000  0.61430000  0.03160000  1.0 -0.1193135955
C  C459  1  0.95340000  0.88570000  0.46840000  1.0 -0.1193135955
C  C460  1  0.04660000  0.38570000  0.03160000  1.0 -0.1193135955
C  C461  1  0.05140000  0.80300000  0.55140000  1.0 -0.0782061207
C  C462  1  0.94860000  0.30300000  0.94860000  1.0 -0.0782061207
C  C463  1  0.94860000  0.19700000  0.55140000  1.0 -0.0782061207
C  C464  1  0.05140000  0.69700000  0.94860000  1.0 -0.0782061207
C  C465  1  0.94860000  0.19700000  0.44860000  1.0 -0.0782061207
C  C466  1  0.05140000  0.69700000  0.05140000  1.0 -0.0782061207
C  C467  1  0.05140000  0.80300000  0.44860000  1.0 -0.0782061207
C  C468  1  0.94860000  0.30300000  0.05140000  1.0 -0.0782061207
C  C469  1  0.00000000  0.78330000  0.57697000  1.0 -0.0275411586
C  C470  1  0.00000000  0.28330000  0.92303000  1.0 -0.0416048809
C  C471  1  0.00000000  0.21670000  0.57697000  1.0 -0.0416048809
C  C472  1  0.00000000  0.71670000  0.92303000  1.0 -0.0275411586
C  C473  1  0.00000000  0.21670000  0.42303000  1.0 -0.0275411586
C  C474  1  0.00000000  0.71670000  0.07697000  1.0 -0.0416048809
C  C475  1  0.00000000  0.78330000  0.42303000  1.0 -0.0275411586
C  C476  1  0.00000000  0.28330000  0.07697000  1.0 -0.0416048809
C  C477  1  0.80300000  0.85090000  0.65312000  1.0 -0.0920175739
C  C478  1  0.19700000  0.35090000  0.84688000  1.0 -0.0920175739
C  C479  1  0.19700000  0.14910000  0.65312000  1.0 -0.0920175739
C  C480  1  0.80300000  0.64910000  0.84688000  1.0 -0.0920175739
C  C481  1  0.19700000  0.14910000  0.34688000  1.0 -0.0920175739
C  C482  1  0.80300000  0.64910000  0.15312000  1.0 -0.0920175739
C  C483  1  0.80300000  0.85090000  0.34688000  1.0 -0.0920175739
C  C484  1  0.19700000  0.35090000  0.15312000  1.0 -0.0920175739
C  C485  1  0.84590000  0.86750000  0.62622000  1.0 -0.1512721262
C  C486  1  0.15410000  0.36750000  0.87378000  1.0 -0.1512721262
C  C487  1  0.15410000  0.13250000  0.62622000  1.0 -0.1512721262
C  C488  1  0.84590000  0.63250000  0.87378000  1.0 -0.1512721262
C  C489  1  0.15410000  0.13250000  0.37378000  1.0 -0.1512721262
C  C490  1  0.84590000  0.63250000  0.12622000  1.0 -0.1512721262
C  C491  1  0.84590000  0.86750000  0.37378000  1.0 -0.1512721262
C  C492  1  0.15410000  0.36750000  0.12622000  1.0 -0.1512721262
C  C493  1  0.89180000  0.73800000  0.62732000  1.0 -0.0782061207
C  C494  1  0.10820000  0.23800000  0.87268000  1.0 -0.0782061207
C  C495  1  0.10820000  0.26200000  0.62732000  1.0 -0.0782061207
C  C496  1  0.89180000  0.76200000  0.87268000  1.0 -0.0782061207
C  C497  1  0.10820000  0.26200000  0.37268000  1.0 -0.0782061207
C  C498  1  0.89180000  0.76200000  0.12732000  1.0 -0.0704394378
C  C499  1  0.89180000  0.73800000  0.37268000  1.0 -0.0782061207
C  C500  1  0.10820000  0.23800000  0.12732000  1.0 -0.0782061207
C  C501  1  0.84990000  0.72470000  0.65402000  1.0 -0.0589213849
C  C502  1  0.15010000  0.22470000  0.84598000  1.0 -0.0505872138
C  C503  1  0.15010000  0.27530000  0.65402000  1.0 -0.0589213849
C  C504  1  0.84990000  0.77530000  0.84598000  1.0 -0.0589213849
C  C505  1  0.15010000  0.27530000  0.34598000  1.0 -0.0589213849
C  C506  1  0.84990000  0.77530000  0.15402000  1.0 -0.0589213849
C  C507  1  0.84990000  0.72470000  0.34598000  1.0 -0.0589213849
C  C508  1  0.15010000  0.22470000  0.15402000  1.0 -0.0589213849
N  N1  1  0.54660000  0.25000000  0.25000000  1.0 0.167150508
N  N2  1  0.45340000  0.75000000  0.25000000  1.0 0.167150508
N  N3  1  0.45340000  0.75000000  0.75000000  1.0 0.167150508
N  N4  1  0.54660000  0.25000000  0.75000000  1.0 0.167150508
O  O1  1  0.41760000  0.25000000  0.25000000  1.0 -0.2737373344
O  O2  1  0.58240000  0.75000000  0.25000000  1.0 -0.2737373344
O  O3  1  0.58240000  0.75000000  0.75000000  1.0 -0.2737373344
O  O4  1  0.41760000  0.25000000  0.75000000  1.0 -0.2737373344
O  O5  1  0.40230000  0.08560000  0.27905000  1.0 -0.5824611789
O  O6  1  0.59770000  0.58560000  0.22095000  1.0 -0.5824611789
O  O7  1  0.59770000  0.91440000  0.27905000  1.0 -0.5824611789
O  O8  1  0.40230000  0.41440000  0.22095000  1.0 -0.5824611789
O  O9  1  0.59770000  0.91440000  0.72095000  1.0 -0.5824611789
O  O10  1  0.40230000  0.41440000  0.77905000  1.0 -0.5824611789
O  O11  1  0.40230000  0.08560000  0.72095000  1.0 -0.5824611789
O  O12  1  0.59770000  0.58560000  0.77905000  1.0 -0.5824611789
O  O13  1  0.41800000  0.96540000  0.27145000  1.0 -0.5027936853
O  O14  1  0.58200000  0.46540000  0.22855000  1.0 -0.5027936853
O  O15  1  0.58200000  0.03460000  0.27145000  1.0 -0.5027936853
O  O16  1  0.41800000  0.53460000  0.22855000  1.0 -0.5027936853
O  O17  1  0.58200000  0.03460000  0.72855000  1.0 -0.5027936853
O  O18  1  0.41800000  0.53460000  0.77145000  1.0 -0.5027936853
O  O19  1  0.41800000  0.96540000  0.72855000  1.0 -0.5027936853
O  O20  1  0.58200000  0.46540000  0.77145000  1.0 -0.5027936853
O  O21  1  0.42360000  0.10260000  0.20642000  1.0 -0.5979608826
O  O22  1  0.57640000  0.60260000  0.29358000  1.0 -0.5979608826
O  O23  1  0.57640000  0.89740000  0.20642000  1.0 -0.5979608826
O  O24  1  0.42360000  0.39740000  0.29358000  1.0 -0.5979608826
O  O25  1  0.57640000  0.89740000  0.79358000  1.0 -0.5979608826
O  O26  1  0.42360000  0.39740000  0.70642000  1.0 -0.5979608826
O  O27  1  0.42360000  0.10260000  0.79358000  1.0 -0.5979608826
O  O28  1  0.57640000  0.60260000  0.70642000  1.0 -0.5979608826
O  O29  1  0.54430000  0.08340000  0.19724000  1.0 -0.4884026132
O  O30  1  0.45570000  0.58340000  0.30276000  1.0 -0.4884026132
O  O31  1  0.45570000  0.91660000  0.19724000  1.0 -0.4884026132
O  O32  1  0.54430000  0.41660000  0.30276000  1.0 -0.4884026132
O  O33  1  0.45570000  0.91660000  0.80276000  1.0 -0.4884026132
O  O34  1  0.54430000  0.41660000  0.69724000  1.0 -0.4884026132
O  O35  1  0.54430000  0.08340000  0.80276000  1.0 -0.4884026132
O  O36  1  0.45570000  0.58340000  0.69724000  1.0 -0.4884026132
O  O37  1  0.73150000  0.70660000  0.70378000  1.0 -0.4884026132
O  O38  1  0.26850000  0.20660000  0.79622000  1.0 -0.4884026132
O  O39  1  0.26850000  0.29340000  0.70378000  1.0 -0.4884026132
O  O40  1  0.73150000  0.79340000  0.79622000  1.0 -0.4884026132
O  O41  1  0.26850000  0.29340000  0.29622000  1.0 -0.4884026132
O  O42  1  0.73150000  0.79340000  0.20378000  1.0 -0.4884026132
O  O43  1  0.73150000  0.70660000  0.29622000  1.0 -0.4884026132
O  O44  1  0.26850000  0.20660000  0.20378000  1.0 -0.4884026132
O  O45  1  0.74910000  0.81980000  0.71970000  1.0 -0.5593199289
O  O46  1  0.25090000  0.31980000  0.78030000  1.0 -0.5593199289
O  O47  1  0.25090000  0.18020000  0.71970000  1.0 -0.5593199289
O  O48  1  0.74910000  0.68020000  0.78030000  1.0 -0.5593199289
O  O49  1  0.25090000  0.18020000  0.28030000  1.0 -0.5593199289
O  O50  1  0.74910000  0.68020000  0.21970000  1.0 -0.5593199289
O  O51  1  0.74910000  0.81980000  0.28030000  1.0 -0.5593199289
O  O52  1  0.25090000  0.31980000  0.21970000  1.0 -0.5593199289
