# DDEC6 charges by PACMAN v1.1 (https://github.com/mtap-research/PACMAN-charge/)
data_OPAMOI_ASR_pacman
_symmetry_space_group_name_H-M   'P 1'
_cell_length_a   7.06610000
_cell_length_b   9.67780000
_cell_length_c   11.62170000
_cell_angle_alpha   106.32600000
_cell_angle_beta   97.84300000
_cell_angle_gamma   107.70700000
_symmetry_Int_Tables_number   1
_chemical_formula_structural   V4Co(PO5)4
_chemical_formula_sum   'V4 Co1 P4 O20'
_cell_volume   704.82439941
_cell_formula_units_Z   1
loop_
 _symmetry_equiv_pos_site_id
 _symmetry_equiv_pos_as_xyz
  1  'x, y, z'
loop_
 _atom_site_type_symbol
 _atom_site_label
 _atom_site_symmetry_multiplicity
 _atom_site_fract_x
 _atom_site_fract_y
 _atom_site_fract_z
 _atom_site_occupancy
 _atom_site_charge
V  V1  1  0.17095000  0.13046000  0.27722000  1.0 1.838050349
V  V2  1  0.82905000  0.86954000  0.72278000  1.0 1.8274088934
V  V3  1  0.00000000  0.50000000  0.00000000  1.0 1.838050349
V  V4  1  0.50000000  0.50000000  0.00000000  1.0 1.8092472389
Co  Co1  1  0.00000000  0.00000000  0.50000000  1.0 1.3445019558
P  P1  1  0.22447000  0.32769000  0.15194000  1.0 1.4370153382
P  P2  1  0.77553000  0.67231000  0.84806000  1.0 1.4370153382
P  P3  1  0.08136000  0.23030000  0.79726000  1.0 1.4804730847
P  P4  1  0.91864000  0.76970000  0.20274000  1.0 1.4804730847
O  O1  1  0.30480000  0.30770000  0.87110000  1.0 -0.7391182647
O  O2  1  0.69520000  0.69230000  0.12890000  1.0 -0.7391182647
O  O3  1  0.42850000  0.41700000  0.13354000  1.0 -0.7196324888
O  O4  1  0.57150000  0.58300000  0.86646000  1.0 -0.7196324888
O  O5  1  0.22750000  0.35170000  0.29090000  1.0 -0.6730913088
O  O6  1  0.77250000  0.64830000  0.70910000  1.0 -0.6730913088
O  O7  1  0.06170000  0.19690000  0.65881000  1.0 -0.7196324888
O  O8  1  0.93830000  0.80310000  0.34119000  1.0 -0.7196324888
O  O9  1  0.17090000  0.15050000  0.10570000  1.0 -0.640778111
O  O10  1  0.82910000  0.84950000  0.89430000  1.0 -0.640778111
O  O11  1  0.04900000  0.36780000  0.09460000  1.0 -0.7196324888
O  O12  1  0.95100000  0.63220000  0.90540000  1.0 -0.7196324888
O  O13  1  0.96190000  0.33690000  0.84143000  1.0 -0.7196324888
O  O14  1  0.03810000  0.66310000  0.15857000  1.0 -0.7300747201
O  O15  1  0.04310000  0.13570000  0.38690000  1.0 -0.8077563808
O  O16  1  0.95690000  0.86430000  0.61310000  1.0 -0.8077563808
O  O17  1  0.98500000  0.07880000  0.82362000  1.0 -0.6938662992
O  O18  1  0.01500000  0.92120000  0.17638000  1.0 -0.6938662992
O  O19  1  0.28650000  0.58280000  0.00855000  1.0 -0.8077563808
O  O20  1  0.71350000  0.41720000  0.99145000  1.0 -0.8077563808
