# DDEC6 charges by PACMAN v1.1 (https://github.com/mtap-research/PACMAN-charge/)
data_OPAPEB_FSR_pacman
_symmetry_space_group_name_H-M   'P 1'
_cell_length_a   9.51040000
_cell_length_b   11.51500000
_cell_length_c   14.57500000
_cell_angle_alpha   69.47000000
_cell_angle_beta   85.29000000
_cell_angle_gamma   86.39000000
_symmetry_Int_Tables_number   1
_chemical_formula_structural   SmH20C15S3(N3O2)4
_chemical_formula_sum   'Sm2 H40 C30 S6 N24 O16'
_cell_volume   1488.72178975
_cell_formula_units_Z   2
loop_
 _symmetry_equiv_pos_site_id
 _symmetry_equiv_pos_as_xyz
  1  'x, y, z'
loop_
 _atom_site_type_symbol
 _atom_site_label
 _atom_site_symmetry_multiplicity
 _atom_site_fract_x
 _atom_site_fract_y
 _atom_site_fract_z
 _atom_site_occupancy
 _atom_site_charge
Sm  Sm1  1  0.20382000  0.04475000  0.99776000  1.0 2.083249092
Sm  Sm2  1  0.79618000  0.95525000  0.00224000  1.0 2.083249092
H  H1  1  0.13340000  0.63030000  0.16080000  1.0 0.172389984
H  H2  1  0.86660000  0.36970000  0.83920000  1.0 0.172389984
H  H3  1  0.02910000  0.62730000  0.25040000  1.0 0.1620258639
H  H4  1  0.97090000  0.37270000  0.74960000  1.0 0.1620258639
H  H5  1  0.66400000  0.60700000  0.11700000  1.0 0.2387080564
H  H6  1  0.33600000  0.39300000  0.88300000  1.0 0.2387080564
H  H7  1  0.72900000  0.52500000  0.19800000  1.0 0.2680934815
H  H8  1  0.27100000  0.47500000  0.80200000  1.0 0.2680934815
H  H9  1  0.12270000  0.05640000  0.44340000  1.0 0.1096326708
H  H10  1  0.87730000  0.94360000  0.55660000  1.0 0.1096326708
H  H11  1  0.12750000  0.93490000  0.53630000  1.0 0.131009668
H  H12  1  0.87250000  0.06510000  0.46370000  1.0 0.131009668
H  H13  1  0.72520000  0.64970000  0.60870000  1.0 0.28913334
H  H14  1  0.27480000  0.35030000  0.39130000  1.0 0.28913334
H  H15  1  0.74030000  0.71380000  0.67990000  1.0 0.2387080564
H  H16  1  0.25970000  0.28620000  0.32010000  1.0 0.2387080564
H  H17  1  0.14790000  0.89840000  0.71660000  1.0 0.1620258639
H  H18  1  0.85210000  0.10160000  0.28340000  1.0 0.1620258639
H  H19  1  0.18470000  0.77380000  0.80190000  1.0 0.1620258639
H  H20  1  0.81530000  0.22620000  0.19810000  1.0 0.1620258639
H  H21  1  0.88110000  0.46660000  0.56630000  1.0 0.1186291388
H  H22  1  0.11890000  0.53340000  0.43370000  1.0 0.1186291388
H  H23  1  0.88880000  0.58950000  0.47480000  1.0 0.131009668
H  H24  1  0.11120000  0.41050000  0.52520000  1.0 0.131009668
H  H25  1  0.32980000  0.95190000  0.39430000  1.0 0.2822097986
H  H26  1  0.67020000  0.04810000  0.60570000  1.0 0.2822097986
H  H27  1  0.37160000  0.88220000  0.32680000  1.0 0.2822097986
H  H28  1  0.62840000  0.11780000  0.67320000  1.0 0.2822097986
H  H29  1  0.51580000  0.16340000  0.19370000  1.0 0.172389984
H  H30  1  0.48420000  0.83660000  0.80630000  1.0 0.172389984
H  H31  1  0.36510000  0.16930000  0.24340000  1.0 0.140012669
H  H32  1  0.63490000  0.83070000  0.75660000  1.0 0.140012669
H  H33  1  0.97130000  0.51540000  0.09230000  1.0 0.1186291388
H  H34  1  0.02870000  0.48460000  0.90770000  1.0 0.1186291388
H  H35  1  0.92220000  0.61190000  0.99290000  1.0 0.140012669
H  H36  1  0.07780000  0.38810000  0.00710000  1.0 0.140012669
H  H37  1  0.37450000  0.80420000  0.00610000  1.0 0.2972255199
H  H38  1  0.62550000  0.19580000  0.99390000  1.0 0.2972255199
H  H39  1  0.43070000  0.83740000  0.07160000  1.0 0.3251885771
H  H40  1  0.56930000  0.16260000  0.92840000  1.0 0.3251885771
C  C1  1  0.07620000  0.90190000  0.85290000  1.0 0.6961717605
C  C2  1  0.92380000  0.09810000  0.14710000  1.0 0.6961717605
C  C3  1  0.11340000  0.80420000  0.31990000  1.0 0.1505341007
C  C4  1  0.88660000  0.19580000  0.68010000  1.0 0.1505341007
C  C5  1  0.99550000  0.77890000  0.12940000  1.0 0.6856589912
C  C6  1  0.00450000  0.22110000  0.87060000  1.0 0.6856589912
C  C7  1  0.08800000  0.68080000  0.19660000  1.0 -0.3700961099
C  C8  1  0.91200000  0.31920000  0.80340000  1.0 -0.3700961099
C  C9  1  0.07260000  0.98200000  0.48110000  1.0 -0.266401738
C  C10  1  0.92740000  0.01800000  0.51890000  1.0 -0.2594412566
C  C11  1  0.01750000  0.69630000  0.68400000  1.0 0.140012669
C  C12  1  0.98250000  0.30370000  0.31600000  1.0 0.140012669
C  C13  1  0.11270000  0.83890000  0.77850000  1.0 -0.3586499692
C  C14  1  0.88730000  0.16110000  0.22150000  1.0 -0.3586499692
C  C15  1  0.05710000  0.90550000  0.41790000  1.0 0.2387080564
C  C16  1  0.94290000  0.09450000  0.58210000  1.0 0.2387080564
C  C17  1  0.00370000  0.59340000  0.58470000  1.0 0.251234278
C  C18  1  0.99630000  0.40660000  0.41530000  1.0 0.251234278
C  C19  1  0.94400000  0.52970000  0.52450000  1.0 -0.2594412566
C  C20  1  0.05600000  0.47030000  0.47550000  1.0 -0.2594412566
C  C21  1  0.42150000  0.20020000  0.18180000  1.0 -0.3700961099
C  C22  1  0.57850000  0.79980000  0.81820000  1.0 -0.3700961099
C  C23  1  0.36090000  0.15310000  0.10950000  1.0 0.6135295629
C  C24  1  0.63910000  0.84690000  0.89050000  1.0 0.6135295629
C  C25  1  0.59870000  0.38600000  0.08800000  1.0 0.1505341007
C  C26  1  0.40130000  0.61400000  0.91200000  1.0 0.1505341007
C  C27  1  0.81080000  0.45540000  0.03960000  1.0 0.2279279231
C  C28  1  0.18920000  0.54460000  0.96040000  1.0 0.2279279231
C  C29  1  0.94120000  0.52440000  0.02810000  1.0 -0.2487830372
C  C30  1  0.05880000  0.47560000  0.97190000  1.0 -0.2487830372
S  S1  1  0.95196000  0.77380000  0.76259000  1.0 0.0469192005
S  S2  1  0.04804000  0.22620000  0.23741000  1.0 0.0425007156
S  S3  1  0.43274000  0.36630000  0.14956000  1.0 0.0302401566
S  S4  1  0.56726000  0.63370000  0.85044000  1.0 0.0302401566
S  S5  1  0.22193000  0.74043000  0.24659000  1.0 0.0769449546
S  S6  1  0.77807000  0.25957000  0.75341000  1.0 0.0731461867
N  N1  1  0.69230000  0.46690000  0.09490000  1.0 0.0302401566
N  N2  1  0.30770000  0.53310000  0.90510000  1.0 0.0302401566
N  N3  1  0.79350000  0.36960000  0.00180000  1.0 -0.2399764658
N  N4  1  0.20650000  0.63040000  0.99820000  1.0 -0.2399764658
N  N5  1  0.92430000  0.65230000  0.63780000  1.0 0.0597114879
N  N6  1  0.07570000  0.34770000  0.36220000  1.0 0.0597114879
N  N7  1  0.97660000  0.79650000  0.33800000  1.0 -0.2399764658
N  N8  1  0.02340000  0.20350000  0.66200000  1.0 -0.2399764658
N  N9  1  0.65670000  0.32620000  0.03220000  1.0 -0.2128327192
N  N10  1  0.34330000  0.67380000  0.96780000  1.0 -0.2128327192
N  N11  1  0.16850000  0.87370000  0.36610000  1.0 0.0597114879
N  N12  1  0.83150000  0.12630000  0.63390000  1.0 0.0597114879
N  N13  1  0.66350000  0.54570000  0.15090000  1.0 -0.4270809592
N  N14  1  0.33650000  0.45430000  0.84910000  1.0 -0.4270809592
N  N15  1  0.77770000  0.67480000  0.64280000  1.0 -0.4597602339
N  N16  1  0.22230000  0.32520000  0.35720000  1.0 -0.4597602339
N  N17  1  0.94180000  0.86330000  0.40290000  1.0 -0.2594412566
N  N18  1  0.05820000  0.13670000  0.59710000  1.0 -0.2594412566
N  N19  1  0.13620000  0.60050000  0.59700000  1.0 -0.2594412566
N  N20  1  0.86380000  0.39950000  0.40300000  1.0 -0.2594412566
N  N21  1  0.14520000  0.66800000  0.66040000  1.0 -0.2823820115
N  N22  1  0.85480000  0.33200000  0.33960000  1.0 -0.2823820115
N  N23  1  0.30770000  0.90680000  0.36190000  1.0 -0.4450588525
N  N24  1  0.69230000  0.09320000  0.63810000  1.0 -0.4449325503
O  O1  1  0.17300000  0.95560000  0.87300000  1.0 -0.5811100106
O  O2  1  0.82700000  0.04440000  0.12700000  1.0 -0.5811100106
O  O3  1  0.04430000  0.88200000  0.07450000  1.0 -0.7311655582
O  O4  1  0.95570000  0.11800000  0.92550000  1.0 -0.7311655582
O  O5  1  0.86930000  0.75620000  0.12720000  1.0 -0.5543720723
O  O6  1  0.13070000  0.24380000  0.87280000  1.0 -0.5543720723
O  O7  1  0.94960000  0.89680000  0.88790000  1.0 -0.6464946867
O  O8  1  0.05040000  0.10320000  0.11210000  1.0 -0.6464946867
O  O9  1  0.31410000  0.22290000  0.03090000  1.0 -0.5811100106
O  O10  1  0.68590000  0.77710000  0.96910000  1.0 -0.5811100106
O  O11  1  0.35660000  0.03620000  0.13500000  1.0 -0.5811100106
O  O12  1  0.64340000  0.96380000  0.86500000  1.0 -0.5811100106
O  O13  1  0.37130000  0.87240000  0.01970000  1.0 -0.7486017943
O  O14  1  0.62870000  0.12760000  0.98030000  1.0 -0.7486017943
O  O15  1  0.40370000  0.11890000  0.86920000  1.0 -0.3586499692
O  O16  1  0.59630000  0.88110000  0.13080000  1.0 -0.3586499692
