# DDEC6 charges by PACMAN v1.1 (https://github.com/mtap-research/PACMAN-charge/)
data_OPAPUR_FSR_pacman
_symmetry_space_group_name_H-M   'P 1'
_cell_length_a   9.45040000
_cell_length_b   11.45800000
_cell_length_c   14.57900000
_cell_angle_alpha   69.86000000
_cell_angle_beta   85.46000000
_cell_angle_gamma   86.30000000
_symmetry_Int_Tables_number   1
_chemical_formula_structural   DyH22C15S3(N3O2)4
_chemical_formula_sum   'Dy2 H44 C30 S6 N24 O16'
_cell_volume   1476.30216163
_cell_formula_units_Z   2
loop_
 _symmetry_equiv_pos_site_id
 _symmetry_equiv_pos_as_xyz
  1  'x, y, z'
loop_
 _atom_site_type_symbol
 _atom_site_label
 _atom_site_symmetry_multiplicity
 _atom_site_fract_x
 _atom_site_fract_y
 _atom_site_fract_z
 _atom_site_occupancy
 _atom_site_charge
Dy  Dy1  1  0.20278000  0.04532000  0.99740000  1.0 2.0637123737
Dy  Dy2  1  0.79722000  0.95468000  0.00260000  1.0 2.0637123737
H  H1  1  0.13540000  0.63110000  0.15890000  1.0 0.1705357026
H  H2  1  0.86460000  0.36890000  0.84110000  1.0 0.1705357026
H  H3  1  0.02940000  0.62850000  0.24770000  1.0 0.1613442355
H  H4  1  0.97060000  0.37150000  0.75230000  1.0 0.1613442355
H  H5  1  0.66600000  0.61600000  0.11100000  1.0 0.2687650252
H  H6  1  0.33400000  0.38400000  0.88900000  1.0 0.2687650252
H  H7  1  0.72600000  0.52800000  0.19400000  1.0 0.2622407827
H  H8  1  0.27400000  0.47200000  0.80600000  1.0 0.2622407827
H  H9  1  0.12250000  0.05670000  0.44370000  1.0 0.1106873457
H  H10  1  0.87750000  0.94330000  0.55630000  1.0 0.1106873457
H  H11  1  0.12830000  0.93460000  0.53560000  1.0 0.1292222395
H  H12  1  0.87170000  0.06540000  0.46440000  1.0 0.1292222395
H  H13  1  0.72410000  0.65460000  0.60590000  1.0 0.2869534794
H  H14  1  0.27590000  0.34540000  0.39410000  1.0 0.2869534794
H  H15  1  0.73900000  0.71730000  0.67860000  1.0 0.2366005112
H  H16  1  0.26100000  0.28270000  0.32140000  1.0 0.2366005112
H  H17  1  0.14630000  0.90060000  0.71910000  1.0 0.1613442355
H  H18  1  0.85370000  0.09940000  0.28090000  1.0 0.1613442355
H  H19  1  0.18520000  0.77520000  0.80270000  1.0 0.1613442355
H  H20  1  0.81480000  0.22480000  0.19730000  1.0 0.1613442355
H  H21  1  0.87950000  0.46700000  0.56570000  1.0 0.1106873457
H  H22  1  0.12050000  0.53300000  0.43430000  1.0 0.1106873457
H  H23  1  0.88770000  0.59030000  0.47500000  1.0 0.1292222395
H  H24  1  0.11230000  0.40970000  0.52500000  1.0 0.1292222395
H  H25  1  0.33150000  0.95520000  0.39230000  1.0 0.2869534794
H  H26  1  0.66850000  0.04480000  0.60770000  1.0 0.2869534794
H  H27  1  0.37500000  0.88100000  0.32780000  1.0 0.2687650252
H  H28  1  0.62500000  0.11900000  0.67220000  1.0 0.2687650252
H  H29  1  0.51720000  0.16230000  0.19140000  1.0 0.1705357026
H  H30  1  0.48280000  0.83770000  0.80860000  1.0 0.1705357026
H  H31  1  0.36640000  0.16690000  0.24250000  1.0 0.1405561471
H  H32  1  0.63360000  0.83310000  0.75750000  1.0 0.1405561471
H  H33  1  0.97070000  0.51850000  0.09120000  1.0 0.1195494834
H  H34  1  0.02930000  0.48150000  0.90880000  1.0 0.1195494834
H  H35  1  0.92060000  0.61250000  0.99140000  1.0 0.1405561471
H  H36  1  0.07940000  0.38750000  0.00860000  1.0 0.1405561471
H  H37  1  0.37280000  0.80850000  0.00530000  1.0 0.3000272963
H  H38  1  0.62720000  0.19150000  0.99470000  1.0 0.3000272963
H  H39  1  0.42900000  0.84170000  0.07080000  1.0 0.3366959844
H  H40  1  0.57100000  0.15830000  0.92920000  1.0 0.3366959844
H  H41  1  0.43800000  0.07500000  0.86100000  1.0 0.3000272963
H  H42  1  0.56200000  0.92500000  0.13900000  1.0 0.3000272963
H  H43  1  0.36900000  0.16900000  0.81700000  1.0 0.2836124454
H  H44  1  0.63100000  0.83100000  0.18300000  1.0 0.2836124454
C  C1  1  0.07480000  0.90220000  0.85680000  1.0 0.6998750124
C  C2  1  0.92520000  0.09780000  0.14320000  1.0 0.6998750124
C  C3  1  0.11440000  0.80280000  0.31940000  1.0 0.1405561471
C  C4  1  0.88560000  0.19720000  0.68060000  1.0 0.1405561471
C  C5  1  0.99860000  0.78270000  0.12760000  1.0 0.6928187761
C  C6  1  0.00140000  0.21730000  0.87240000  1.0 0.6928187761
C  C7  1  0.09020000  0.68170000  0.19520000  1.0 -0.3623614456
C  C8  1  0.90980000  0.31830000  0.80480000  1.0 -0.3623614456
C  C9  1  0.07250000  0.98200000  0.48080000  1.0 -0.2701033797
C  C10  1  0.92750000  0.01800000  0.51920000  1.0 -0.2701033797
C  C11  1  0.01630000  0.69640000  0.68480000  1.0 0.1292222395
C  C12  1  0.98370000  0.30360000  0.31520000  1.0 0.1292222395
C  C13  1  0.11190000  0.84000000  0.78030000  1.0 -0.3623614456
C  C14  1  0.88810000  0.16000000  0.21970000  1.0 -0.3623614456
C  C15  1  0.05780000  0.90630000  0.41720000  1.0 0.2366005112
C  C16  1  0.94220000  0.09370000  0.58280000  1.0 0.2366005112
C  C17  1  0.00460000  0.59340000  0.58550000  1.0 0.2498906407
C  C18  1  0.99540000  0.40660000  0.41450000  1.0 0.2498906407
C  C19  1  0.94300000  0.53000000  0.52450000  1.0 -0.2629656887
C  C20  1  0.05700000  0.47000000  0.47550000  1.0 -0.2629656887
C  C21  1  0.42170000  0.19860000  0.18070000  1.0 -0.3833095427
C  C22  1  0.57830000  0.80140000  0.81930000  1.0 -0.3833095427
C  C23  1  0.35890000  0.15180000  0.10780000  1.0 0.6381047521
C  C24  1  0.64110000  0.84820000  0.89220000  1.0 0.6381047521
C  C25  1  0.59790000  0.38520000  0.08820000  1.0 0.1470043961
C  C26  1  0.40210000  0.61480000  0.91180000  1.0 0.1470043961
C  C27  1  0.80970000  0.45450000  0.03960000  1.0 0.2317090038
C  C28  1  0.19030000  0.54550000  0.96040000  1.0 0.2317090038
C  C29  1  0.94060000  0.52530000  0.02740000  1.0 -0.2540951815
C  C30  1  0.05940000  0.47470000  0.97260000  1.0 -0.2540951815
S  S1  1  0.95117000  0.77437000  0.76354000  1.0 0.0498969732
S  S2  1  0.04883000  0.22563000  0.23646000  1.0 0.0498969732
S  S3  1  0.43126000  0.36479000  0.15007000  1.0 0.0430085923
S  S4  1  0.56874000  0.63521000  0.84993000  1.0 0.0498969732
S  S5  1  0.22495000  0.73650000  0.24809000  1.0 0.0570651433
S  S6  1  0.77505000  0.26350000  0.75191000  1.0 0.0498969732
N  N1  1  0.69030000  0.46760000  0.09458000  1.0 0.0264165219
N  N2  1  0.30970000  0.53240000  0.90542000  1.0 0.0264165219
N  N3  1  0.79260000  0.36810000  0.00230000  1.0 -0.2407919239
N  N4  1  0.20740000  0.63190000  0.99770000  1.0 -0.2407919239
N  N5  1  0.92400000  0.65280000  0.63816000  1.0 0.0498969732
N  N6  1  0.07600000  0.34720000  0.36184000  1.0 0.0498969732
N  N7  1  0.97800000  0.79540000  0.33840000  1.0 -0.2407919239
N  N8  1  0.02200000  0.20460000  0.66160000  1.0 -0.2407919239
N  N9  1  0.65620000  0.32520000  0.03250000  1.0 -0.22573363
N  N10  1  0.34380000  0.67480000  0.96750000  1.0 -0.22573363
N  N11  1  0.16990000  0.87190000  0.36683000  1.0 0.0570651433
N  N12  1  0.83010000  0.12810000  0.63317000  1.0 0.0570651433
N  N13  1  0.66190000  0.54740000  0.14970000  1.0 -0.4418577399
N  N14  1  0.33810000  0.45260000  0.85030000  1.0 -0.4418577399
N  N15  1  0.77670000  0.67820000  0.64130000  1.0 -0.4669657495
N  N16  1  0.22330000  0.32180000  0.35870000  1.0 -0.4669657495
N  N17  1  0.94170000  0.86280000  0.40180000  1.0 -0.2629656887
N  N18  1  0.05830000  0.13720000  0.59820000  1.0 -0.2629656887
N  N19  1  0.13720000  0.60060000  0.59730000  1.0 -0.2629656887
N  N20  1  0.86280000  0.39940000  0.40270000  1.0 -0.2629656887
N  N21  1  0.14570000  0.66666667  0.66270000  1.0 -0.2839346673
N  N22  1  0.85430000  0.33333333  0.33730000  1.0 -0.2839346673
N  N23  1  0.31020000  0.90720000  0.36160000  1.0 -0.4546120014
N  N24  1  0.68980000  0.09280000  0.63840000  1.0 -0.4546120014
O  O1  1  0.17200000  0.95760000  0.87530000  1.0 -0.634083971
O  O2  1  0.82800000  0.04240000  0.12470000  1.0 -0.634083971
O  O3  1  0.05110000  0.88451000  0.07533000  1.0 -0.7207450416
O  O4  1  0.94890000  0.11549000  0.92467000  1.0 -0.7207450416
O  O5  1  0.87240000  0.76144000  0.12328000  1.0 -0.6126091328
O  O6  1  0.12760000  0.23856000  0.87672000  1.0 -0.6126091328
O  O7  1  0.94940000  0.89230000  0.89310000  1.0 -0.6381896582
O  O8  1  0.05060000  0.10770000  0.10690000  1.0 -0.6381896582
O  O9  1  0.31330000  0.22210000  0.02951000  1.0 -0.5984769907
O  O10  1  0.68670000  0.77790000  0.97049000  1.0 -0.5984769907
O  O11  1  0.35270000  0.03433000  0.13347000  1.0 -0.6522152271
O  O12  1  0.64730000  0.96567000  0.86653000  1.0 -0.6522152271
O  O13  1  0.36960000  0.87666000  0.01893000  1.0 -0.7960240688
O  O14  1  0.63040000  0.12334000  0.98107000  1.0 -0.7960240688
O  O15  1  0.39880000  0.11820000  0.87321000  1.0 -0.6207699027
O  O16  1  0.60120000  0.88180000  0.12679000  1.0 -0.6207699027
