# DDEC6 charges by PACMAN v1.1 (https://github.com/mtap-research/PACMAN-charge/)
data_OPAPOL_FSR_pacman
_symmetry_space_group_name_H-M   'P 1'
_cell_length_a   9.46420000
_cell_length_b   11.47400000
_cell_length_c   14.57500000
_cell_angle_alpha   69.77000000
_cell_angle_beta   85.43000000
_cell_angle_gamma   86.44000000
_symmetry_Int_Tables_number   1
_chemical_formula_structural   TbH20C15S3(N3O2)4
_chemical_formula_sum   'Tb2 H40 C30 S6 N24 O16'
_cell_volume   1479.36497863
_cell_formula_units_Z   2
loop_
 _symmetry_equiv_pos_site_id
 _symmetry_equiv_pos_as_xyz
  1  'x, y, z'
loop_
 _atom_site_type_symbol
 _atom_site_label
 _atom_site_symmetry_multiplicity
 _atom_site_fract_x
 _atom_site_fract_y
 _atom_site_fract_z
 _atom_site_occupancy
 _atom_site_charge
Tb  Tb1  1  0.20299000  0.04535000  0.99748000  1.0 2.0435073429
Tb  Tb2  1  0.79701000  0.95465000  0.00252000  1.0 2.0435073429
H  H1  1  0.13400000  0.63110000  0.15900000  1.0 0.1703184151
H  H2  1  0.86600000  0.36890000  0.84100000  1.0 0.1703184151
H  H3  1  0.02830000  0.62820000  0.24800000  1.0 0.1612167884
H  H4  1  0.97170000  0.37180000  0.75200000  1.0 0.1612167884
H  H5  1  0.67100000  0.61200000  0.11200000  1.0 0.25933148
H  H6  1  0.32900000  0.38800000  0.88800000  1.0 0.25933148
H  H7  1  0.73700000  0.52000000  0.19100000  1.0 0.2658813649
H  H8  1  0.26300000  0.48000000  0.80900000  1.0 0.2658813649
H  H9  1  0.12200000  0.05740000  0.44340000  1.0 0.1085856871
H  H10  1  0.87800000  0.94260000  0.55660000  1.0 0.1085856871
H  H11  1  0.12830000  0.93550000  0.53540000  1.0 0.130192146
H  H12  1  0.87170000  0.06450000  0.46460000  1.0 0.130192146
H  H13  1  0.72410000  0.65190000  0.60780000  1.0 0.2901363922
H  H14  1  0.27590000  0.34810000  0.39220000  1.0 0.2901363922
H  H15  1  0.73980000  0.71500000  0.68000000  1.0 0.2403199726
H  H16  1  0.26020000  0.28500000  0.32000000  1.0 0.2403199726
H  H17  1  0.14730000  0.90050000  0.71830000  1.0 0.1612167884
H  H18  1  0.85270000  0.09950000  0.28170000  1.0 0.1612167884
H  H19  1  0.18590000  0.77540000  0.80220000  1.0 0.1612167884
H  H20  1  0.81410000  0.22460000  0.19780000  1.0 0.1612167884
H  H21  1  0.88130000  0.46590000  0.56660000  1.0 0.1186723799
H  H22  1  0.11870000  0.53410000  0.43340000  1.0 0.1186723799
H  H23  1  0.88760000  0.58900000  0.47550000  1.0 0.130192146
H  H24  1  0.11240000  0.41100000  0.52450000  1.0 0.130192146
H  H25  1  0.33030000  0.95490000  0.39260000  1.0 0.2901363922
H  H26  1  0.66970000  0.04510000  0.60740000  1.0 0.2901363922
H  H27  1  0.37360000  0.88150000  0.32770000  1.0 0.2805569076
H  H28  1  0.62640000  0.11850000  0.67230000  1.0 0.2805569076
H  H29  1  0.51630000  0.16360000  0.19200000  1.0 0.1703184151
H  H30  1  0.48370000  0.83640000  0.80800000  1.0 0.1703184151
H  H31  1  0.36540000  0.16860000  0.24250000  1.0 0.141182577
H  H32  1  0.63460000  0.83140000  0.75750000  1.0 0.141182577
H  H33  1  0.97070000  0.51770000  0.09190000  1.0 0.1186723799
H  H34  1  0.02930000  0.48230000  0.90810000  1.0 0.1186723799
H  H35  1  0.92060000  0.61250000  0.99230000  1.0 0.141182577
H  H36  1  0.07940000  0.38750000  0.00770000  1.0 0.141182577
H  H37  1  0.37270000  0.80790000  0.00540000  1.0 0.2901363922
H  H38  1  0.62730000  0.19210000  0.99460000  1.0 0.2901363922
H  H39  1  0.42890000  0.84110000  0.07090000  1.0 0.321405282
H  H40  1  0.57110000  0.15890000  0.92910000  1.0 0.321405282
C  C1  1  0.07510000  0.90200000  0.85590000  1.0 0.6907454782
C  C2  1  0.92490000  0.09800000  0.14410000  1.0 0.6907454782
C  C3  1  0.11340000  0.80370000  0.31960000  1.0 0.1521358171
C  C4  1  0.88660000  0.19630000  0.68040000  1.0 0.1521358171
C  C5  1  0.99740000  0.78200000  0.12780000  1.0 0.683194285
C  C6  1  0.00260000  0.21800000  0.87220000  1.0 0.683194285
C  C7  1  0.08880000  0.68150000  0.19520000  1.0 -0.3700779624
C  C8  1  0.91120000  0.31850000  0.80480000  1.0 -0.3700779624
C  C9  1  0.07240000  0.98250000  0.48070000  1.0 -0.2664149351
C  C10  1  0.92760000  0.01750000  0.51930000  1.0 -0.2664149351
C  C11  1  0.01680000  0.69660000  0.68470000  1.0 0.130192146
C  C12  1  0.98320000  0.30340000  0.31530000  1.0 0.130192146
C  C13  1  0.11280000  0.84000000  0.77970000  1.0 -0.3600986547
C  C14  1  0.88720000  0.16000000  0.22030000  1.0 -0.3600986547
C  C15  1  0.05780000  0.90660000  0.41710000  1.0 0.2309957696
C  C16  1  0.94220000  0.09340000  0.58290000  1.0 0.2309957696
C  C17  1  0.00460000  0.59390000  0.58490000  1.0 0.2546439224
C  C18  1  0.99540000  0.40610000  0.41510000  1.0 0.25933148
C  C19  1  0.94380000  0.52940000  0.52470000  1.0 -0.2584686524
C  C20  1  0.05620000  0.47060000  0.47530000  1.0 -0.2584686524
C  C21  1  0.42110000  0.20000000  0.18080000  1.0 -0.3816354519
C  C22  1  0.57890000  0.80000000  0.81920000  1.0 -0.3816354519
C  C23  1  0.35930000  0.15310000  0.10820000  1.0 0.611504262
C  C24  1  0.64070000  0.84690000  0.89180000  1.0 0.611504262
C  C25  1  0.59810000  0.38510000  0.08790000  1.0 0.1521358171
C  C26  1  0.40190000  0.61490000  0.91210000  1.0 0.1521358171
C  C27  1  0.81020000  0.45400000  0.03970000  1.0 0.2309957696
C  C28  1  0.18980000  0.54600000  0.96030000  1.0 0.2244275414
C  C29  1  0.94050000  0.52520000  0.02800000  1.0 -0.2458191908
C  C30  1  0.05950000  0.47480000  0.97200000  1.0 -0.2458191908
S  S1  1  0.95195000  0.77401000  0.76334000  1.0 0.0456725263
S  S2  1  0.04805000  0.22599000  0.23666000  1.0 0.0456725263
S  S3  1  0.43126000  0.36555000  0.14962000  1.0 0.0319678813
S  S4  1  0.56874000  0.63445000  0.85038000  1.0 0.0319678813
S  S5  1  0.22366000  0.73775000  0.24749000  1.0 0.0677808651
S  S6  1  0.77634000  0.26225000  0.75251000  1.0 0.0677808651
N  N1  1  0.69040000  0.46750000  0.09500000  1.0 0.0319678813
N  N2  1  0.30960000  0.53250000  0.90500000  1.0 0.0319678813
N  N3  1  0.79290000  0.36780000  0.00310000  1.0 -0.2414346955
N  N4  1  0.20710000  0.63220000  0.99690000  1.0 -0.2414346955
N  N5  1  0.92430000  0.65240000  0.63790000  1.0 0.0617258872
N  N6  1  0.07570000  0.34760000  0.36210000  1.0 0.0617258872
N  N7  1  0.97750000  0.79540000  0.33840000  1.0 -0.2414346955
N  N8  1  0.02250000  0.20460000  0.66160000  1.0 -0.2414346955
N  N9  1  0.65630000  0.32530000  0.03270000  1.0 -0.2197869665
N  N10  1  0.34370000  0.67470000  0.96730000  1.0 -0.2197869665
N  N11  1  0.16900000  0.87240000  0.36650000  1.0 0.0617258872
N  N12  1  0.83100000  0.12760000  0.63350000  1.0 0.0617258872
N  N13  1  0.66230000  0.54700000  0.14980000  1.0 -0.4329682088
N  N14  1  0.33770000  0.45300000  0.85020000  1.0 -0.4329682088
N  N15  1  0.77700000  0.67610000  0.64250000  1.0 -0.4602110035
N  N16  1  0.22300000  0.32390000  0.35750000  1.0 -0.4602110035
N  N17  1  0.94190000  0.86280000  0.40230000  1.0 -0.2584686524
N  N18  1  0.05810000  0.13720000  0.59770000  1.0 -0.2584686524
N  N19  1  0.13670000  0.60220000  0.59600000  1.0 -0.2584686524
N  N20  1  0.86330000  0.39780000  0.40400000  1.0 -0.2584686524
N  N21  1  0.14600000  0.66890000  0.66040000  1.0 -0.2808562166
N  N22  1  0.85400000  0.33110000  0.33960000  1.0 -0.2808562166
N  N23  1  0.30890000  0.90740000  0.36160000  1.0 -0.4465126342
N  N24  1  0.69110000  0.09260000  0.63840000  1.0 -0.4465126342
O  O1  1  0.17260000  0.95770000  0.87465000  1.0 -0.5846142716
O  O2  1  0.82740000  0.04230000  0.12535000  1.0 -0.5846142716
O  O3  1  0.04950000  0.88420000  0.07463000  1.0 -0.7214894837
O  O4  1  0.95050000  0.11580000  0.92537000  1.0 -0.7214894837
O  O5  1  0.87090000  0.76020000  0.12440000  1.0 -0.5543773121
O  O6  1  0.12910000  0.23980000  0.87560000  1.0 -0.5543773121
O  O7  1  0.95000000  0.89310000  0.89170000  1.0 -0.6243382043
O  O8  1  0.05000000  0.10690000  0.10830000  1.0 -0.6250328965
O  O9  1  0.31310000  0.22210000  0.02980000  1.0 -0.5659182019
O  O10  1  0.68690000  0.77790000  0.97020000  1.0 -0.5659182019
O  O11  1  0.35360000  0.03490000  0.13370000  1.0 -0.5933493323
O  O12  1  0.64640000  0.96510000  0.86630000  1.0 -0.5933493323
O  O13  1  0.36950000  0.87600000  0.01900000  1.0 -0.7391672082
O  O14  1  0.63050000  0.12400000  0.98100000  1.0 -0.7391672082
O  O15  1  0.40110000  0.11830000  0.87170000  1.0 -0.323936934
O  O16  1  0.59890000  0.88170000  0.12830000  1.0 -0.3251921482
