# DDEC6 charges by PACMAN v1.1 (https://github.com/mtap-research/PACMAN-charge/)
data_OPIFUQ_ASR_pacman
_symmetry_space_group_name_H-M   'P 1'
_cell_length_a   28.99500000
_cell_length_b   28.99500000
_cell_length_c   28.99500000
_cell_angle_alpha   60.00000000
_cell_angle_beta   60.00000000
_cell_angle_gamma   60.00000000
_symmetry_Int_Tables_number   1
_chemical_formula_structural   Sr4H8C40S8O17
_chemical_formula_sum   'Sr24 H48 C240 S48 O102'
_cell_volume   17236.70867218
_cell_formula_units_Z   6
loop_
 _symmetry_equiv_pos_site_id
 _symmetry_equiv_pos_as_xyz
  1  'x, y, z'
loop_
 _atom_site_type_symbol
 _atom_site_label
 _atom_site_symmetry_multiplicity
 _atom_site_fract_x
 _atom_site_fract_y
 _atom_site_fract_z
 _atom_site_occupancy
 _atom_site_charge
Sr  Sr1  1  0.08016000  0.91984000  0.45608000  1.0 1.4193620289
Sr  Sr2  1  0.95608000  0.04392000  0.41984000  1.0 1.4193620289
Sr  Sr3  1  0.91984000  0.08016000  0.54392000  1.0 1.4193620289
Sr  Sr4  1  0.04392000  0.95608000  0.58016000  1.0 1.4193620289
Sr  Sr5  1  0.54392000  0.45608000  0.91984000  1.0 1.4193620289
Sr  Sr6  1  0.41984000  0.58016000  0.95608000  1.0 1.4193620289
Sr  Sr7  1  0.45608000  0.54392000  0.08016000  1.0 1.4193620289
Sr  Sr8  1  0.58016000  0.41984000  0.04392000  1.0 1.4193620289
Sr  Sr9  1  0.45608000  0.08016000  0.91984000  1.0 1.4193620289
Sr  Sr10  1  0.95608000  0.58016000  0.04392000  1.0 1.4193620289
Sr  Sr11  1  0.08016000  0.45608000  0.54392000  1.0 1.4193620289
Sr  Sr12  1  0.58016000  0.95608000  0.41984000  1.0 1.4193620289
Sr  Sr13  1  0.54392000  0.91984000  0.08016000  1.0 1.4193620289
Sr  Sr14  1  0.04392000  0.41984000  0.95608000  1.0 1.4193620289
Sr  Sr15  1  0.91984000  0.54392000  0.45608000  1.0 1.4193620289
Sr  Sr16  1  0.41984000  0.04392000  0.58016000  1.0 1.4193620289
Sr  Sr17  1  0.91984000  0.45608000  0.08016000  1.0 1.4193620289
Sr  Sr18  1  0.04392000  0.58016000  0.41984000  1.0 1.4193620289
Sr  Sr19  1  0.95608000  0.41984000  0.58016000  1.0 1.4193620289
Sr  Sr20  1  0.58016000  0.04392000  0.95608000  1.0 1.4193620289
Sr  Sr21  1  0.41984000  0.95608000  0.04392000  1.0 1.4193620289
Sr  Sr22  1  0.54392000  0.08016000  0.45608000  1.0 1.4193620289
Sr  Sr23  1  0.45608000  0.91984000  0.54392000  1.0 1.4193620289
Sr  Sr24  1  0.08016000  0.54392000  0.91984000  1.0 1.4193620289
H  H1  1  0.88410000  0.95210000  0.44770000  1.0 0.138055538
H  H2  1  0.78390000  0.05230000  0.61590000  1.0 0.138055538
H  H3  1  0.95210000  0.88410000  0.71610000  1.0 0.138055538
H  H4  1  0.05230000  0.78390000  0.54790000  1.0 0.138055538
H  H5  1  0.71610000  0.44770000  0.95210000  1.0 0.138055538
H  H6  1  0.61590000  0.54790000  0.78390000  1.0 0.138055538
H  H7  1  0.44770000  0.71610000  0.88410000  1.0 0.138055538
H  H8  1  0.54790000  0.61590000  0.05230000  1.0 0.138055538
H  H9  1  0.44770000  0.88410000  0.95210000  1.0 0.138055538
H  H10  1  0.78390000  0.54790000  0.05230000  1.0 0.138055538
H  H11  1  0.88410000  0.44770000  0.71610000  1.0 0.138055538
H  H12  1  0.54790000  0.78390000  0.61590000  1.0 0.138055538
H  H13  1  0.71610000  0.95210000  0.88410000  1.0 0.138055538
H  H14  1  0.05230000  0.61590000  0.78390000  1.0 0.138055538
H  H15  1  0.95210000  0.71610000  0.44770000  1.0 0.138055538
H  H16  1  0.61590000  0.05230000  0.54790000  1.0 0.138055538
H  H17  1  0.95210000  0.44770000  0.88410000  1.0 0.138055538
H  H18  1  0.05230000  0.54790000  0.61590000  1.0 0.138055538
H  H19  1  0.78390000  0.61590000  0.54790000  1.0 0.138055538
H  H20  1  0.54790000  0.05230000  0.78390000  1.0 0.138055538
H  H21  1  0.61590000  0.78390000  0.05230000  1.0 0.138055538
H  H22  1  0.71610000  0.88410000  0.44770000  1.0 0.138055538
H  H23  1  0.44770000  0.95210000  0.71610000  1.0 0.138055538
H  H24  1  0.88410000  0.71610000  0.95210000  1.0 0.138055538
H  H25  1  0.11590000  0.04790000  0.55230000  1.0 0.138055538
H  H26  1  0.21610000  0.94770000  0.38410000  1.0 0.138055538
H  H27  1  0.04790000  0.11590000  0.28390000  1.0 0.138055538
H  H28  1  0.94770000  0.21610000  0.45210000  1.0 0.138055538
H  H29  1  0.28390000  0.55230000  0.04790000  1.0 0.138055538
H  H30  1  0.38410000  0.45210000  0.21610000  1.0 0.138055538
H  H31  1  0.55230000  0.28390000  0.11590000  1.0 0.138055538
H  H32  1  0.45210000  0.38410000  0.94770000  1.0 0.138055538
H  H33  1  0.55230000  0.11590000  0.04790000  1.0 0.138055538
H  H34  1  0.21610000  0.45210000  0.94770000  1.0 0.138055538
H  H35  1  0.11590000  0.55230000  0.28390000  1.0 0.138055538
H  H36  1  0.45210000  0.21610000  0.38410000  1.0 0.138055538
H  H37  1  0.28390000  0.04790000  0.11590000  1.0 0.138055538
H  H38  1  0.94770000  0.38410000  0.21610000  1.0 0.138055538
H  H39  1  0.04790000  0.28390000  0.55230000  1.0 0.138055538
H  H40  1  0.38410000  0.94770000  0.45210000  1.0 0.138055538
H  H41  1  0.04790000  0.55230000  0.11590000  1.0 0.138055538
H  H42  1  0.94770000  0.45210000  0.38410000  1.0 0.138055538
H  H43  1  0.21610000  0.38410000  0.45210000  1.0 0.138055538
H  H44  1  0.45210000  0.94770000  0.21610000  1.0 0.138055538
H  H45  1  0.38410000  0.21610000  0.94770000  1.0 0.138055538
H  H46  1  0.28390000  0.11590000  0.55230000  1.0 0.138055538
H  H47  1  0.55230000  0.04790000  0.28390000  1.0 0.138055538
H  H48  1  0.11590000  0.28390000  0.04790000  1.0 0.138055538
C  C1  1  0.99715000  0.89257000  0.44897000  1.0 0.5934168652
C  C2  1  0.83869000  0.05103000  0.50285000  1.0 0.5934168652
C  C3  1  0.89257000  0.99715000  0.66131000  1.0 0.5934168652
C  C4  1  0.05103000  0.83869000  0.60743000  1.0 0.5934168652
C  C5  1  0.66131000  0.44897000  0.89257000  1.0 0.5934168652
C  C6  1  0.50285000  0.60743000  0.83869000  1.0 0.5934168652
C  C7  1  0.44897000  0.66131000  0.99715000  1.0 0.5934168652
C  C8  1  0.60743000  0.50285000  0.05103000  1.0 0.5934168652
C  C9  1  0.44897000  0.99715000  0.89257000  1.0 0.5934168652
C  C10  1  0.83869000  0.60743000  0.05103000  1.0 0.5934168652
C  C11  1  0.99715000  0.44897000  0.66131000  1.0 0.5934168652
C  C12  1  0.60743000  0.83869000  0.50285000  1.0 0.5934168652
C  C13  1  0.66131000  0.89257000  0.99715000  1.0 0.5934168652
C  C14  1  0.05103000  0.50285000  0.83869000  1.0 0.5934168652
C  C15  1  0.89257000  0.66131000  0.44897000  1.0 0.5934168652
C  C16  1  0.50285000  0.05103000  0.60743000  1.0 0.5934168652
C  C17  1  0.89257000  0.44897000  0.99715000  1.0 0.5934168652
C  C18  1  0.05103000  0.60743000  0.50285000  1.0 0.5934168652
C  C19  1  0.83869000  0.50285000  0.60743000  1.0 0.5934168652
C  C20  1  0.60743000  0.05103000  0.83869000  1.0 0.5934168652
C  C21  1  0.50285000  0.83869000  0.05103000  1.0 0.5934168652
C  C22  1  0.66131000  0.99715000  0.44897000  1.0 0.5934168652
C  C23  1  0.44897000  0.89257000  0.66131000  1.0 0.5934168652
C  C24  1  0.99715000  0.66131000  0.89257000  1.0 0.5934168652
C  C25  1  0.00285000  0.10743000  0.55103000  1.0 0.5934168652
C  C26  1  0.16131000  0.94897000  0.49715000  1.0 0.5934168652
C  C27  1  0.10743000  0.00285000  0.33869000  1.0 0.5934168652
C  C28  1  0.94897000  0.16131000  0.39257000  1.0 0.5934168652
C  C29  1  0.33869000  0.55103000  0.10743000  1.0 0.5934168652
C  C30  1  0.49715000  0.39257000  0.16131000  1.0 0.5934168652
C  C31  1  0.55103000  0.33869000  0.00285000  1.0 0.5934168652
C  C32  1  0.39257000  0.49715000  0.94897000  1.0 0.5934168652
C  C33  1  0.55103000  0.00285000  0.10743000  1.0 0.5934168652
C  C34  1  0.16131000  0.39257000  0.94897000  1.0 0.5934168652
C  C35  1  0.00285000  0.55103000  0.33869000  1.0 0.5934168652
C  C36  1  0.39257000  0.16131000  0.49715000  1.0 0.5934168652
C  C37  1  0.33869000  0.10743000  0.00285000  1.0 0.5934168652
C  C38  1  0.94897000  0.49715000  0.16131000  1.0 0.5934168652
C  C39  1  0.10743000  0.33869000  0.55103000  1.0 0.5934168652
C  C40  1  0.49715000  0.94897000  0.39257000  1.0 0.5934168652
C  C41  1  0.10743000  0.55103000  0.00285000  1.0 0.5934168652
C  C42  1  0.94897000  0.39257000  0.49715000  1.0 0.5934168652
C  C43  1  0.16131000  0.49715000  0.39257000  1.0 0.5934168652
C  C44  1  0.39257000  0.94897000  0.16131000  1.0 0.5934168652
C  C45  1  0.49715000  0.16131000  0.94897000  1.0 0.5934168652
C  C46  1  0.33869000  0.00285000  0.55103000  1.0 0.5934168652
C  C47  1  0.55103000  0.10743000  0.33869000  1.0 0.5934168652
C  C48  1  0.00285000  0.33869000  0.10743000  1.0 0.5934168652
C  C49  1  0.95492000  0.87940000  0.44762000  1.0 -0.1116149144
C  C50  1  0.78194000  0.05238000  0.54508000  1.0 -0.1116149144
C  C51  1  0.87940000  0.95492000  0.71806000  1.0 -0.1116149144
C  C52  1  0.05238000  0.78194000  0.62060000  1.0 -0.1116149144
C  C53  1  0.71806000  0.44762000  0.87940000  1.0 -0.1116149144
C  C54  1  0.54508000  0.62060000  0.78194000  1.0 -0.1116149144
C  C55  1  0.44762000  0.71806000  0.95492000  1.0 -0.1116149144
C  C56  1  0.62060000  0.54508000  0.05238000  1.0 -0.1116149144
C  C57  1  0.44762000  0.95492000  0.87940000  1.0 -0.1116149144
C  C58  1  0.78194000  0.62060000  0.05238000  1.0 -0.1116149144
C  C59  1  0.95492000  0.44762000  0.71806000  1.0 -0.1116149144
C  C60  1  0.62060000  0.78194000  0.54508000  1.0 -0.1116149144
C  C61  1  0.71806000  0.87940000  0.95492000  1.0 -0.1116149144
C  C62  1  0.05238000  0.54508000  0.78194000  1.0 -0.1116149144
C  C63  1  0.87940000  0.71806000  0.44762000  1.0 -0.1116149144
C  C64  1  0.54508000  0.05238000  0.62060000  1.0 -0.1116149144
C  C65  1  0.87940000  0.44762000  0.95492000  1.0 -0.1116149144
C  C66  1  0.05238000  0.62060000  0.54508000  1.0 -0.1116149144
C  C67  1  0.78194000  0.54508000  0.62060000  1.0 -0.1116149144
C  C68  1  0.62060000  0.05238000  0.78194000  1.0 -0.1116149144
C  C69  1  0.54508000  0.78194000  0.05238000  1.0 -0.1116149144
C  C70  1  0.71806000  0.95492000  0.44762000  1.0 -0.1116149144
C  C71  1  0.44762000  0.87940000  0.71806000  1.0 -0.1116149144
C  C72  1  0.95492000  0.71806000  0.87940000  1.0 -0.1116149144
C  C73  1  0.04508000  0.12060000  0.55238000  1.0 -0.1116149144
C  C74  1  0.21806000  0.94762000  0.45492000  1.0 -0.1116149144
C  C75  1  0.12060000  0.04508000  0.28194000  1.0 -0.1116149144
C  C76  1  0.94762000  0.21806000  0.37940000  1.0 -0.1116149144
C  C77  1  0.28194000  0.55238000  0.12060000  1.0 -0.1116149144
C  C78  1  0.45492000  0.37940000  0.21806000  1.0 -0.1116149144
C  C79  1  0.55238000  0.28194000  0.04508000  1.0 -0.1116149144
C  C80  1  0.37940000  0.45492000  0.94762000  1.0 -0.1116149144
C  C81  1  0.55238000  0.04508000  0.12060000  1.0 -0.1116149144
C  C82  1  0.21806000  0.37940000  0.94762000  1.0 -0.1116149144
C  C83  1  0.04508000  0.55238000  0.28194000  1.0 -0.1116149144
C  C84  1  0.37940000  0.21806000  0.45492000  1.0 -0.1116149144
C  C85  1  0.28194000  0.12060000  0.04508000  1.0 -0.1116149144
C  C86  1  0.94762000  0.45492000  0.21806000  1.0 -0.1116149144
C  C87  1  0.12060000  0.28194000  0.55238000  1.0 -0.1116149144
C  C88  1  0.45492000  0.94762000  0.37940000  1.0 -0.1116149144
C  C89  1  0.12060000  0.55238000  0.04508000  1.0 -0.1116149144
C  C90  1  0.94762000  0.37940000  0.45492000  1.0 -0.1116149144
C  C91  1  0.21806000  0.45492000  0.37940000  1.0 -0.1116149144
C  C92  1  0.37940000  0.94762000  0.21806000  1.0 -0.1116149144
C  C93  1  0.45492000  0.21806000  0.94762000  1.0 -0.1116149144
C  C94  1  0.28194000  0.04508000  0.55238000  1.0 -0.1116149144
C  C95  1  0.55238000  0.12060000  0.28194000  1.0 -0.1116149144
C  C96  1  0.04508000  0.28194000  0.12060000  1.0 -0.1116149144
C  C97  1  0.89995000  0.91521000  0.44779000  1.0 -0.1488192291
C  C98  1  0.76295000  0.05221000  0.60005000  1.0 -0.1488192291
C  C99  1  0.91521000  0.89995000  0.73705000  1.0 -0.1488192291
C  C100  1  0.05221000  0.76295000  0.58479000  1.0 -0.1488192291
C  C101  1  0.73705000  0.44779000  0.91521000  1.0 -0.1488192291
C  C102  1  0.60005000  0.58479000  0.76295000  1.0 -0.1488192291
C  C103  1  0.44779000  0.73705000  0.89995000  1.0 -0.1488192291
C  C104  1  0.58479000  0.60005000  0.05221000  1.0 -0.1488192291
C  C105  1  0.44779000  0.89995000  0.91521000  1.0 -0.1488192291
C  C106  1  0.76295000  0.58479000  0.05221000  1.0 -0.1488192291
C  C107  1  0.89995000  0.44779000  0.73705000  1.0 -0.1488192291
C  C108  1  0.58479000  0.76295000  0.60005000  1.0 -0.1488192291
C  C109  1  0.73705000  0.91521000  0.89995000  1.0 -0.1488192291
C  C110  1  0.05221000  0.60005000  0.76295000  1.0 -0.1488192291
C  C111  1  0.91521000  0.73705000  0.44779000  1.0 -0.1488192291
C  C112  1  0.60005000  0.05221000  0.58479000  1.0 -0.1488192291
C  C113  1  0.91521000  0.44779000  0.89995000  1.0 -0.1488192291
C  C114  1  0.05221000  0.58479000  0.60005000  1.0 -0.1488192291
C  C115  1  0.76295000  0.60005000  0.58479000  1.0 -0.1488192291
C  C116  1  0.58479000  0.05221000  0.76295000  1.0 -0.1488192291
C  C117  1  0.60005000  0.76295000  0.05221000  1.0 -0.1488192291
C  C118  1  0.73705000  0.89995000  0.44779000  1.0 -0.1488192291
C  C119  1  0.44779000  0.91521000  0.73705000  1.0 -0.1488192291
C  C120  1  0.89995000  0.73705000  0.91521000  1.0 -0.1488192291
C  C121  1  0.10005000  0.08479000  0.55221000  1.0 -0.1488192291
C  C122  1  0.23705000  0.94779000  0.39995000  1.0 -0.1488192291
C  C123  1  0.08479000  0.10005000  0.26295000  1.0 -0.1488192291
C  C124  1  0.94779000  0.23705000  0.41521000  1.0 -0.1488192291
C  C125  1  0.26295000  0.55221000  0.08479000  1.0 -0.1488192291
C  C126  1  0.39995000  0.41521000  0.23705000  1.0 -0.1488192291
C  C127  1  0.55221000  0.26295000  0.10005000  1.0 -0.1488192291
C  C128  1  0.41521000  0.39995000  0.94779000  1.0 -0.1488192291
C  C129  1  0.55221000  0.10005000  0.08479000  1.0 -0.1488192291
C  C130  1  0.23705000  0.41521000  0.94779000  1.0 -0.1488192291
C  C131  1  0.10005000  0.55221000  0.26295000  1.0 -0.1488192291
C  C132  1  0.41521000  0.23705000  0.39995000  1.0 -0.1488192291
C  C133  1  0.26295000  0.08479000  0.10005000  1.0 -0.1488192291
C  C134  1  0.94779000  0.39995000  0.23705000  1.0 -0.1488192291
C  C135  1  0.08479000  0.26295000  0.55221000  1.0 -0.1488192291
C  C136  1  0.39995000  0.94779000  0.41521000  1.0 -0.1488192291
C  C137  1  0.08479000  0.55221000  0.10005000  1.0 -0.1488192291
C  C138  1  0.94779000  0.41521000  0.39995000  1.0 -0.1488192291
C  C139  1  0.23705000  0.39995000  0.41521000  1.0 -0.1488192291
C  C140  1  0.41521000  0.94779000  0.23705000  1.0 -0.1488192291
C  C141  1  0.39995000  0.23705000  0.94779000  1.0 -0.1488192291
C  C142  1  0.26295000  0.10005000  0.55221000  1.0 -0.1488192291
C  C143  1  0.55221000  0.08479000  0.26295000  1.0 -0.1488192291
C  C144  1  0.10005000  0.26295000  0.08479000  1.0 -0.1488192291
C  C145  1  0.90559000  0.83041000  0.44799000  1.0 -0.0255785835
C  C146  1  0.68399000  0.05201000  0.59441000  1.0 -0.0238242472
C  C147  1  0.83041000  0.90559000  0.81601000  1.0 -0.0238242472
C  C148  1  0.05201000  0.68399000  0.66959000  1.0 -0.0255785835
C  C149  1  0.81601000  0.44799000  0.83041000  1.0 -0.0255785835
C  C150  1  0.59441000  0.66959000  0.68399000  1.0 -0.0255785835
C  C151  1  0.44799000  0.81601000  0.90559000  1.0 -0.0255785835
C  C152  1  0.66959000  0.59441000  0.05201000  1.0 -0.0255785835
C  C153  1  0.44799000  0.90559000  0.83041000  1.0 -0.0255785835
C  C154  1  0.68399000  0.66959000  0.05201000  1.0 -0.0255785835
C  C155  1  0.90559000  0.44799000  0.81601000  1.0 -0.0238242472
C  C156  1  0.66959000  0.68399000  0.59441000  1.0 -0.0255785835
C  C157  1  0.81601000  0.83041000  0.90559000  1.0 -0.0255785835
C  C158  1  0.05201000  0.59441000  0.68399000  1.0 -0.0255785835
C  C159  1  0.83041000  0.81601000  0.44799000  1.0 -0.0255785835
C  C160  1  0.59441000  0.05201000  0.66959000  1.0 -0.0238242472
C  C161  1  0.83041000  0.44799000  0.90559000  1.0 -0.0238242472
C  C162  1  0.05201000  0.66959000  0.59441000  1.0 -0.0255785835
C  C163  1  0.68399000  0.59441000  0.66959000  1.0 -0.0255785835
C  C164  1  0.66959000  0.05201000  0.68399000  1.0 -0.0255785835
C  C165  1  0.59441000  0.68399000  0.05201000  1.0 -0.0255785835
C  C166  1  0.81601000  0.90559000  0.44799000  1.0 -0.0255785835
C  C167  1  0.44799000  0.83041000  0.81601000  1.0 -0.0238242472
C  C168  1  0.90559000  0.81601000  0.83041000  1.0 -0.0255785835
C  C169  1  0.09441000  0.16959000  0.55201000  1.0 -0.0255785835
C  C170  1  0.31601000  0.94799000  0.40559000  1.0 -0.0255785835
C  C171  1  0.16959000  0.09441000  0.18399000  1.0 -0.0255785835
C  C172  1  0.94799000  0.31601000  0.33041000  1.0 -0.0238242472
C  C173  1  0.18399000  0.55201000  0.16959000  1.0 -0.0255785835
C  C174  1  0.40559000  0.33041000  0.31601000  1.0 -0.0255785835
C  C175  1  0.55201000  0.18399000  0.09441000  1.0 -0.0255785835
C  C176  1  0.33041000  0.40559000  0.94799000  1.0 -0.0255785835
C  C177  1  0.55201000  0.09441000  0.16959000  1.0 -0.0255785835
C  C178  1  0.31601000  0.33041000  0.94799000  1.0 -0.0255785835
C  C179  1  0.09441000  0.55201000  0.18399000  1.0 -0.0238242472
C  C180  1  0.33041000  0.31601000  0.40559000  1.0 -0.0255785835
C  C181  1  0.18399000  0.16959000  0.09441000  1.0 -0.0255785835
C  C182  1  0.94799000  0.40559000  0.31601000  1.0 -0.0255785835
C  C183  1  0.16959000  0.18399000  0.55201000  1.0 -0.0255785835
C  C184  1  0.40559000  0.94799000  0.33041000  1.0 -0.0255785835
C  C185  1  0.16959000  0.55201000  0.09441000  1.0 -0.0255785835
C  C186  1  0.94799000  0.33041000  0.40559000  1.0 -0.0238242472
C  C187  1  0.31601000  0.40559000  0.33041000  1.0 -0.0255785835
C  C188  1  0.33041000  0.94799000  0.31601000  1.0 -0.0255785835
C  C189  1  0.40559000  0.31601000  0.94799000  1.0 -0.0255785835
C  C190  1  0.18399000  0.09441000  0.55201000  1.0 -0.0255785835
C  C191  1  0.55201000  0.16959000  0.18399000  1.0 -0.0238242472
C  C192  1  0.09441000  0.18399000  0.16959000  1.0 -0.0255785835
C  C193  1  0.87180000  0.88580000  0.44800000  1.0 0.0318521361
C  C194  1  0.70560000  0.05200000  0.62820000  1.0 0.0318521361
C  C195  1  0.88580000  0.87180000  0.79440000  1.0 0.0318521361
C  C196  1  0.05200000  0.70560000  0.61420000  1.0 0.0318521361
C  C197  1  0.79440000  0.44800000  0.88580000  1.0 0.0318521361
C  C198  1  0.62820000  0.61420000  0.70560000  1.0 0.0318521361
C  C199  1  0.44800000  0.79440000  0.87180000  1.0 0.0318521361
C  C200  1  0.61420000  0.62820000  0.05200000  1.0 0.0318521361
C  C201  1  0.44800000  0.87180000  0.88580000  1.0 0.0318521361
C  C202  1  0.70560000  0.61420000  0.05200000  1.0 0.0318521361
C  C203  1  0.87180000  0.44800000  0.79440000  1.0 0.0318521361
C  C204  1  0.61420000  0.70560000  0.62820000  1.0 0.0318521361
C  C205  1  0.79440000  0.88580000  0.87180000  1.0 0.0318521361
C  C206  1  0.05200000  0.62820000  0.70560000  1.0 0.0318521361
C  C207  1  0.88580000  0.79440000  0.44800000  1.0 0.0318521361
C  C208  1  0.62820000  0.05200000  0.61420000  1.0 0.0318521361
C  C209  1  0.88580000  0.44800000  0.87180000  1.0 0.0318521361
C  C210  1  0.05200000  0.61420000  0.62820000  1.0 0.0318521361
C  C211  1  0.70560000  0.62820000  0.61420000  1.0 0.0318521361
C  C212  1  0.61420000  0.05200000  0.70560000  1.0 0.0318521361
C  C213  1  0.62820000  0.70560000  0.05200000  1.0 0.0318521361
C  C214  1  0.79440000  0.87180000  0.44800000  1.0 0.0318521361
C  C215  1  0.44800000  0.88580000  0.79440000  1.0 0.0318521361
C  C216  1  0.87180000  0.79440000  0.88580000  1.0 0.0318521361
C  C217  1  0.12820000  0.11420000  0.55200000  1.0 0.0318521361
C  C218  1  0.29440000  0.94800000  0.37180000  1.0 0.0318521361
C  C219  1  0.11420000  0.12820000  0.20560000  1.0 0.0318521361
C  C220  1  0.94800000  0.29440000  0.38580000  1.0 0.0318521361
C  C221  1  0.20560000  0.55200000  0.11420000  1.0 0.0318521361
C  C222  1  0.37180000  0.38580000  0.29440000  1.0 0.0318521361
C  C223  1  0.55200000  0.20560000  0.12820000  1.0 0.0318521361
C  C224  1  0.38580000  0.37180000  0.94800000  1.0 0.0318521361
C  C225  1  0.55200000  0.12820000  0.11420000  1.0 0.0318521361
C  C226  1  0.29440000  0.38580000  0.94800000  1.0 0.0318521361
C  C227  1  0.12820000  0.55200000  0.20560000  1.0 0.0318521361
C  C228  1  0.38580000  0.29440000  0.37180000  1.0 0.0318521361
C  C229  1  0.20560000  0.11420000  0.12820000  1.0 0.0318521361
C  C230  1  0.94800000  0.37180000  0.29440000  1.0 0.0318521361
C  C231  1  0.11420000  0.20560000  0.55200000  1.0 0.0318521361
C  C232  1  0.37180000  0.94800000  0.38580000  1.0 0.0318521361
C  C233  1  0.11420000  0.55200000  0.12820000  1.0 0.0318521361
C  C234  1  0.94800000  0.38580000  0.37180000  1.0 0.0318521361
C  C235  1  0.29440000  0.37180000  0.38580000  1.0 0.0318521361
C  C236  1  0.38580000  0.94800000  0.29440000  1.0 0.0318521361
C  C237  1  0.37180000  0.29440000  0.94800000  1.0 0.0318521361
C  C238  1  0.20560000  0.12820000  0.55200000  1.0 0.0318521361
C  C239  1  0.55200000  0.11420000  0.20560000  1.0 0.0318521361
C  C240  1  0.12820000  0.20560000  0.11420000  1.0 0.0318521361
S  S1  1  0.97199000  0.81323000  0.44729000  1.0 0.1263154878
S  S2  1  0.73251000  0.05271000  0.52801000  1.0 0.1263154878
S  S3  1  0.81323000  0.97199000  0.76749000  1.0 0.1263154878
S  S4  1  0.05271000  0.73251000  0.68677000  1.0 0.1263154878
S  S5  1  0.76749000  0.44729000  0.81323000  1.0 0.1263154878
S  S6  1  0.52801000  0.68677000  0.73251000  1.0 0.1263154878
S  S7  1  0.44729000  0.76749000  0.97199000  1.0 0.1263154878
S  S8  1  0.68677000  0.52801000  0.05271000  1.0 0.1263154878
S  S9  1  0.44729000  0.97199000  0.81323000  1.0 0.1263154878
S  S10  1  0.73251000  0.68677000  0.05271000  1.0 0.1263154878
S  S11  1  0.97199000  0.44729000  0.76749000  1.0 0.1263154878
S  S12  1  0.68677000  0.73251000  0.52801000  1.0 0.1263154878
S  S13  1  0.76749000  0.81323000  0.97199000  1.0 0.1263154878
S  S14  1  0.05271000  0.52801000  0.73251000  1.0 0.1263154878
S  S15  1  0.81323000  0.76749000  0.44729000  1.0 0.1263154878
S  S16  1  0.52801000  0.05271000  0.68677000  1.0 0.1263154878
S  S17  1  0.81323000  0.44729000  0.97199000  1.0 0.1263154878
S  S18  1  0.05271000  0.68677000  0.52801000  1.0 0.1263154878
S  S19  1  0.73251000  0.52801000  0.68677000  1.0 0.1263154878
S  S20  1  0.68677000  0.05271000  0.73251000  1.0 0.1263154878
S  S21  1  0.52801000  0.73251000  0.05271000  1.0 0.1263154878
S  S22  1  0.76749000  0.97199000  0.44729000  1.0 0.1263154878
S  S23  1  0.44729000  0.81323000  0.76749000  1.0 0.1263154878
S  S24  1  0.97199000  0.76749000  0.81323000  1.0 0.1263154878
S  S25  1  0.02801000  0.18677000  0.55271000  1.0 0.1263154878
S  S26  1  0.26749000  0.94729000  0.47199000  1.0 0.1263154878
S  S27  1  0.18677000  0.02801000  0.23251000  1.0 0.1263154878
S  S28  1  0.94729000  0.26749000  0.31323000  1.0 0.1263154878
S  S29  1  0.23251000  0.55271000  0.18677000  1.0 0.1263154878
S  S30  1  0.47199000  0.31323000  0.26749000  1.0 0.1263154878
S  S31  1  0.55271000  0.23251000  0.02801000  1.0 0.1263154878
S  S32  1  0.31323000  0.47199000  0.94729000  1.0 0.1263154878
S  S33  1  0.55271000  0.02801000  0.18677000  1.0 0.1263154878
S  S34  1  0.26749000  0.31323000  0.94729000  1.0 0.1263154878
S  S35  1  0.02801000  0.55271000  0.23251000  1.0 0.1263154878
S  S36  1  0.31323000  0.26749000  0.47199000  1.0 0.1263154878
S  S37  1  0.23251000  0.18677000  0.02801000  1.0 0.1263154878
S  S38  1  0.94729000  0.47199000  0.26749000  1.0 0.1263154878
S  S39  1  0.18677000  0.23251000  0.55271000  1.0 0.1263154878
S  S40  1  0.47199000  0.94729000  0.31323000  1.0 0.1263154878
S  S41  1  0.18677000  0.55271000  0.02801000  1.0 0.1263154878
S  S42  1  0.94729000  0.31323000  0.47199000  1.0 0.1263154878
S  S43  1  0.26749000  0.47199000  0.31323000  1.0 0.1263154878
S  S44  1  0.31323000  0.94729000  0.26749000  1.0 0.1263154878
S  S45  1  0.47199000  0.26749000  0.94729000  1.0 0.1263154878
S  S46  1  0.23251000  0.02801000  0.55271000  1.0 0.1263154878
S  S47  1  0.55271000  0.18677000  0.23251000  1.0 0.1263154878
S  S48  1  0.02801000  0.23251000  0.18677000  1.0 0.1263154878
O  O1  1  0.04444000  0.85536000  0.44970000  1.0 -0.596351288
O  O2  1  0.84950000  0.05030000  0.45556000  1.0 -0.596351288
O  O3  1  0.85536000  0.04444000  0.65050000  1.0 -0.596351288
O  O4  1  0.05030000  0.84950000  0.64464000  1.0 -0.596351288
O  O5  1  0.65050000  0.44970000  0.85536000  1.0 -0.596351288
O  O6  1  0.45556000  0.64464000  0.84950000  1.0 -0.596351288
O  O7  1  0.44970000  0.65050000  0.04444000  1.0 -0.596351288
O  O8  1  0.64464000  0.45556000  0.05030000  1.0 -0.596351288
O  O9  1  0.44970000  0.04444000  0.85536000  1.0 -0.596351288
O  O10  1  0.84950000  0.64464000  0.05030000  1.0 -0.596351288
O  O11  1  0.04444000  0.44970000  0.65050000  1.0 -0.596351288
O  O12  1  0.64464000  0.84950000  0.45556000  1.0 -0.596351288
O  O13  1  0.65050000  0.85536000  0.04444000  1.0 -0.596351288
O  O14  1  0.05030000  0.45556000  0.84950000  1.0 -0.596351288
O  O15  1  0.85536000  0.65050000  0.44970000  1.0 -0.596351288
O  O16  1  0.45556000  0.05030000  0.64464000  1.0 -0.596351288
O  O17  1  0.85536000  0.44970000  0.04444000  1.0 -0.596351288
O  O18  1  0.05030000  0.64464000  0.45556000  1.0 -0.596351288
O  O19  1  0.84950000  0.45556000  0.64464000  1.0 -0.596351288
O  O20  1  0.64464000  0.05030000  0.84950000  1.0 -0.596351288
O  O21  1  0.45556000  0.84950000  0.05030000  1.0 -0.596351288
O  O22  1  0.65050000  0.04444000  0.44970000  1.0 -0.596351288
O  O23  1  0.44970000  0.85536000  0.65050000  1.0 -0.596351288
O  O24  1  0.04444000  0.65050000  0.85536000  1.0 -0.596351288
O  O25  1  0.95556000  0.14464000  0.55030000  1.0 -0.596351288
O  O26  1  0.15050000  0.94970000  0.54444000  1.0 -0.596351288
O  O27  1  0.14464000  0.95556000  0.34950000  1.0 -0.596351288
O  O28  1  0.94970000  0.15050000  0.35536000  1.0 -0.596351288
O  O29  1  0.34950000  0.55030000  0.14464000  1.0 -0.596351288
O  O30  1  0.54444000  0.35536000  0.15050000  1.0 -0.596351288
O  O31  1  0.55030000  0.34950000  0.95556000  1.0 -0.596351288
O  O32  1  0.35536000  0.54444000  0.94970000  1.0 -0.596351288
O  O33  1  0.55030000  0.95556000  0.14464000  1.0 -0.596351288
O  O34  1  0.15050000  0.35536000  0.94970000  1.0 -0.596351288
O  O35  1  0.95556000  0.55030000  0.34950000  1.0 -0.596351288
O  O36  1  0.35536000  0.15050000  0.54444000  1.0 -0.596351288
O  O37  1  0.34950000  0.14464000  0.95556000  1.0 -0.596351288
O  O38  1  0.94970000  0.54444000  0.15050000  1.0 -0.596351288
O  O39  1  0.14464000  0.34950000  0.55030000  1.0 -0.596351288
O  O40  1  0.54444000  0.94970000  0.35536000  1.0 -0.596351288
O  O41  1  0.14464000  0.55030000  0.95556000  1.0 -0.596351288
O  O42  1  0.94970000  0.35536000  0.54444000  1.0 -0.596351288
O  O43  1  0.15050000  0.54444000  0.35536000  1.0 -0.596351288
O  O44  1  0.35536000  0.94970000  0.15050000  1.0 -0.596351288
O  O45  1  0.54444000  0.15050000  0.94970000  1.0 -0.596351288
O  O46  1  0.34950000  0.95556000  0.55030000  1.0 -0.596351288
O  O47  1  0.55030000  0.14464000  0.34950000  1.0 -0.596351288
O  O48  1  0.95556000  0.34950000  0.14464000  1.0 -0.596351288
O  O49  1  0.98346000  0.94080000  0.44962000  1.0 -0.6427786022
O  O50  1  0.87388000  0.05038000  0.51654000  1.0 -0.6427786022
O  O51  1  0.94080000  0.98346000  0.62612000  1.0 -0.6427786022
O  O52  1  0.05038000  0.87388000  0.55920000  1.0 -0.6427786022
O  O53  1  0.62612000  0.44962000  0.94080000  1.0 -0.6427786022
O  O54  1  0.51654000  0.55920000  0.87388000  1.0 -0.6427786022
O  O55  1  0.44962000  0.62612000  0.98346000  1.0 -0.6427786022
O  O56  1  0.55920000  0.51654000  0.05038000  1.0 -0.6427786022
O  O57  1  0.44962000  0.98346000  0.94080000  1.0 -0.6427786022
O  O58  1  0.87388000  0.55920000  0.05038000  1.0 -0.6427786022
O  O59  1  0.98346000  0.44962000  0.62612000  1.0 -0.6427786022
O  O60  1  0.55920000  0.87388000  0.51654000  1.0 -0.6427786022
O  O61  1  0.62612000  0.94080000  0.98346000  1.0 -0.6427786022
O  O62  1  0.05038000  0.51654000  0.87388000  1.0 -0.6427786022
O  O63  1  0.94080000  0.62612000  0.44962000  1.0 -0.6427786022
O  O64  1  0.51654000  0.05038000  0.55920000  1.0 -0.6427786022
O  O65  1  0.94080000  0.44962000  0.98346000  1.0 -0.6427786022
O  O66  1  0.05038000  0.55920000  0.51654000  1.0 -0.6427786022
O  O67  1  0.87388000  0.51654000  0.55920000  1.0 -0.6427786022
O  O68  1  0.55920000  0.05038000  0.87388000  1.0 -0.6427786022
O  O69  1  0.51654000  0.87388000  0.05038000  1.0 -0.6427786022
O  O70  1  0.62612000  0.98346000  0.44962000  1.0 -0.6427786022
O  O71  1  0.44962000  0.94080000  0.62612000  1.0 -0.6427786022
O  O72  1  0.98346000  0.62612000  0.94080000  1.0 -0.6427786022
O  O73  1  0.01654000  0.05920000  0.55038000  1.0 -0.6427786022
O  O74  1  0.12612000  0.94962000  0.48346000  1.0 -0.6427786022
O  O75  1  0.05920000  0.01654000  0.37388000  1.0 -0.6427786022
O  O76  1  0.94962000  0.12612000  0.44080000  1.0 -0.6427786022
O  O77  1  0.37388000  0.55038000  0.05920000  1.0 -0.6427786022
O  O78  1  0.48346000  0.44080000  0.12612000  1.0 -0.6427786022
O  O79  1  0.55038000  0.37388000  0.01654000  1.0 -0.6427786022
O  O80  1  0.44080000  0.48346000  0.94962000  1.0 -0.6427786022
O  O81  1  0.55038000  0.01654000  0.05920000  1.0 -0.6427786022
O  O82  1  0.12612000  0.44080000  0.94962000  1.0 -0.6427786022
O  O83  1  0.01654000  0.55038000  0.37388000  1.0 -0.6427786022
O  O84  1  0.44080000  0.12612000  0.48346000  1.0 -0.6427786022
O  O85  1  0.37388000  0.05920000  0.01654000  1.0 -0.6427786022
O  O86  1  0.94962000  0.48346000  0.12612000  1.0 -0.6427786022
O  O87  1  0.05920000  0.37388000  0.55038000  1.0 -0.6427786022
O  O88  1  0.48346000  0.94962000  0.44080000  1.0 -0.6427786022
O  O89  1  0.05920000  0.55038000  0.01654000  1.0 -0.6427786022
O  O90  1  0.94962000  0.44080000  0.48346000  1.0 -0.6427786022
O  O91  1  0.12612000  0.48346000  0.44080000  1.0 -0.6427786022
O  O92  1  0.44080000  0.94962000  0.12612000  1.0 -0.6427786022
O  O93  1  0.48346000  0.12612000  0.94962000  1.0 -0.6427786022
O  O94  1  0.37388000  0.01654000  0.55038000  1.0 -0.6427786022
O  O95  1  0.55038000  0.05920000  0.37388000  1.0 -0.6427786022
O  O96  1  0.01654000  0.37388000  0.05920000  1.0 -0.6427786022
O  O97  1  0.00000000  0.00000000  0.50000000  1.0 -0.596351288
O  O98  1  0.50000000  0.50000000  0.00000000  1.0 -0.596351288
O  O99  1  0.50000000  0.00000000  0.00000000  1.0 -0.596351288
O  O100  1  0.00000000  0.50000000  0.00000000  1.0 -0.596351288
O  O101  1  0.00000000  0.50000000  0.50000000  1.0 -0.596351288
O  O102  1  0.50000000  0.00000000  0.50000000  1.0 -0.596351288
