# DDEC6 charges by PACMAN v1.1 (https://github.com/mtap-research/PACMAN-charge/)
data_OPOCEC_ASR_pacman
_symmetry_space_group_name_H-M   'P 1'
_cell_length_a   20.54380000
_cell_length_b   20.54380000
_cell_length_c   24.46170000
_cell_angle_alpha   86.81300000
_cell_angle_beta   93.18700000
_cell_angle_gamma   32.97470000
_symmetry_Int_Tables_number   1
_chemical_formula_structural   Mn4H57C51O16
_chemical_formula_sum   'Mn16 H228 C204 O64'
_cell_volume   5510.16563249
_cell_formula_units_Z   4
loop_
 _symmetry_equiv_pos_site_id
 _symmetry_equiv_pos_as_xyz
  1  'x, y, z'
loop_
 _atom_site_type_symbol
 _atom_site_label
 _atom_site_symmetry_multiplicity
 _atom_site_fract_x
 _atom_site_fract_y
 _atom_site_fract_z
 _atom_site_occupancy
 _atom_site_charge
Mn  Mn1  1  0.29087000  0.29087000  0.75000000  1.0 1.0757670591
Mn  Mn2  1  0.70913000  0.70913000  0.25000000  1.0 1.0757670591
Mn  Mn3  1  0.92563000  0.31373000  0.38049000  1.0 1.0533956478
Mn  Mn4  1  0.31373000  0.92563000  0.11951000  1.0 1.0533956478
Mn  Mn5  1  0.07437000  0.68627000  0.61951000  1.0 1.0533956478
Mn  Mn6  1  0.68627000  0.07437000  0.88049000  1.0 1.0533956478
Mn  Mn7  1  0.07610000  0.84052000  0.63286000  1.0 0.9730764369
Mn  Mn8  1  0.84052000  0.07610000  0.86714000  1.0 0.9730764369
Mn  Mn9  1  0.92390000  0.15948000  0.36714000  1.0 0.9730764369
Mn  Mn10  1  0.15948000  0.92390000  0.13286000  1.0 0.9730764369
Mn  Mn11  1  0.96871000  0.96870000  0.75000000  1.0 1.0365958998
Mn  Mn12  1  0.03129000  0.03130000  0.25000000  1.0 1.0365958998
Mn  Mn13  1  0.07991000  0.52243000  0.62834000  1.0 0.9730764369
Mn  Mn14  1  0.52243000  0.07991000  0.87166000  1.0 0.9730764369
Mn  Mn15  1  0.92009000  0.47757000  0.37166000  1.0 0.9730764369
Mn  Mn16  1  0.47757000  0.92009000  0.12834000  1.0 0.9730764369
H  H1  1  0.30030000  0.08170000  0.67740000  1.0 0.129804939
H  H2  1  0.08170000  0.30030000  0.82260000  1.0 0.129804939
H  H3  1  0.69970000  0.91830000  0.32260000  1.0 0.129804939
H  H4  1  0.91830000  0.69970000  0.17740000  1.0 0.129804939
H  H5  1  0.15880000  0.10700000  0.54120000  1.0 0.129804939
H  H6  1  0.10700000  0.15880000  0.95880000  1.0 0.129804939
H  H7  1  0.84120000  0.89300000  0.45880000  1.0 0.129804939
H  H8  1  0.89300000  0.84120000  0.04120000  1.0 0.129804939
H  H9  1  0.09980000  0.34820000  0.54530000  1.0 0.139063774
H  H10  1  0.34820000  0.09980000  0.95470000  1.0 0.139063774
H  H11  1  0.90020000  0.65180000  0.45470000  1.0 0.139063774
H  H12  1  0.65180000  0.90020000  0.04530000  1.0 0.139063774
H  H13  1  0.35010000  0.88050000  0.57620000  1.0 0.129804939
H  H14  1  0.88050000  0.35010000  0.92380000  1.0 0.129804939
H  H15  1  0.64990000  0.11950000  0.42380000  1.0 0.129804939
H  H16  1  0.11950000  0.64990000  0.07620000  1.0 0.129804939
H  H17  1  0.21890000  0.96870000  0.58260000  1.0 0.129804939
H  H18  1  0.96870000  0.21890000  0.91740000  1.0 0.129804939
H  H19  1  0.78110000  0.03130000  0.41740000  1.0 0.129804939
H  H20  1  0.03130000  0.78110000  0.08260000  1.0 0.129804939
H  H21  1  0.33300000  0.84100000  0.62210000  1.0 0.139063774
H  H22  1  0.84100000  0.33300000  0.87790000  1.0 0.139063774
H  H23  1  0.66700000  0.15900000  0.37790000  1.0 0.139063774
H  H24  1  0.15900000  0.66700000  0.12210000  1.0 0.139063774
H  H25  1  0.24740000  0.94120000  0.70510000  1.0 0.139063774
H  H26  1  0.94120000  0.24740000  0.79490000  1.0 0.139063774
H  H27  1  0.75260000  0.05880000  0.29490000  1.0 0.139063774
H  H28  1  0.05880000  0.75260000  0.20510000  1.0 0.139063774
H  H29  1  0.13330000  0.07010000  0.66666667  1.0 0.139063774
H  H30  1  0.07010000  0.13330000  0.83340000  1.0 0.139063774
H  H31  1  0.86670000  0.92990000  0.33340000  1.0 0.139063774
H  H32  1  0.92990000  0.86670000  0.16660000  1.0 0.139063774
H  H33  1  0.21440000  0.04160000  0.71240000  1.0 0.129804939
H  H34  1  0.04160000  0.21440000  0.78760000  1.0 0.129804939
H  H35  1  0.78560000  0.95840000  0.28760000  1.0 0.129804939
H  H36  1  0.95840000  0.78560000  0.21240000  1.0 0.129804939
H  H37  1  0.47520000  0.83720000  0.65060000  1.0 0.139063774
H  H38  1  0.83720000  0.47520000  0.84940000  1.0 0.139063774
H  H39  1  0.52480000  0.16280000  0.34940000  1.0 0.139063774
H  H40  1  0.16280000  0.52480000  0.15060000  1.0 0.139063774
H  H41  1  0.45320000  0.80160000  0.69520000  1.0 0.129804939
H  H42  1  0.80160000  0.45320000  0.80480000  1.0 0.129804939
H  H43  1  0.54680000  0.19840000  0.30480000  1.0 0.129804939
H  H44  1  0.19840000  0.54680000  0.19520000  1.0 0.129804939
H  H45  1  0.42030000  0.90210000  0.70200000  1.0 0.129804939
H  H46  1  0.90210000  0.42030000  0.79800000  1.0 0.129804939
H  H47  1  0.57970000  0.09790000  0.29800000  1.0 0.129804939
H  H48  1  0.09790000  0.57970000  0.20200000  1.0 0.129804939
H  H49  1  0.84070000  0.36570000  0.51740000  1.0 0.1202506989
H  H50  1  0.36570000  0.84070000  0.98260000  1.0 0.1202506989
H  H51  1  0.15930000  0.63430000  0.48260000  1.0 0.1202506989
H  H52  1  0.63430000  0.15930000  0.01740000  1.0 0.1202506989
H  H53  1  0.86220000  0.27180000  0.67310000  1.0 0.129804939
H  H54  1  0.27180000  0.86220000  0.82690000  1.0 0.129804939
H  H55  1  0.13780000  0.72820000  0.32690000  1.0 0.129804939
H  H56  1  0.72820000  0.13780000  0.17310000  1.0 0.129804939
H  H57  1  0.96770000  0.07650000  0.55790000  1.0 0.139063774
H  H58  1  0.07650000  0.96770000  0.94210000  1.0 0.139063774
H  H59  1  0.03230000  0.92350000  0.44210000  1.0 0.139063774
H  H60  1  0.92350000  0.03230000  0.05790000  1.0 0.139063774
H  H61  1  0.71890000  0.46250000  0.67730000  1.0 0.1202506989
H  H62  1  0.46250000  0.71890000  0.82270000  1.0 0.1202506989
H  H63  1  0.28110000  0.53750000  0.32270000  1.0 0.1202506989
H  H64  1  0.53750000  0.28110000  0.17730000  1.0 0.1202506989
H  H65  1  0.66790000  0.57570000  0.65840000  1.0 0.139063774
H  H66  1  0.57570000  0.66790000  0.84160000  1.0 0.129804939
H  H67  1  0.33210000  0.42430000  0.34160000  1.0 0.129804939
H  H68  1  0.42430000  0.33210000  0.15840000  1.0 0.139063774
H  H69  1  0.62820000  0.55080000  0.62040000  1.0 0.139063774
H  H70  1  0.55080000  0.62820000  0.87960000  1.0 0.129804939
H  H71  1  0.37180000  0.44920000  0.37960000  1.0 0.129804939
H  H72  1  0.44920000  0.37180000  0.12040000  1.0 0.139063774
H  H73  1  0.93290000  0.32690000  0.68750000  1.0 0.129804939
H  H74  1  0.32690000  0.93290000  0.81250000  1.0 0.129804939
H  H75  1  0.06710000  0.67310000  0.31250000  1.0 0.129804939
H  H76  1  0.67310000  0.06710000  0.18750000  1.0 0.129804939
H  H77  1  0.97140000  0.33240000  0.63630000  1.0 0.129804939
H  H78  1  0.33240000  0.97140000  0.86370000  1.0 0.129804939
H  H79  1  0.02860000  0.66760000  0.36370000  1.0 0.129804939
H  H80  1  0.66760000  0.02860000  0.13630000  1.0 0.129804939
H  H81  1  0.87910000  0.44170000  0.66810000  1.0 0.139063774
H  H82  1  0.44170000  0.87910000  0.83190000  1.0 0.139063774
H  H83  1  0.12090000  0.55830000  0.33190000  1.0 0.139063774
H  H84  1  0.55830000  0.12090000  0.16810000  1.0 0.139063774
H  H85  1  0.69040000  0.56060000  0.54200000  1.0 0.129804939
H  H86  1  0.56060000  0.69040000  0.95800000  1.0 0.129804939
H  H87  1  0.30960000  0.43940000  0.45800000  1.0 0.129804939
H  H88  1  0.43940000  0.30960000  0.04200000  1.0 0.129804939
H  H89  1  0.73210000  0.58350000  0.58010000  1.0 0.139063774
H  H90  1  0.58350000  0.73210000  0.91990000  1.0 0.139063774
H  H91  1  0.26790000  0.41650000  0.41990000  1.0 0.139063774
H  H92  1  0.41650000  0.26790000  0.08010000  1.0 0.139063774
H  H93  1  0.82350000  0.47530000  0.54760000  1.0 0.129804939
H  H94  1  0.47530000  0.82350000  0.95240000  1.0 0.129804939
H  H95  1  0.17650000  0.52470000  0.45240000  1.0 0.129804939
H  H96  1  0.52470000  0.17650000  0.04760000  1.0 0.129804939
H  H97  1  0.23450000  0.68490000  0.82810000  1.0 0.129804939
H  H98  1  0.68490000  0.23450000  0.67190000  1.0 0.129804939
H  H99  1  0.76550000  0.31510000  0.17190000  1.0 0.129804939
H  H100  1  0.31510000  0.76550000  0.32810000  1.0 0.129804939
H  H101  1  0.40950000  0.38890000  0.92220000  1.0 0.129804939
H  H102  1  0.38890000  0.40950000  0.57780000  1.0 0.129804939
H  H103  1  0.59050000  0.61110000  0.07780000  1.0 0.129804939
H  H104  1  0.61110000  0.59050000  0.42220000  1.0 0.129804939
H  H105  1  0.28280000  0.47560000  0.75910000  1.0 0.1202506989
H  H106  1  0.47560000  0.28280000  0.74090000  1.0 0.1202506989
H  H107  1  0.71720000  0.52440000  0.24090000  1.0 0.1202506989
H  H108  1  0.52440000  0.71720000  0.25910000  1.0 0.1202506989
H  H109  1  0.37480000  0.62840000  0.96080000  1.0 0.129804939
H  H110  1  0.62840000  0.37480000  0.53920000  1.0 0.129804939
H  H111  1  0.62520000  0.37160000  0.03920000  1.0 0.129804939
H  H112  1  0.37160000  0.62520000  0.46080000  1.0 0.129804939
H  H113  1  0.45910000  0.52690000  0.92440000  1.0 0.139063774
H  H114  1  0.52690000  0.45910000  0.57560000  1.0 0.139063774
H  H115  1  0.54090000  0.47310000  0.07560000  1.0 0.139063774
H  H116  1  0.47310000  0.54090000  0.42440000  1.0 0.139063774
H  H117  1  0.33200000  0.66340000  0.89600000  1.0 0.1202506989
H  H118  1  0.66340000  0.33200000  0.60400000  1.0 0.1202506989
H  H119  1  0.66800000  0.33660000  0.10400000  1.0 0.1202506989
H  H120  1  0.33660000  0.66800000  0.39600000  1.0 0.1202506989
H  H121  1  0.34740000  0.48400000  0.99410000  1.0 0.129804939
H  H122  1  0.48400000  0.34740000  0.50590000  1.0 0.129804939
H  H123  1  0.65260000  0.51600000  0.00590000  1.0 0.129804939
H  H124  1  0.51600000  0.65260000  0.49410000  1.0 0.129804939
H  H125  1  0.46800000  0.41800000  0.98620000  1.0 0.129804939
H  H126  1  0.41800000  0.46800000  0.51380000  1.0 0.129804939
H  H127  1  0.53200000  0.58200000  0.01380000  1.0 0.129804939
H  H128  1  0.58200000  0.53200000  0.48620000  1.0 0.129804939
H  H129  1  0.38010000  0.52390000  0.02010000  1.0 0.139063774
H  H130  1  0.52390000  0.38010000  0.47990000  1.0 0.139063774
H  H131  1  0.61990000  0.47610000  0.97990000  1.0 0.139063774
H  H132  1  0.47610000  0.61990000  0.52010000  1.0 0.139063774
H  H133  1  0.14640000  0.70080000  0.94550000  1.0 0.139063774
H  H134  1  0.70080000  0.14640000  0.55450000  1.0 0.139063774
H  H135  1  0.85360000  0.29920000  0.05450000  1.0 0.139063774
H  H136  1  0.29920000  0.85360000  0.44550000  1.0 0.139063774
H  H137  1  0.18340000  0.73620000  0.97200000  1.0 0.139063774
H  H138  1  0.73620000  0.18340000  0.52800000  1.0 0.139063774
H  H139  1  0.81660000  0.26380000  0.02800000  1.0 0.139063774
H  H140  1  0.26380000  0.81660000  0.47200000  1.0 0.139063774
H  H141  1  0.14390000  0.76670000  0.90720000  1.0 0.129804939
H  H142  1  0.76670000  0.14390000  0.59280000  1.0 0.129804939
H  H143  1  0.85610000  0.23330000  0.09280000  1.0 0.129804939
H  H144  1  0.23330000  0.85610000  0.40720000  1.0 0.129804939
H  H145  1  0.97290000  0.74270000  0.91300000  1.0 0.1202506989
H  H146  1  0.74270000  0.97290000  0.58700000  1.0 0.1202506989
H  H147  1  0.02710000  0.25730000  0.08700000  1.0 0.1202506989
H  H148  1  0.25730000  0.02710000  0.41300000  1.0 0.1202506989
H  H149  1  0.08180000  0.50940000  0.82660000  1.0 0.1202506989
H  H150  1  0.50940000  0.08180000  0.67340000  1.0 0.1202506989
H  H151  1  0.91820000  0.49060000  0.17340000  1.0 0.1202506989
H  H152  1  0.49060000  0.91820000  0.32660000  1.0 0.1202506989
H  H153  1  0.99000000  0.76260000  0.75110000  1.0 0.1202506989
H  H154  1  0.76260000  0.99000000  0.74890000  1.0 0.1202506989
H  H155  1  0.01000000  0.23740000  0.24890000  1.0 0.1202506989
H  H156  1  0.23740000  0.01000000  0.25110000  1.0 0.1202506989
H  H157  1  0.07030000  0.44490000  0.90200000  1.0 0.1086135919
H  H158  1  0.44490000  0.07030000  0.59800000  1.0 0.1086135919
H  H159  1  0.92970000  0.55510000  0.09800000  1.0 0.1086135919
H  H160  1  0.55510000  0.92970000  0.40200000  1.0 0.1086135919
H  H161  1  0.99460000  0.50840000  0.94980000  1.0 0.0616029636
H  H162  1  0.50840000  0.99460000  0.55020000  1.0 0.0616029636
H  H163  1  0.00540000  0.49160000  0.05020000  1.0 0.0616029636
H  H164  1  0.49160000  0.00540000  0.44980000  1.0 0.0616029636
H  H165  1  0.93680000  0.58480000  0.88960000  1.0 0.0804019728
H  H166  1  0.58480000  0.93680000  0.61040000  1.0 0.0804019728
H  H167  1  0.06320000  0.41520000  0.11040000  1.0 0.0804019728
H  H168  1  0.41520000  0.06320000  0.38960000  1.0 0.0804019728
H  H169  1  0.23730000  0.40850000  0.91770000  1.0 0.0804019728
H  H170  1  0.40850000  0.23730000  0.58230000  1.0 0.0804019728
H  H171  1  0.76270000  0.59150000  0.08230000  1.0 0.0804019728
H  H172  1  0.59150000  0.76270000  0.41770000  1.0 0.0804019728
H  H173  1  0.23250000  0.41150000  0.98140000  1.0 0.0711476651
H  H174  1  0.41150000  0.23250000  0.51860000  1.0 0.0711476651
H  H175  1  0.76750000  0.58850000  0.01860000  1.0 0.0711476651
H  H176  1  0.58850000  0.76750000  0.48140000  1.0 0.0711476651
H  H177  1  0.22100000  0.35600000  0.95050000  1.0 0.0616029636
H  H178  1  0.35600000  0.22100000  0.54950000  1.0 0.0616029636
H  H179  1  0.77900000  0.64400000  0.04950000  1.0 0.0616029636
H  H180  1  0.64400000  0.77900000  0.45050000  1.0 0.0616029636
H  H181  1  0.07120000  0.58260000  0.00170000  1.0 0.0616029636
H  H182  1  0.58260000  0.07120000  0.49830000  1.0 0.0616029636
H  H183  1  0.92880000  0.41740000  0.99830000  1.0 0.0616029636
H  H184  1  0.41740000  0.92880000  0.50170000  1.0 0.0616029636
H  H185  1  0.94130000  0.69570000  0.96400000  1.0 0.0616029636
H  H186  1  0.69570000  0.94130000  0.53600000  1.0 0.0616029636
H  H187  1  0.05870000  0.30430000  0.03600000  1.0 0.0616029636
H  H188  1  0.30430000  0.05870000  0.46400000  1.0 0.0616029636
H  H189  1  0.98570000  0.59370000  0.99880000  1.0 0.0711476651
H  H190  1  0.59370000  0.98570000  0.50120000  1.0 0.0711476651
H  H191  1  0.01430000  0.40630000  0.00120000  1.0 0.0711476651
H  H192  1  0.40630000  0.01430000  0.49880000  1.0 0.0711476651
H  H193  1  0.19790000  0.47850000  0.97650000  1.0 0.0711476651
H  H194  1  0.47850000  0.19790000  0.52350000  1.0 0.0711476651
H  H195  1  0.80210000  0.52150000  0.02350000  1.0 0.0711476651
H  H196  1  0.52150000  0.80210000  0.47650000  1.0 0.0711476651
H  H197  1  0.06990000  0.61530000  0.97920000  1.0 0.0711476651
H  H198  1  0.61530000  0.06990000  0.52080000  1.0 0.0711476651
H  H199  1  0.93010000  0.38470000  0.02080000  1.0 0.0711476651
H  H200  1  0.38470000  0.93010000  0.47920000  1.0 0.0711476651
H  H201  1  0.11510000  0.51250000  0.01370000  1.0 0.0711476651
H  H202  1  0.51250000  0.11510000  0.48630000  1.0 0.0711476651
H  H203  1  0.88490000  0.48750000  0.98630000  1.0 0.0711476651
H  H204  1  0.48750000  0.88490000  0.51370000  1.0 0.0711476651
H  H205  1  0.86350000  0.72070000  0.91730000  1.0 0.0918235669
H  H206  1  0.72070000  0.86350000  0.58270000  1.0 0.0918235669
H  H207  1  0.13650000  0.27930000  0.08270000  1.0 0.0918235669
H  H208  1  0.27930000  0.13650000  0.41730000  1.0 0.0918235669
H  H209  1  0.90700000  0.61840000  0.95060000  1.0 0.0616029636
H  H210  1  0.61840000  0.90700000  0.54940000  1.0 0.0616029636
H  H211  1  0.09300000  0.38160000  0.04940000  1.0 0.0616029636
H  H212  1  0.38160000  0.09300000  0.45060000  1.0 0.0616029636
H  H213  1  0.91900000  0.67380000  0.98110000  1.0 0.0616029636
H  H214  1  0.67380000  0.91900000  0.51890000  1.0 0.0616029636
H  H215  1  0.08100000  0.32620000  0.01890000  1.0 0.0616029636
H  H216  1  0.32620000  0.08100000  0.48110000  1.0 0.0616029636
H  H217  1  0.19720000  0.37960000  0.91930000  1.0 0.0456780682
H  H218  1  0.37960000  0.19720000  0.58070000  1.0 0.0456780682
H  H219  1  0.80280000  0.62040000  0.08070000  1.0 0.0456780682
H  H220  1  0.62040000  0.80280000  0.41930000  1.0 0.0456780682
H  H221  1  0.12550000  0.40610000  0.96220000  1.0 0.0804019728
H  H222  1  0.40610000  0.12550000  0.53780000  1.0 0.0804019728
H  H223  1  0.87450000  0.59390000  0.03780000  1.0 0.0804019728
H  H224  1  0.59390000  0.87450000  0.46220000  1.0 0.0804019728
H  H225  1  0.07020000  0.45480000  0.89830000  1.0 0.1086135919
H  H226  1  0.45480000  0.07020000  0.60170000  1.0 0.1086135919
H  H227  1  0.92980000  0.54520000  0.10170000  1.0 0.1086135919
H  H228  1  0.54520000  0.92980000  0.39830000  1.0 0.1086135919
C  C1  1  0.21538000  0.27378000  0.64644000  1.0 0.5676234404
C  C2  1  0.27378000  0.21538000  0.85356000  1.0 0.5676234404
C  C3  1  0.78462000  0.72622000  0.35356000  1.0 0.5676234404
C  C4  1  0.72622000  0.78462000  0.14644000  1.0 0.5676234404
C  C5  1  0.04644000  0.29844000  0.47573000  1.0 0.5632381628
C  C6  1  0.29844000  0.04644000  0.02427000  1.0 0.5632381628
C  C7  1  0.95356000  0.70156000  0.52427000  1.0 0.5632381628
C  C8  1  0.70156000  0.95356000  0.97573000  1.0 0.5632381628
C  C9  1  0.91534000  0.20194000  0.46884000  1.0 0.5632381628
C  C10  1  0.20194000  0.91534000  0.03116000  1.0 0.5632381628
C  C11  1  0.08466000  0.79806000  0.53116000  1.0 0.5632381628
C  C12  1  0.79806000  0.08466000  0.96884000  1.0 0.5632381628
C  C13  1  0.94383000  0.08463000  0.66367000  1.0 0.5676234404
C  C14  1  0.08463000  0.94383000  0.83633000  1.0 0.5676234404
C  C15  1  0.05617000  0.91537000  0.33633000  1.0 0.5676234404
C  C16  1  0.91537000  0.05617000  0.16367000  1.0 0.5676234404
C  C17  1  0.18929000  0.66969000  0.72842000  1.0 0.5986348132
C  C18  1  0.66969000  0.18929000  0.77158000  1.0 0.5986348132
C  C19  1  0.81071000  0.33031000  0.27158000  1.0 0.5986348132
C  C20  1  0.33031000  0.81071000  0.22842000  1.0 0.5986348132
C  C21  1  0.39845000  0.30905000  0.84518000  1.0 0.5832624326
C  C22  1  0.30905000  0.39845000  0.65482000  1.0 0.5832624326
C  C23  1  0.60155000  0.69095000  0.15482000  1.0 0.5832624326
C  C24  1  0.69095000  0.60155000  0.34518000  1.0 0.5832624326
C  C25  1  0.94327000  0.86587000  0.83556000  1.0 0.5832624326
C  C26  1  0.86587000  0.94327000  0.66444000  1.0 0.5832624326
C  C27  1  0.05673000  0.13413000  0.16444000  1.0 0.5832624326
C  C28  1  0.13413000  0.05673000  0.33556000  1.0 0.5832624326
C  C29  1  0.05436000  0.59136000  0.72598000  1.0 0.5900881479
C  C30  1  0.59136000  0.05436000  0.77402000  1.0 0.5900881479
C  C31  1  0.94564000  0.40864000  0.27402000  1.0 0.5900881479
C  C32  1  0.40864000  0.94564000  0.22598000  1.0 0.5900881479
C  C33  1  0.20186000  0.22286000  0.61632000  1.0 -0.0210882835
C  C34  1  0.22286000  0.20186000  0.88368000  1.0 -0.0210882835
C  C35  1  0.79814000  0.77714000  0.38368000  1.0 -0.0210882835
C  C36  1  0.77714000  0.79814000  0.11632000  1.0 -0.0210882835
C  C37  1  0.25426000  0.12066000  0.64151000  1.0 -0.159615157
C  C38  1  0.12066000  0.25426000  0.85849000  1.0 -0.159615157
C  C39  1  0.74574000  0.87934000  0.35849000  1.0 -0.159615157
C  C40  1  0.87934000  0.74574000  0.14151000  1.0 -0.159615157
C  C41  1  0.23877000  0.07557000  0.61380000  1.0 0.0711476651
C  C42  1  0.07557000  0.23877000  0.88620000  1.0 0.0711476651
C  C43  1  0.76123000  0.92443000  0.38620000  1.0 0.0711476651
C  C44  1  0.92443000  0.76123000  0.11380000  1.0 0.0711476651
C  C45  1  0.17028000  0.13548000  0.56023000  1.0 -0.1719294151
C  C46  1  0.13548000  0.17028000  0.93977000  1.0 -0.1719294151
C  C47  1  0.82972000  0.86452000  0.43977000  1.0 -0.1719294151
C  C48  1  0.86452000  0.82972000  0.06023000  1.0 -0.1719294151
C  C49  1  0.11846000  0.23666000  0.53431000  1.0 -0.0210882835
C  C50  1  0.23666000  0.11846000  0.96569000  1.0 -0.0210882835
C  C51  1  0.88154000  0.76334000  0.46569000  1.0 -0.0210882835
C  C52  1  0.76334000  0.88154000  0.03431000  1.0 -0.0210882835
C  C53  1  0.13434000  0.28034000  0.56248000  1.0 -0.1206040478
C  C54  1  0.28034000  0.13434000  0.93752000  1.0 -0.1206040478
C  C55  1  0.86566000  0.71966000  0.43752000  1.0 -0.1206040478
C  C56  1  0.71966000  0.86566000  0.06248000  1.0 -0.1206040478
C  C57  1  0.29589000  0.96369000  0.64310000  1.0 0.2693694124
C  C58  1  0.96369000  0.29589000  0.85690000  1.0 0.2693694124
C  C59  1  0.70411000  0.03631000  0.35690000  1.0 0.2693694124
C  C60  1  0.03631000  0.70411000  0.14310000  1.0 0.2693694124
C  C61  1  0.29980000  0.90840000  0.60230000  1.0 -0.4895065425
C  C62  1  0.90840000  0.29980000  0.89770000  1.0 -0.4895065425
C  C63  1  0.70020000  0.09160000  0.39770000  1.0 -0.4895065425
C  C64  1  0.09160000  0.70020000  0.10230000  1.0 -0.4895065425
C  C65  1  0.21490000  0.00850000  0.68590000  1.0 -0.4677389895
C  C66  1  0.00850000  0.21490000  0.81410000  1.0 -0.4677389895
C  C67  1  0.78510000  0.99150000  0.31410000  1.0 -0.4677389895
C  C68  1  0.99150000  0.78510000  0.18590000  1.0 -0.4677389895
C  C69  1  0.42270000  0.86730000  0.67570000  1.0 -0.4895065425
C  C70  1  0.86730000  0.42270000  0.82430000  1.0 -0.4895065425
C  C71  1  0.57730000  0.13270000  0.32430000  1.0 -0.4895065425
C  C72  1  0.13270000  0.57730000  0.17570000  1.0 -0.4895065425
C  C73  1  0.90386000  0.22006000  0.52848000  1.0 -0.0123965533
C  C74  1  0.22006000  0.90386000  0.97152000  1.0 -0.0123965533
C  C75  1  0.09614000  0.77994000  0.47152000  1.0 -0.0123965533
C  C76  1  0.77994000  0.09614000  0.02848000  1.0 -0.0123965533
C  C77  1  0.86000000  0.31520000  0.54397000  1.0 -0.1538998147
C  C78  1  0.31520000  0.86000000  0.95603000  1.0 -0.1538998147
C  C79  1  0.14000000  0.68480000  0.45603000  1.0 -0.1538998147
C  C80  1  0.68480000  0.14000000  0.04397000  1.0 -0.1538998147
C  C81  1  0.84444000  0.33624000  0.59830000  1.0 0.0711476651
C  C82  1  0.33624000  0.84444000  0.90170000  1.0 0.0711476651
C  C83  1  0.15556000  0.66376000  0.40170000  1.0 0.0711476651
C  C84  1  0.66376000  0.15556000  0.09830000  1.0 0.0711476651
C  C85  1  0.87290000  0.25910000  0.63662000  1.0 -0.159615157
C  C86  1  0.25910000  0.87290000  0.86338000  1.0 -0.159615157
C  C87  1  0.12710000  0.74090000  0.36338000  1.0 -0.159615157
C  C88  1  0.74090000  0.12710000  0.13662000  1.0 -0.159615157
C  C89  1  0.91690000  0.16390000  0.62166000  1.0 -0.0289547976
C  C90  1  0.16390000  0.91690000  0.87834000  1.0 -0.0289547976
C  C91  1  0.08310000  0.83610000  0.37834000  1.0 -0.0210882835
C  C92  1  0.83610000  0.08310000  0.12166000  1.0 -0.0289547976
C  C93  1  0.93506000  0.14226000  0.56768000  1.0 -0.1206040478
C  C94  1  0.14226000  0.93506000  0.93232000  1.0 -0.1206040478
C  C95  1  0.06494000  0.85774000  0.43232000  1.0 -0.1206040478
C  C96  1  0.85774000  0.06494000  0.06768000  1.0 -0.1206040478
C  C97  1  0.79964000  0.43784000  0.61683000  1.0 0.2606012563
C  C98  1  0.43784000  0.79964000  0.88317000  1.0 0.2606012563
C  C99  1  0.20036000  0.56216000  0.38317000  1.0 0.2606012563
C  C100  1  0.56216000  0.20036000  0.11683000  1.0 0.2606012563
C  C101  1  0.69414000  0.51354000  0.64590000  1.0 -0.4677389895
C  C102  1  0.51354000  0.69414000  0.85410000  1.0 -0.4677389895
C  C103  1  0.30586000  0.48646000  0.35410000  1.0 -0.4677389895
C  C104  1  0.48646000  0.30586000  0.14590000  1.0 -0.4677389895
C  C105  1  0.90567000  0.37927000  0.65580000  1.0 -0.4677389895
C  C106  1  0.37927000  0.90567000  0.84420000  1.0 -0.4677389895
C  C107  1  0.09433000  0.62073000  0.34420000  1.0 -0.4677389895
C  C108  1  0.62073000  0.09433000  0.15580000  1.0 -0.4677389895
C  C109  1  0.75746000  0.52226000  0.56700000  1.0 -0.4895065425
C  C110  1  0.52226000  0.75746000  0.93300000  1.0 -0.4895065425
C  C111  1  0.24254000  0.47774000  0.43300000  1.0 -0.4895065425
C  C112  1  0.47774000  0.24254000  0.06700000  1.0 -0.4895065425
C  C113  1  0.25261000  0.59041000  0.78460000  1.0 -0.0289547976
C  C114  1  0.59041000  0.25261000  0.71540000  1.0 -0.0289547976
C  C115  1  0.74739000  0.40959000  0.21540000  1.0 -0.0289547976
C  C116  1  0.40959000  0.74739000  0.28460000  1.0 -0.0289547976
C  C117  1  0.26417000  0.61737000  0.83177000  1.0 -0.1397271638
C  C118  1  0.61737000  0.26417000  0.66823000  1.0 -0.1397271638
C  C119  1  0.73583000  0.38263000  0.16823000  1.0 -0.1397271638
C  C120  1  0.38263000  0.73583000  0.33177000  1.0 -0.1397271638
C  C121  1  0.31933000  0.54473000  0.88428000  1.0 0.0711476651
C  C122  1  0.54473000  0.31933000  0.61572000  1.0 0.0711476651
C  C123  1  0.68067000  0.45527000  0.11572000  1.0 0.0711476651
C  C124  1  0.45527000  0.68067000  0.38428000  1.0 0.0711476651
C  C125  1  0.36759000  0.44139000  0.88802000  1.0 -0.1397271638
C  C126  1  0.44139000  0.36759000  0.61198000  1.0 -0.1397271638
C  C127  1  0.63241000  0.55861000  0.11198000  1.0 -0.1397271638
C  C128  1  0.55861000  0.63241000  0.38802000  1.0 -0.1397271638
C  C129  1  0.35434000  0.41474000  0.84151000  1.0 -0.0210882835
C  C130  1  0.41474000  0.35434000  0.65849000  1.0 -0.0210882835
C  C131  1  0.64566000  0.58526000  0.15849000  1.0 -0.0210882835
C  C132  1  0.58526000  0.64566000  0.34151000  1.0 -0.0210882835
C  C133  1  0.29462000  0.49102000  0.78998000  1.0 -0.1206040478
C  C134  1  0.49102000  0.29462000  0.71002000  1.0 -0.1206040478
C  C135  1  0.70538000  0.50898000  0.21002000  1.0 -0.1206040478
C  C136  1  0.50898000  0.70538000  0.28998000  1.0 -0.1206040478
C  C137  1  0.31722000  0.58602000  0.93584000  1.0 0.2606012563
C  C138  1  0.58602000  0.31722000  0.56416000  1.0 0.2606012563
C  C139  1  0.68278000  0.41398000  0.06416000  1.0 0.2606012563
C  C140  1  0.41398000  0.68278000  0.43584000  1.0 0.2606012563
C  C141  1  0.37629000  0.60269000  0.92860000  1.0 -0.4611730089
C  C142  1  0.60269000  0.37629000  0.57140000  1.0 -0.4611730089
C  C143  1  0.62371000  0.39731000  0.07140000  1.0 -0.4611730089
C  C144  1  0.39731000  0.62371000  0.42860000  1.0 -0.4611730089
C  C145  1  0.38438000  0.49458000  0.98890000  1.0 -0.4895065425
C  C146  1  0.49458000  0.38438000  0.51110000  1.0 -0.4895065425
C  C147  1  0.61562000  0.50542000  0.01110000  1.0 -0.4895065425
C  C148  1  0.50542000  0.61562000  0.48890000  1.0 -0.4895065425
C  C149  1  0.18559000  0.70879000  0.94060000  1.0 -0.4611730089
C  C150  1  0.70879000  0.18559000  0.55940000  1.0 -0.4611730089
C  C151  1  0.81441000  0.29121000  0.05940000  1.0 -0.4611730089
C  C152  1  0.29121000  0.81441000  0.44060000  1.0 -0.4611730089
C  C153  1  0.97628000  0.76788000  0.83282000  1.0 -0.0123965533
C  C154  1  0.76788000  0.97628000  0.66718000  1.0 -0.0123965533
C  C155  1  0.02372000  0.23212000  0.16718000  1.0 -0.0123965533
C  C156  1  0.23212000  0.02372000  0.33282000  1.0 -0.0123965533
C  C157  1  0.99116000  0.71296000  0.88008000  1.0 -0.2113491288
C  C158  1  0.71296000  0.99116000  0.61992000  1.0 -0.2113491288
C  C159  1  0.00884000  0.28704000  0.11992000  1.0 -0.2113491288
C  C160  1  0.28704000  0.00884000  0.38008000  1.0 -0.2162744125
C  C161  1  0.03322000  0.61382000  0.87882000  1.0 0.0409446677
C  C162  1  0.61382000  0.03322000  0.62118000  1.0 0.0409446677
C  C163  1  0.96678000  0.38618000  0.12118000  1.0 0.0409446677
C  C164  1  0.38618000  0.96678000  0.37882000  1.0 0.0409446677
C  C165  1  0.05406000  0.57506000  0.82819000  1.0 -0.1758711206
C  C166  1  0.57506000  0.05406000  0.67181000  1.0 -0.1758711206
C  C167  1  0.94594000  0.42494000  0.17181000  1.0 -0.1758711206
C  C168  1  0.42494000  0.94594000  0.32819000  1.0 -0.1758711206
C  C169  1  0.03385000  0.63325000  0.77972000  1.0 -0.0210882835
C  C170  1  0.63325000  0.03385000  0.72028000  1.0 -0.0210882835
C  C171  1  0.96615000  0.36675000  0.22028000  1.0 -0.0210882835
C  C172  1  0.36675000  0.96615000  0.27972000  1.0 -0.0210882835
C  C173  1  0.99872000  0.72692000  0.78259000  1.0 -0.1206040478
C  C174  1  0.72692000  0.99872000  0.71741000  1.0 -0.1206040478
C  C175  1  0.00128000  0.27308000  0.21741000  1.0 -0.1206040478
C  C176  1  0.27308000  0.00128000  0.28259000  1.0 -0.1206040478
C  C177  1  0.06001000  0.54621000  0.93223000  1.0 0.1569588224
C  C178  1  0.54621000  0.06001000  0.56777000  1.0 0.1569588224
C  C179  1  0.93999000  0.45379000  0.06777000  1.0 0.1569588224
C  C180  1  0.45379000  0.93999000  0.43223000  1.0 0.1569588224
C  C181  1  0.01050000  0.51850000  0.91690000  1.0 -0.235791262
C  C182  1  0.51850000  0.01050000  0.58310000  1.0 -0.235791262
C  C183  1  0.98950000  0.48150000  0.08310000  1.0 -0.235791262
C  C184  1  0.48150000  0.98950000  0.41690000  1.0 -0.235791262
C  C185  1  0.20140000  0.41820000  0.94680000  1.0 -0.1719294151
C  C186  1  0.41820000  0.20140000  0.55320000  1.0 -0.1719294151
C  C187  1  0.79860000  0.58180000  0.05320000  1.0 -0.1719294151
C  C188  1  0.58180000  0.79860000  0.44680000  1.0 -0.1719294151
C  C189  1  0.01010000  0.61010000  0.97790000  1.0 -0.2113491288
C  C190  1  0.61010000  0.01010000  0.52210000  1.0 -0.2113491288
C  C191  1  0.98990000  0.38990000  0.02210000  1.0 -0.204799529
C  C192  1  0.38990000  0.98990000  0.47790000  1.0 -0.204799529
C  C193  1  0.11540000  0.53740000  0.97950000  1.0 -0.1758711206
C  C194  1  0.53740000  0.11540000  0.52050000  1.0 -0.1758711206
C  C195  1  0.88460000  0.46260000  0.02050000  1.0 -0.1758711206
C  C196  1  0.46260000  0.88460000  0.47950000  1.0 -0.1758711206
C  C197  1  0.92290000  0.65090000  0.94680000  1.0 -0.1933958342
C  C198  1  0.65090000  0.92290000  0.55320000  1.0 -0.1933958342
C  C199  1  0.07710000  0.34910000  0.05320000  1.0 -0.1933958342
C  C200  1  0.34910000  0.07710000  0.44680000  1.0 -0.1933958342
C  C201  1  0.11790000  0.43790000  0.92770000  1.0 -0.2162744125
C  C202  1  0.43790000  0.11790000  0.57230000  1.0 -0.2162744125
C  C203  1  0.88210000  0.56210000  0.07230000  1.0 -0.2162744125
C  C204  1  0.56210000  0.88210000  0.42770000  1.0 -0.2162744125
O  O1  1  0.16140000  0.36800000  0.61939000  1.0 -0.568419311
O  O2  1  0.36800000  0.16140000  0.88061000  1.0 -0.568419311
O  O3  1  0.83860000  0.63200000  0.38061000  1.0 -0.568419311
O  O4  1  0.63200000  0.83860000  0.11939000  1.0 -0.568419311
O  O5  1  0.27734000  0.22294000  0.69456000  1.0 -0.5311132034
O  O6  1  0.22294000  0.27734000  0.80544000  1.0 -0.5311132034
O  O7  1  0.72266000  0.77706000  0.30544000  1.0 -0.5311132034
O  O8  1  0.77706000  0.72266000  0.19456000  1.0 -0.5311132034
O  O9  1  0.00052000  0.39032000  0.45524000  1.0 -0.5490760987
O  O10  1  0.39032000  0.00052000  0.04476000  1.0 -0.5490760987
O  O11  1  0.99948000  0.60968000  0.54476000  1.0 -0.5490760987
O  O12  1  0.60968000  0.99948000  0.95524000  1.0 -0.5490760987
O  O13  1  0.04008000  0.25228000  0.45039000  1.0 -0.5490760987
O  O14  1  0.25228000  0.04008000  0.04961000  1.0 -0.5490760987
O  O15  1  0.95992000  0.74772000  0.54961000  1.0 -0.5490760987
O  O16  1  0.74772000  0.95992000  0.95039000  1.0 -0.5490760987
O  O17  1  0.96509000  0.11109000  0.45629000  1.0 -0.4986011496
O  O18  1  0.11109000  0.96509000  0.04371000  1.0 -0.4986011496
O  O19  1  0.03491000  0.88891000  0.54371000  1.0 -0.4986011496
O  O20  1  0.88891000  0.03491000  0.95629000  1.0 -0.4986011496
O  O21  1  0.86654000  0.28594000  0.43196000  1.0 -0.5822976788
O  O22  1  0.28594000  0.86654000  0.06804000  1.0 -0.5822976788
O  O23  1  0.13346000  0.71406000  0.56804000  1.0 -0.5822976788
O  O24  1  0.71406000  0.13346000  0.93196000  1.0 -0.5822976788
O  O25  1  0.01211000  0.98251000  0.65498000  1.0 -0.5605155786
O  O26  1  0.98251000  0.01211000  0.84502000  1.0 -0.5605155786
O  O27  1  0.98789000  0.01749000  0.34502000  1.0 -0.5605155786
O  O28  1  0.01749000  0.98789000  0.15498000  1.0 -0.5605155786
O  O29  1  0.89735000  0.12135000  0.70678000  1.0 -0.5147227456
O  O30  1  0.12135000  0.89735000  0.79322000  1.0 -0.5147227456
O  O31  1  0.10265000  0.87865000  0.29322000  1.0 -0.5147227456
O  O32  1  0.87865000  0.10265000  0.20678000  1.0 -0.5147227456
O  O33  1  0.18629000  0.63649000  0.68797000  1.0 -0.5822976788
O  O34  1  0.63649000  0.18629000  0.81203000  1.0 -0.5822976788
O  O35  1  0.81371000  0.36351000  0.31203000  1.0 -0.5822976788
O  O36  1  0.36351000  0.81371000  0.18797000  1.0 -0.5822976788
O  O37  1  0.14172000  0.76612000  0.72250000  1.0 -0.5490760987
O  O38  1  0.76612000  0.14172000  0.77750000  1.0 -0.5490760987
O  O39  1  0.85828000  0.23388000  0.27750000  1.0 -0.5490760987
O  O40  1  0.23388000  0.85828000  0.22250000  1.0 -0.5490760987
O  O41  1  0.34082000  0.31902000  0.81259000  1.0 -0.5490760987
O  O42  1  0.31902000  0.34082000  0.68741000  1.0 -0.5490760987
O  O43  1  0.65918000  0.68098000  0.18741000  1.0 -0.5490760987
O  O44  1  0.68098000  0.65918000  0.31259000  1.0 -0.5490760987
O  O45  1  0.49204000  0.21244000  0.88120000  1.0 -0.568419311
O  O46  1  0.21244000  0.49204000  0.61880000  1.0 -0.568419311
O  O47  1  0.50796000  0.78756000  0.11880000  1.0 -0.568419311
O  O48  1  0.78756000  0.50796000  0.38120000  1.0 -0.568419311
O  O49  1  0.87407000  0.93967000  0.86883000  1.0 -0.568419311
O  O50  1  0.93967000  0.87407000  0.63117000  1.0 -0.568419311
O  O51  1  0.12593000  0.06033000  0.13117000  1.0 -0.568419311
O  O52  1  0.06033000  0.12593000  0.36883000  1.0 -0.568419311
O  O53  1  0.98808000  0.86868000  0.80597000  1.0 -0.5404999067
O  O54  1  0.86868000  0.98808000  0.69403000  1.0 -0.5404999067
O  O55  1  0.01192000  0.13132000  0.19403000  1.0 -0.5404999067
O  O56  1  0.13132000  0.01192000  0.30597000  1.0 -0.5404999067
O  O57  1  0.10069000  0.49629000  0.72538000  1.0 -0.568419311
O  O58  1  0.49629000  0.10069000  0.77462000  1.0 -0.568419311
O  O59  1  0.89931000  0.50371000  0.27462000  1.0 -0.568419311
O  O60  1  0.50371000  0.89931000  0.22538000  1.0 -0.568419311
O  O61  1  0.02096000  0.65376000  0.68101000  1.0 -0.5863621344
O  O62  1  0.65376000  0.02096000  0.81899000  1.0 -0.5863621344
O  O63  1  0.97904000  0.34624000  0.31899000  1.0 -0.5863621344
O  O64  1  0.34624000  0.97904000  0.18101000  1.0 -0.5863621344
