# DDEC6 charges by PACMAN v1.1 (https://github.com/mtap-research/PACMAN-charge/)
data_OPOZEZ_ASR_pacman
_symmetry_space_group_name_H-M   'P 1'
_cell_length_a   15.93880000
_cell_length_b   28.52000000
_cell_length_c   16.18370000
_cell_angle_alpha   90.00000000
_cell_angle_beta   105.71400000
_cell_angle_gamma   90.00000000
_symmetry_Int_Tables_number   1
_chemical_formula_structural   CdH22C29(NO)4
_chemical_formula_sum   'Cd8 H176 C232 N32 O32'
_cell_volume   7081.74635254
_cell_formula_units_Z   8
loop_
 _symmetry_equiv_pos_site_id
 _symmetry_equiv_pos_as_xyz
  1  'x, y, z'
loop_
 _atom_site_type_symbol
 _atom_site_label
 _atom_site_symmetry_multiplicity
 _atom_site_fract_x
 _atom_site_fract_y
 _atom_site_fract_z
 _atom_site_occupancy
 _atom_site_charge
Cd  Cd1  1  0.38001000  0.46619000  0.36392000  1.0 0.8485797848
Cd  Cd2  1  0.38001000  0.03381000  0.86392000  1.0 0.8485797848
Cd  Cd3  1  0.33799000  0.53398000  0.14984000  1.0 0.8485797848
Cd  Cd4  1  0.33799000  0.96602000  0.64984000  1.0 0.8485797848
Cd  Cd5  1  0.61999000  0.96619000  0.13608000  1.0 0.8485797848
Cd  Cd6  1  0.61999000  0.53381000  0.63608000  1.0 0.8485797848
Cd  Cd7  1  0.66201000  0.03398000  0.35016000  1.0 0.8485797848
Cd  Cd8  1  0.66201000  0.46602000  0.85016000  1.0 0.8485797848
H  H1  1  0.31040000  0.38700000  0.99380000  1.0 0.1292597489
H  H2  1  0.31040000  0.11300000  0.49380000  1.0 0.1292597489
H  H3  1  0.33280000  0.37020000  0.24670000  1.0 0.1292597489
H  H4  1  0.33280000  0.12980000  0.74670000  1.0 0.1292597489
H  H5  1  0.34500000  0.28960000  0.23570000  1.0 0.1292597489
H  H6  1  0.34500000  0.21040000  0.73570000  1.0 0.1292597489
H  H7  1  0.36500000  0.20130000  0.19100000  1.0 0.1200574006
H  H8  1  0.36500000  0.29870000  0.69100000  1.0 0.1200574006
H  H9  1  0.38230000  0.13130000  0.12340000  1.0 0.1200574006
H  H10  1  0.38230000  0.36870000  0.62340000  1.0 0.1200574006
H  H11  1  0.34210000  0.19850000  0.89350000  1.0 0.1200574006
H  H12  1  0.34210000  0.30150000  0.39350000  1.0 0.1200574006
H  H13  1  0.45230000  0.30280000  0.96100000  1.0 0.1388204277
H  H14  1  0.45230000  0.19720000  0.46100000  1.0 0.1388204277
H  H15  1  0.39700000  0.28430000  0.86910000  1.0 0.1292597489
H  H16  1  0.39700000  0.21570000  0.36910000  1.0 0.1292597489
H  H17  1  0.38650000  0.33740000  0.89670000  1.0 0.1292597489
H  H18  1  0.38650000  0.16260000  0.39670000  1.0 0.1292597489
H  H19  1  0.18980000  0.28490000  0.91120000  1.0 0.1292597489
H  H20  1  0.18980000  0.21510000  0.41120000  1.0 0.1292597489
H  H21  1  0.22870000  0.32650000  0.86650000  1.0 0.1292597489
H  H22  1  0.22870000  0.17350000  0.36650000  1.0 0.1292597489
H  H23  1  0.23810000  0.27330000  0.83880000  1.0 0.1292597489
H  H24  1  0.23810000  0.22670000  0.33880000  1.0 0.1292597489
H  H25  1  0.38810000  0.61310000  0.51360000  1.0 0.1200574006
H  H26  1  0.38810000  0.88690000  0.01360000  1.0 0.1200574006
H  H27  1  0.41140000  0.63190000  0.27050000  1.0 0.1200574006
H  H28  1  0.41140000  0.86810000  0.77050000  1.0 0.1200574006
H  H29  1  0.40960000  0.71330000  0.28690000  1.0 0.1200574006
H  H30  1  0.40960000  0.78670000  0.78690000  1.0 0.1200574006
H  H31  1  0.39000000  0.80150000  0.33410000  1.0 0.1200574006
H  H32  1  0.39000000  0.69850000  0.83410000  1.0 0.1200574006
H  H33  1  0.36640000  0.87140000  0.39940000  1.0 0.110228604
H  H34  1  0.36640000  0.62860000  0.89940000  1.0 0.110228604
H  H35  1  0.34810000  0.80010000  0.61070000  1.0 0.1292597489
H  H36  1  0.34810000  0.69990000  0.11070000  1.0 0.1292597489
H  H37  1  0.50400000  0.71270000  0.61490000  1.0 0.1388204277
H  H38  1  0.50400000  0.78730000  0.11490000  1.0 0.1388204277
H  H39  1  0.44190000  0.72440000  0.67510000  1.0 0.1292597489
H  H40  1  0.44190000  0.77560000  0.17510000  1.0 0.1292597489
H  H41  1  0.45390000  0.67130000  0.64850000  1.0 0.1292597489
H  H42  1  0.45390000  0.82870000  0.14850000  1.0 0.1292597489
H  H43  1  0.23910000  0.69890000  0.52230000  1.0 0.1292597489
H  H44  1  0.23910000  0.80110000  0.02230000  1.0 0.1292597489
H  H45  1  0.29420000  0.66300000  0.59220000  1.0 0.1200574006
H  H46  1  0.29420000  0.83700000  0.09220000  1.0 0.1200574006
H  H47  1  0.28170000  0.71610000  0.61870000  1.0 0.1200574006
H  H48  1  0.28170000  0.78390000  0.11870000  1.0 0.1200574006
H  H49  1  0.13780000  0.49620000  0.07240000  1.0 0.1200574006
H  H50  1  0.13780000  0.00380000  0.57240000  1.0 0.1200574006
H  H51  1  0.00050000  0.50670000  0.08220000  1.0 0.1292597489
H  H52  1  0.00050000  0.99330000  0.58220000  1.0 0.1292597489
H  H53  1  0.08580000  0.60490000  0.25800000  1.0 0.1388204277
H  H54  1  0.08580000  0.89510000  0.75800000  1.0 0.1388204277
H  H55  1  0.22590000  0.59520000  0.23940000  1.0 0.1200574006
H  H56  1  0.22590000  0.90480000  0.73940000  1.0 0.1200574006
H  H57  1  0.93060000  0.58980000  0.21690000  1.0 0.110228604
H  H58  1  0.93060000  0.91020000  0.71690000  1.0 0.110228604
H  H59  1  0.75430000  0.49900000  0.09170000  1.0 0.1200574006
H  H60  1  0.75430000  0.00100000  0.59170000  1.0 0.1200574006
H  H61  1  0.66570000  0.58680000  0.20850000  1.0 0.1388204277
H  H62  1  0.66570000  0.91320000  0.70850000  1.0 0.1388204277
H  H63  1  0.52430000  0.58630000  0.22310000  1.0 0.110228604
H  H64  1  0.52430000  0.91370000  0.72310000  1.0 0.110228604
H  H65  1  0.47210000  0.47030000  0.08750000  1.0 0.110228604
H  H66  1  0.47210000  0.02970000  0.58750000  1.0 0.110228604
H  H67  1  0.60970000  0.46850000  0.06950000  1.0 0.1388204277
H  H68  1  0.60970000  0.03150000  0.56950000  1.0 0.1388204277
H  H69  1  0.56380000  0.51550000  0.40780000  1.0 0.1200574006
H  H70  1  0.56380000  0.98450000  0.90780000  1.0 0.1200574006
H  H71  1  0.70550000  0.50990000  0.39310000  1.0 0.1388204277
H  H72  1  0.70550000  0.99010000  0.89310000  1.0 0.1388204277
H  H73  1  0.63340000  0.39150000  0.25820000  1.0 0.1388204277
H  H74  1  0.63340000  0.10850000  0.75820000  1.0 0.1388204277
H  H75  1  0.49480000  0.39990000  0.27630000  1.0 0.110228604
H  H76  1  0.49480000  0.10010000  0.77630000  1.0 0.110228604
H  H77  1  0.78270000  0.41940000  0.27870000  1.0 0.110228604
H  H78  1  0.78270000  0.08060000  0.77870000  1.0 0.110228604
H  H79  1  0.96290000  0.51440000  0.41130000  1.0 0.1023354214
H  H80  1  0.96290000  0.98560000  0.91130000  1.0 0.1023354214
H  H81  1  0.11220000  0.53510000  0.45360000  1.0 0.1388204277
H  H82  1  0.11220000  0.96490000  0.95360000  1.0 0.1388204277
H  H83  1  0.25650000  0.52480000  0.44620000  1.0 0.110228604
H  H84  1  0.25650000  0.97520000  0.94620000  1.0 0.110228604
H  H85  1  0.18470000  0.43480000  0.26070000  1.0 0.110228604
H  H86  1  0.18470000  0.06520000  0.76070000  1.0 0.110228604
H  H87  1  0.03980000  0.43650000  0.26890000  1.0 0.1388204277
H  H88  1  0.03980000  0.06350000  0.76890000  1.0 0.1388204277
H  H89  1  0.68960000  0.88700000  0.50620000  1.0 0.1292597489
H  H90  1  0.68960000  0.61300000  0.00620000  1.0 0.1292597489
H  H91  1  0.66720000  0.87020000  0.25330000  1.0 0.1292597489
H  H92  1  0.66720000  0.62980000  0.75330000  1.0 0.1292597489
H  H93  1  0.65500000  0.78960000  0.26430000  1.0 0.1292597489
H  H94  1  0.65500000  0.71040000  0.76430000  1.0 0.1292597489
H  H95  1  0.63500000  0.70130000  0.30900000  1.0 0.1200574006
H  H96  1  0.63500000  0.79870000  0.80900000  1.0 0.1200574006
H  H97  1  0.61770000  0.63130000  0.37660000  1.0 0.1200574006
H  H98  1  0.61770000  0.86870000  0.87660000  1.0 0.1200574006
H  H99  1  0.65790000  0.69850000  0.60650000  1.0 0.1200574006
H  H100  1  0.65790000  0.80150000  0.10650000  1.0 0.1200574006
H  H101  1  0.54770000  0.80280000  0.53900000  1.0 0.1388204277
H  H102  1  0.54770000  0.69720000  0.03900000  1.0 0.1388204277
H  H103  1  0.60300000  0.78430000  0.63090000  1.0 0.1292597489
H  H104  1  0.60300000  0.71570000  0.13090000  1.0 0.1292597489
H  H105  1  0.61350000  0.83740000  0.60330000  1.0 0.1292597489
H  H106  1  0.61350000  0.66260000  0.10330000  1.0 0.1292597489
H  H107  1  0.81020000  0.78490000  0.58880000  1.0 0.1292597489
H  H108  1  0.81020000  0.71510000  0.08880000  1.0 0.1292597489
H  H109  1  0.77130000  0.82650000  0.63350000  1.0 0.1292597489
H  H110  1  0.77130000  0.67350000  0.13350000  1.0 0.1292597489
H  H111  1  0.76190000  0.77330000  0.66120000  1.0 0.1292597489
H  H112  1  0.76190000  0.72670000  0.16120000  1.0 0.1292597489
H  H113  1  0.61190000  0.11310000  0.98640000  1.0 0.1200574006
H  H114  1  0.61190000  0.38690000  0.48640000  1.0 0.1200574006
H  H115  1  0.58860000  0.13190000  0.22950000  1.0 0.1200574006
H  H116  1  0.58860000  0.36810000  0.72950000  1.0 0.1200574006
H  H117  1  0.59040000  0.21330000  0.21310000  1.0 0.1200574006
H  H118  1  0.59040000  0.28670000  0.71310000  1.0 0.1200574006
H  H119  1  0.61000000  0.30150000  0.16590000  1.0 0.1200574006
H  H120  1  0.61000000  0.19850000  0.66590000  1.0 0.1200574006
H  H121  1  0.63360000  0.37140000  0.10060000  1.0 0.110228604
H  H122  1  0.63360000  0.12860000  0.60060000  1.0 0.110228604
H  H123  1  0.65190000  0.30010000  0.88930000  1.0 0.1292597489
H  H124  1  0.65190000  0.19990000  0.38930000  1.0 0.1292597489
H  H125  1  0.49600000  0.21270000  0.88510000  1.0 0.1388204277
H  H126  1  0.49600000  0.28730000  0.38510000  1.0 0.1388204277
H  H127  1  0.55810000  0.22440000  0.82490000  1.0 0.1292597489
H  H128  1  0.55810000  0.27560000  0.32490000  1.0 0.1292597489
H  H129  1  0.54610000  0.17130000  0.85150000  1.0 0.1292597489
H  H130  1  0.54610000  0.32870000  0.35150000  1.0 0.1292597489
H  H131  1  0.76090000  0.19890000  0.97770000  1.0 0.1292597489
H  H132  1  0.76090000  0.30110000  0.47770000  1.0 0.1292597489
H  H133  1  0.70580000  0.16300000  0.90780000  1.0 0.1200574006
H  H134  1  0.70580000  0.33700000  0.40780000  1.0 0.1200574006
H  H135  1  0.71830000  0.21610000  0.88130000  1.0 0.1292597489
H  H136  1  0.71830000  0.28390000  0.38130000  1.0 0.1292597489
H  H137  1  0.86220000  0.99620000  0.42760000  1.0 0.1200574006
H  H138  1  0.86220000  0.50380000  0.92760000  1.0 0.1200574006
H  H139  1  0.99950000  0.00670000  0.41780000  1.0 0.1292597489
H  H140  1  0.99950000  0.49330000  0.91780000  1.0 0.1292597489
H  H141  1  0.91420000  0.10490000  0.24200000  1.0 0.1388204277
H  H142  1  0.91420000  0.39510000  0.74200000  1.0 0.1388204277
H  H143  1  0.77410000  0.09520000  0.26060000  1.0 0.1200574006
H  H144  1  0.77410000  0.40480000  0.76060000  1.0 0.1200574006
H  H145  1  0.06940000  0.08980000  0.28310000  1.0 0.110228604
H  H146  1  0.06940000  0.41020000  0.78310000  1.0 0.110228604
H  H147  1  0.24570000  0.99900000  0.40830000  1.0 0.1200574006
H  H148  1  0.24570000  0.50100000  0.90830000  1.0 0.1200574006
H  H149  1  0.33430000  0.08680000  0.29150000  1.0 0.1388204277
H  H150  1  0.33430000  0.41320000  0.79150000  1.0 0.1388204277
H  H151  1  0.47570000  0.08630000  0.27690000  1.0 0.110228604
H  H152  1  0.47570000  0.41370000  0.77690000  1.0 0.110228604
H  H153  1  0.52790000  0.97030000  0.41250000  1.0 0.110228604
H  H154  1  0.52790000  0.52970000  0.91250000  1.0 0.110228604
H  H155  1  0.39030000  0.96850000  0.43050000  1.0 0.1388204277
H  H156  1  0.39030000  0.53150000  0.93050000  1.0 0.1388204277
H  H157  1  0.43620000  0.01550000  0.09220000  1.0 0.1200574006
H  H158  1  0.43620000  0.48450000  0.59220000  1.0 0.1200574006
H  H159  1  0.29450000  0.00990000  0.10690000  1.0 0.1388204277
H  H160  1  0.29450000  0.49010000  0.60690000  1.0 0.1388204277
H  H161  1  0.36660000  0.89150000  0.24180000  1.0 0.1388204277
H  H162  1  0.36660000  0.60850000  0.74180000  1.0 0.1388204277
H  H163  1  0.50520000  0.89990000  0.22370000  1.0 0.110228604
H  H164  1  0.50520000  0.60010000  0.72370000  1.0 0.110228604
H  H165  1  0.21730000  0.91940000  0.22130000  1.0 0.110228604
H  H166  1  0.21730000  0.58060000  0.72130000  1.0 0.110228604
H  H167  1  0.03710000  0.01440000  0.08870000  1.0 0.1023354214
H  H168  1  0.03710000  0.48560000  0.58870000  1.0 0.1023354214
H  H169  1  0.88780000  0.03510000  0.04640000  1.0 0.1388204277
H  H170  1  0.88780000  0.46490000  0.54640000  1.0 0.1388204277
H  H171  1  0.74350000  0.02480000  0.05380000  1.0 0.110228604
H  H172  1  0.74350000  0.47520000  0.55380000  1.0 0.110228604
H  H173  1  0.81530000  0.93480000  0.23930000  1.0 0.110228604
H  H174  1  0.81530000  0.56520000  0.73930000  1.0 0.110228604
H  H175  1  0.96020000  0.93650000  0.23110000  1.0 0.1388204277
H  H176  1  0.96020000  0.56350000  0.73110000  1.0 0.1388204277
C  C1  1  0.31770000  0.36710000  0.04230000  1.0 -0.1503415686
C  C2  1  0.31770000  0.13290000  0.54230000  1.0 -0.1503415686
C  C3  1  0.32220000  0.38610000  0.12390000  1.0 -0.0287477393
C  C4  1  0.32220000  0.11390000  0.62390000  1.0 -0.0287477393
C  C5  1  0.33150000  0.35690000  0.19250000  1.0 -0.1299013887
C  C6  1  0.33150000  0.14310000  0.69250000  1.0 -0.1299013887
C  C7  1  0.33910000  0.30910000  0.18690000  1.0 -0.1299013887
C  C8  1  0.33910000  0.19090000  0.68690000  1.0 -0.1299013887
C  C9  1  0.36130000  0.20080000  0.13140000  1.0 -0.1503415686
C  C10  1  0.36130000  0.29920000  0.63140000  1.0 -0.1503415686
C  C11  1  0.37020000  0.15930000  0.09050000  1.0 -0.1299013887
C  C12  1  0.37020000  0.34070000  0.59050000  1.0 -0.1299013887
C  C13  1  0.36210000  0.15700000  0.00180000  1.0 -0.0206952786
C  C14  1  0.36210000  0.34300000  0.50180000  1.0 -0.0206952786
C  C15  1  0.34680000  0.19910000  0.95330000  1.0 -0.1689296347
C  C16  1  0.34680000  0.30090000  0.45330000  1.0 -0.1689296347
C  C17  1  0.33850000  0.24110000  0.99400000  1.0 0.029687005
C  C18  1  0.33850000  0.25890000  0.49400000  1.0 0.029687005
C  C19  1  0.34660000  0.24180000  0.08290000  1.0 0.0108415489
C  C20  1  0.34660000  0.25820000  0.58290000  1.0 0.0108415489
C  C21  1  0.33790000  0.29050000  0.10810000  1.0 0.0108415489
C  C22  1  0.33790000  0.20950000  0.60810000  1.0 0.0108415489
C  C23  1  0.32400000  0.31910000  0.03420000  1.0 0.029687005
C  C24  1  0.32400000  0.18090000  0.53420000  1.0 0.029687005
C  C25  1  0.32370000  0.29010000  0.95550000  1.0 0.1745338644
C  C26  1  0.32370000  0.20990000  0.45550000  1.0 0.1745338644
C  C27  1  0.39630000  0.30490000  0.91720000  1.0 -0.4572550971
C  C28  1  0.39630000  0.19510000  0.41720000  1.0 -0.4572550971
C  C29  1  0.23750000  0.29410000  0.88690000  1.0 -0.4383355472
C  C30  1  0.23750000  0.20590000  0.38690000  1.0 -0.4383355472
C  C31  1  0.31930000  0.43870000  0.13440000  1.0 0.5423302706
C  C32  1  0.31930000  0.06130000  0.63440000  1.0 0.5423302706
C  C33  1  0.37220000  0.11180000  0.95920000  1.0 0.5323532279
C  C34  1  0.37220000  0.38820000  0.45920000  1.0 0.5323532279
C  C35  1  0.39030000  0.63320000  0.46740000  1.0 -0.1589281094
C  C36  1  0.39030000  0.86680000  0.96740000  1.0 -0.1589281094
C  C37  1  0.39880000  0.61480000  0.38900000  1.0 -0.0206952786
C  C38  1  0.39880000  0.88520000  0.88900000  1.0 -0.0206952786
C  C39  1  0.40550000  0.64490000  0.32270000  1.0 -0.1384115151
C  C40  1  0.40550000  0.85510000  0.82270000  1.0 -0.1384115151
C  C41  1  0.40380000  0.69300000  0.33160000  1.0 -0.1384115151
C  C42  1  0.40380000  0.80700000  0.83160000  1.0 -0.1384115151
C  C43  1  0.38130000  0.80130000  0.38990000  1.0 -0.1503415686
C  C44  1  0.38130000  0.69870000  0.88990000  1.0 -0.1503415686
C  C45  1  0.36770000  0.84250000  0.42880000  1.0 -0.1384115151
C  C46  1  0.36770000  0.65750000  0.92880000  1.0 -0.1384115151
C  C47  1  0.35600000  0.84200000  0.51060000  1.0 -0.0088383724
C  C48  1  0.35600000  0.65800000  0.01060000  1.0 -0.0088383724
C  C49  1  0.35650000  0.80030000  0.55480000  1.0 -0.1589281094
C  C50  1  0.35650000  0.69970000  0.05480000  1.0 -0.1589281094
C  C51  1  0.36950000  0.75860000  0.51520000  1.0 0.0160493743
C  C52  1  0.36950000  0.74140000  0.01520000  1.0 0.0160493743
C  C53  1  0.38200000  0.75950000  0.43410000  1.0 0.0108415489
C  C54  1  0.38200000  0.74050000  0.93410000  1.0 0.0108415489
C  C55  1  0.39320000  0.71080000  0.40910000  1.0 0.0108415489
C  C56  1  0.39320000  0.78920000  0.90910000  1.0 0.0108415489
C  C57  1  0.38550000  0.68130000  0.47450000  1.0 0.0160493743
C  C58  1  0.38550000  0.81870000  0.97450000  1.0 0.0160493743
C  C59  1  0.37170000  0.70960000  0.54870000  1.0 0.1791948135
C  C60  1  0.37170000  0.79040000  0.04870000  1.0 0.1791948135
C  C61  1  0.45010000  0.70400000  0.62920000  1.0 -0.4520135765
C  C62  1  0.45010000  0.79600000  0.12920000  1.0 -0.4520135765
C  C63  1  0.28940000  0.69570000  0.57260000  1.0 -0.4383355472
C  C64  1  0.28940000  0.80430000  0.07260000  1.0 -0.4383355472
C  C65  1  0.39910000  0.56240000  0.37540000  1.0 0.5475897398
C  C66  1  0.39910000  0.93760000  0.87540000  1.0 0.5475897398
C  C67  1  0.34100000  0.88810000  0.55300000  1.0 0.5423302706
C  C68  1  0.34100000  0.61190000  0.05300000  1.0 0.5423302706
C  C69  1  0.12770000  0.51960000  0.11020000  1.0 0.0385208474
C  C70  1  0.12770000  0.98040000  0.61020000  1.0 0.0385208474
C  C71  1  0.04630000  0.52570000  0.11540000  1.0 -0.1689296347
C  C72  1  0.04630000  0.97430000  0.61540000  1.0 -0.1689296347
C  C73  1  0.02940000  0.55850000  0.16750000  1.0 0.110228604
C  C74  1  0.02940000  0.94150000  0.66750000  1.0 0.110228604
C  C75  1  0.09550000  0.58320000  0.21700000  1.0 -0.2004841076
C  C76  1  0.09550000  0.91680000  0.71700000  1.0 -0.2004841076
C  C77  1  0.17950000  0.57620000  0.20710000  1.0 0.1023354214
C  C78  1  0.17950000  0.92380000  0.70710000  1.0 0.1023354214
C  C79  1  0.93970000  0.56640000  0.17860000  1.0 0.0385208474
C  C80  1  0.93970000  0.93360000  0.67860000  1.0 0.0385208474
C  C81  1  0.74040000  0.52400000  0.12470000  1.0 0.057305945
C  C82  1  0.74040000  0.97600000  0.62470000  1.0 0.057305945
C  C83  1  0.65420000  0.52680000  0.13590000  1.0 0.110228604
C  C84  1  0.65420000  0.97320000  0.63590000  1.0 0.110228604
C  C85  1  0.62660000  0.56250000  0.18270000  1.0 -0.1794906104
C  C86  1  0.62660000  0.93750000  0.68270000  1.0 -0.1794906104
C  C87  1  0.54200000  0.56210000  0.19120000  1.0 0.0909640556
C  C88  1  0.54200000  0.93790000  0.69120000  1.0 0.0909640556
C  C89  1  0.51180000  0.49460000  0.11210000  1.0 0.0675582997
C  C90  1  0.51180000  0.00540000  0.61210000  1.0 0.0675582997
C  C91  1  0.59420000  0.49330000  0.10160000  1.0 -0.1794906104
C  C92  1  0.59420000  0.00670000  0.60160000  1.0 -0.1794906104
C  C93  1  0.57840000  0.48970000  0.37710000  1.0 0.1200574006
C  C94  1  0.57840000  0.01030000  0.87710000  1.0 0.1200574006
C  C95  1  0.66330000  0.48670000  0.36860000  1.0 -0.1689296347
C  C96  1  0.66330000  0.01330000  0.86860000  1.0 -0.1689296347
C  C97  1  0.68410000  0.44980000  0.32440000  1.0 0.110228604
C  C98  1  0.68410000  0.05020000  0.82440000  1.0 0.110228604
C  C99  1  0.62060000  0.41740000  0.28960000  1.0 -0.2004841076
C  C100  1  0.62060000  0.08260000  0.78960000  1.0 -0.2004841076
C  C101  1  0.53830000  0.42250000  0.30050000  1.0 0.0675582997
C  C102  1  0.53830000  0.07750000  0.80050000  1.0 0.0675582997
C  C103  1  0.77110000  0.44430000  0.31310000  1.0 0.029687005
C  C104  1  0.77110000  0.05570000  0.81310000  1.0 0.029687005
C  C105  1  0.97450000  0.49110000  0.37410000  1.0 -0.0040863874
C  C106  1  0.97450000  0.00890000  0.87410000  1.0 -0.0040863874
C  C107  1  0.06110000  0.48580000  0.36370000  1.0 0.1200574006
C  C108  1  0.06110000  0.01420000  0.86370000  1.0 0.1200574006
C  C109  1  0.12520000  0.51300000  0.41490000  1.0 -0.2004841076
C  C110  1  0.12520000  0.98700000  0.91490000  1.0 -0.2004841076
C  C111  1  0.21160000  0.50700000  0.40860000  1.0 0.0820205863
C  C112  1  0.21160000  0.99300000  0.90860000  1.0 0.0820205863
C  C113  1  0.17070000  0.45440000  0.30250000  1.0 0.0909640556
C  C114  1  0.17070000  0.04560000  0.80250000  1.0 0.0909640556
C  C115  1  0.08280000  0.45580000  0.30570000  1.0 -0.1794906104
C  C116  1  0.08280000  0.04420000  0.80570000  1.0 -0.1794906104
C  C117  1  0.68230000  0.86710000  0.45770000  1.0 -0.1503415686
C  C118  1  0.68230000  0.63290000  0.95770000  1.0 -0.1503415686
C  C119  1  0.67780000  0.88610000  0.37610000  1.0 -0.0287477393
C  C120  1  0.67780000  0.61390000  0.87610000  1.0 -0.0287477393
C  C121  1  0.66850000  0.85690000  0.30750000  1.0 -0.1299013887
C  C122  1  0.66850000  0.64310000  0.80750000  1.0 -0.1299013887
C  C123  1  0.66090000  0.80910000  0.31310000  1.0 -0.1299013887
C  C124  1  0.66090000  0.69090000  0.81310000  1.0 -0.1299013887
C  C125  1  0.63870000  0.70080000  0.36860000  1.0 -0.1503415686
C  C126  1  0.63870000  0.79920000  0.86860000  1.0 -0.1503415686
C  C127  1  0.62980000  0.65930000  0.40950000  1.0 -0.1299013887
C  C128  1  0.62980000  0.84070000  0.90950000  1.0 -0.1299013887
C  C129  1  0.63790000  0.65700000  0.49820000  1.0 -0.0206952786
C  C130  1  0.63790000  0.84300000  0.99820000  1.0 -0.0206952786
C  C131  1  0.65320000  0.69910000  0.54670000  1.0 -0.1689296347
C  C132  1  0.65320000  0.80090000  0.04670000  1.0 -0.1689296347
C  C133  1  0.66150000  0.74110000  0.50600000  1.0 0.029687005
C  C134  1  0.66150000  0.75890000  0.00600000  1.0 0.029687005
C  C135  1  0.65340000  0.74180000  0.41710000  1.0 0.0108415489
C  C136  1  0.65340000  0.75820000  0.91710000  1.0 0.0108415489
C  C137  1  0.66210000  0.79050000  0.39190000  1.0 0.0108415489
C  C138  1  0.66210000  0.70950000  0.89190000  1.0 0.0108415489
C  C139  1  0.67600000  0.81910000  0.46580000  1.0 0.029687005
C  C140  1  0.67600000  0.68090000  0.96580000  1.0 0.029687005
C  C141  1  0.67630000  0.79010000  0.54450000  1.0 0.1745338644
C  C142  1  0.67630000  0.70990000  0.04450000  1.0 0.1745338644
C  C143  1  0.60370000  0.80490000  0.58280000  1.0 -0.4572550971
C  C144  1  0.60370000  0.69510000  0.08280000  1.0 -0.4572550971
C  C145  1  0.76250000  0.79410000  0.61310000  1.0 -0.4383355472
C  C146  1  0.76250000  0.70590000  0.11310000  1.0 -0.4383355472
C  C147  1  0.68070000  0.93870000  0.36560000  1.0 0.5423302706
C  C148  1  0.68070000  0.56130000  0.86560000  1.0 0.5423302706
C  C149  1  0.62780000  0.61180000  0.54080000  1.0 0.5323532279
C  C150  1  0.62780000  0.88820000  0.04080000  1.0 0.5323532279
C  C151  1  0.60970000  0.13320000  0.03260000  1.0 -0.1589281094
C  C152  1  0.60970000  0.36680000  0.53260000  1.0 -0.1589281094
C  C153  1  0.60120000  0.11480000  0.11100000  1.0 -0.0206952786
C  C154  1  0.60120000  0.38520000  0.61100000  1.0 -0.0206952786
C  C155  1  0.59450000  0.14490000  0.17730000  1.0 -0.1384115151
C  C156  1  0.59450000  0.35510000  0.67730000  1.0 -0.1384115151
C  C157  1  0.59620000  0.19300000  0.16840000  1.0 -0.1384115151
C  C158  1  0.59620000  0.30700000  0.66840000  1.0 -0.1384115151
C  C159  1  0.61870000  0.30130000  0.11010000  1.0 -0.1503415686
C  C160  1  0.61870000  0.19870000  0.61010000  1.0 -0.1503415686
C  C161  1  0.63230000  0.34250000  0.07120000  1.0 -0.1384115151
C  C162  1  0.63230000  0.15750000  0.57120000  1.0 -0.1384115151
C  C163  1  0.64400000  0.34200000  0.98940000  1.0 -0.0088383724
C  C164  1  0.64400000  0.15800000  0.48940000  1.0 -0.0088383724
C  C165  1  0.64350000  0.30030000  0.94520000  1.0 -0.1589281094
C  C166  1  0.64350000  0.19970000  0.44520000  1.0 -0.1589281094
C  C167  1  0.63050000  0.25860000  0.98480000  1.0 0.0160493743
C  C168  1  0.63050000  0.24140000  0.48480000  1.0 0.0160493743
C  C169  1  0.61800000  0.25950000  0.06590000  1.0 0.0108415489
C  C170  1  0.61800000  0.24050000  0.56590000  1.0 0.0108415489
C  C171  1  0.60680000  0.21080000  0.09090000  1.0 0.0108415489
C  C172  1  0.60680000  0.28920000  0.59090000  1.0 0.0108415489
C  C173  1  0.61450000  0.18130000  0.02550000  1.0 0.0160493743
C  C174  1  0.61450000  0.31870000  0.52550000  1.0 0.0160493743
C  C175  1  0.62830000  0.20960000  0.95130000  1.0 0.1791948135
C  C176  1  0.62830000  0.29040000  0.45130000  1.0 0.1791948135
C  C177  1  0.54990000  0.20400000  0.87080000  1.0 -0.4520135765
C  C178  1  0.54990000  0.29600000  0.37080000  1.0 -0.4520135765
C  C179  1  0.71060000  0.19570000  0.92740000  1.0 -0.4383355472
C  C180  1  0.71060000  0.30430000  0.42740000  1.0 -0.4383355472
C  C181  1  0.60090000  0.06240000  0.12460000  1.0 0.5475897398
C  C182  1  0.60090000  0.43760000  0.62460000  1.0 0.5475897398
C  C183  1  0.65900000  0.38810000  0.94700000  1.0 0.5423302706
C  C184  1  0.65900000  0.11190000  0.44700000  1.0 0.5423302706
C  C185  1  0.87230000  0.01960000  0.38980000  1.0 0.0385208474
C  C186  1  0.87230000  0.48040000  0.88980000  1.0 0.0385208474
C  C187  1  0.95370000  0.02570000  0.38460000  1.0 -0.1689296347
C  C188  1  0.95370000  0.47430000  0.88460000  1.0 -0.1689296347
C  C189  1  0.97060000  0.05850000  0.33250000  1.0 0.110228604
C  C190  1  0.97060000  0.44150000  0.83250000  1.0 0.110228604
C  C191  1  0.90450000  0.08320000  0.28300000  1.0 -0.2004841076
C  C192  1  0.90450000  0.41680000  0.78300000  1.0 -0.2004841076
C  C193  1  0.82050000  0.07620000  0.29290000  1.0 0.1023354214
C  C194  1  0.82050000  0.42380000  0.79290000  1.0 0.1023354214
C  C195  1  0.06030000  0.06640000  0.32140000  1.0 0.0385208474
C  C196  1  0.06030000  0.43360000  0.82140000  1.0 0.0385208474
C  C197  1  0.25960000  0.02400000  0.37530000  1.0 0.057305945
C  C198  1  0.25960000  0.47600000  0.87530000  1.0 0.057305945
C  C199  1  0.34580000  0.02680000  0.36410000  1.0 0.110228604
C  C200  1  0.34580000  0.47320000  0.86410000  1.0 0.110228604
C  C201  1  0.37340000  0.06250000  0.31730000  1.0 -0.1794906104
C  C202  1  0.37340000  0.43750000  0.81730000  1.0 -0.1794906104
C  C203  1  0.45800000  0.06210000  0.30880000  1.0 0.0909640556
C  C204  1  0.45800000  0.43790000  0.80880000  1.0 0.0909640556
C  C205  1  0.48820000  0.99460000  0.38790000  1.0 0.0675582997
C  C206  1  0.48820000  0.50540000  0.88790000  1.0 0.0675582997
C  C207  1  0.40580000  0.99330000  0.39840000  1.0 -0.1794906104
C  C208  1  0.40580000  0.50670000  0.89840000  1.0 -0.1794906104
C  C209  1  0.42160000  0.98970000  0.12290000  1.0 0.1200574006
C  C210  1  0.42160000  0.51030000  0.62290000  1.0 0.1200574006
C  C211  1  0.33670000  0.98670000  0.13140000  1.0 -0.1689296347
C  C212  1  0.33670000  0.51330000  0.63140000  1.0 -0.1689296347
C  C213  1  0.31590000  0.94980000  0.17560000  1.0 0.110228604
C  C214  1  0.31590000  0.55020000  0.67560000  1.0 0.110228604
C  C215  1  0.37940000  0.91740000  0.21040000  1.0 -0.2004841076
C  C216  1  0.37940000  0.58260000  0.71040000  1.0 -0.2004841076
C  C217  1  0.46170000  0.92250000  0.19950000  1.0 0.0675582997
C  C218  1  0.46170000  0.57750000  0.69950000  1.0 0.0675582997
C  C219  1  0.22890000  0.94430000  0.18690000  1.0 0.029687005
C  C220  1  0.22890000  0.55570000  0.68690000  1.0 0.029687005
C  C221  1  0.02550000  0.99110000  0.12590000  1.0 -0.0040863874
C  C222  1  0.02550000  0.50890000  0.62590000  1.0 -0.0040863874
C  C223  1  0.93890000  0.98580000  0.13630000  1.0 0.1200574006
C  C224  1  0.93890000  0.51420000  0.63630000  1.0 0.1200574006
C  C225  1  0.87480000  0.01300000  0.08510000  1.0 -0.2004841076
C  C226  1  0.87480000  0.48700000  0.58510000  1.0 -0.2004841076
C  C227  1  0.78840000  0.00700000  0.09140000  1.0 0.0820205863
C  C228  1  0.78840000  0.49300000  0.59140000  1.0 0.0820205863
C  C229  1  0.82930000  0.95440000  0.19750000  1.0 0.0909640556
C  C230  1  0.82930000  0.54560000  0.69750000  1.0 0.0909640556
C  C231  1  0.91720000  0.95580000  0.19430000  1.0 -0.1794906104
C  C232  1  0.91720000  0.54420000  0.69430000  1.0 -0.1794906104
N  N1  1  0.19630000  0.54460000  0.15520000  1.0 -0.2116373126
N  N2  1  0.19630000  0.95540000  0.65520000  1.0 -0.2116373126
N  N3  1  0.87720000  0.54200000  0.13730000  1.0 -0.1689296347
N  N4  1  0.87720000  0.95800000  0.63730000  1.0 -0.1689296347
N  N5  1  0.79700000  0.55340000  0.15710000  1.0 -0.1911327983
N  N6  1  0.79700000  0.94660000  0.65710000  1.0 -0.1911327983
N  N7  1  0.48520000  0.52880000  0.15610000  1.0 -0.2269216869
N  N8  1  0.48520000  0.97120000  0.65610000  1.0 -0.2269216869
N  N9  1  0.51820000  0.45860000  0.34450000  1.0 -0.2213990186
N  N10  1  0.51820000  0.04140000  0.84450000  1.0 -0.2213990186
N  N11  1  0.83200000  0.47280000  0.34930000  1.0 -0.1911327983
N  N12  1  0.83200000  0.02720000  0.84930000  1.0 -0.1794906104
N  N13  1  0.91130000  0.46310000  0.33140000  1.0 -0.1794906104
N  N14  1  0.91130000  0.03690000  0.83140000  1.0 -0.1794906104
N  N15  1  0.23380000  0.47840000  0.35380000  1.0 -0.2269216869
N  N16  1  0.23380000  0.02160000  0.85380000  1.0 -0.2269216869
N  N17  1  0.80370000  0.04460000  0.34480000  1.0 -0.2116373126
N  N18  1  0.80370000  0.45540000  0.84480000  1.0 -0.2116373126
N  N19  1  0.12280000  0.04200000  0.36270000  1.0 -0.1689296347
N  N20  1  0.12280000  0.45800000  0.86270000  1.0 -0.1689296347
N  N21  1  0.20300000  0.05340000  0.34290000  1.0 -0.1911327983
N  N22  1  0.20300000  0.44660000  0.84290000  1.0 -0.1911327983
N  N23  1  0.51480000  0.02880000  0.34390000  1.0 -0.2269216869
N  N24  1  0.51480000  0.47120000  0.84390000  1.0 -0.2269216869
N  N25  1  0.48180000  0.95860000  0.15550000  1.0 -0.2213990186
N  N26  1  0.48180000  0.54140000  0.65550000  1.0 -0.2213990186
N  N27  1  0.16800000  0.97280000  0.15070000  1.0 -0.1911327983
N  N28  1  0.16800000  0.52720000  0.65070000  1.0 -0.1794906104
N  N29  1  0.08870000  0.96310000  0.16860000  1.0 -0.1794906104
N  N30  1  0.08870000  0.53690000  0.66860000  1.0 -0.1794906104
N  N31  1  0.76620000  0.97840000  0.14620000  1.0 -0.2269216869
N  N32  1  0.76620000  0.52160000  0.64620000  1.0 -0.2269216869
O  O1  1  0.30980000  0.46420000  0.07060000  1.0 -0.5203112457
O  O2  1  0.30980000  0.03580000  0.57060000  1.0 -0.5203112457
O  O3  1  0.33070000  0.45490000  0.20880000  1.0 -0.5728453342
O  O4  1  0.33070000  0.04510000  0.70880000  1.0 -0.5728453342
O  O5  1  0.37420000  0.11300000  0.88360000  1.0 -0.5203112457
O  O6  1  0.37420000  0.38700000  0.38360000  1.0 -0.5203112457
O  O7  1  0.37480000  0.07490000  0.00140000  1.0 -0.5487822313
O  O8  1  0.37480000  0.42510000  0.50140000  1.0 -0.5487822313
O  O9  1  0.40720000  0.53640000  0.43870000  1.0 -0.5148949568
O  O10  1  0.40720000  0.96360000  0.93870000  1.0 -0.5148949568
O  O11  1  0.38740000  0.54690000  0.29980000  1.0 -0.5798772518
O  O12  1  0.38740000  0.95310000  0.79980000  1.0 -0.5798772518
O  O13  1  0.32710000  0.92520000  0.51070000  1.0 -0.5587544386
O  O14  1  0.32710000  0.57480000  0.01070000  1.0 -0.5587544386
O  O15  1  0.34540000  0.88610000  0.63190000  1.0 -0.5487822313
O  O16  1  0.34540000  0.61390000  0.13190000  1.0 -0.5487822313
O  O17  1  0.69020000  0.96420000  0.42940000  1.0 -0.5203112457
O  O18  1  0.69020000  0.53580000  0.92940000  1.0 -0.5203112457
O  O19  1  0.66930000  0.95490000  0.29120000  1.0 -0.5728453342
O  O20  1  0.66930000  0.54510000  0.79120000  1.0 -0.5728453342
O  O21  1  0.62580000  0.61300000  0.61640000  1.0 -0.5203112457
O  O22  1  0.62580000  0.88700000  0.11640000  1.0 -0.5203112457
O  O23  1  0.62520000  0.57490000  0.49860000  1.0 -0.5487822313
O  O24  1  0.62520000  0.92510000  0.99860000  1.0 -0.5487822313
O  O25  1  0.59280000  0.03640000  0.06130000  1.0 -0.5148949568
O  O26  1  0.59280000  0.46360000  0.56130000  1.0 -0.5148949568
O  O27  1  0.61260000  0.04690000  0.20020000  1.0 -0.5798772518
O  O28  1  0.61260000  0.45310000  0.70020000  1.0 -0.5798772518
O  O29  1  0.67290000  0.42520000  0.98930000  1.0 -0.5587544386
O  O30  1  0.67290000  0.07480000  0.48930000  1.0 -0.5587544386
O  O31  1  0.65460000  0.38610000  0.86810000  1.0 -0.5487822313
O  O32  1  0.65460000  0.11390000  0.36810000  1.0 -0.5487822313
