# DDEC6 charges by PACMAN v1.1 (https://github.com/mtap-research/PACMAN-charge/)
data_OPUDIN_FSR_pacman
_symmetry_space_group_name_H-M   'P 1'
_cell_length_a   5.55120000
_cell_length_b   9.78580000
_cell_length_c   12.93820000
_cell_angle_alpha   86.87700000
_cell_angle_beta   87.80900000
_cell_angle_gamma   76.45100000
_symmetry_Int_Tables_number   1
_chemical_formula_structural   Zn3P2H6C4O13
_chemical_formula_sum   'Zn6 P4 H12 C8 O26'
_cell_volume   682.03125385
_cell_formula_units_Z   2
loop_
 _symmetry_equiv_pos_site_id
 _symmetry_equiv_pos_as_xyz
  1  'x, y, z'
loop_
 _atom_site_type_symbol
 _atom_site_label
 _atom_site_symmetry_multiplicity
 _atom_site_fract_x
 _atom_site_fract_y
 _atom_site_fract_z
 _atom_site_occupancy
 _atom_site_charge
Zn  Zn1  1  0.08320000  0.62355000  0.81280000  1.0 1.0308303487
Zn  Zn2  1  0.91680000  0.37645000  0.18720000  1.0 1.0308303487
Zn  Zn3  1  0.53250000  0.02099000  0.49277000  1.0 0.7706609321
Zn  Zn4  1  0.46750000  0.97901000  0.50723000  1.0 0.7706609321
Zn  Zn5  1  0.80123000  0.07970000  0.91915000  1.0 1.0308303487
Zn  Zn6  1  0.19877000  0.92030000  0.08085000  1.0 1.0308303487
P  P1  1  0.00321000  0.83588000  0.60647000  1.0 1.2788956118
P  P2  1  0.99679000  0.16412000  0.39353000  1.0 1.2788956118
P  P3  1  0.76924000  0.77383000  0.01355000  1.0 1.2942655039
P  P4  1  0.23076000  0.22617000  0.98645000  1.0 1.2942655039
H  H1  1  0.18900000  0.00000000  0.75100000  1.0 0.3418115777
H  H2  1  0.81100000  0.00000000  0.24900000  1.0 0.3418115777
H  H3  1  0.55500000  0.61800000  0.16000000  1.0 0.3418115777
H  H4  1  0.44500000  0.38200000  0.84000000  1.0 0.3418115777
H  H5  1  0.39800000  0.74200000  0.86700000  1.0 0.3664895844
H  H6  1  0.60200000  0.25800000  0.13300000  1.0 0.3664895844
H  H7  1  0.51600000  0.62600000  0.81500000  1.0 0.3619406175
H  H8  1  0.48400000  0.37400000  0.18500000  1.0 0.3619406175
H  H9  1  0.95500000  0.08100000  0.64400000  1.0 0.1433233869
H  H10  1  0.04500000  0.91900000  0.35600000  1.0 0.1433233869
H  H11  1  0.74400000  0.77100000  0.19100000  1.0 0.1603331816
H  H12  1  0.25600000  0.22900000  0.80900000  1.0 0.1603331816
C  C1  1  0.91970000  0.99340000  0.68520000  1.0 -0.2868314433
C  C2  1  0.08030000  0.00660000  0.31480000  1.0 -0.2868314433
C  C3  1  0.64850000  0.02560000  0.71850000  1.0 0.6118383062
C  C4  1  0.35150000  0.97440000  0.28150000  1.0 0.6118383062
C  C5  1  0.81030000  0.69570000  0.14600000  1.0 -0.2740201849
C  C6  1  0.18970000  0.30430000  0.85400000  1.0 -0.2740201849
C  C7  1  0.07660000  0.64130000  0.17643000  1.0 0.635450418
C  C8  1  0.92340000  0.35870000  0.82357000  1.0 0.635450418
O  O1  1  0.98240000  0.70650000  0.67494000  1.0 -0.7473475981
O  O2  1  0.01760000  0.29350000  0.32506000  1.0 -0.7473475981
O  O3  1  0.81960000  0.85890000  0.51998000  1.0 -0.6565450478
O  O4  1  0.18040000  0.14110000  0.48002000  1.0 -0.6545676637
O  O5  1  0.26910000  0.82510000  0.56690000  1.0 -0.6990660775
O  O6  1  0.73090000  0.17490000  0.43310000  1.0 -0.6990660775
O  O7  1  0.06280000  0.97590000  0.77690000  1.0 -0.4357492078
O  O8  1  0.93720000  0.02410000  0.22310000  1.0 -0.4357492078
O  O9  1  0.48600000  0.05610000  0.65061000  1.0 -0.4797111798
O  O10  1  0.51400000  0.94390000  0.34939000  1.0 -0.4797111798
O  O11  1  0.59250000  0.02230000  0.81296000  1.0 -0.5086479533
O  O12  1  0.40750000  0.97770000  0.18704000  1.0 -0.5086479533
O  O13  1  0.49230000  0.81340000  0.99678000  1.0 -0.7386004377
O  O14  1  0.50770000  0.18660000  0.00322000  1.0 -0.7386004377
O  O15  1  0.88230000  0.90170000  0.01397000  1.0 -0.7608142543
O  O16  1  0.11770000  0.09830000  0.98603000  1.0 -0.7608142543
O  O17  1  0.90440000  0.66560000  0.94117000  1.0 -0.7669903683
O  O18  1  0.09560000  0.33440000  0.05883000  1.0 -0.7669903683
O  O19  1  0.69060000  0.58210000  0.15981000  1.0 -0.4016600448
O  O20  1  0.30940000  0.41790000  0.84019000  1.0 -0.4016600448
O  O21  1  0.22100000  0.72380000  0.16656000  1.0 -0.5560147214
O  O22  1  0.77900000  0.27620000  0.83344000  1.0 -0.5560147214
O  O23  1  0.14390000  0.51790000  0.21249000  1.0 -0.4688068527
O  O24  1  0.85610000  0.48210000  0.78751000  1.0 -0.4688068527
O  O25  1  0.39920000  0.69200000  0.82330000  1.0 -0.5886647153
O  O26  1  0.60080000  0.30800000  0.17670000  1.0 -0.5886647153
