# DDEC6 charges by PACMAN v1.1 (https://github.com/mtap-research/PACMAN-charge/)
data_OQESAF_ASR_pacman
_symmetry_space_group_name_H-M   'P 1'
_cell_length_a   13.04050000
_cell_length_b   13.04050000
_cell_length_c   31.19200000
_cell_angle_alpha   88.27810000
_cell_angle_beta   91.72190000
_cell_angle_gamma   31.85140000
_symmetry_Int_Tables_number   1
_chemical_formula_structural   Cd2H24PdC48(NO2)4
_chemical_formula_sum   'Cd4 H48 Pd2 C96 N8 O16'
_cell_volume   2782.36310337
_cell_formula_units_Z   2
loop_
 _symmetry_equiv_pos_site_id
 _symmetry_equiv_pos_as_xyz
  1  'x, y, z'
loop_
 _atom_site_type_symbol
 _atom_site_label
 _atom_site_symmetry_multiplicity
 _atom_site_fract_x
 _atom_site_fract_y
 _atom_site_fract_z
 _atom_site_occupancy
 _atom_site_charge
Cd  Cd1  1  0.59868000  0.59868000  0.75000000  1.0 0.9447841091
Cd  Cd2  1  0.40132000  0.40132000  0.25000000  1.0 0.9447841091
Cd  Cd3  1  0.04330000  0.04330000  0.75000000  1.0 0.9158961815
Cd  Cd4  1  0.95670000  0.95670000  0.25000000  1.0 0.9142614645
H  H1  1  0.95500000  0.75720000  0.86050000  1.0 0.1390693036
H  H2  1  0.75720000  0.95500000  0.63950000  1.0 0.1390693036
H  H3  1  0.04500000  0.24280000  0.13950000  1.0 0.1390693036
H  H4  1  0.24280000  0.04500000  0.36050000  1.0 0.1390693036
H  H5  1  0.64900000  0.92520000  0.85780000  1.0 0.1390693036
H  H6  1  0.92520000  0.64900000  0.64220000  1.0 0.1390693036
H  H7  1  0.35100000  0.07480000  0.14220000  1.0 0.1390693036
H  H8  1  0.07480000  0.35100000  0.35780000  1.0 0.1390693036
H  H9  1  0.30820000  0.96720000  0.96200000  1.0 0.1390693036
H  H10  1  0.96720000  0.30820000  0.53800000  1.0 0.1390693036
H  H11  1  0.69180000  0.03280000  0.03800000  1.0 0.1390693036
H  H12  1  0.03280000  0.69180000  0.46200000  1.0 0.1390693036
H  H13  1  0.40060000  0.79920000  0.03230000  1.0 0.1313123746
H  H14  1  0.79920000  0.40060000  0.46770000  1.0 0.1313123746
H  H15  1  0.59940000  0.20080000  0.96770000  1.0 0.1313123746
H  H16  1  0.20080000  0.59940000  0.53230000  1.0 0.1313123746
H  H17  1  0.54090000  0.79570000  0.85590000  1.0 0.1390693036
H  H18  1  0.79570000  0.54090000  0.64410000  1.0 0.1390693036
H  H19  1  0.45910000  0.20430000  0.14410000  1.0 0.1390693036
H  H20  1  0.20430000  0.45910000  0.35590000  1.0 0.1390693036
H  H21  1  0.27510000  0.99990000  0.80660000  1.0 0.1313123746
H  H22  1  0.99990000  0.27510000  0.69340000  1.0 0.1313123746
H  H23  1  0.72490000  0.00010000  0.19340000  1.0 0.1313123746
H  H24  1  0.00010000  0.72490000  0.30660000  1.0 0.1313123746
H  H25  1  0.96900000  0.45300000  0.87110000  1.0 0.1125697685
H  H26  1  0.45300000  0.96900000  0.62890000  1.0 0.1125697685
H  H27  1  0.03100000  0.54700000  0.12890000  1.0 0.1125697685
H  H28  1  0.54700000  0.03100000  0.37110000  1.0 0.1125697685
H  H29  1  0.23570000  0.23410000  0.92310000  1.0 0.11976279
H  H30  1  0.23410000  0.23570000  0.57690000  1.0 0.11976279
H  H31  1  0.76430000  0.76590000  0.07690000  1.0 0.11976279
H  H32  1  0.76590000  0.76430000  0.42310000  1.0 0.11976279
H  H33  1  0.49610000  0.22730000  0.88200000  1.0 0.11976279
H  H34  1  0.22730000  0.49610000  0.61800000  1.0 0.11976279
H  H35  1  0.50390000  0.77270000  0.11800000  1.0 0.11976279
H  H36  1  0.77270000  0.50390000  0.38200000  1.0 0.11976279
H  H37  1  0.61980000  0.23580000  0.83320000  1.0 0.11976279
H  H38  1  0.23580000  0.61980000  0.66680000  1.0 0.11976279
H  H39  1  0.38020000  0.76420000  0.16680000  1.0 0.11976279
H  H40  1  0.76420000  0.38020000  0.33320000  1.0 0.11976279
H  H41  1  0.25810000  0.76270000  0.86580000  1.0 0.11976279
H  H42  1  0.76270000  0.25810000  0.63420000  1.0 0.11976279
H  H43  1  0.74190000  0.23730000  0.13420000  1.0 0.11976279
H  H44  1  0.23730000  0.74190000  0.36580000  1.0 0.11976279
H  H45  1  0.13450000  0.75410000  0.91470000  1.0 0.11976279
H  H46  1  0.75410000  0.13450000  0.58530000  1.0 0.11976279
H  H47  1  0.86550000  0.24590000  0.08530000  1.0 0.11976279
H  H48  1  0.24590000  0.86550000  0.41470000  1.0 0.11976279
Pd  Pd1  1  0.00000000  0.50000000  0.00000000  1.0 0.3153322977
Pd  Pd2  1  0.50000000  0.00000000  0.50000000  1.0 0.3153322977
C  C1  1  0.02780000  0.61580000  0.92060000  1.0 0.160578121
C  C2  1  0.61580000  0.02780000  0.57940000  1.0 0.160578121
C  C3  1  0.97220000  0.38420000  0.07940000  1.0 0.160578121
C  C4  1  0.38420000  0.97220000  0.42060000  1.0 0.160578121
C  C5  1  0.91690000  0.74290000  0.88110000  1.0 -0.1794757465
C  C6  1  0.74290000  0.91690000  0.61890000  1.0 -0.1794757465
C  C7  1  0.08310000  0.25710000  0.11890000  1.0 -0.1794757465
C  C8  1  0.25710000  0.08310000  0.38110000  1.0 -0.1794757465
C  C9  1  0.74910000  0.83510000  0.88030000  1.0 -0.1794757465
C  C10  1  0.83510000  0.74910000  0.61970000  1.0 -0.1794757465
C  C11  1  0.25090000  0.16490000  0.11970000  1.0 -0.1794757465
C  C12  1  0.16490000  0.25090000  0.38030000  1.0 -0.1794757465
C  C13  1  0.74170000  0.77970000  0.91780000  1.0 0.1514485
C  C14  1  0.77970000  0.74170000  0.58220000  1.0 0.1514485
C  C15  1  0.25830000  0.22030000  0.08220000  1.0 0.1514485
C  C16  1  0.22030000  0.25830000  0.41780000  1.0 0.1514485
C  C17  1  0.58840000  0.85140000  0.92950000  1.0 -0.0616732048
C  C18  1  0.85140000  0.58840000  0.57050000  1.0 -0.0616732048
C  C19  1  0.41160000  0.14860000  0.07050000  1.0 -0.0616732048
C  C20  1  0.14860000  0.41160000  0.42950000  1.0 -0.0616732048
C  C21  1  0.58350000  0.79950000  0.96690000  1.0 0.160578121
C  C22  1  0.79950000  0.58350000  0.53310000  1.0 0.160578121
C  C23  1  0.41650000  0.20050000  0.03310000  1.0 0.160578121
C  C24  1  0.20050000  0.41650000  0.46690000  1.0 0.160578121
C  C25  1  0.42850000  0.87050000  0.97850000  1.0 -0.1863702344
C  C26  1  0.87050000  0.42850000  0.52150000  1.0 -0.1863702344
C  C27  1  0.57150000  0.12950000  0.02150000  1.0 -0.1863702344
C  C28  1  0.12950000  0.57150000  0.47850000  1.0 -0.1863702344
C  C29  1  0.47720000  0.77920000  0.01760000  1.0 -0.1590417084
C  C30  1  0.77920000  0.47720000  0.48240000  1.0 -0.1590417084
C  C31  1  0.52280000  0.22080000  0.98240000  1.0 -0.1590417084
C  C32  1  0.22080000  0.52280000  0.51760000  1.0 -0.1590417084
C  C33  1  0.67500000  0.64500000  0.03080000  1.0 0.1390693036
C  C34  1  0.64500000  0.67500000  0.46920000  1.0 0.1390693036
C  C35  1  0.32500000  0.35500000  0.96920000  1.0 0.1390693036
C  C36  1  0.35500000  0.32500000  0.53080000  1.0 0.1390693036
C  C37  1  0.21690000  0.48290000  0.93290000  1.0 -0.0663699652
C  C38  1  0.48290000  0.21690000  0.56710000  1.0 -0.0663699652
C  C39  1  0.78310000  0.51710000  0.06710000  1.0 -0.0663699652
C  C40  1  0.51710000  0.78310000  0.43290000  1.0 -0.0663699652
C  C41  1  0.41000000  0.99580000  0.89650000  1.0 0.0921830391
C  C42  1  0.99580000  0.41000000  0.60350000  1.0 0.0921830391
C  C43  1  0.59000000  0.00420000  0.10350000  1.0 0.0921830391
C  C44  1  0.00420000  0.59000000  0.39650000  1.0 0.0921830391
C  C45  1  0.42320000  0.92720000  0.85990000  1.0 -0.1346495258
C  C46  1  0.92720000  0.42320000  0.64010000  1.0 -0.1346495258
C  C47  1  0.57680000  0.07280000  0.14010000  1.0 -0.1346495258
C  C48  1  0.07280000  0.57680000  0.35990000  1.0 -0.1346495258
C  C49  1  0.26490000  0.05090000  0.82980000  1.0 -0.0786868738
C  C50  1  0.05090000  0.26490000  0.67020000  1.0 -0.0786868738
C  C51  1  0.73510000  0.94910000  0.17020000  1.0 -0.0786868738
C  C52  1  0.94910000  0.73510000  0.32980000  1.0 -0.0786868738
C  C53  1  0.09750000  0.24150000  0.83310000  1.0 -0.0405965703
C  C54  1  0.24150000  0.09750000  0.66690000  1.0 -0.0405965703
C  C55  1  0.90250000  0.75850000  0.16690000  1.0 -0.0405965703
C  C56  1  0.75850000  0.90250000  0.33310000  1.0 -0.0405965703
C  C57  1  0.08180000  0.31980000  0.86860000  1.0 -0.0893551497
C  C58  1  0.31980000  0.08180000  0.63140000  1.0 -0.0893551497
C  C59  1  0.91820000  0.68020000  0.13140000  1.0 -0.0893551497
C  C60  1  0.68020000  0.91820000  0.36860000  1.0 -0.0893551497
C  C61  1  0.24440000  0.18640000  0.89930000  1.0 -0.1590417084
C  C62  1  0.18640000  0.24440000  0.60070000  1.0 -0.1590417084
C  C63  1  0.75560000  0.81360000  0.10070000  1.0 -0.1590417084
C  C64  1  0.81360000  0.75560000  0.39930000  1.0 -0.1590417084
C  C65  1  0.92450000  0.37850000  0.80140000  1.0 0.5635991363
C  C66  1  0.37850000  0.92450000  0.69860000  1.0 0.5635991363
C  C67  1  0.07550000  0.62150000  0.19860000  1.0 0.5635991363
C  C68  1  0.62150000  0.07550000  0.30140000  1.0 0.5635991363
C  C69  1  0.30340000  0.48940000  0.90320000  1.0 0.0921830391
C  C70  1  0.48940000  0.30340000  0.59680000  1.0 0.0921830391
C  C71  1  0.69660000  0.51060000  0.09680000  1.0 0.0921830391
C  C72  1  0.51060000  0.69660000  0.40320000  1.0 0.0921830391
C  C73  1  0.44850000  0.33450000  0.87880000  1.0 -0.1590417084
C  C74  1  0.33450000  0.44850000  0.62120000  1.0 -0.1590417084
C  C75  1  0.55150000  0.66550000  0.12120000  1.0 -0.1590417084
C  C76  1  0.66550000  0.55150000  0.37880000  1.0 -0.1590417084
C  C77  1  0.52210000  0.34010000  0.84950000  1.0 -0.0893551497
C  C78  1  0.34010000  0.52210000  0.65050000  1.0 -0.0893551497
C  C79  1  0.47790000  0.65990000  0.15050000  1.0 -0.0893551497
C  C80  1  0.65990000  0.47790000  0.34950000  1.0 -0.0893551497
C  C81  1  0.45170000  0.49970000  0.84470000  1.0 -0.0198030709
C  C82  1  0.49970000  0.45170000  0.65530000  1.0 -0.0198030709
C  C83  1  0.54830000  0.50030000  0.15530000  1.0 -0.0198030709
C  C84  1  0.50030000  0.54830000  0.34470000  1.0 -0.0198030709
C  C85  1  0.30560000  0.65560000  0.86910000  1.0 -0.1030056881
C  C86  1  0.65560000  0.30560000  0.63090000  1.0 -0.1030056881
C  C87  1  0.69440000  0.34440000  0.13090000  1.0 -0.1030056881
C  C88  1  0.34440000  0.69440000  0.36910000  1.0 -0.1030056881
C  C89  1  0.23200000  0.65000000  0.89830000  1.0 -0.1520933317
C  C90  1  0.65000000  0.23200000  0.60170000  1.0 -0.1520933317
C  C91  1  0.76800000  0.35000000  0.10170000  1.0 -0.1520933317
C  C92  1  0.35000000  0.76800000  0.39830000  1.0 -0.1520933317
C  C93  1  0.51820000  0.52220000  0.81150000  1.0 0.5635991363
C  C94  1  0.52220000  0.51820000  0.68850000  1.0 0.5635991363
C  C95  1  0.48180000  0.47780000  0.18850000  1.0 0.5635991363
C  C96  1  0.47780000  0.48180000  0.31150000  1.0 0.5635991363
N  N1  1  0.91720000  0.64560000  0.94240000  1.0 -0.2564146178
N  N2  1  0.64560000  0.91720000  0.55760000  1.0 -0.2564146178
N  N3  1  0.08280000  0.35440000  0.05760000  1.0 -0.2564146178
N  N4  1  0.35440000  0.08280000  0.44240000  1.0 -0.2564146178
N  N5  1  0.74270000  0.65570000  0.99900000  1.0 -0.2543702977
N  N6  1  0.65570000  0.74270000  0.50100000  1.0 -0.2543702977
N  N7  1  0.25730000  0.34430000  0.00100000  1.0 -0.2543702977
N  N8  1  0.34430000  0.25730000  0.49900000  1.0 -0.2543702977
O  O1  1  0.93410000  0.30750000  0.77250000  1.0 -0.5457927542
O  O2  1  0.30750000  0.93410000  0.72750000  1.0 -0.5457927542
O  O3  1  0.06590000  0.69250000  0.22750000  1.0 -0.5457927542
O  O4  1  0.69250000  0.06590000  0.27250000  1.0 -0.5457927542
O  O5  1  0.77190000  0.55830000  0.80450000  1.0 -0.5261591333
O  O6  1  0.55830000  0.77190000  0.69550000  1.0 -0.5261591333
O  O7  1  0.22810000  0.44170000  0.19550000  1.0 -0.5261591333
O  O8  1  0.44170000  0.22810000  0.30450000  1.0 -0.5261591333
O  O9  1  0.66160000  0.36560000  0.79910000  1.0 -0.5109230834
O  O10  1  0.36560000  0.66160000  0.70090000  1.0 -0.5109230834
O  O11  1  0.33840000  0.63440000  0.20090000  1.0 -0.5109230834
O  O12  1  0.63440000  0.33840000  0.29910000  1.0 -0.5109230834
O  O13  1  0.41640000  0.69040000  0.80070000  1.0 -0.5894264239
O  O14  1  0.69040000  0.41640000  0.69930000  1.0 -0.5894264239
O  O15  1  0.58360000  0.30960000  0.19930000  1.0 -0.5894264239
O  O16  1  0.30960000  0.58360000  0.30070000  1.0 -0.5894264239
