# DDEC6 charges by PACMAN v1.1 (https://github.com/mtap-research/PACMAN-charge/)
data_OQIRAI_ion_pacman
_symmetry_space_group_name_H-M   'P 1'
_cell_length_a   19.22660000
_cell_length_b   19.22660000
_cell_length_c   19.22660000
_cell_angle_alpha   105.86500000
_cell_angle_beta   105.86500000
_cell_angle_gamma   116.95400000
_symmetry_Int_Tables_number   1
_chemical_formula_structural   Cu2H56C48(I3N8)3
_chemical_formula_sum   'Cu6 H168 C144 I27 N72'
_cell_volume   5400.31706437
_cell_formula_units_Z   3
loop_
 _symmetry_equiv_pos_site_id
 _symmetry_equiv_pos_as_xyz
  1  'x, y, z'
loop_
 _atom_site_type_symbol
 _atom_site_label
 _atom_site_symmetry_multiplicity
 _atom_site_fract_x
 _atom_site_fract_y
 _atom_site_fract_z
 _atom_site_occupancy
 _atom_site_charge
Cu  Cu1  1  0.48137000  0.25797000  0.73934000  1.0 0.3184602473
Cu  Cu2  1  0.74203000  0.48137000  0.22340000  1.0 0.3184602473
Cu  Cu3  1  0.51863000  0.74203000  0.26066000  1.0 0.3184602473
Cu  Cu4  1  0.25797000  0.51863000  0.77660000  1.0 0.3184602473
Cu  Cu5  1  0.84021000  0.84021000  0.00000000  1.0 0.6533755724
Cu  Cu6  1  0.15979000  0.15979000  0.00000000  1.0 0.6533755724
H  H1  1  0.66100000  0.33650000  0.88730000  1.0 0.1116450801
H  H2  1  0.77370000  0.66100000  0.32450000  1.0 0.1116450801
H  H3  1  0.44920000  0.77370000  0.11270000  1.0 0.1116450801
H  H4  1  0.33650000  0.44920000  0.67550000  1.0 0.1116450801
H  H5  1  0.33900000  0.66350000  0.11270000  1.0 0.1116450801
H  H6  1  0.22630000  0.33900000  0.67550000  1.0 0.1116450801
H  H7  1  0.55080000  0.22630000  0.88730000  1.0 0.1116450801
H  H8  1  0.66350000  0.55080000  0.32450000  1.0 0.1116450801
H  H9  1  0.62320000  0.31250000  0.67090000  1.0 0.1206205241
H  H10  1  0.95230000  0.62320000  0.31070000  1.0 0.1206205241
H  H11  1  0.64160000  0.95230000  0.32910000  1.0 0.1206205241
H  H12  1  0.31250000  0.64160000  0.68930000  1.0 0.1206205241
H  H13  1  0.37680000  0.68750000  0.32910000  1.0 0.1206205241
H  H14  1  0.04770000  0.37680000  0.68930000  1.0 0.1206205241
H  H15  1  0.35840000  0.04770000  0.67090000  1.0 0.1206205241
H  H16  1  0.68750000  0.35840000  0.31070000  1.0 0.1206205241
H  H17  1  0.78590000  0.39220000  0.69170000  1.0 0.1116450801
H  H18  1  0.09420000  0.78590000  0.39370000  1.0 0.1116450801
H  H19  1  0.70050000  0.09420000  0.30830000  1.0 0.1116450801
H  H20  1  0.39220000  0.70050000  0.60630000  1.0 0.1116450801
H  H21  1  0.21410000  0.60780000  0.30830000  1.0 0.1116450801
H  H22  1  0.90580000  0.21410000  0.60630000  1.0 0.1116450801
H  H23  1  0.29950000  0.90580000  0.69170000  1.0 0.1116450801
H  H24  1  0.60780000  0.29950000  0.39370000  1.0 0.1116450801
H  H25  1  0.80390000  0.32600000  0.71170000  1.0 0.1116450801
H  H26  1  0.09220000  0.80390000  0.47790000  1.0 0.1116450801
H  H27  1  0.61430000  0.09220000  0.28830000  1.0 0.1116450801
H  H28  1  0.32600000  0.61430000  0.52210000  1.0 0.1116450801
H  H29  1  0.19610000  0.67400000  0.28830000  1.0 0.1116450801
H  H30  1  0.90780000  0.19610000  0.52210000  1.0 0.1116450801
H  H31  1  0.38570000  0.90780000  0.71170000  1.0 0.1116450801
H  H32  1  0.67400000  0.38570000  0.47790000  1.0 0.1116450801
H  H33  1  0.86000000  0.57220000  0.74800000  1.0 0.1312079971
H  H34  1  0.11200000  0.86000000  0.28780000  1.0 0.1312079971
H  H35  1  0.82420000  0.11200000  0.25200000  1.0 0.1312079971
H  H36  1  0.57220000  0.82420000  0.71220000  1.0 0.1312079971
H  H37  1  0.14000000  0.42780000  0.25200000  1.0 0.1312079971
H  H38  1  0.88800000  0.14000000  0.71220000  1.0 0.1312079971
H  H39  1  0.17580000  0.88800000  0.74800000  1.0 0.1312079971
H  H40  1  0.42780000  0.17580000  0.28780000  1.0 0.1312079971
H  H41  1  0.78470000  0.49720000  0.75330000  1.0 0.1206205241
H  H42  1  0.03140000  0.78470000  0.28750000  1.0 0.1206205241
H  H43  1  0.74390000  0.03140000  0.24670000  1.0 0.1206205241
H  H44  1  0.49720000  0.74390000  0.71250000  1.0 0.1206205241
H  H45  1  0.21530000  0.50280000  0.24670000  1.0 0.1206205241
H  H46  1  0.96860000  0.21530000  0.71250000  1.0 0.1206205241
H  H47  1  0.25610000  0.96860000  0.75330000  1.0 0.1206205241
H  H48  1  0.50280000  0.25610000  0.28750000  1.0 0.1206205241
H  H49  1  0.84160000  0.59430000  0.82290000  1.0 0.1206205241
H  H50  1  0.01870000  0.84160000  0.24730000  1.0 0.1206205241
H  H51  1  0.77140000  0.01870000  0.17710000  1.0 0.1206205241
H  H52  1  0.59430000  0.77140000  0.75270000  1.0 0.1206205241
H  H53  1  0.15840000  0.40570000  0.17710000  1.0 0.1206205241
H  H54  1  0.98130000  0.15840000  0.75270000  1.0 0.1206205241
H  H55  1  0.22860000  0.98130000  0.82290000  1.0 0.1206205241
H  H56  1  0.40570000  0.22860000  0.24730000  1.0 0.1206205241
H  H57  1  0.00380000  0.70820000  0.86720000  1.0 0.1010009933
H  H58  1  0.13660000  0.00380000  0.29560000  1.0 0.1010009933
H  H59  1  0.84100000  0.13660000  0.13280000  1.0 0.1010009933
H  H60  1  0.70820000  0.84100000  0.70440000  1.0 0.1010009933
H  H61  1  0.99620000  0.29180000  0.13280000  1.0 0.1010009933
H  H62  1  0.86340000  0.99620000  0.70440000  1.0 0.1010009933
H  H63  1  0.15900000  0.86340000  0.86720000  1.0 0.1010009933
H  H64  1  0.29180000  0.15900000  0.29560000  1.0 0.1010009933
H  H65  1  0.07770000  0.74280000  0.95350000  1.0 0.1116450801
H  H66  1  0.12420000  0.07770000  0.33490000  1.0 0.1116450801
H  H67  1  0.78930000  0.12420000  0.04650000  1.0 0.1116450801
H  H68  1  0.74280000  0.78930000  0.66510000  1.0 0.1116450801
H  H69  1  0.92230000  0.25720000  0.04650000  1.0 0.1116450801
H  H70  1  0.87580000  0.92230000  0.66510000  1.0 0.1116450801
H  H71  1  0.21070000  0.87580000  0.95350000  1.0 0.1116450801
H  H72  1  0.25720000  0.21070000  0.33490000  1.0 0.1116450801
H  H73  1  0.88970000  0.72370000  0.07000000  1.0 0.1116450801
H  H74  1  0.81970000  0.88970000  0.16600000  1.0 0.1116450801
H  H75  1  0.65370000  0.81970000  0.93000000  1.0 0.1116450801
H  H76  1  0.72370000  0.65370000  0.83400000  1.0 0.1116450801
H  H77  1  0.11030000  0.27630000  0.93000000  1.0 0.1116450801
H  H78  1  0.18030000  0.11030000  0.83400000  1.0 0.1116450801
H  H79  1  0.34630000  0.18030000  0.07000000  1.0 0.1116450801
H  H80  1  0.27630000  0.34630000  0.16600000  1.0 0.1116450801
H  H81  1  0.94110000  0.79560000  0.91030000  1.0 0.1116450801
H  H82  1  0.03080000  0.94110000  0.14550000  1.0 0.1116450801
H  H83  1  0.88530000  0.03080000  0.08970000  1.0 0.1116450801
H  H84  1  0.79560000  0.88530000  0.85450000  1.0 0.1116450801
H  H85  1  0.05890000  0.20440000  0.08970000  1.0 0.1116450801
H  H86  1  0.96920000  0.05890000  0.85450000  1.0 0.1116450801
H  H87  1  0.11470000  0.96920000  0.91030000  1.0 0.1116450801
H  H88  1  0.20440000  0.11470000  0.14550000  1.0 0.1116450801
H  H89  1  0.13120000  0.70710000  0.05150000  1.0 0.1312079971
H  H90  1  0.07970000  0.13120000  0.42410000  1.0 0.1312079971
H  H91  1  0.65560000  0.07970000  0.94850000  1.0 0.1312079971
H  H92  1  0.70710000  0.65560000  0.57590000  1.0 0.1312079971
H  H93  1  0.86880000  0.29290000  0.94850000  1.0 0.1312079971
H  H94  1  0.92030000  0.86880000  0.57590000  1.0 0.1312079971
H  H95  1  0.34440000  0.92030000  0.05150000  1.0 0.1312079971
H  H96  1  0.29290000  0.34440000  0.42410000  1.0 0.1312079971
H  H97  1  0.17040000  0.65200000  0.03540000  1.0 0.1206205241
H  H98  1  0.13500000  0.17040000  0.51840000  1.0 0.1206205241
H  H99  1  0.61660000  0.13500000  0.96460000  1.0 0.1206205241
H  H100  1  0.65200000  0.61660000  0.48160000  1.0 0.1206205241
H  H101  1  0.82960000  0.34800000  0.96460000  1.0 0.1206205241
H  H102  1  0.86500000  0.82960000  0.48160000  1.0 0.1206205241
H  H103  1  0.38340000  0.86500000  0.03540000  1.0 0.1206205241
H  H104  1  0.34800000  0.38340000  0.51840000  1.0 0.1206205241
H  H105  1  0.17150000  0.70930000  0.99080000  1.0 0.1206205241
H  H106  1  0.18070000  0.17150000  0.46220000  1.0 0.1206205241
H  H107  1  0.71850000  0.18070000  0.00920000  1.0 0.1206205241
H  H108  1  0.70930000  0.71850000  0.53780000  1.0 0.1206205241
H  H109  1  0.82850000  0.29070000  0.00920000  1.0 0.1206205241
H  H110  1  0.81930000  0.82850000  0.53780000  1.0 0.1206205241
H  H111  1  0.28150000  0.81930000  0.99080000  1.0 0.1206205241
H  H112  1  0.29070000  0.28150000  0.46220000  1.0 0.1206205241
H  H113  1  0.05610000  0.43710000  0.96760000  1.0 0.1206205241
H  H114  1  0.08850000  0.05610000  0.61900000  1.0 0.1206205241
H  H115  1  0.46950000  0.08850000  0.03240000  1.0 0.1206205241
H  H116  1  0.43710000  0.46950000  0.38100000  1.0 0.1206205241
H  H117  1  0.94390000  0.56290000  0.03240000  1.0 0.1206205241
H  H118  1  0.91150000  0.94390000  0.38100000  1.0 0.1206205241
H  H119  1  0.53050000  0.91150000  0.96760000  1.0 0.1206205241
H  H120  1  0.56290000  0.53050000  0.61900000  1.0 0.1206205241
H  H121  1  0.12410000  0.53920000  0.02290000  1.0 0.1116450801
H  H122  1  0.10120000  0.12410000  0.58490000  1.0 0.1116450801
H  H123  1  0.51630000  0.10120000  0.97710000  1.0 0.1116450801
H  H124  1  0.53920000  0.51630000  0.41510000  1.0 0.1116450801
H  H125  1  0.87590000  0.46080000  0.97710000  1.0 0.1116450801
H  H126  1  0.89880000  0.87590000  0.41510000  1.0 0.1116450801
H  H127  1  0.48370000  0.89880000  0.02290000  1.0 0.1116450801
H  H128  1  0.46080000  0.48370000  0.58490000  1.0 0.1116450801
H  H129  1  0.12340000  0.52570000  0.84190000  1.0 0.0911607995
H  H130  1  0.28150000  0.12340000  0.59770000  1.0 0.0911607995
H  H131  1  0.68380000  0.28150000  0.15810000  1.0 0.0911607995
H  H132  1  0.52570000  0.68380000  0.40230000  1.0 0.0911607995
H  H133  1  0.87660000  0.47430000  0.15810000  1.0 0.0911607995
H  H134  1  0.71850000  0.87660000  0.40230000  1.0 0.0911607995
H  H135  1  0.31620000  0.71850000  0.84190000  1.0 0.0911607995
H  H136  1  0.47430000  0.31620000  0.59770000  1.0 0.0911607995
H  H137  1  0.29440000  0.47840000  0.93160000  1.0 0.1116450801
H  H138  1  0.36280000  0.29440000  0.81600000  1.0 0.1116450801
H  H139  1  0.54680000  0.36280000  0.06840000  1.0 0.1116450801
H  H140  1  0.47840000  0.54680000  0.18400000  1.0 0.1116450801
H  H141  1  0.70560000  0.52160000  0.06840000  1.0 0.1116450801
H  H142  1  0.63720000  0.70560000  0.18400000  1.0 0.1116450801
H  H143  1  0.45320000  0.63720000  0.93160000  1.0 0.1116450801
H  H144  1  0.52160000  0.45320000  0.81600000  1.0 0.1116450801
H  H145  1  0.94470000  0.33610000  0.87100000  1.0 0.1397257474
H  H146  1  0.07370000  0.94470000  0.60860000  1.0 0.1397257474
H  H147  1  0.46510000  0.07370000  0.12900000  1.0 0.1397257474
H  H148  1  0.33610000  0.46510000  0.39140000  1.0 0.1397257474
H  H149  1  0.05530000  0.66390000  0.12900000  1.0 0.1397257474
H  H150  1  0.92630000  0.05530000  0.39140000  1.0 0.1397257474
H  H151  1  0.53490000  0.92630000  0.87100000  1.0 0.1397257474
H  H152  1  0.66390000  0.53490000  0.60860000  1.0 0.1397257474
H  H153  1  0.86240000  0.30060000  0.79080000  1.0 0.1206205241
H  H154  1  0.07160000  0.86240000  0.56180000  1.0 0.1206205241
H  H155  1  0.50980000  0.07160000  0.20920000  1.0 0.1206205241
H  H156  1  0.30060000  0.50980000  0.43820000  1.0 0.1206205241
H  H157  1  0.13760000  0.69940000  0.20920000  1.0 0.1206205241
H  H158  1  0.92840000  0.13760000  0.43820000  1.0 0.1206205241
H  H159  1  0.49020000  0.92840000  0.79080000  1.0 0.1206205241
H  H160  1  0.69940000  0.49020000  0.56180000  1.0 0.1206205241
H  H161  1  0.95430000  0.33570000  0.79260000  1.0 0.1312079971
H  H162  1  0.16170000  0.95430000  0.61860000  1.0 0.1312079971
H  H163  1  0.54310000  0.16170000  0.20740000  1.0 0.1312079971
H  H164  1  0.33570000  0.54310000  0.38140000  1.0 0.1312079971
H  H165  1  0.04570000  0.66430000  0.20740000  1.0 0.1312079971
H  H166  1  0.83830000  0.04570000  0.38140000  1.0 0.1312079971
H  H167  1  0.45690000  0.83830000  0.79260000  1.0 0.1312079971
H  H168  1  0.66430000  0.45690000  0.61860000  1.0 0.1312079971
C  C1  1  0.66933000  0.33419000  0.84148000  1.0 0.0911607995
C  C2  1  0.82785000  0.66933000  0.33514000  1.0 0.0911607995
C  C3  1  0.49271000  0.82785000  0.15852000  1.0 0.0911607995
C  C4  1  0.33419000  0.49271000  0.66486000  1.0 0.0911607995
C  C5  1  0.33067000  0.66581000  0.15852000  1.0 0.0911607995
C  C6  1  0.17215000  0.33067000  0.66486000  1.0 0.0911607995
C  C7  1  0.50729000  0.17215000  0.84148000  1.0 0.0911607995
C  C8  1  0.66581000  0.50729000  0.33514000  1.0 0.0911607995
C  C9  1  0.64805000  0.32016000  0.72353000  1.0 0.0577049021
C  C10  1  0.92452000  0.64805000  0.32789000  1.0 0.0577049021
C  C11  1  0.59663000  0.92452000  0.27647000  1.0 0.0577049021
C  C12  1  0.32016000  0.59663000  0.67211000  1.0 0.0577049021
C  C13  1  0.35195000  0.67984000  0.27647000  1.0 0.0577049021
C  C14  1  0.07548000  0.35195000  0.67211000  1.0 0.0577049021
C  C15  1  0.40337000  0.07548000  0.72353000  1.0 0.0577049021
C  C16  1  0.67984000  0.40337000  0.32789000  1.0 0.0577049021
C  C17  1  0.80034000  0.37530000  0.73380000  1.0 -0.1859607261
C  C18  1  0.06654000  0.80034000  0.42504000  1.0 -0.1859607261
C  C19  1  0.64150000  0.06654000  0.26620000  1.0 -0.1859607261
C  C20  1  0.37530000  0.64150000  0.57496000  1.0 -0.1859607261
C  C21  1  0.19966000  0.62470000  0.26620000  1.0 -0.1859607261
C  C22  1  0.93346000  0.19966000  0.57496000  1.0 -0.1859607261
C  C23  1  0.35850000  0.93346000  0.73380000  1.0 -0.1859607261
C  C24  1  0.62470000  0.35850000  0.42504000  1.0 -0.1859607261
C  C25  1  0.88672000  0.45218000  0.80808000  1.0 -0.0341796513
C  C26  1  0.07864000  0.88672000  0.43454000  1.0 -0.0341796513
C  C27  1  0.64410000  0.07864000  0.19192000  1.0 -0.0341796513
C  C28  1  0.45218000  0.64410000  0.56546000  1.0 -0.0341796513
C  C29  1  0.11328000  0.54782000  0.19192000  1.0 -0.0341796513
C  C30  1  0.92136000  0.11328000  0.56546000  1.0 -0.0341796513
C  C31  1  0.35590000  0.92136000  0.80808000  1.0 -0.0341796513
C  C32  1  0.54782000  0.35590000  0.43454000  1.0 -0.0341796513
C  C33  1  0.90660000  0.53523000  0.82885000  1.0 0.0708256747
C  C34  1  0.07775000  0.90660000  0.37137000  1.0 0.0708256747
C  C35  1  0.70638000  0.07775000  0.17115000  1.0 0.0708256747
C  C36  1  0.53523000  0.70638000  0.62863000  1.0 0.0708256747
C  C37  1  0.09340000  0.46477000  0.17115000  1.0 0.0708256747
C  C38  1  0.92225000  0.09340000  0.62863000  1.0 0.0708256747
C  C39  1  0.29362000  0.92225000  0.82885000  1.0 0.0708256747
C  C40  1  0.46477000  0.29362000  0.37137000  1.0 0.0708256747
C  C41  1  0.84241000  0.55120000  0.78423000  1.0 -0.4607991513
C  C42  1  0.05818000  0.84241000  0.29121000  1.0 -0.4607991513
C  C43  1  0.76697000  0.05818000  0.21577000  1.0 -0.4607991513
C  C44  1  0.55120000  0.76697000  0.70879000  1.0 -0.4607991513
C  C45  1  0.15759000  0.44880000  0.21577000  1.0 -0.4607991513
C  C46  1  0.94182000  0.15759000  0.70879000  1.0 -0.4607991513
C  C47  1  0.23303000  0.94182000  0.78423000  1.0 -0.4607991513
C  C48  1  0.44880000  0.23303000  0.29121000  1.0 -0.4607991513
C  C49  1  0.98869000  0.60633000  0.89500000  1.0 -0.0390568167
C  C50  1  0.09369000  0.98869000  0.38236000  1.0 -0.0390568167
C  C51  1  0.71133000  0.09369000  0.10500000  1.0 -0.0390568167
C  C52  1  0.60633000  0.71133000  0.61764000  1.0 -0.0390568167
C  C53  1  0.01131000  0.39367000  0.10500000  1.0 -0.0390568167
C  C54  1  0.90631000  0.01131000  0.61764000  1.0 -0.0390568167
C  C55  1  0.28867000  0.90631000  0.89500000  1.0 -0.0390568167
C  C56  1  0.39367000  0.28867000  0.38236000  1.0 -0.0390568167
C  C57  1  0.01519000  0.70144000  0.91649000  1.0 -0.170048916
C  C58  1  0.09870000  0.01519000  0.31375000  1.0 -0.170048916
C  C59  1  0.78495000  0.09870000  0.08351000  1.0 -0.170048916
C  C60  1  0.70144000  0.78495000  0.68625000  1.0 -0.170048916
C  C61  1  0.98481000  0.29856000  0.08351000  1.0 -0.170048916
C  C62  1  0.90130000  0.98481000  0.68625000  1.0 -0.170048916
C  C63  1  0.21505000  0.90130000  0.91649000  1.0 -0.170048916
C  C64  1  0.29856000  0.21505000  0.31375000  1.0 -0.170048916
C  C65  1  0.90976000  0.73022000  0.03180000  1.0 0.1397257474
C  C66  1  0.87796000  0.90976000  0.17954000  1.0 0.1397257474
C  C67  1  0.69842000  0.87796000  0.96820000  1.0 0.1397257474
C  C68  1  0.73022000  0.69842000  0.82046000  1.0 0.1397257474
C  C69  1  0.09024000  0.26978000  0.96820000  1.0 0.1397257474
C  C70  1  0.12204000  0.09024000  0.82046000  1.0 0.1397257474
C  C71  1  0.30158000  0.12204000  0.03180000  1.0 0.1397257474
C  C72  1  0.26978000  0.30158000  0.17954000  1.0 0.1397257474
C  C73  1  0.93619000  0.77022000  0.94505000  1.0 0.0911607995
C  C74  1  0.99114000  0.93619000  0.16597000  1.0 0.0911607995
C  C75  1  0.82517000  0.99114000  0.05495000  1.0 0.0911607995
C  C76  1  0.77022000  0.82517000  0.83403000  1.0 0.0911607995
C  C77  1  0.06381000  0.22978000  0.05495000  1.0 0.0911607995
C  C78  1  0.00886000  0.06381000  0.83403000  1.0 0.0911607995
C  C79  1  0.17483000  0.00886000  0.94505000  1.0 0.0911607995
C  C80  1  0.22978000  0.17483000  0.16597000  1.0 0.0911607995
C  C81  1  0.04675000  0.59307000  0.93936000  1.0 0.0708256747
C  C82  1  0.10739000  0.04675000  0.45368000  1.0 0.0708256747
C  C83  1  0.65371000  0.10739000  0.06064000  1.0 0.0708256747
C  C84  1  0.59307000  0.65371000  0.54632000  1.0 0.0708256747
C  C85  1  0.95325000  0.40693000  0.06064000  1.0 0.0708256747
C  C86  1  0.89261000  0.95325000  0.54632000  1.0 0.0708256747
C  C87  1  0.34629000  0.89261000  0.93936000  1.0 0.0708256747
C  C88  1  0.40693000  0.34629000  0.45368000  1.0 0.0708256747
C  C89  1  0.13883000  0.67306000  0.01115000  1.0 -0.4676150318
C  C90  1  0.12768000  0.13883000  0.46577000  1.0 -0.4676150318
C  C91  1  0.66191000  0.12768000  0.98885000  1.0 -0.4676150318
C  C92  1  0.67306000  0.66191000  0.53423000  1.0 -0.4676150318
C  C93  1  0.86117000  0.32694000  0.98885000  1.0 -0.4676150318
C  C94  1  0.87232000  0.86117000  0.53423000  1.0 -0.4676150318
C  C95  1  0.33809000  0.87232000  0.01115000  1.0 -0.4676150318
C  C96  1  0.32694000  0.33809000  0.46577000  1.0 -0.4676150318
C  C97  1  0.02397000  0.50815000  0.91818000  1.0 -0.0458075527
C  C98  1  0.10579000  0.02397000  0.51582000  1.0 -0.0458075527
C  C99  1  0.58997000  0.10579000  0.08182000  1.0 -0.0458075527
C  C100  1  0.50815000  0.58997000  0.48418000  1.0 -0.0458075527
C  C101  1  0.97603000  0.49185000  0.08182000  1.0 -0.0458075527
C  C102  1  0.89421000  0.97603000  0.48418000  1.0 -0.0458075527
C  C103  1  0.41003000  0.89421000  0.91818000  1.0 -0.0458075527
C  C104  1  0.49185000  0.41003000  0.51582000  1.0 -0.0458075527
C  C105  1  0.08870000  0.49277000  0.96697000  1.0 -0.170048916
C  C106  1  0.12173000  0.08870000  0.59593000  1.0 -0.170048916
C  C107  1  0.52580000  0.12173000  0.03303000  1.0 -0.170048916
C  C108  1  0.49277000  0.52580000  0.40407000  1.0 -0.170048916
C  C109  1  0.91130000  0.50723000  0.03303000  1.0 -0.170048916
C  C110  1  0.87827000  0.91130000  0.40407000  1.0 -0.170048916
C  C111  1  0.47420000  0.87827000  0.96697000  1.0 -0.170048916
C  C112  1  0.50723000  0.47420000  0.59593000  1.0 -0.170048916
C  C113  1  0.15540000  0.51003000  0.87153000  1.0 0.046525522
C  C114  1  0.28387000  0.15540000  0.64537000  1.0 0.046525522
C  C115  1  0.63850000  0.28387000  0.12847000  1.0 0.046525522
C  C116  1  0.51003000  0.63850000  0.35463000  1.0 0.046525522
C  C117  1  0.84460000  0.48997000  0.12847000  1.0 0.046525522
C  C118  1  0.71613000  0.84460000  0.35463000  1.0 0.046525522
C  C119  1  0.36150000  0.71613000  0.87153000  1.0 0.046525522
C  C120  1  0.48997000  0.36150000  0.64537000  1.0 0.046525522
C  C121  1  0.24757000  0.48402000  0.92139000  1.0 0.1206205241
C  C122  1  0.32618000  0.24757000  0.76355000  1.0 0.1206205241
C  C123  1  0.56263000  0.32618000  0.07861000  1.0 0.1206205241
C  C124  1  0.48402000  0.56263000  0.23645000  1.0 0.1206205241
C  C125  1  0.75243000  0.51598000  0.07861000  1.0 0.1206205241
C  C126  1  0.67382000  0.75243000  0.23645000  1.0 0.1206205241
C  C127  1  0.43737000  0.67382000  0.92139000  1.0 0.1206205241
C  C128  1  0.51598000  0.43737000  0.76355000  1.0 0.1206205241
C  C129  1  0.94505000  0.43559000  0.85057000  1.0 0.0708256747
C  C130  1  0.09447000  0.94505000  0.50945000  1.0 0.0708256747
C  C131  1  0.58501000  0.09447000  0.14943000  1.0 0.0708256747
C  C132  1  0.43559000  0.58501000  0.49054000  1.0 0.0708256747
C  C133  1  0.05496000  0.56441000  0.14943000  1.0 0.0708256747
C  C134  1  0.90553000  0.05496000  0.49054000  1.0 0.0708256747
C  C135  1  0.41498000  0.90553000  0.85057000  1.0 0.0708256747
C  C136  1  0.56441000  0.41498000  0.50945000  1.0 0.0708256747
C  C137  1  0.92475000  0.34348000  0.82379000  1.0 -0.4607991513
C  C138  1  0.10096000  0.92475000  0.58127000  1.0 -0.4607991513
C  C139  1  0.51969000  0.10096000  0.17621000  1.0 -0.4607991513
C  C140  1  0.34348000  0.51969000  0.41873000  1.0 -0.4607991513
C  C141  1  0.07525000  0.65652000  0.17621000  1.0 -0.4607991513
C  C142  1  0.89904000  0.07525000  0.41873000  1.0 -0.4607991513
C  C143  1  0.48031000  0.89904000  0.82379000  1.0 -0.4607991513
C  C144  1  0.65652000  0.48031000  0.58127000  1.0 -0.4607991513
I  I1  1  0.00000000  0.00000000  0.00000000  1.0 -0.6408523854
I  I2  1  0.08626000  0.67616000  0.76242000  1.0 -0.0390568167
I  I3  1  0.11969000  0.64842000  0.76811000  1.0 0.0125430184
I  I4  1  0.13361000  0.60053000  0.73414000  1.0 -0.0141019385
I  I5  1  0.67616000  0.91374000  0.58990000  1.0 -0.0341796513
I  I6  1  0.64842000  0.88031000  0.52873000  1.0 0.0156349249
I  I7  1  0.60053000  0.86639000  0.46692000  1.0 -0.0141019385
I  I8  1  0.91374000  0.32384000  0.23758000  1.0 -0.0341796513
I  I9  1  0.88031000  0.35158000  0.23189000  1.0 0.0125430184
I  I10  1  0.86639000  0.39947000  0.26586000  1.0 -0.0152051944
I  I11  1  0.32384000  0.08626000  0.41010000  1.0 -0.0341796513
I  I12  1  0.35158000  0.11969000  0.47127000  1.0 0.0125430184
I  I13  1  0.39947000  0.13361000  0.53308000  1.0 -0.0141019385
I  I14  1  0.94310000  0.80792000  0.75102000  1.0 -0.3132233407
I  I15  1  0.88821000  0.63611000  0.52432000  1.0 -0.0341796513
I  I16  1  0.92707000  0.69817000  0.62524000  1.0 0.0577049021
I  I17  1  0.80792000  0.05690000  0.86482000  1.0 -0.3132233407
I  I18  1  0.63611000  0.11179000  0.74790000  1.0 -0.0341796513
I  I19  1  0.69817000  0.07293000  0.77110000  1.0 0.0577049021
I  I20  1  0.05690000  0.19208000  0.24898000  1.0 -0.3132233407
I  I21  1  0.11179000  0.36389000  0.47568000  1.0 -0.0341796513
I  I22  1  0.07293000  0.30183000  0.37476000  1.0 0.0577049021
I  I23  1  0.19208000  0.94310000  0.13518000  1.0 -0.3132233407
I  I24  1  0.36389000  0.88821000  0.25210000  1.0 -0.0341796513
I  I25  1  0.30183000  0.92707000  0.22890000  1.0 0.0577049021
I  I26  1  0.32376000  0.32376000  0.00000000  1.0 -0.6213456627
I  I27  1  0.67624000  0.67624000  0.00000000  1.0 -0.6213456627
N  N1  1  0.60503000  0.30153000  0.76594000  1.0 -0.2902768414
N  N2  1  0.83909000  0.60503000  0.30350000  1.0 -0.2902768414
N  N3  1  0.53559000  0.83909000  0.23406000  1.0 -0.2902768414
N  N4  1  0.30153000  0.53559000  0.69650000  1.0 -0.2902768414
N  N5  1  0.39497000  0.69847000  0.23406000  1.0 -0.2902768414
N  N6  1  0.16091000  0.39497000  0.69650000  1.0 -0.2902768414
N  N7  1  0.46441000  0.16091000  0.76594000  1.0 -0.2902768414
N  N8  1  0.69847000  0.46441000  0.30350000  1.0 -0.2902768414
N  N9  1  0.74477000  0.36185000  0.84006000  1.0 -0.2026068356
N  N10  1  0.90471000  0.74477000  0.38292000  1.0 -0.2026068356
N  N11  1  0.52179000  0.90471000  0.15994000  1.0 -0.2026068356
N  N12  1  0.36185000  0.52179000  0.61708000  1.0 -0.2026068356
N  N13  1  0.25523000  0.63815000  0.15994000  1.0 -0.2026068356
N  N14  1  0.09529000  0.25523000  0.61708000  1.0 -0.2026068356
N  N15  1  0.47821000  0.09529000  0.84006000  1.0 -0.2026068356
N  N16  1  0.63815000  0.47821000  0.38292000  1.0 -0.2026068356
N  N17  1  0.72950000  0.35056000  0.76528000  1.0 0.1780741241
N  N18  1  0.96422000  0.72950000  0.37894000  1.0 0.1780741241
N  N19  1  0.58528000  0.96422000  0.23472000  1.0 0.1780741241
N  N20  1  0.35056000  0.58528000  0.62106000  1.0 0.1780741241
N  N21  1  0.27050000  0.64944000  0.23472000  1.0 0.1780741241
N  N22  1  0.03578000  0.27050000  0.62106000  1.0 0.1780741241
N  N23  1  0.41472000  0.03578000  0.76528000  1.0 0.1780741241
N  N24  1  0.64944000  0.41472000  0.37894000  1.0 0.1780741241
N  N25  1  0.89867000  0.77721000  0.99240000  1.0 -0.3168921556
N  N26  1  0.90627000  0.89867000  0.12146000  1.0 -0.3168921556
N  N27  1  0.78481000  0.90627000  0.00760000  1.0 -0.3168921556
N  N28  1  0.77721000  0.78481000  0.87854000  1.0 -0.3168921556
N  N29  1  0.10133000  0.22279000  0.00760000  1.0 -0.3168921556
N  N30  1  0.09373000  0.10133000  0.87854000  1.0 -0.3168921556
N  N31  1  0.21519000  0.09373000  0.99240000  1.0 -0.3168921556
N  N32  1  0.22279000  0.21519000  0.12146000  1.0 -0.3168921556
N  N33  1  0.94980000  0.69603000  0.01193000  1.0 -0.2536975752
N  N34  1  0.93787000  0.94980000  0.25377000  1.0 -0.2536975752
N  N35  1  0.68410000  0.93787000  0.98807000  1.0 -0.2536975752
N  N36  1  0.69603000  0.68410000  0.74623000  1.0 -0.2536975752
N  N37  1  0.05020000  0.30397000  0.98807000  1.0 -0.2536975752
N  N38  1  0.06213000  0.05020000  0.74623000  1.0 -0.2536975752
N  N39  1  0.31590000  0.06213000  0.01193000  1.0 -0.2536975752
N  N40  1  0.30397000  0.31590000  0.25377000  1.0 -0.2536975752
N  N41  1  0.96558000  0.72148000  0.95480000  1.0 0.1657879863
N  N42  1  0.01078000  0.96558000  0.24410000  1.0 0.1657879863
N  N43  1  0.76668000  0.01078000  0.04520000  1.0 0.1657879863
N  N44  1  0.72148000  0.76668000  0.75590000  1.0 0.1657879863
N  N45  1  0.03442000  0.27852000  0.04520000  1.0 0.1657879863
N  N46  1  0.98922000  0.03442000  0.75590000  1.0 0.1657879863
N  N47  1  0.23332000  0.98922000  0.95480000  1.0 0.1657879863
N  N48  1  0.27852000  0.23332000  0.24410000  1.0 0.1657879863
N  N49  1  0.14535000  0.49168000  0.93125000  1.0 0.1780741241
N  N50  1  0.21410000  0.14535000  0.65367000  1.0 0.1780741241
N  N51  1  0.56043000  0.21410000  0.06875000  1.0 0.1780741241
N  N52  1  0.49168000  0.56043000  0.34633000  1.0 0.1780741241
N  N53  1  0.85465000  0.50832000  0.06875000  1.0 0.1780741241
N  N54  1  0.78590000  0.85465000  0.34633000  1.0 0.1780741241
N  N55  1  0.43957000  0.78590000  0.93125000  1.0 0.1780741241
N  N56  1  0.50832000  0.43957000  0.65367000  1.0 0.1780741241
N  N57  1  0.20400000  0.47476000  0.96294000  1.0 -0.2536975752
N  N58  1  0.24106000  0.20400000  0.72924000  1.0 -0.2536975752
N  N59  1  0.51182000  0.24106000  0.03706000  1.0 -0.2536975752
N  N60  1  0.47476000  0.51182000  0.27076000  1.0 -0.2536975752
N  N61  1  0.79600000  0.52524000  0.03706000  1.0 -0.2536975752
N  N62  1  0.75894000  0.79600000  0.27076000  1.0 -0.2536975752
N  N63  1  0.48818000  0.75894000  0.96294000  1.0 -0.2536975752
N  N64  1  0.52524000  0.48818000  0.72924000  1.0 -0.2536975752
N  N65  1  0.21708000  0.50308000  0.86000000  1.0 -0.3168921556
N  N66  1  0.35708000  0.21708000  0.71400000  1.0 -0.3168921556
N  N67  1  0.64308000  0.35708000  0.14000000  1.0 -0.3168921556
N  N68  1  0.50308000  0.64308000  0.28600000  1.0 -0.3168921556
N  N69  1  0.78292000  0.49692000  0.14000000  1.0 -0.3168921556
N  N70  1  0.64292000  0.78292000  0.28600000  1.0 -0.3168921556
N  N71  1  0.35692000  0.64292000  0.86000000  1.0 -0.3168921556
N  N72  1  0.49692000  0.35692000  0.71400000  1.0 -0.3168921556
