# DDEC6 charges by PACMAN v1.1 (https://github.com/mtap-research/PACMAN-charge/)
data_OQUFOX_ASR_pacman
_symmetry_space_group_name_H-M   'P 1'
_cell_length_a   34.35620000
_cell_length_b   34.35620000
_cell_length_c   15.00940000
_cell_angle_alpha   90.00000000
_cell_angle_beta   90.00000000
_cell_angle_gamma   90.00000000
_symmetry_Int_Tables_number   1
_chemical_formula_structural   Zr3H16C40(O7F13)2
_chemical_formula_sum   'Zr24 H128 C320 O112 F208'
_cell_volume   17716.32245230
_cell_formula_units_Z   8
loop_
 _symmetry_equiv_pos_site_id
 _symmetry_equiv_pos_as_xyz
  1  'x, y, z'
loop_
 _atom_site_type_symbol
 _atom_site_label
 _atom_site_symmetry_multiplicity
 _atom_site_fract_x
 _atom_site_fract_y
 _atom_site_fract_z
 _atom_site_occupancy
 _atom_site_charge
Zr  Zr1  1  0.80045000  0.80045000  0.75000000  1.0 2.3644150687
Zr  Zr2  1  0.30045000  0.69955000  0.25000000  1.0 2.3652974559
Zr  Zr3  1  0.19955000  0.19955000  0.75000000  1.0 2.3652974559
Zr  Zr4  1  0.69955000  0.30045000  0.25000000  1.0 2.3652974559
Zr  Zr5  1  0.69955000  0.69955000  0.75000000  1.0 2.3644150687
Zr  Zr6  1  0.19955000  0.80045000  0.25000000  1.0 2.3652974559
Zr  Zr7  1  0.30045000  0.30045000  0.75000000  1.0 2.3652974559
Zr  Zr8  1  0.80045000  0.19955000  0.25000000  1.0 2.3652974559
Zr  Zr9  1  0.78079000  0.71921000  0.88409000  1.0 2.4290469778
Zr  Zr10  1  0.21921000  0.71921000  0.38409000  1.0 2.4290469778
Zr  Zr11  1  0.21921000  0.28079000  0.88409000  1.0 2.4290469778
Zr  Zr12  1  0.78079000  0.28079000  0.38409000  1.0 2.4290469778
Zr  Zr13  1  0.71921000  0.21921000  0.11591000  1.0 2.4290469778
Zr  Zr14  1  0.28079000  0.78079000  0.11591000  1.0 2.4290469778
Zr  Zr15  1  0.71921000  0.78079000  0.61591000  1.0 2.4290469778
Zr  Zr16  1  0.28079000  0.21921000  0.61591000  1.0 2.4290469778
Zr  Zr17  1  0.70854000  0.79146000  0.84876000  1.0 2.5039801789
Zr  Zr18  1  0.29146000  0.79146000  0.34876000  1.0 2.5039801789
Zr  Zr19  1  0.29146000  0.20854000  0.84876000  1.0 2.5039801789
Zr  Zr20  1  0.70854000  0.20854000  0.34876000  1.0 2.5039801789
Zr  Zr21  1  0.79146000  0.29146000  0.15124000  1.0 2.5039801789
Zr  Zr22  1  0.20854000  0.70854000  0.15124000  1.0 2.5039801789
Zr  Zr23  1  0.79146000  0.70854000  0.65124000  1.0 2.5039801789
Zr  Zr24  1  0.20854000  0.29146000  0.65124000  1.0 2.5039801789
H  H1  1  0.91860000  0.81590000  0.85750000  1.0 0.1187153548
H  H2  1  0.31590000  0.58140000  0.35750000  1.0 0.1187153548
H  H3  1  0.08140000  0.18410000  0.85750000  1.0 0.1187153548
H  H4  1  0.68410000  0.41860000  0.35750000  1.0 0.1187153548
H  H5  1  0.58140000  0.31590000  0.14250000  1.0 0.1187153548
H  H6  1  0.41860000  0.68410000  0.14250000  1.0 0.1187153548
H  H7  1  0.81590000  0.91860000  0.64250000  1.0 0.1187153548
H  H8  1  0.18410000  0.08140000  0.64250000  1.0 0.1187153548
H  H9  1  0.58140000  0.68410000  0.64250000  1.0 0.1187153548
H  H10  1  0.18410000  0.91860000  0.14250000  1.0 0.1187153548
H  H11  1  0.41860000  0.31590000  0.64250000  1.0 0.1187153548
H  H12  1  0.81590000  0.08140000  0.14250000  1.0 0.1187153548
H  H13  1  0.91860000  0.18410000  0.35750000  1.0 0.1187153548
H  H14  1  0.08140000  0.81590000  0.35750000  1.0 0.1187153548
H  H15  1  0.68410000  0.58140000  0.85750000  1.0 0.1187153548
H  H16  1  0.31590000  0.41860000  0.85750000  1.0 0.1187153548
H  H17  1  0.94840000  0.74160000  0.10980000  1.0 0.1783191408
H  H18  1  0.24160000  0.55160000  0.60980000  1.0 0.1783191408
H  H19  1  0.05160000  0.25840000  0.10980000  1.0 0.1783191408
H  H20  1  0.75840000  0.44840000  0.60980000  1.0 0.1783191408
H  H21  1  0.55160000  0.24160000  0.89020000  1.0 0.1783191408
H  H22  1  0.44840000  0.75840000  0.89020000  1.0 0.1783191408
H  H23  1  0.74160000  0.94840000  0.39020000  1.0 0.1783191408
H  H24  1  0.25840000  0.05160000  0.39020000  1.0 0.1783191408
H  H25  1  0.55160000  0.75840000  0.39020000  1.0 0.1783191408
H  H26  1  0.25840000  0.94840000  0.89020000  1.0 0.1783191408
H  H27  1  0.44840000  0.24160000  0.39020000  1.0 0.1783191408
H  H28  1  0.74160000  0.05160000  0.89020000  1.0 0.1783191408
H  H29  1  0.94840000  0.25840000  0.60980000  1.0 0.1783191408
H  H30  1  0.05160000  0.74160000  0.60980000  1.0 0.1783191408
H  H31  1  0.75840000  0.55160000  0.10980000  1.0 0.1783191408
H  H32  1  0.24160000  0.44840000  0.10980000  1.0 0.1783191408
H  H33  1  0.88530000  0.74080000  0.05120000  1.0 0.129135896
H  H34  1  0.24080000  0.61470000  0.55120000  1.0 0.129135896
H  H35  1  0.11470000  0.25920000  0.05120000  1.0 0.129135896
H  H36  1  0.75920000  0.38530000  0.55120000  1.0 0.129135896
H  H37  1  0.61470000  0.24080000  0.94880000  1.0 0.129135896
H  H38  1  0.38530000  0.75920000  0.94880000  1.0 0.129135896
H  H39  1  0.74080000  0.88530000  0.44880000  1.0 0.129135896
H  H40  1  0.25920000  0.11470000  0.44880000  1.0 0.129135896
H  H41  1  0.61470000  0.75920000  0.44880000  1.0 0.129135896
H  H42  1  0.25920000  0.88530000  0.94880000  1.0 0.129135896
H  H43  1  0.38530000  0.24080000  0.44880000  1.0 0.129135896
H  H44  1  0.74080000  0.11470000  0.94880000  1.0 0.129135896
H  H45  1  0.88530000  0.25920000  0.55120000  1.0 0.129135896
H  H46  1  0.11470000  0.74080000  0.55120000  1.0 0.129135896
H  H47  1  0.75920000  0.61470000  0.05120000  1.0 0.129135896
H  H48  1  0.24080000  0.38530000  0.05120000  1.0 0.129135896
H  H49  1  0.07900000  0.81580000  0.17570000  1.0 0.1187153548
H  H50  1  0.31580000  0.42100000  0.67570000  1.0 0.1187153548
H  H51  1  0.92100000  0.18420000  0.17570000  1.0 0.1187153548
H  H52  1  0.68420000  0.57900000  0.67570000  1.0 0.1187153548
H  H53  1  0.42100000  0.31580000  0.82430000  1.0 0.1187153548
H  H54  1  0.57900000  0.68420000  0.82430000  1.0 0.1187153548
H  H55  1  0.81580000  0.07900000  0.32430000  1.0 0.1187153548
H  H56  1  0.18420000  0.92100000  0.32430000  1.0 0.1187153548
H  H57  1  0.42100000  0.68420000  0.32430000  1.0 0.1187153548
H  H58  1  0.18420000  0.07900000  0.82430000  1.0 0.1187153548
H  H59  1  0.57900000  0.31580000  0.32430000  1.0 0.1187153548
H  H60  1  0.81580000  0.92100000  0.82430000  1.0 0.1187153548
H  H61  1  0.07900000  0.18420000  0.67570000  1.0 0.1187153548
H  H62  1  0.92100000  0.81580000  0.67570000  1.0 0.1187153548
H  H63  1  0.68420000  0.42100000  0.17570000  1.0 0.1187153548
H  H64  1  0.31580000  0.57900000  0.17570000  1.0 0.1187153548
H  H65  1  0.08920000  0.72100000  0.01670000  1.0 0.1187153548
H  H66  1  0.22100000  0.41080000  0.51670000  1.0 0.1187153548
H  H67  1  0.91080000  0.27900000  0.01670000  1.0 0.1187153548
H  H68  1  0.77900000  0.58920000  0.51670000  1.0 0.1187153548
H  H69  1  0.41080000  0.22100000  0.98330000  1.0 0.1187153548
H  H70  1  0.58920000  0.77900000  0.98330000  1.0 0.1187153548
H  H71  1  0.72100000  0.08920000  0.48330000  1.0 0.1187153548
H  H72  1  0.27900000  0.91080000  0.48330000  1.0 0.1187153548
H  H73  1  0.41080000  0.77900000  0.48330000  1.0 0.1187153548
H  H74  1  0.27900000  0.08920000  0.98330000  1.0 0.1187153548
H  H75  1  0.58920000  0.22100000  0.48330000  1.0 0.1187153548
H  H76  1  0.72100000  0.91080000  0.98330000  1.0 0.1187153548
H  H77  1  0.08920000  0.27900000  0.51670000  1.0 0.1187153548
H  H78  1  0.91080000  0.72100000  0.51670000  1.0 0.1187153548
H  H79  1  0.77900000  0.41080000  0.01670000  1.0 0.1187153548
H  H80  1  0.22100000  0.58920000  0.01670000  1.0 0.1187153548
H  H81  1  0.02380000  0.72720000  0.97530000  1.0 0.196837613
H  H82  1  0.22720000  0.47620000  0.47530000  1.0 0.196837613
H  H83  1  0.97620000  0.27280000  0.97530000  1.0 0.196837613
H  H84  1  0.77280000  0.52380000  0.47530000  1.0 0.196837613
H  H85  1  0.47620000  0.22720000  0.02470000  1.0 0.196837613
H  H86  1  0.52380000  0.77280000  0.02470000  1.0 0.196837613
H  H87  1  0.72720000  0.02380000  0.52470000  1.0 0.196837613
H  H88  1  0.27280000  0.97620000  0.52470000  1.0 0.196837613
H  H89  1  0.47620000  0.77280000  0.52470000  1.0 0.196837613
H  H90  1  0.27280000  0.02380000  0.02470000  1.0 0.196837613
H  H91  1  0.52380000  0.22720000  0.52470000  1.0 0.196837613
H  H92  1  0.72720000  0.97620000  0.02470000  1.0 0.196837613
H  H93  1  0.02380000  0.27280000  0.47530000  1.0 0.196837613
H  H94  1  0.97620000  0.72720000  0.47530000  1.0 0.196837613
H  H95  1  0.77280000  0.47620000  0.97530000  1.0 0.196837613
H  H96  1  0.22720000  0.52380000  0.97530000  1.0 0.196837613
H  H97  1  0.98170000  0.81680000  0.91610000  1.0 0.1685441551
H  H98  1  0.31680000  0.51830000  0.41610000  1.0 0.1685441551
H  H99  1  0.01830000  0.18320000  0.91610000  1.0 0.1685441551
H  H100  1  0.68320000  0.48170000  0.41610000  1.0 0.1685441551
H  H101  1  0.51830000  0.31680000  0.08390000  1.0 0.1685441551
H  H102  1  0.48170000  0.68320000  0.08390000  1.0 0.1685441551
H  H103  1  0.81680000  0.98170000  0.58390000  1.0 0.1685441551
H  H104  1  0.18320000  0.01830000  0.58390000  1.0 0.1685441551
H  H105  1  0.51830000  0.68320000  0.58390000  1.0 0.1685441551
H  H106  1  0.18320000  0.98170000  0.08390000  1.0 0.1685441551
H  H107  1  0.48170000  0.31680000  0.58390000  1.0 0.1685441551
H  H108  1  0.81680000  0.01830000  0.08390000  1.0 0.1685441551
H  H109  1  0.98170000  0.18320000  0.41610000  1.0 0.1685441551
H  H110  1  0.01830000  0.81680000  0.41610000  1.0 0.1685441551
H  H111  1  0.68320000  0.51830000  0.91610000  1.0 0.1685441551
H  H112  1  0.31680000  0.48170000  0.91610000  1.0 0.1685441551
H  H113  1  0.01360000  0.82200000  0.13440000  1.0 0.2101357063
H  H114  1  0.32200000  0.48640000  0.63440000  1.0 0.2101357063
H  H115  1  0.98640000  0.17800000  0.13440000  1.0 0.2101357063
H  H116  1  0.67800000  0.51360000  0.63440000  1.0 0.2101357063
H  H117  1  0.48640000  0.32200000  0.86560000  1.0 0.2101357063
H  H118  1  0.51360000  0.67800000  0.86560000  1.0 0.2101357063
H  H119  1  0.82200000  0.01360000  0.36560000  1.0 0.2101357063
H  H120  1  0.17800000  0.98640000  0.36560000  1.0 0.2101357063
H  H121  1  0.48640000  0.67800000  0.36560000  1.0 0.2101357063
H  H122  1  0.17800000  0.01360000  0.86560000  1.0 0.2101357063
H  H123  1  0.51360000  0.32200000  0.36560000  1.0 0.2101357063
H  H124  1  0.82200000  0.98640000  0.86560000  1.0 0.2101357063
H  H125  1  0.01360000  0.17800000  0.63440000  1.0 0.2101357063
H  H126  1  0.98640000  0.82200000  0.63440000  1.0 0.2101357063
H  H127  1  0.67800000  0.48640000  0.13440000  1.0 0.2101357063
H  H128  1  0.32200000  0.51360000  0.13440000  1.0 0.2101357063
C  C1  1  0.85660000  0.77630000  0.90630000  1.0 0.6304688049
C  C2  1  0.27630000  0.64340000  0.40630000  1.0 0.6304688049
C  C3  1  0.14340000  0.22370000  0.90630000  1.0 0.6304688049
C  C4  1  0.72370000  0.35660000  0.40630000  1.0 0.6304688049
C  C5  1  0.64340000  0.27630000  0.09370000  1.0 0.6304688049
C  C6  1  0.35660000  0.72370000  0.09370000  1.0 0.6304688049
C  C7  1  0.77630000  0.85660000  0.59370000  1.0 0.6304688049
C  C8  1  0.22370000  0.14340000  0.59370000  1.0 0.6304688049
C  C9  1  0.64340000  0.72370000  0.59370000  1.0 0.6304688049
C  C10  1  0.22370000  0.85660000  0.09370000  1.0 0.6304688049
C  C11  1  0.35660000  0.27630000  0.59370000  1.0 0.6304688049
C  C12  1  0.77630000  0.14340000  0.09370000  1.0 0.6304688049
C  C13  1  0.85660000  0.22370000  0.40630000  1.0 0.6304688049
C  C14  1  0.14340000  0.77630000  0.40630000  1.0 0.6304688049
C  C15  1  0.72370000  0.64340000  0.90630000  1.0 0.6304688049
C  C16  1  0.27630000  0.35660000  0.90630000  1.0 0.6304688049
C  C17  1  0.89600000  0.77830000  0.94890000  1.0 -0.0008458467
C  C18  1  0.27830000  0.60400000  0.44890000  1.0 -0.0008458467
C  C19  1  0.10400000  0.22170000  0.94890000  1.0 -0.0008458467
C  C20  1  0.72170000  0.39600000  0.44890000  1.0 -0.0008458467
C  C21  1  0.60400000  0.27830000  0.05110000  1.0 -0.0008458467
C  C22  1  0.39600000  0.72170000  0.05110000  1.0 -0.0008458467
C  C23  1  0.77830000  0.89600000  0.55110000  1.0 -0.0008458467
C  C24  1  0.22170000  0.10400000  0.55110000  1.0 -0.0008458467
C  C25  1  0.60400000  0.72170000  0.55110000  1.0 -0.0008458467
C  C26  1  0.22170000  0.89600000  0.05110000  1.0 -0.0008458467
C  C27  1  0.39600000  0.27830000  0.55110000  1.0 -0.0008458467
C  C28  1  0.77830000  0.10400000  0.05110000  1.0 -0.0008458467
C  C29  1  0.89600000  0.22170000  0.44890000  1.0 -0.0008458467
C  C30  1  0.10400000  0.77830000  0.44890000  1.0 -0.0008458467
C  C31  1  0.72170000  0.60400000  0.94890000  1.0 -0.0008458467
C  C32  1  0.27830000  0.39600000  0.94890000  1.0 -0.0008458467
C  C33  1  0.92470000  0.80090000  0.90870000  1.0 -0.0696914135
C  C34  1  0.30090000  0.57530000  0.40870000  1.0 -0.0696914135
C  C35  1  0.07530000  0.19910000  0.90870000  1.0 -0.0696914135
C  C36  1  0.69910000  0.42470000  0.40870000  1.0 -0.0696914135
C  C37  1  0.57530000  0.30090000  0.09130000  1.0 -0.0696914135
C  C38  1  0.42470000  0.69910000  0.09130000  1.0 -0.0696914135
C  C39  1  0.80090000  0.92470000  0.59130000  1.0 -0.0696914135
C  C40  1  0.19910000  0.07530000  0.59130000  1.0 -0.0696914135
C  C41  1  0.57530000  0.69910000  0.59130000  1.0 -0.0696914135
C  C42  1  0.19910000  0.92470000  0.09130000  1.0 -0.0696914135
C  C43  1  0.42470000  0.30090000  0.59130000  1.0 -0.0696914135
C  C44  1  0.80090000  0.07530000  0.09130000  1.0 -0.0696914135
C  C45  1  0.92470000  0.19910000  0.40870000  1.0 -0.0696914135
C  C46  1  0.07530000  0.80090000  0.40870000  1.0 -0.0696914135
C  C47  1  0.69910000  0.57530000  0.90870000  1.0 -0.0696914135
C  C48  1  0.30090000  0.42470000  0.90870000  1.0 -0.0696914135
C  C49  1  0.96220000  0.80130000  0.94350000  1.0 -0.1529936772
C  C50  1  0.30130000  0.53780000  0.44350000  1.0 -0.1529936772
C  C51  1  0.03780000  0.19870000  0.94350000  1.0 -0.1619250885
C  C52  1  0.69870000  0.46220000  0.44350000  1.0 -0.1529936772
C  C53  1  0.53780000  0.30130000  0.05650000  1.0 -0.1529936772
C  C54  1  0.46220000  0.69870000  0.05650000  1.0 -0.1529936772
C  C55  1  0.80130000  0.96220000  0.55650000  1.0 -0.1529936772
C  C56  1  0.19870000  0.03780000  0.55650000  1.0 -0.1529936772
C  C57  1  0.53780000  0.69870000  0.55650000  1.0 -0.1529936772
C  C58  1  0.19870000  0.96220000  0.05650000  1.0 -0.1529936772
C  C59  1  0.46220000  0.30130000  0.55650000  1.0 -0.1529936772
C  C60  1  0.80130000  0.03780000  0.05650000  1.0 -0.1529936772
C  C61  1  0.96220000  0.19870000  0.44350000  1.0 -0.1529936772
C  C62  1  0.03780000  0.80130000  0.44350000  1.0 -0.1529936772
C  C63  1  0.69870000  0.53780000  0.94350000  1.0 -0.1529936772
C  C64  1  0.30130000  0.46220000  0.94350000  1.0 -0.1529936772
C  C65  1  0.97100000  0.77930000  0.01840000  1.0 0.0081338732
C  C66  1  0.27930000  0.52900000  0.51840000  1.0 0.0081338732
C  C67  1  0.02900000  0.22070000  0.01840000  1.0 0.0081338732
C  C68  1  0.72070000  0.47100000  0.51840000  1.0 0.0081338732
C  C69  1  0.52900000  0.27930000  0.98160000  1.0 0.0081338732
C  C70  1  0.47100000  0.72070000  0.98160000  1.0 0.0081338732
C  C71  1  0.77930000  0.97100000  0.48160000  1.0 0.0081338732
C  C72  1  0.22070000  0.02900000  0.48160000  1.0 0.0081338732
C  C73  1  0.52900000  0.72070000  0.48160000  1.0 0.0081338732
C  C74  1  0.22070000  0.97100000  0.98160000  1.0 0.0081338732
C  C75  1  0.47100000  0.27930000  0.48160000  1.0 0.0081338732
C  C76  1  0.77930000  0.02900000  0.98160000  1.0 0.0081338732
C  C77  1  0.97100000  0.22070000  0.51840000  1.0 0.0081338732
C  C78  1  0.02900000  0.77930000  0.51840000  1.0 0.0081338732
C  C79  1  0.72070000  0.52900000  0.01840000  1.0 0.0081338732
C  C80  1  0.27930000  0.47100000  0.01840000  1.0 0.0081338732
C  C81  1  0.94240000  0.75670000  0.05860000  1.0 -0.1529936772
C  C82  1  0.25670000  0.55760000  0.55860000  1.0 -0.1529936772
C  C83  1  0.05760000  0.24330000  0.05860000  1.0 -0.1529936772
C  C84  1  0.74330000  0.44240000  0.55860000  1.0 -0.1529936772
C  C85  1  0.55760000  0.25670000  0.94140000  1.0 -0.1529936772
C  C86  1  0.44240000  0.74330000  0.94140000  1.0 -0.1529936772
C  C87  1  0.75670000  0.94240000  0.44140000  1.0 -0.1529936772
C  C88  1  0.24330000  0.05760000  0.44140000  1.0 -0.1529936772
C  C89  1  0.55760000  0.74330000  0.44140000  1.0 -0.1529936772
C  C90  1  0.24330000  0.94240000  0.94140000  1.0 -0.1529936772
C  C91  1  0.44240000  0.25670000  0.44140000  1.0 -0.1529936772
C  C92  1  0.75670000  0.05760000  0.94140000  1.0 -0.1529936772
C  C93  1  0.94240000  0.24330000  0.55860000  1.0 -0.1529936772
C  C94  1  0.05760000  0.75670000  0.55860000  1.0 -0.1529936772
C  C95  1  0.74330000  0.55760000  0.05860000  1.0 -0.1529936772
C  C96  1  0.25670000  0.44240000  0.05860000  1.0 -0.1529936772
C  C97  1  0.90490000  0.75620000  0.02380000  1.0 -0.0696914135
C  C98  1  0.25620000  0.59510000  0.52380000  1.0 -0.0582993994
C  C99  1  0.09510000  0.24380000  0.02380000  1.0 -0.0696914135
C  C100  1  0.74380000  0.40490000  0.52380000  1.0 -0.0582993994
C  C101  1  0.59510000  0.25620000  0.97620000  1.0 -0.0696914135
C  C102  1  0.40490000  0.74380000  0.97620000  1.0 -0.0696914135
C  C103  1  0.75620000  0.90490000  0.47620000  1.0 -0.0696914135
C  C104  1  0.24380000  0.09510000  0.47620000  1.0 -0.0696914135
C  C105  1  0.59510000  0.74380000  0.47620000  1.0 -0.0696914135
C  C106  1  0.24380000  0.90490000  0.97620000  1.0 -0.0696914135
C  C107  1  0.40490000  0.25620000  0.47620000  1.0 -0.0696914135
C  C108  1  0.75620000  0.09510000  0.97620000  1.0 -0.0696914135
C  C109  1  0.90490000  0.24380000  0.52380000  1.0 -0.0582993994
C  C110  1  0.09510000  0.75620000  0.52380000  1.0 -0.0582993994
C  C111  1  0.74380000  0.59510000  0.02380000  1.0 -0.0696914135
C  C112  1  0.25620000  0.40490000  0.02380000  1.0 -0.0696914135
C  C113  1  0.99230000  0.82690000  0.89600000  1.0 0.3941019025
C  C114  1  0.32690000  0.50770000  0.39600000  1.0 0.3941019025
C  C115  1  0.00770000  0.17310000  0.89600000  1.0 0.3941019025
C  C116  1  0.67310000  0.49230000  0.39600000  1.0 0.3941019025
C  C117  1  0.50770000  0.32690000  0.10400000  1.0 0.3941019025
C  C118  1  0.49230000  0.67310000  0.10400000  1.0 0.3941019025
C  C119  1  0.82690000  0.99230000  0.60400000  1.0 0.3941019025
C  C120  1  0.17310000  0.00770000  0.60400000  1.0 0.3941019025
C  C121  1  0.50770000  0.67310000  0.60400000  1.0 0.3941019025
C  C122  1  0.17310000  0.99230000  0.10400000  1.0 0.3941019025
C  C123  1  0.49230000  0.32690000  0.60400000  1.0 0.3941019025
C  C124  1  0.82690000  0.00770000  0.10400000  1.0 0.3941019025
C  C125  1  0.99230000  0.17310000  0.39600000  1.0 0.3941019025
C  C126  1  0.00770000  0.82690000  0.39600000  1.0 0.3941019025
C  C127  1  0.67310000  0.50770000  0.89600000  1.0 0.3941019025
C  C128  1  0.32690000  0.49230000  0.89600000  1.0 0.3941019025
C  C129  1  0.01260000  0.77520000  0.05100000  1.0 0.0601285093
C  C130  1  0.27520000  0.48740000  0.55100000  1.0 0.0601285093
C  C131  1  0.98740000  0.22480000  0.05100000  1.0 0.0601285093
C  C132  1  0.72480000  0.51260000  0.55100000  1.0 0.0601285093
C  C133  1  0.48740000  0.27520000  0.94900000  1.0 0.0601285093
C  C134  1  0.51260000  0.72480000  0.94900000  1.0 0.0601285093
C  C135  1  0.77520000  0.01260000  0.44900000  1.0 0.0601285093
C  C136  1  0.22480000  0.98740000  0.44900000  1.0 0.0601285093
C  C137  1  0.48740000  0.72480000  0.44900000  1.0 0.0601285093
C  C138  1  0.22480000  0.01260000  0.94900000  1.0 0.0601285093
C  C139  1  0.51260000  0.27520000  0.44900000  1.0 0.0601285093
C  C140  1  0.77520000  0.98740000  0.94900000  1.0 0.0601285093
C  C141  1  0.01260000  0.22480000  0.55100000  1.0 0.0601285093
C  C142  1  0.98740000  0.77520000  0.55100000  1.0 0.0601285093
C  C143  1  0.72480000  0.48740000  0.05100000  1.0 0.0601285093
C  C144  1  0.27520000  0.51260000  0.05100000  1.0 0.0601285093
C  C145  1  0.02900000  0.80150000  0.11050000  1.0 -0.2235958925
C  C146  1  0.30150000  0.47100000  0.61050000  1.0 -0.2235958925
C  C147  1  0.97100000  0.19850000  0.11050000  1.0 -0.2235958925
C  C148  1  0.69850000  0.52900000  0.61050000  1.0 -0.2235958925
C  C149  1  0.47100000  0.30150000  0.88950000  1.0 -0.2235958925
C  C150  1  0.52900000  0.69850000  0.88950000  1.0 -0.2235958925
C  C151  1  0.80150000  0.02900000  0.38950000  1.0 -0.2235958925
C  C152  1  0.19850000  0.97100000  0.38950000  1.0 -0.2235958925
C  C153  1  0.47100000  0.69850000  0.38950000  1.0 -0.2235958925
C  C154  1  0.19850000  0.02900000  0.88950000  1.0 -0.2235958925
C  C155  1  0.52900000  0.30150000  0.38950000  1.0 -0.2235958925
C  C156  1  0.80150000  0.97100000  0.88950000  1.0 -0.2235958925
C  C157  1  0.02900000  0.19850000  0.61050000  1.0 -0.2235958925
C  C158  1  0.97100000  0.80150000  0.61050000  1.0 -0.2235958925
C  C159  1  0.69850000  0.47100000  0.11050000  1.0 -0.2235958925
C  C160  1  0.30150000  0.52900000  0.11050000  1.0 -0.2235958925
C  C161  1  0.06780000  0.79780000  0.13510000  1.0 -0.0434543527
C  C162  1  0.29780000  0.43220000  0.63510000  1.0 -0.0434543527
C  C163  1  0.93220000  0.20220000  0.13510000  1.0 -0.0434543527
C  C164  1  0.70220000  0.56780000  0.63510000  1.0 -0.0434543527
C  C165  1  0.43220000  0.29780000  0.86490000  1.0 -0.0434543527
C  C166  1  0.56780000  0.70220000  0.86490000  1.0 -0.0434543527
C  C167  1  0.79780000  0.06780000  0.36490000  1.0 -0.0434543527
C  C168  1  0.20220000  0.93220000  0.36490000  1.0 -0.0434543527
C  C169  1  0.43220000  0.70220000  0.36490000  1.0 -0.0434543527
C  C170  1  0.20220000  0.06780000  0.86490000  1.0 -0.0434543527
C  C171  1  0.56780000  0.29780000  0.36490000  1.0 -0.0434543527
C  C172  1  0.79780000  0.93220000  0.86490000  1.0 -0.0434543527
C  C173  1  0.06780000  0.20220000  0.63510000  1.0 -0.0434543527
C  C174  1  0.93220000  0.79780000  0.63510000  1.0 -0.0434543527
C  C175  1  0.70220000  0.43220000  0.13510000  1.0 -0.0434543527
C  C176  1  0.29780000  0.56780000  0.13510000  1.0 -0.0434543527
C  C177  1  0.09020000  0.76780000  0.10010000  1.0 -0.0214653893
C  C178  1  0.26780000  0.40980000  0.60010000  1.0 -0.0214653893
C  C179  1  0.90980000  0.23220000  0.10010000  1.0 -0.0214653893
C  C180  1  0.73220000  0.59020000  0.60010000  1.0 -0.0214653893
C  C181  1  0.40980000  0.26780000  0.89990000  1.0 -0.0214653893
C  C182  1  0.59020000  0.73220000  0.89990000  1.0 -0.0214653893
C  C183  1  0.76780000  0.09020000  0.39990000  1.0 -0.0214653893
C  C184  1  0.23220000  0.90980000  0.39990000  1.0 -0.0214653893
C  C185  1  0.40980000  0.73220000  0.39990000  1.0 -0.0214653893
C  C186  1  0.23220000  0.09020000  0.89990000  1.0 -0.0214653893
C  C187  1  0.59020000  0.26780000  0.39990000  1.0 -0.0214653893
C  C188  1  0.76780000  0.90980000  0.89990000  1.0 -0.0214653893
C  C189  1  0.09020000  0.23220000  0.60010000  1.0 -0.0214653893
C  C190  1  0.90980000  0.76780000  0.60010000  1.0 -0.0214653893
C  C191  1  0.73220000  0.40980000  0.10010000  1.0 -0.0214653893
C  C192  1  0.26780000  0.59020000  0.10010000  1.0 -0.0214653893
C  C193  1  0.07380000  0.74150000  0.04060000  1.0 -0.0582993994
C  C194  1  0.24150000  0.42620000  0.54060000  1.0 -0.0582993994
C  C195  1  0.92620000  0.25850000  0.04060000  1.0 -0.0582993994
C  C196  1  0.75850000  0.57380000  0.54060000  1.0 -0.0582993994
C  C197  1  0.42620000  0.24150000  0.95940000  1.0 -0.0582993994
C  C198  1  0.57380000  0.75850000  0.95940000  1.0 -0.0582993994
C  C199  1  0.74150000  0.07380000  0.45940000  1.0 -0.0582993994
C  C200  1  0.25850000  0.92620000  0.45940000  1.0 -0.0582993994
C  C201  1  0.42620000  0.75850000  0.45940000  1.0 -0.0582993994
C  C202  1  0.25850000  0.07380000  0.95940000  1.0 -0.0582993994
C  C203  1  0.57380000  0.24150000  0.45940000  1.0 -0.0582993994
C  C204  1  0.74150000  0.92620000  0.95940000  1.0 -0.0582993994
C  C205  1  0.07380000  0.25850000  0.54060000  1.0 -0.0582993994
C  C206  1  0.92620000  0.74150000  0.54060000  1.0 -0.0582993994
C  C207  1  0.75850000  0.42620000  0.04060000  1.0 -0.0582993994
C  C208  1  0.24150000  0.57380000  0.04060000  1.0 -0.0582993994
C  C209  1  0.03500000  0.74520000  0.01600000  1.0 -0.196789171
C  C210  1  0.24520000  0.46500000  0.51600000  1.0 -0.196789171
C  C211  1  0.96500000  0.25480000  0.01600000  1.0 -0.196789171
C  C212  1  0.75480000  0.53500000  0.51600000  1.0 -0.196789171
C  C213  1  0.46500000  0.24520000  0.98400000  1.0 -0.196789171
C  C214  1  0.53500000  0.75480000  0.98400000  1.0 -0.196789171
C  C215  1  0.74520000  0.03500000  0.48400000  1.0 -0.196789171
C  C216  1  0.25480000  0.96500000  0.48400000  1.0 -0.196789171
C  C217  1  0.46500000  0.75480000  0.48400000  1.0 -0.196789171
C  C218  1  0.25480000  0.03500000  0.98400000  1.0 -0.196789171
C  C219  1  0.53500000  0.24520000  0.48400000  1.0 -0.196789171
C  C220  1  0.74520000  0.96500000  0.98400000  1.0 -0.196789171
C  C221  1  0.03500000  0.25480000  0.51600000  1.0 -0.196789171
C  C222  1  0.96500000  0.74520000  0.51600000  1.0 -0.196789171
C  C223  1  0.75480000  0.46500000  0.01600000  1.0 -0.196789171
C  C224  1  0.24520000  0.53500000  0.01600000  1.0 -0.196789171
C  C225  1  0.00770000  0.83330000  0.14350000  1.0 0.4532548828
C  C226  1  0.33333333  0.49230000  0.64350000  1.0 0.4532548828
C  C227  1  0.99230000  0.16670000  0.14350000  1.0 0.4532548828
C  C228  1  0.66666667  0.50770000  0.64350000  1.0 0.4532548828
C  C229  1  0.49230000  0.33333333  0.85650000  1.0 0.4532548828
C  C230  1  0.50770000  0.66666667  0.85650000  1.0 0.4532548828
C  C231  1  0.83330000  0.00770000  0.35650000  1.0 0.4555456681
C  C232  1  0.16670000  0.99230000  0.35650000  1.0 0.4555456681
C  C233  1  0.49230000  0.66666667  0.35650000  1.0 0.4532548828
C  C234  1  0.16670000  0.00770000  0.85650000  1.0 0.4532548828
C  C235  1  0.50770000  0.33333333  0.35650000  1.0 0.4532548828
C  C236  1  0.83330000  0.99230000  0.85650000  1.0 0.4555456681
C  C237  1  0.00770000  0.16670000  0.64350000  1.0 0.4532548828
C  C238  1  0.99230000  0.83330000  0.64350000  1.0 0.4555456681
C  C239  1  0.66666667  0.49230000  0.14350000  1.0 0.4532548828
C  C240  1  0.33333333  0.50770000  0.14350000  1.0 0.4532548828
C  C241  1  0.13150000  0.76540000  0.13260000  1.0 0.6304688049
C  C242  1  0.26540000  0.36850000  0.63260000  1.0 0.6304688049
C  C243  1  0.86850000  0.23460000  0.13260000  1.0 0.6304688049
C  C244  1  0.73460000  0.63150000  0.63260000  1.0 0.6304688049
C  C245  1  0.36850000  0.26540000  0.86740000  1.0 0.6304688049
C  C246  1  0.63150000  0.73460000  0.86740000  1.0 0.6304688049
C  C247  1  0.76540000  0.13150000  0.36740000  1.0 0.6304688049
C  C248  1  0.23460000  0.86850000  0.36740000  1.0 0.6304688049
C  C249  1  0.36850000  0.73460000  0.36740000  1.0 0.6304688049
C  C250  1  0.23460000  0.13150000  0.86740000  1.0 0.6304688049
C  C251  1  0.63150000  0.26540000  0.36740000  1.0 0.6304688049
C  C252  1  0.76540000  0.86850000  0.86740000  1.0 0.6304688049
C  C253  1  0.13150000  0.23460000  0.63260000  1.0 0.6304688049
C  C254  1  0.86850000  0.76540000  0.63260000  1.0 0.6304688049
C  C255  1  0.73460000  0.36850000  0.13260000  1.0 0.6304688049
C  C256  1  0.26540000  0.63150000  0.13260000  1.0 0.6304688049
C  C257  1  0.78530000  0.71470000  0.08760000  1.0 0.6599169937
C  C258  1  0.21470000  0.71470000  0.58760000  1.0 0.6599169937
C  C259  1  0.21470000  0.28530000  0.08760000  1.0 0.6599169937
C  C260  1  0.78530000  0.28530000  0.58760000  1.0 0.6599169937
C  C261  1  0.71470000  0.21470000  0.91240000  1.0 0.6599169937
C  C262  1  0.28530000  0.78530000  0.91240000  1.0 0.6599169937
C  C263  1  0.71470000  0.78530000  0.41240000  1.0 0.6599169937
C  C264  1  0.28530000  0.21470000  0.41240000  1.0 0.6599169937
C  C265  1  0.77030000  0.72970000  0.17500000  1.0 -0.1735425135
C  C266  1  0.22970000  0.72970000  0.67500000  1.0 -0.1828791531
C  C267  1  0.22970000  0.27030000  0.17500000  1.0 -0.1735425135
C  C268  1  0.77030000  0.27030000  0.67500000  1.0 -0.1828791531
C  C269  1  0.72970000  0.22970000  0.82500000  1.0 -0.1735425135
C  C270  1  0.27030000  0.77030000  0.82500000  1.0 -0.1735425135
C  C271  1  0.72970000  0.77030000  0.32500000  1.0 -0.1828791531
C  C272  1  0.27030000  0.22970000  0.32500000  1.0 -0.1828791531
C  C273  1  0.73600000  0.71730000  0.21490000  1.0 0.1584238341
C  C274  1  0.21730000  0.76400000  0.71490000  1.0 0.1584238341
C  C275  1  0.26400000  0.28270000  0.21490000  1.0 0.1584238341
C  C276  1  0.78270000  0.23600000  0.71490000  1.0 0.1584238341
C  C277  1  0.76400000  0.21730000  0.78510000  1.0 0.1584238341
C  C278  1  0.23600000  0.78270000  0.78510000  1.0 0.1584238341
C  C279  1  0.71730000  0.73600000  0.28510000  1.0 0.1584238341
C  C280  1  0.28270000  0.26400000  0.28510000  1.0 0.1584238341
C  C281  1  0.76400000  0.78270000  0.28510000  1.0 0.1584238341
C  C282  1  0.28270000  0.73600000  0.78510000  1.0 0.1584238341
C  C283  1  0.23600000  0.21730000  0.28510000  1.0 0.1584238341
C  C284  1  0.71730000  0.26400000  0.78510000  1.0 0.1584238341
C  C285  1  0.73600000  0.28270000  0.71490000  1.0 0.1584238341
C  C286  1  0.26400000  0.71730000  0.71490000  1.0 0.1584238341
C  C287  1  0.78270000  0.76400000  0.21490000  1.0 0.1584238341
C  C288  1  0.21730000  0.23600000  0.21490000  1.0 0.1584238341
C  C289  1  0.95060000  0.73170000  0.14100000  1.0 0.4088725062
C  C290  1  0.23170000  0.54940000  0.64100000  1.0 0.4088725062
C  C291  1  0.04940000  0.26830000  0.14100000  1.0 0.4088725062
C  C292  1  0.76830000  0.45060000  0.64100000  1.0 0.4088725062
C  C293  1  0.54940000  0.23170000  0.85900000  1.0 0.4088725062
C  C294  1  0.45060000  0.76830000  0.85900000  1.0 0.4088725062
C  C295  1  0.73170000  0.95060000  0.35900000  1.0 0.4088725062
C  C296  1  0.26830000  0.04940000  0.35900000  1.0 0.4088725062
C  C297  1  0.54940000  0.76830000  0.35900000  1.0 0.4088725062
C  C298  1  0.26830000  0.95060000  0.85900000  1.0 0.4088725062
C  C299  1  0.45060000  0.23170000  0.35900000  1.0 0.4088725062
C  C300  1  0.73170000  0.04940000  0.85900000  1.0 0.4088725062
C  C301  1  0.95060000  0.26830000  0.64100000  1.0 0.4088725062
C  C302  1  0.04940000  0.73170000  0.64100000  1.0 0.4088725062
C  C303  1  0.76830000  0.54940000  0.14100000  1.0 0.4088725062
C  C304  1  0.23170000  0.45060000  0.14100000  1.0 0.4088725062
C  C305  1  0.02140000  0.72340000  0.94300000  1.0 0.3941019025
C  C306  1  0.22340000  0.47860000  0.44300000  1.0 0.3941019025
C  C307  1  0.97860000  0.27660000  0.94300000  1.0 0.3941019025
C  C308  1  0.77660000  0.52140000  0.44300000  1.0 0.3941019025
C  C309  1  0.47860000  0.22340000  0.05700000  1.0 0.3941019025
C  C310  1  0.52140000  0.77660000  0.05700000  1.0 0.3941019025
C  C311  1  0.72340000  0.02140000  0.55700000  1.0 0.3941019025
C  C312  1  0.27660000  0.97860000  0.55700000  1.0 0.3941019025
C  C313  1  0.47860000  0.77660000  0.55700000  1.0 0.3941019025
C  C314  1  0.27660000  0.02140000  0.05700000  1.0 0.3941019025
C  C315  1  0.52140000  0.22340000  0.55700000  1.0 0.3941019025
C  C316  1  0.72340000  0.97860000  0.05700000  1.0 0.3941019025
C  C317  1  0.02140000  0.27660000  0.44300000  1.0 0.3941019025
C  C318  1  0.97860000  0.72340000  0.44300000  1.0 0.3941019025
C  C319  1  0.77660000  0.47860000  0.94300000  1.0 0.3941019025
C  C320  1  0.22340000  0.52140000  0.94300000  1.0 0.3941019025
O  O1  1  0.83530000  0.74770000  0.93550000  1.0 -0.6005465793
O  O2  1  0.24770000  0.66470000  0.43550000  1.0 -0.6005465793
O  O3  1  0.16470000  0.25230000  0.93550000  1.0 -0.6005465793
O  O4  1  0.75230000  0.33530000  0.43550000  1.0 -0.6005465793
O  O5  1  0.66470000  0.24770000  0.06450000  1.0 -0.6005465793
O  O6  1  0.33530000  0.75230000  0.06450000  1.0 -0.6005465793
O  O7  1  0.74770000  0.83530000  0.56450000  1.0 -0.6005465793
O  O8  1  0.25230000  0.16470000  0.56450000  1.0 -0.6005465793
O  O9  1  0.66470000  0.75230000  0.56450000  1.0 -0.6005465793
O  O10  1  0.25230000  0.83530000  0.06450000  1.0 -0.6005465793
O  O11  1  0.33530000  0.24770000  0.56450000  1.0 -0.6005465793
O  O12  1  0.74770000  0.16470000  0.06450000  1.0 -0.6005465793
O  O13  1  0.83530000  0.25230000  0.43550000  1.0 -0.6005465793
O  O14  1  0.16470000  0.74770000  0.43550000  1.0 -0.6005465793
O  O15  1  0.75230000  0.66470000  0.93550000  1.0 -0.6005465793
O  O16  1  0.24770000  0.33530000  0.93550000  1.0 -0.6005465793
O  O17  1  0.84790000  0.80030000  0.85270000  1.0 -0.529546428
O  O18  1  0.30030000  0.65210000  0.35270000  1.0 -0.529546428
O  O19  1  0.15210000  0.19970000  0.85270000  1.0 -0.529546428
O  O20  1  0.69970000  0.34790000  0.35270000  1.0 -0.529546428
O  O21  1  0.65210000  0.30030000  0.14730000  1.0 -0.529546428
O  O22  1  0.34790000  0.69970000  0.14730000  1.0 -0.529546428
O  O23  1  0.80030000  0.84790000  0.64730000  1.0 -0.529546428
O  O24  1  0.19970000  0.15210000  0.64730000  1.0 -0.529546428
O  O25  1  0.65210000  0.69970000  0.64730000  1.0 -0.529546428
O  O26  1  0.19970000  0.84790000  0.14730000  1.0 -0.529546428
O  O27  1  0.34790000  0.30030000  0.64730000  1.0 -0.529546428
O  O28  1  0.80030000  0.15210000  0.14730000  1.0 -0.529546428
O  O29  1  0.84790000  0.19970000  0.35270000  1.0 -0.529546428
O  O30  1  0.15210000  0.80030000  0.35270000  1.0 -0.529546428
O  O31  1  0.69970000  0.65210000  0.85270000  1.0 -0.529546428
O  O32  1  0.30030000  0.34790000  0.85270000  1.0 -0.529546428
O  O33  1  0.15020000  0.73420000  0.11040000  1.0 -0.6171095142
O  O34  1  0.23420000  0.34980000  0.61040000  1.0 -0.6171095142
O  O35  1  0.84980000  0.26580000  0.11040000  1.0 -0.6171095142
O  O36  1  0.76580000  0.65020000  0.61040000  1.0 -0.6171095142
O  O37  1  0.34980000  0.23420000  0.88960000  1.0 -0.6171095142
O  O38  1  0.65020000  0.76580000  0.88960000  1.0 -0.6171095142
O  O39  1  0.73420000  0.15020000  0.38960000  1.0 -0.6171095142
O  O40  1  0.26580000  0.84980000  0.38960000  1.0 -0.6171095142
O  O41  1  0.34980000  0.76580000  0.38960000  1.0 -0.6171095142
O  O42  1  0.26580000  0.15020000  0.88960000  1.0 -0.6171095142
O  O43  1  0.65020000  0.23420000  0.38960000  1.0 -0.6171095142
O  O44  1  0.73420000  0.84980000  0.88960000  1.0 -0.6171095142
O  O45  1  0.15020000  0.26580000  0.61040000  1.0 -0.6171095142
O  O46  1  0.84980000  0.73420000  0.61040000  1.0 -0.6171095142
O  O47  1  0.76580000  0.34980000  0.11040000  1.0 -0.6171095142
O  O48  1  0.23420000  0.65020000  0.11040000  1.0 -0.6171095142
O  O49  1  0.14510000  0.79260000  0.16940000  1.0 -0.5158947515
O  O50  1  0.29260000  0.35490000  0.66940000  1.0 -0.5158947515
O  O51  1  0.85490000  0.20740000  0.16940000  1.0 -0.5158947515
O  O52  1  0.70740000  0.64510000  0.66940000  1.0 -0.5158947515
O  O53  1  0.35490000  0.29260000  0.83060000  1.0 -0.5158947515
O  O54  1  0.64510000  0.70740000  0.83060000  1.0 -0.5158947515
O  O55  1  0.79260000  0.14510000  0.33060000  1.0 -0.5158947515
O  O56  1  0.20740000  0.85490000  0.33060000  1.0 -0.5158947515
O  O57  1  0.35490000  0.70740000  0.33060000  1.0 -0.5158947515
O  O58  1  0.20740000  0.14510000  0.83060000  1.0 -0.5158947515
O  O59  1  0.64510000  0.29260000  0.33060000  1.0 -0.5158947515
O  O60  1  0.79260000  0.85490000  0.83060000  1.0 -0.5158947515
O  O61  1  0.14510000  0.20740000  0.66940000  1.0 -0.5158947515
O  O62  1  0.85490000  0.79260000  0.66940000  1.0 -0.5158947515
O  O63  1  0.70740000  0.35490000  0.16940000  1.0 -0.5158947515
O  O64  1  0.29260000  0.64510000  0.16940000  1.0 -0.5158947515
O  O65  1  0.77330000  0.72670000  0.02190000  1.0 -0.529546428
O  O66  1  0.22670000  0.72670000  0.52190000  1.0 -0.529546428
O  O67  1  0.22670000  0.27330000  0.02190000  1.0 -0.529546428
O  O68  1  0.77330000  0.27330000  0.52190000  1.0 -0.529546428
O  O69  1  0.72670000  0.22670000  0.97810000  1.0 -0.529546428
O  O70  1  0.27330000  0.77330000  0.97810000  1.0 -0.529546428
O  O71  1  0.72670000  0.77330000  0.47810000  1.0 -0.529546428
O  O72  1  0.27330000  0.22670000  0.47810000  1.0 -0.529546428
O  O73  1  0.81190000  0.68810000  0.10500000  1.0 -0.497659448
O  O74  1  0.18810000  0.68810000  0.60500000  1.0 -0.497659448
O  O75  1  0.18810000  0.31190000  0.10500000  1.0 -0.497659448
O  O76  1  0.81190000  0.31190000  0.60500000  1.0 -0.497659448
O  O77  1  0.68810000  0.18810000  0.89500000  1.0 -0.497659448
O  O78  1  0.31190000  0.81190000  0.89500000  1.0 -0.497659448
O  O79  1  0.68810000  0.81190000  0.39500000  1.0 -0.497659448
O  O80  1  0.31190000  0.18810000  0.39500000  1.0 -0.497659448
O  O81  1  0.77010000  0.78020000  0.86750000  1.0 -1.1223174397
O  O82  1  0.28020000  0.72990000  0.36750000  1.0 -1.1223174397
O  O83  1  0.22990000  0.21980000  0.86750000  1.0 -1.1264400291
O  O84  1  0.71980000  0.27010000  0.36750000  1.0 -1.1223174397
O  O85  1  0.72990000  0.28020000  0.13250000  1.0 -1.1223174397
O  O86  1  0.27010000  0.71980000  0.13250000  1.0 -1.1223174397
O  O87  1  0.78020000  0.77010000  0.63250000  1.0 -1.1223174397
O  O88  1  0.21980000  0.22990000  0.63250000  1.0 -1.1223174397
O  O89  1  0.72990000  0.71980000  0.63250000  1.0 -1.1223174397
O  O90  1  0.21980000  0.77010000  0.13250000  1.0 -1.1223174397
O  O91  1  0.27010000  0.28020000  0.63250000  1.0 -1.1223174397
O  O92  1  0.78020000  0.22990000  0.13250000  1.0 -1.1223174397
O  O93  1  0.77010000  0.21980000  0.36750000  1.0 -1.1223174397
O  O94  1  0.22990000  0.78020000  0.36750000  1.0 -1.1223174397
O  O95  1  0.71980000  0.72990000  0.86750000  1.0 -1.1223174397
O  O96  1  0.28020000  0.27010000  0.86750000  1.0 -1.1264400291
O  O97  1  0.76150000  0.68930000  0.76680000  1.0 -1.1785805374
O  O98  1  0.18930000  0.73850000  0.26680000  1.0 -1.1785805374
O  O99  1  0.23850000  0.31070000  0.76680000  1.0 -1.1785805374
O  O100  1  0.81070000  0.26150000  0.26680000  1.0 -1.1785805374
O  O101  1  0.73850000  0.18930000  0.23320000  1.0 -1.1785805374
O  O102  1  0.26150000  0.81070000  0.23320000  1.0 -1.1785805374
O  O103  1  0.68930000  0.76150000  0.73320000  1.0 -1.1746216821
O  O104  1  0.31070000  0.23850000  0.73320000  1.0 -1.1785805374
O  O105  1  0.73850000  0.81070000  0.73320000  1.0 -1.1746216821
O  O106  1  0.31070000  0.76150000  0.23320000  1.0 -1.1785805374
O  O107  1  0.26150000  0.18930000  0.73320000  1.0 -1.1785805374
O  O108  1  0.68930000  0.23850000  0.23320000  1.0 -1.1785805374
O  O109  1  0.76150000  0.31070000  0.26680000  1.0 -1.1785805374
O  O110  1  0.23850000  0.68930000  0.26680000  1.0 -1.1785805374
O  O111  1  0.81070000  0.73850000  0.76680000  1.0 -1.1785805374
O  O112  1  0.18930000  0.26150000  0.76680000  1.0 -1.1785805374
F  F1  1  0.97480000  0.85380000  0.84200000  1.0 -0.1529936772
F  F2  1  0.35380000  0.52520000  0.34200000  1.0 -0.1529936772
F  F3  1  0.02520000  0.14620000  0.84200000  1.0 -0.1529936772
F  F4  1  0.64620000  0.47480000  0.34200000  1.0 -0.1529936772
F  F5  1  0.52520000  0.35380000  0.15800000  1.0 -0.1529936772
F  F6  1  0.47480000  0.64620000  0.15800000  1.0 -0.1529936772
F  F7  1  0.85380000  0.97480000  0.65800000  1.0 -0.1529936772
F  F8  1  0.14620000  0.02520000  0.65800000  1.0 -0.1529936772
F  F9  1  0.52520000  0.64620000  0.65800000  1.0 -0.1529936772
F  F10  1  0.14620000  0.97480000  0.15800000  1.0 -0.1529936772
F  F11  1  0.47480000  0.35380000  0.65800000  1.0 -0.1529936772
F  F12  1  0.85380000  0.02520000  0.15800000  1.0 -0.1529936772
F  F13  1  0.97480000  0.14620000  0.34200000  1.0 -0.1529936772
F  F14  1  0.02520000  0.85380000  0.34200000  1.0 -0.1529936772
F  F15  1  0.64620000  0.52520000  0.84200000  1.0 -0.1529936772
F  F16  1  0.35380000  0.47480000  0.84200000  1.0 -0.1529936772
F  F17  1  0.01480000  0.84770000  0.95200000  1.0 -0.1828791531
F  F18  1  0.34770000  0.48520000  0.45200000  1.0 -0.1828791531
F  F19  1  0.98520000  0.15230000  0.95200000  1.0 -0.1828791531
F  F20  1  0.65230000  0.51480000  0.45200000  1.0 -0.1828791531
F  F21  1  0.48520000  0.34770000  0.04800000  1.0 -0.1828791531
F  F22  1  0.51480000  0.65230000  0.04800000  1.0 -0.1828791531
F  F23  1  0.84770000  0.01480000  0.54800000  1.0 -0.1828791531
F  F24  1  0.15230000  0.98520000  0.54800000  1.0 -0.1828791531
F  F25  1  0.48520000  0.65230000  0.54800000  1.0 -0.1828791531
F  F26  1  0.15230000  0.01480000  0.04800000  1.0 -0.1828791531
F  F27  1  0.51480000  0.34770000  0.54800000  1.0 -0.1828791531
F  F28  1  0.84770000  0.98520000  0.04800000  1.0 -0.1828791531
F  F29  1  0.01480000  0.15230000  0.45200000  1.0 -0.1828791531
F  F30  1  0.98520000  0.84770000  0.45200000  1.0 -0.1828791531
F  F31  1  0.65230000  0.48520000  0.95200000  1.0 -0.1828791531
F  F32  1  0.34770000  0.51480000  0.95200000  1.0 -0.1828791531
F  F33  1  0.01610000  0.80670000  0.84200000  1.0 -0.2336267474
F  F34  1  0.30670000  0.48390000  0.34200000  1.0 -0.2336267474
F  F35  1  0.98390000  0.19330000  0.84200000  1.0 -0.2336267474
F  F36  1  0.69330000  0.51610000  0.34200000  1.0 -0.2336267474
F  F37  1  0.48390000  0.30670000  0.15800000  1.0 -0.2336267474
F  F38  1  0.51610000  0.69330000  0.15800000  1.0 -0.2336267474
F  F39  1  0.80670000  0.01610000  0.65800000  1.0 -0.2336267474
F  F40  1  0.19330000  0.98390000  0.65800000  1.0 -0.2336267474
F  F41  1  0.48390000  0.69330000  0.65800000  1.0 -0.2336267474
F  F42  1  0.19330000  0.01610000  0.15800000  1.0 -0.2336267474
F  F43  1  0.51610000  0.30670000  0.65800000  1.0 -0.2336267474
F  F44  1  0.80670000  0.98390000  0.15800000  1.0 -0.2336267474
F  F45  1  0.01610000  0.19330000  0.34200000  1.0 -0.2336267474
F  F46  1  0.98390000  0.80670000  0.34200000  1.0 -0.2336267474
F  F47  1  0.69330000  0.48390000  0.84200000  1.0 -0.2336267474
F  F48  1  0.30670000  0.51610000  0.84200000  1.0 -0.2336267474
F  F49  1  0.02360000  0.85480000  0.20940000  1.0 -0.1043133149
F  F50  1  0.35480000  0.47640000  0.70940000  1.0 -0.1043133149
F  F51  1  0.97640000  0.14520000  0.20940000  1.0 -0.1043133149
F  F52  1  0.64520000  0.52360000  0.70940000  1.0 -0.1043133149
F  F53  1  0.47640000  0.35480000  0.79060000  1.0 -0.1043133149
F  F54  1  0.52360000  0.64520000  0.79060000  1.0 -0.1043133149
F  F55  1  0.85480000  0.02360000  0.29060000  1.0 -0.1043133149
F  F56  1  0.14520000  0.97640000  0.29060000  1.0 -0.1043133149
F  F57  1  0.47640000  0.64520000  0.29060000  1.0 -0.1043133149
F  F58  1  0.14520000  0.02360000  0.79060000  1.0 -0.1043133149
F  F59  1  0.52360000  0.35480000  0.29060000  1.0 -0.1043133149
F  F60  1  0.85480000  0.97640000  0.79060000  1.0 -0.1043133149
F  F61  1  0.02360000  0.14520000  0.70940000  1.0 -0.1043133149
F  F62  1  0.97640000  0.85480000  0.70940000  1.0 -0.1043133149
F  F63  1  0.64520000  0.47640000  0.20940000  1.0 -0.1043133149
F  F64  1  0.35480000  0.52360000  0.20940000  1.0 -0.1043133149
F  F65  1  0.97220000  0.82740000  0.17930000  1.0 -0.1735425135
F  F66  1  0.32740000  0.52780000  0.67930000  1.0 -0.1735425135
F  F67  1  0.02780000  0.17260000  0.17930000  1.0 -0.1735425135
F  F68  1  0.67260000  0.47220000  0.67930000  1.0 -0.1735425135
F  F69  1  0.52780000  0.32740000  0.82070000  1.0 -0.1735425135
F  F70  1  0.47220000  0.67260000  0.82070000  1.0 -0.1735425135
F  F71  1  0.82740000  0.97220000  0.32070000  1.0 -0.1735425135
F  F72  1  0.17260000  0.02780000  0.32070000  1.0 -0.1735425135
F  F73  1  0.52780000  0.67260000  0.32070000  1.0 -0.1735425135
F  F74  1  0.17260000  0.97220000  0.82070000  1.0 -0.1735425135
F  F75  1  0.47220000  0.32740000  0.32070000  1.0 -0.1735425135
F  F76  1  0.82740000  0.02780000  0.82070000  1.0 -0.1735425135
F  F77  1  0.97220000  0.17260000  0.67930000  1.0 -0.1735425135
F  F78  1  0.02780000  0.82740000  0.67930000  1.0 -0.1735425135
F  F79  1  0.67260000  0.52780000  0.17930000  1.0 -0.1735425135
F  F80  1  0.32740000  0.47220000  0.17930000  1.0 -0.1735425135
F  F81  1  0.99800000  0.86200000  0.08530000  1.0 -0.1529936772
F  F82  1  0.36200000  0.50200000  0.58530000  1.0 -0.1529936772
F  F83  1  0.00200000  0.13800000  0.08530000  1.0 -0.1529936772
F  F84  1  0.63800000  0.49800000  0.58530000  1.0 -0.1529936772
F  F85  1  0.50200000  0.36200000  0.91470000  1.0 -0.1529936772
F  F86  1  0.49800000  0.63800000  0.91470000  1.0 -0.1529936772
F  F87  1  0.86200000  0.99800000  0.41470000  1.0 -0.1529936772
F  F88  1  0.13800000  0.00200000  0.41470000  1.0 -0.1529936772
F  F89  1  0.50200000  0.63800000  0.41470000  1.0 -0.1529936772
F  F90  1  0.13800000  0.99800000  0.91470000  1.0 -0.1529936772
F  F91  1  0.49800000  0.36200000  0.41470000  1.0 -0.1529936772
F  F92  1  0.86200000  0.00200000  0.91470000  1.0 -0.1529936772
F  F93  1  0.99800000  0.13800000  0.58530000  1.0 -0.1529936772
F  F94  1  0.00200000  0.86200000  0.58530000  1.0 -0.1529936772
F  F95  1  0.63800000  0.50200000  0.08530000  1.0 -0.1529936772
F  F96  1  0.36200000  0.49800000  0.08530000  1.0 -0.1529936772
F  F97  1  0.71990000  0.68410000  0.18080000  1.0 -0.1223029266
F  F98  1  0.18410000  0.78010000  0.68080000  1.0 -0.1223029266
F  F99  1  0.28010000  0.31590000  0.18080000  1.0 -0.1223029266
F  F100  1  0.81590000  0.21990000  0.68080000  1.0 -0.1223029266
F  F101  1  0.78010000  0.18410000  0.81920000  1.0 -0.1223029266
F  F102  1  0.21990000  0.81590000  0.81920000  1.0 -0.1223029266
F  F103  1  0.68410000  0.71990000  0.31920000  1.0 -0.1223029266
F  F104  1  0.31590000  0.28010000  0.31920000  1.0 -0.1223029266
F  F105  1  0.78010000  0.81590000  0.31920000  1.0 -0.1223029266
F  F106  1  0.31590000  0.71990000  0.81920000  1.0 -0.1223029266
F  F107  1  0.21990000  0.18410000  0.31920000  1.0 -0.1223029266
F  F108  1  0.68410000  0.28010000  0.81920000  1.0 -0.1223029266
F  F109  1  0.71990000  0.31590000  0.68080000  1.0 -0.1223029266
F  F110  1  0.28010000  0.68410000  0.68080000  1.0 -0.1223029266
F  F111  1  0.81590000  0.78010000  0.18080000  1.0 -0.1223029266
F  F112  1  0.18410000  0.21990000  0.18080000  1.0 -0.1223029266
F  F113  1  0.96890000  0.75050000  0.20680000  1.0 -0.2336267474
F  F114  1  0.25050000  0.53110000  0.70680000  1.0 -0.2336267474
F  F115  1  0.03110000  0.24950000  0.20680000  1.0 -0.2336267474
F  F116  1  0.74950000  0.46890000  0.70680000  1.0 -0.2336267474
F  F117  1  0.53110000  0.25050000  0.79320000  1.0 -0.2336267474
F  F118  1  0.46890000  0.74950000  0.79320000  1.0 -0.2336267474
F  F119  1  0.75050000  0.96890000  0.29320000  1.0 -0.2336267474
F  F120  1  0.24950000  0.03110000  0.29320000  1.0 -0.2336267474
F  F121  1  0.53110000  0.74950000  0.29320000  1.0 -0.2336267474
F  F122  1  0.24950000  0.96890000  0.79320000  1.0 -0.2336267474
F  F123  1  0.46890000  0.25050000  0.29320000  1.0 -0.2336267474
F  F124  1  0.75050000  0.03110000  0.79320000  1.0 -0.2336267474
F  F125  1  0.96890000  0.24950000  0.70680000  1.0 -0.2336267474
F  F126  1  0.03110000  0.75050000  0.70680000  1.0 -0.2336267474
F  F127  1  0.74950000  0.53110000  0.20680000  1.0 -0.2336267474
F  F128  1  0.25050000  0.46890000  0.20680000  1.0 -0.2336267474
F  F129  1  0.91750000  0.71770000  0.17910000  1.0 -0.1735425135
F  F130  1  0.21770000  0.58250000  0.67910000  1.0 -0.1735425135
F  F131  1  0.08250000  0.28230000  0.17910000  1.0 -0.1735425135
F  F132  1  0.78230000  0.41750000  0.67910000  1.0 -0.1735425135
F  F133  1  0.58250000  0.21770000  0.82090000  1.0 -0.1735425135
F  F134  1  0.41750000  0.78230000  0.82090000  1.0 -0.1735425135
F  F135  1  0.71770000  0.91750000  0.32090000  1.0 -0.1735425135
F  F136  1  0.28230000  0.08250000  0.32090000  1.0 -0.1735425135
F  F137  1  0.58250000  0.78230000  0.32090000  1.0 -0.1735425135
F  F138  1  0.28230000  0.91750000  0.82090000  1.0 -0.1735425135
F  F139  1  0.41750000  0.21770000  0.32090000  1.0 -0.1735425135
F  F140  1  0.71770000  0.08250000  0.82090000  1.0 -0.1735425135
F  F141  1  0.91750000  0.28230000  0.67910000  1.0 -0.1735425135
F  F142  1  0.08250000  0.71770000  0.67910000  1.0 -0.1735425135
F  F143  1  0.78230000  0.58250000  0.17910000  1.0 -0.1735425135
F  F144  1  0.21770000  0.41750000  0.17910000  1.0 -0.1735425135
F  F145  1  0.97180000  0.69980000  0.12240000  1.0 -0.2054862338
F  F146  1  0.19980000  0.52820000  0.62240000  1.0 -0.2054862338
F  F147  1  0.02820000  0.30020000  0.12240000  1.0 -0.2054862338
F  F148  1  0.80020000  0.47180000  0.62240000  1.0 -0.2054862338
F  F149  1  0.52820000  0.19980000  0.87760000  1.0 -0.2054862338
F  F150  1  0.47180000  0.80020000  0.87760000  1.0 -0.2054862338
F  F151  1  0.69980000  0.97180000  0.37760000  1.0 -0.2054862338
F  F152  1  0.30020000  0.02820000  0.37760000  1.0 -0.2054862338
F  F153  1  0.52820000  0.80020000  0.37760000  1.0 -0.2054862338
F  F154  1  0.30020000  0.97180000  0.87760000  1.0 -0.2054862338
F  F155  1  0.47180000  0.19980000  0.37760000  1.0 -0.2054862338
F  F156  1  0.69980000  0.02820000  0.87760000  1.0 -0.2054862338
F  F157  1  0.97180000  0.30020000  0.62240000  1.0 -0.2054862338
F  F158  1  0.02820000  0.69980000  0.62240000  1.0 -0.2054862338
F  F159  1  0.80020000  0.52820000  0.12240000  1.0 -0.2054862338
F  F160  1  0.19980000  0.47180000  0.12240000  1.0 -0.2054862338
F  F161  1  0.04460000  0.69530000  0.90800000  1.0 -0.1432446013
F  F162  1  0.19530000  0.45540000  0.40800000  1.0 -0.1432446013
F  F163  1  0.95540000  0.30470000  0.90800000  1.0 -0.1432446013
F  F164  1  0.80470000  0.54460000  0.40800000  1.0 -0.1432446013
F  F165  1  0.45540000  0.19530000  0.09200000  1.0 -0.1432446013
F  F166  1  0.54460000  0.80470000  0.09200000  1.0 -0.1432446013
F  F167  1  0.69530000  0.04460000  0.59200000  1.0 -0.1432446013
F  F168  1  0.30470000  0.95540000  0.59200000  1.0 -0.1432446013
F  F169  1  0.45540000  0.80470000  0.59200000  1.0 -0.1432446013
F  F170  1  0.30470000  0.04460000  0.09200000  1.0 -0.1432446013
F  F171  1  0.54460000  0.19530000  0.59200000  1.0 -0.1432446013
F  F172  1  0.69530000  0.95540000  0.09200000  1.0 -0.1432446013
F  F173  1  0.04460000  0.30470000  0.40800000  1.0 -0.1432446013
F  F174  1  0.95540000  0.69530000  0.40800000  1.0 -0.1432446013
F  F175  1  0.80470000  0.45540000  0.90800000  1.0 -0.1432446013
F  F176  1  0.19530000  0.54460000  0.90800000  1.0 -0.1432446013
F  F177  1  0.98890000  0.70190000  0.95100000  1.0 -0.1619250885
F  F178  1  0.20190000  0.51110000  0.45100000  1.0 -0.1619250885
F  F179  1  0.01110000  0.29810000  0.95100000  1.0 -0.1619250885
F  F180  1  0.79810000  0.48890000  0.45100000  1.0 -0.1619250885
F  F181  1  0.51110000  0.20190000  0.04900000  1.0 -0.1619250885
F  F182  1  0.48890000  0.79810000  0.04900000  1.0 -0.1619250885
F  F183  1  0.70190000  0.98890000  0.54900000  1.0 -0.1619250885
F  F184  1  0.29810000  0.01110000  0.54900000  1.0 -0.1619250885
F  F185  1  0.51110000  0.79810000  0.54900000  1.0 -0.1619250885
F  F186  1  0.29810000  0.98890000  0.04900000  1.0 -0.1619250885
F  F187  1  0.48890000  0.20190000  0.54900000  1.0 -0.1619250885
F  F188  1  0.70190000  0.01110000  0.04900000  1.0 -0.1619250885
F  F189  1  0.98890000  0.29810000  0.45100000  1.0 -0.1619250885
F  F190  1  0.01110000  0.70190000  0.45100000  1.0 -0.1619250885
F  F191  1  0.79810000  0.51110000  0.95100000  1.0 -0.1619250885
F  F192  1  0.20190000  0.48890000  0.95100000  1.0 -0.1619250885
F  F193  1  0.01300000  0.74100000  0.86600000  1.0 -0.1619250885
F  F194  1  0.24100000  0.48700000  0.36600000  1.0 -0.1619250885
F  F195  1  0.98700000  0.25900000  0.86600000  1.0 -0.1619250885
F  F196  1  0.75900000  0.51300000  0.36600000  1.0 -0.1619250885
F  F197  1  0.48700000  0.24100000  0.13400000  1.0 -0.1619250885
F  F198  1  0.51300000  0.75900000  0.13400000  1.0 -0.1619250885
F  F199  1  0.74100000  0.01300000  0.63400000  1.0 -0.1619250885
F  F200  1  0.25900000  0.98700000  0.63400000  1.0 -0.1619250885
F  F201  1  0.48700000  0.75900000  0.63400000  1.0 -0.1619250885
F  F202  1  0.25900000  0.01300000  0.13400000  1.0 -0.1619250885
F  F203  1  0.51300000  0.24100000  0.63400000  1.0 -0.1619250885
F  F204  1  0.74100000  0.98700000  0.13400000  1.0 -0.1619250885
F  F205  1  0.01300000  0.25900000  0.36600000  1.0 -0.1619250885
F  F206  1  0.98700000  0.74100000  0.36600000  1.0 -0.1619250885
F  F207  1  0.75900000  0.48700000  0.86600000  1.0 -0.1619250885
F  F208  1  0.24100000  0.51300000  0.86600000  1.0 -0.1619250885
