# DDEC6 charges by PACMAN v1.1 (https://github.com/mtap-research/PACMAN-charge/)
data_OQUFIR_ASR_pacman
_symmetry_space_group_name_H-M   'P 1'
_cell_length_a   24.42000000
_cell_length_b   24.42000000
_cell_length_c   14.72310000
_cell_angle_alpha   90.00000000
_cell_angle_beta   90.00000000
_cell_angle_gamma   90.00000000
_symmetry_Int_Tables_number   1
_chemical_formula_structural   Zr3H20C46S2(O3F4)6
_chemical_formula_sum   'Zr12 H80 C184 S8 O72 F96'
_cell_volume   8779.92045084
_cell_formula_units_Z   4
loop_
 _symmetry_equiv_pos_site_id
 _symmetry_equiv_pos_as_xyz
  1  'x, y, z'
loop_
 _atom_site_type_symbol
 _atom_site_label
 _atom_site_symmetry_multiplicity
 _atom_site_fract_x
 _atom_site_fract_y
 _atom_site_fract_z
 _atom_site_occupancy
 _atom_site_charge
Zr  Zr1  1  0.10036000  0.50000000  0.00000000  1.0 2.3880342943
Zr  Zr2  1  0.50000000  0.89964000  0.50000000  1.0 2.3880342943
Zr  Zr3  1  0.89964000  0.50000000  0.00000000  1.0 2.3880342943
Zr  Zr4  1  0.50000000  0.10036000  0.50000000  1.0 2.3880342943
Zr  Zr5  1  0.00000000  0.42779000  0.12003000  1.0 2.3974175555
Zr  Zr6  1  0.42779000  0.00000000  0.62003000  1.0 2.3974175555
Zr  Zr7  1  0.00000000  0.57221000  0.12003000  1.0 2.3974175555
Zr  Zr8  1  0.57221000  0.00000000  0.62003000  1.0 2.3974175555
Zr  Zr9  1  0.00000000  0.42779000  0.87997000  1.0 2.3974175555
Zr  Zr10  1  0.00000000  0.57221000  0.87997000  1.0 2.3974175555
Zr  Zr11  1  0.42779000  0.00000000  0.37997000  1.0 2.3974175555
Zr  Zr12  1  0.57221000  0.00000000  0.37997000  1.0 2.3974175555
H  H1  1  0.23560000  0.39900000  0.09830000  1.0 0.1153372255
H  H2  1  0.39900000  0.76440000  0.59830000  1.0 0.1153372255
H  H3  1  0.76440000  0.60100000  0.09830000  1.0 0.1153372255
H  H4  1  0.60100000  0.23560000  0.59830000  1.0 0.1153372255
H  H5  1  0.76440000  0.39900000  0.90170000  1.0 0.1153372255
H  H6  1  0.23560000  0.60100000  0.90170000  1.0 0.1153372255
H  H7  1  0.39900000  0.23560000  0.40170000  1.0 0.1146566448
H  H8  1  0.60100000  0.76440000  0.40170000  1.0 0.1146566448
H  H9  1  0.76440000  0.60100000  0.90170000  1.0 0.1153372255
H  H10  1  0.60100000  0.23560000  0.40170000  1.0 0.1146566448
H  H11  1  0.23560000  0.39900000  0.90170000  1.0 0.1153372255
H  H12  1  0.39900000  0.76440000  0.40170000  1.0 0.1146566448
H  H13  1  0.23560000  0.60100000  0.09830000  1.0 0.1153372255
H  H14  1  0.76440000  0.39900000  0.09830000  1.0 0.1153372255
H  H15  1  0.60100000  0.76440000  0.59830000  1.0 0.1153372255
H  H16  1  0.39900000  0.23560000  0.59830000  1.0 0.1153372255
H  H17  1  0.19330000  0.27290000  0.32460000  1.0 0.1593205956
H  H18  1  0.27290000  0.80670000  0.82460000  1.0 0.1593205956
H  H19  1  0.80670000  0.72710000  0.32460000  1.0 0.1593205956
H  H20  1  0.72710000  0.19330000  0.82460000  1.0 0.1593205956
H  H21  1  0.80670000  0.27290000  0.67540000  1.0 0.1593205956
H  H22  1  0.19330000  0.72710000  0.67540000  1.0 0.1593205956
H  H23  1  0.27290000  0.19330000  0.17540000  1.0 0.1593205956
H  H24  1  0.72710000  0.80670000  0.17540000  1.0 0.1593205956
H  H25  1  0.80670000  0.72710000  0.67540000  1.0 0.1593205956
H  H26  1  0.72710000  0.19330000  0.17540000  1.0 0.1593205956
H  H27  1  0.19330000  0.27290000  0.67540000  1.0 0.1593205956
H  H28  1  0.27290000  0.80670000  0.17540000  1.0 0.1593205956
H  H29  1  0.19330000  0.72710000  0.32460000  1.0 0.1593205956
H  H30  1  0.80670000  0.27290000  0.32460000  1.0 0.1593205956
H  H31  1  0.72710000  0.80670000  0.82460000  1.0 0.1593205956
H  H32  1  0.27290000  0.19330000  0.82460000  1.0 0.1593205956
H  H33  1  0.12610000  0.33360000  0.26970000  1.0 0.1293055938
H  H34  1  0.33360000  0.87390000  0.76970000  1.0 0.1293055938
H  H35  1  0.87390000  0.66640000  0.26970000  1.0 0.1293055938
H  H36  1  0.66640000  0.12610000  0.76970000  1.0 0.1293055938
H  H37  1  0.87390000  0.33360000  0.73030000  1.0 0.1293055938
H  H38  1  0.12610000  0.66640000  0.73030000  1.0 0.1293055938
H  H39  1  0.33360000  0.12610000  0.23030000  1.0 0.1293055938
H  H40  1  0.66640000  0.87390000  0.23030000  1.0 0.1293055938
H  H41  1  0.87390000  0.66640000  0.73030000  1.0 0.1293055938
H  H42  1  0.66640000  0.12610000  0.23030000  1.0 0.1293055938
H  H43  1  0.12610000  0.33360000  0.73030000  1.0 0.1293055938
H  H44  1  0.33360000  0.87390000  0.23030000  1.0 0.1293055938
H  H45  1  0.12610000  0.66640000  0.26970000  1.0 0.1293055938
H  H46  1  0.87390000  0.33360000  0.26970000  1.0 0.1293055938
H  H47  1  0.66640000  0.87390000  0.76970000  1.0 0.1293055938
H  H48  1  0.33360000  0.12610000  0.76970000  1.0 0.1293055938
H  H49  1  0.02950000  0.41030000  0.41790000  1.0 0.1293055938
H  H50  1  0.41030000  0.97050000  0.91790000  1.0 0.1293055938
H  H51  1  0.97050000  0.58970000  0.41790000  1.0 0.1293055938
H  H52  1  0.58970000  0.02950000  0.91790000  1.0 0.1293055938
H  H53  1  0.97050000  0.41030000  0.58210000  1.0 0.1293055938
H  H54  1  0.02950000  0.58970000  0.58210000  1.0 0.1293055938
H  H55  1  0.41030000  0.02950000  0.08210000  1.0 0.1293055938
H  H56  1  0.58970000  0.97050000  0.08210000  1.0 0.1293055938
H  H57  1  0.97050000  0.58970000  0.58210000  1.0 0.1293055938
H  H58  1  0.58970000  0.02950000  0.08210000  1.0 0.1293055938
H  H59  1  0.02950000  0.41030000  0.58210000  1.0 0.1293055938
H  H60  1  0.41030000  0.97050000  0.08210000  1.0 0.1293055938
H  H61  1  0.02950000  0.58970000  0.41790000  1.0 0.1293055938
H  H62  1  0.97050000  0.41030000  0.41790000  1.0 0.1293055938
H  H63  1  0.58970000  0.97050000  0.91790000  1.0 0.1293055938
H  H64  1  0.41030000  0.02950000  0.91790000  1.0 0.1293055938
H  H65  1  0.30040000  0.33210000  0.13990000  1.0 0.1593205956
H  H66  1  0.33210000  0.69960000  0.63990000  1.0 0.1593205956
H  H67  1  0.69960000  0.66790000  0.13990000  1.0 0.1593205956
H  H68  1  0.66790000  0.30040000  0.63990000  1.0 0.1593205956
H  H69  1  0.69960000  0.33210000  0.86010000  1.0 0.1593205956
H  H70  1  0.30040000  0.66790000  0.86010000  1.0 0.1593205956
H  H71  1  0.33210000  0.30040000  0.36010000  1.0 0.1593205956
H  H72  1  0.66790000  0.69960000  0.36010000  1.0 0.1593205956
H  H73  1  0.69960000  0.66790000  0.86010000  1.0 0.1593205956
H  H74  1  0.66790000  0.30040000  0.36010000  1.0 0.1593205956
H  H75  1  0.30040000  0.33210000  0.86010000  1.0 0.1593205956
H  H76  1  0.33210000  0.69960000  0.36010000  1.0 0.1593205956
H  H77  1  0.30040000  0.66790000  0.13990000  1.0 0.1593205956
H  H78  1  0.69960000  0.33210000  0.13990000  1.0 0.1593205956
H  H79  1  0.66790000  0.69960000  0.63990000  1.0 0.1593205956
H  H80  1  0.33210000  0.30040000  0.63990000  1.0 0.1593205956
C  C1  1  0.13160000  0.40780000  0.14080000  1.0 0.6243118745
C  C2  1  0.40780000  0.86840000  0.64080000  1.0 0.6243118745
C  C3  1  0.86840000  0.59220000  0.14080000  1.0 0.6243118745
C  C4  1  0.59220000  0.13160000  0.64080000  1.0 0.6243118745
C  C5  1  0.86840000  0.40780000  0.85920000  1.0 0.6243118745
C  C6  1  0.13160000  0.59220000  0.85920000  1.0 0.6243118745
C  C7  1  0.40780000  0.13160000  0.35920000  1.0 0.6243118745
C  C8  1  0.59220000  0.86840000  0.35920000  1.0 0.6243118745
C  C9  1  0.86840000  0.59220000  0.85920000  1.0 0.6243118745
C  C10  1  0.59220000  0.13160000  0.35920000  1.0 0.6243118745
C  C11  1  0.13160000  0.40780000  0.85920000  1.0 0.6243118745
C  C12  1  0.40780000  0.86840000  0.35920000  1.0 0.6243118745
C  C13  1  0.13160000  0.59220000  0.14080000  1.0 0.6243118745
C  C14  1  0.86840000  0.40780000  0.14080000  1.0 0.6243118745
C  C15  1  0.59220000  0.86840000  0.64080000  1.0 0.6243118745
C  C16  1  0.40780000  0.13160000  0.64080000  1.0 0.6243118745
C  C17  1  0.17500000  0.36970000  0.17680000  1.0 -0.011809311
C  C18  1  0.36970000  0.82500000  0.67680000  1.0 -0.011809311
C  C19  1  0.82500000  0.63030000  0.17680000  1.0 -0.011809311
C  C20  1  0.63030000  0.17500000  0.67680000  1.0 -0.011809311
C  C21  1  0.82500000  0.36970000  0.82320000  1.0 -0.011809311
C  C22  1  0.17500000  0.63030000  0.82320000  1.0 -0.011809311
C  C23  1  0.36970000  0.17500000  0.32320000  1.0 -0.011809311
C  C24  1  0.63030000  0.82500000  0.32320000  1.0 -0.011809311
C  C25  1  0.82500000  0.63030000  0.82320000  1.0 -0.011809311
C  C26  1  0.63030000  0.17500000  0.32320000  1.0 -0.011809311
C  C27  1  0.17500000  0.36970000  0.82320000  1.0 -0.011809311
C  C28  1  0.36970000  0.82500000  0.32320000  1.0 -0.011809311
C  C29  1  0.17500000  0.63030000  0.17680000  1.0 -0.011809311
C  C30  1  0.82500000  0.36970000  0.17680000  1.0 -0.011809311
C  C31  1  0.63030000  0.82500000  0.67680000  1.0 -0.011809311
C  C32  1  0.36970000  0.17500000  0.67680000  1.0 -0.011809311
C  C33  1  0.22630000  0.37150000  0.14120000  1.0 -0.0685254658
C  C34  1  0.37150000  0.77370000  0.64120000  1.0 -0.0685254658
C  C35  1  0.77370000  0.62850000  0.14120000  1.0 -0.0685254658
C  C36  1  0.62850000  0.22630000  0.64120000  1.0 -0.0685254658
C  C37  1  0.77370000  0.37150000  0.85880000  1.0 -0.0685254658
C  C38  1  0.22630000  0.62850000  0.85880000  1.0 -0.0685254658
C  C39  1  0.37150000  0.22630000  0.35880000  1.0 -0.0685254658
C  C40  1  0.62850000  0.77370000  0.35880000  1.0 -0.0685254658
C  C41  1  0.77370000  0.62850000  0.85880000  1.0 -0.0685254658
C  C42  1  0.62850000  0.22630000  0.35880000  1.0 -0.0685254658
C  C43  1  0.22630000  0.37150000  0.85880000  1.0 -0.0685254658
C  C44  1  0.37150000  0.77370000  0.35880000  1.0 -0.0685254658
C  C45  1  0.22630000  0.62850000  0.14120000  1.0 -0.0685254658
C  C46  1  0.77370000  0.37150000  0.14120000  1.0 -0.0685254658
C  C47  1  0.62850000  0.77370000  0.64120000  1.0 -0.0685254658
C  C48  1  0.37150000  0.22630000  0.64120000  1.0 -0.0685254658
C  C49  1  0.26540000  0.33260000  0.16810000  1.0 -0.1678411416
C  C50  1  0.33260000  0.73460000  0.66810000  1.0 -0.1678411416
C  C51  1  0.73460000  0.66740000  0.16810000  1.0 -0.1678411416
C  C52  1  0.66740000  0.26540000  0.66810000  1.0 -0.1678411416
C  C53  1  0.73460000  0.33260000  0.83190000  1.0 -0.1678411416
C  C54  1  0.26540000  0.66740000  0.83190000  1.0 -0.1678411416
C  C55  1  0.33260000  0.26540000  0.33190000  1.0 -0.1678411416
C  C56  1  0.66740000  0.73460000  0.33190000  1.0 -0.1678411416
C  C57  1  0.73460000  0.66740000  0.83190000  1.0 -0.1678411416
C  C58  1  0.66740000  0.26540000  0.33190000  1.0 -0.1678411416
C  C59  1  0.26540000  0.33260000  0.83190000  1.0 -0.1678411416
C  C60  1  0.33260000  0.73460000  0.33190000  1.0 -0.1678411416
C  C61  1  0.26540000  0.66740000  0.16810000  1.0 -0.1678411416
C  C62  1  0.73460000  0.33260000  0.16810000  1.0 -0.1678411416
C  C63  1  0.66740000  0.73460000  0.66810000  1.0 -0.1678411416
C  C64  1  0.33260000  0.26540000  0.66810000  1.0 -0.1678411416
C  C65  1  0.25350000  0.29540000  0.23480000  1.0 0.016934476
C  C66  1  0.29540000  0.74650000  0.73480000  1.0 0.016934476
C  C67  1  0.74650000  0.70460000  0.23480000  1.0 0.016934476
C  C68  1  0.70460000  0.25350000  0.73480000  1.0 0.016934476
C  C69  1  0.74650000  0.29540000  0.76520000  1.0 0.016934476
C  C70  1  0.25350000  0.70460000  0.76520000  1.0 0.016934476
C  C71  1  0.29540000  0.25350000  0.26520000  1.0 0.016934476
C  C72  1  0.70460000  0.74650000  0.26520000  1.0 0.016934476
C  C73  1  0.74650000  0.70460000  0.76520000  1.0 0.016934476
C  C74  1  0.70460000  0.25350000  0.26520000  1.0 0.016934476
C  C75  1  0.25350000  0.29540000  0.76520000  1.0 0.016934476
C  C76  1  0.29540000  0.74650000  0.26520000  1.0 0.016934476
C  C77  1  0.25350000  0.70460000  0.23480000  1.0 0.016934476
C  C78  1  0.74650000  0.29540000  0.23480000  1.0 0.016934476
C  C79  1  0.70460000  0.74650000  0.73480000  1.0 0.016934476
C  C80  1  0.29540000  0.25350000  0.73480000  1.0 0.016934476
C  C81  1  0.20160000  0.29690000  0.27560000  1.0 -0.1647685218
C  C82  1  0.29690000  0.79840000  0.77560000  1.0 -0.1678411416
C  C83  1  0.79840000  0.70310000  0.27560000  1.0 -0.1647685218
C  C84  1  0.70310000  0.20160000  0.77560000  1.0 -0.1647685218
C  C85  1  0.79840000  0.29690000  0.72440000  1.0 -0.1647685218
C  C86  1  0.20160000  0.70310000  0.72440000  1.0 -0.1647685218
C  C87  1  0.29690000  0.20160000  0.22440000  1.0 -0.1678411416
C  C88  1  0.70310000  0.79840000  0.22440000  1.0 -0.1678411416
C  C89  1  0.79840000  0.70310000  0.72440000  1.0 -0.1647685218
C  C90  1  0.70310000  0.20160000  0.22440000  1.0 -0.1678411416
C  C91  1  0.20160000  0.29690000  0.72440000  1.0 -0.1647685218
C  C92  1  0.29690000  0.79840000  0.22440000  1.0 -0.1678411416
C  C93  1  0.20160000  0.70310000  0.27560000  1.0 -0.1647685218
C  C94  1  0.79840000  0.29690000  0.27560000  1.0 -0.1647685218
C  C95  1  0.70310000  0.79840000  0.77560000  1.0 -0.1647685218
C  C96  1  0.29690000  0.20160000  0.77560000  1.0 -0.1647685218
C  C97  1  0.16190000  0.33370000  0.24430000  1.0 -0.0521574347
C  C98  1  0.33370000  0.83810000  0.74430000  1.0 -0.0521574347
C  C99  1  0.83810000  0.66630000  0.24430000  1.0 -0.0521574347
C  C100  1  0.66630000  0.16190000  0.74430000  1.0 -0.0521574347
C  C101  1  0.83810000  0.33370000  0.75570000  1.0 -0.0521574347
C  C102  1  0.16190000  0.66630000  0.75570000  1.0 -0.0521574347
C  C103  1  0.33370000  0.16190000  0.25570000  1.0 -0.0521574347
C  C104  1  0.66630000  0.83810000  0.25570000  1.0 -0.0521574347
C  C105  1  0.83810000  0.66630000  0.75570000  1.0 -0.0521574347
C  C106  1  0.66630000  0.16190000  0.25570000  1.0 -0.0521574347
C  C107  1  0.16190000  0.33370000  0.75570000  1.0 -0.0521574347
C  C108  1  0.33370000  0.83810000  0.25570000  1.0 -0.0521574347
C  C109  1  0.16190000  0.66630000  0.24430000  1.0 -0.0521574347
C  C110  1  0.83810000  0.33370000  0.24430000  1.0 -0.0521574347
C  C111  1  0.66630000  0.83810000  0.74430000  1.0 -0.0521574347
C  C112  1  0.33370000  0.16190000  0.74430000  1.0 -0.0521574347
C  C113  1  0.31980000  0.33550000  0.12020000  1.0 0.3812685114
C  C114  1  0.33550000  0.68020000  0.62020000  1.0 0.3812685114
C  C115  1  0.68020000  0.66450000  0.12020000  1.0 0.3812685114
C  C116  1  0.66450000  0.31980000  0.62020000  1.0 0.3812685114
C  C117  1  0.68020000  0.33550000  0.87980000  1.0 0.3812685114
C  C118  1  0.31980000  0.66450000  0.87980000  1.0 0.3812685114
C  C119  1  0.33550000  0.31980000  0.37980000  1.0 0.3812685114
C  C120  1  0.66450000  0.68020000  0.37980000  1.0 0.3812685114
C  C121  1  0.68020000  0.66450000  0.87980000  1.0 0.3812685114
C  C122  1  0.66450000  0.31980000  0.37980000  1.0 0.3812685114
C  C123  1  0.31980000  0.33550000  0.87980000  1.0 0.3812685114
C  C124  1  0.33550000  0.68020000  0.37980000  1.0 0.3812685114
C  C125  1  0.31980000  0.66450000  0.12020000  1.0 0.3812685114
C  C126  1  0.68020000  0.33550000  0.12020000  1.0 0.3812685114
C  C127  1  0.66450000  0.68020000  0.62020000  1.0 0.3812685114
C  C128  1  0.33550000  0.31980000  0.62020000  1.0 0.3812685114
C  C129  1  0.00000000  0.42540000  0.45180000  1.0 -0.0762583437
C  C130  1  0.42540000  0.00000000  0.95180000  1.0 -0.0762583437
C  C131  1  0.00000000  0.57460000  0.45180000  1.0 -0.0762583437
C  C132  1  0.57460000  0.00000000  0.95180000  1.0 -0.0762583437
C  C133  1  0.00000000  0.42540000  0.54820000  1.0 -0.0762583437
C  C134  1  0.00000000  0.57460000  0.54820000  1.0 -0.0762583437
C  C135  1  0.42540000  0.00000000  0.04820000  1.0 -0.0762583437
C  C136  1  0.57460000  0.00000000  0.04820000  1.0 -0.0762583437
C  C137  1  0.95550000  0.44860000  0.41560000  1.0 -0.1803238067
C  C138  1  0.44860000  0.04450000  0.91560000  1.0 -0.1803238067
C  C139  1  0.04450000  0.55140000  0.41560000  1.0 -0.1803238067
C  C140  1  0.55140000  0.95550000  0.91560000  1.0 -0.1803238067
C  C141  1  0.04450000  0.44860000  0.58440000  1.0 -0.1803238067
C  C142  1  0.95550000  0.55140000  0.58440000  1.0 -0.1803238067
C  C143  1  0.44860000  0.95550000  0.08440000  1.0 -0.1803238067
C  C144  1  0.55140000  0.04450000  0.08440000  1.0 -0.1803238067
C  C145  1  0.04450000  0.55140000  0.58440000  1.0 -0.1803238067
C  C146  1  0.55140000  0.95550000  0.08440000  1.0 -0.1803238067
C  C147  1  0.95550000  0.44860000  0.58440000  1.0 -0.1803238067
C  C148  1  0.44860000  0.04450000  0.08440000  1.0 -0.1803238067
C  C149  1  0.95550000  0.55140000  0.41560000  1.0 -0.1803238067
C  C150  1  0.04450000  0.44860000  0.41560000  1.0 -0.1803238067
C  C151  1  0.55140000  0.04450000  0.91560000  1.0 -0.1803238067
C  C152  1  0.44860000  0.95550000  0.91560000  1.0 -0.1803238067
C  C153  1  0.95350000  0.45030000  0.31300000  1.0 0.270018666
C  C154  1  0.45030000  0.04650000  0.81300000  1.0 0.270018666
C  C155  1  0.04650000  0.54970000  0.31300000  1.0 0.270018666
C  C156  1  0.54970000  0.95350000  0.81300000  1.0 0.270018666
C  C157  1  0.04650000  0.45030000  0.68700000  1.0 0.270018666
C  C158  1  0.95350000  0.54970000  0.68700000  1.0 0.270018666
C  C159  1  0.45030000  0.95350000  0.18700000  1.0 0.270018666
C  C160  1  0.54970000  0.04650000  0.18700000  1.0 0.270018666
C  C161  1  0.04650000  0.54970000  0.68700000  1.0 0.270018666
C  C162  1  0.54970000  0.95350000  0.18700000  1.0 0.270018666
C  C163  1  0.95350000  0.45030000  0.68700000  1.0 0.270018666
C  C164  1  0.45030000  0.04650000  0.18700000  1.0 0.270018666
C  C165  1  0.95350000  0.54970000  0.31300000  1.0 0.270018666
C  C166  1  0.04650000  0.45030000  0.31300000  1.0 0.270018666
C  C167  1  0.54970000  0.04650000  0.81300000  1.0 0.270018666
C  C168  1  0.45030000  0.95350000  0.81300000  1.0 0.270018666
C  C169  1  0.18910000  0.26740000  0.36300000  1.0 0.3898346749
C  C170  1  0.26740000  0.81090000  0.86300000  1.0 0.3898346749
C  C171  1  0.81090000  0.73260000  0.36300000  1.0 0.3898346749
C  C172  1  0.73260000  0.18910000  0.86300000  1.0 0.3898346749
C  C173  1  0.81090000  0.26740000  0.63700000  1.0 0.3898346749
C  C174  1  0.18910000  0.73260000  0.63700000  1.0 0.3898346749
C  C175  1  0.26740000  0.18910000  0.13700000  1.0 0.3898346749
C  C176  1  0.73260000  0.81090000  0.13700000  1.0 0.3898346749
C  C177  1  0.81090000  0.73260000  0.63700000  1.0 0.3898346749
C  C178  1  0.73260000  0.18910000  0.13700000  1.0 0.3898346749
C  C179  1  0.18910000  0.26740000  0.63700000  1.0 0.3898346749
C  C180  1  0.26740000  0.81090000  0.13700000  1.0 0.3898346749
C  C181  1  0.18910000  0.73260000  0.36300000  1.0 0.3898346749
C  C182  1  0.81090000  0.26740000  0.36300000  1.0 0.3898346749
C  C183  1  0.73260000  0.81090000  0.86300000  1.0 0.3898346749
C  C184  1  0.26740000  0.18910000  0.86300000  1.0 0.3898346749
S  S1  1  0.91440000  0.46930000  0.50000000  1.0 0.1293055938
S  S2  1  0.46930000  0.08560000  0.00000000  1.0 0.1293055938
S  S3  1  0.08560000  0.53070000  0.50000000  1.0 0.1293055938
S  S4  1  0.53070000  0.91440000  0.00000000  1.0 0.1293055938
S  S5  1  0.08560000  0.46930000  0.50000000  1.0 0.1293055938
S  S6  1  0.91440000  0.53070000  0.50000000  1.0 0.1293055938
S  S7  1  0.46930000  0.91440000  0.00000000  1.0 0.1293055938
S  S8  1  0.53070000  0.08560000  0.00000000  1.0 0.1293055938
O  O1  1  0.14745000  0.44546000  0.09060000  1.0 -0.5718915398
O  O2  1  0.44546000  0.85255000  0.59060000  1.0 -0.5718915398
O  O3  1  0.85255000  0.55454000  0.09060000  1.0 -0.5718915398
O  O4  1  0.55454000  0.14745000  0.59060000  1.0 -0.5718915398
O  O5  1  0.85255000  0.44546000  0.90940000  1.0 -0.5718915398
O  O6  1  0.14745000  0.55454000  0.90940000  1.0 -0.5718915398
O  O7  1  0.44546000  0.14745000  0.40940000  1.0 -0.5718915398
O  O8  1  0.55454000  0.85255000  0.40940000  1.0 -0.5718915398
O  O9  1  0.85255000  0.55454000  0.90940000  1.0 -0.5718915398
O  O10  1  0.55454000  0.14745000  0.40940000  1.0 -0.5718915398
O  O11  1  0.14745000  0.44546000  0.90940000  1.0 -0.5718915398
O  O12  1  0.44546000  0.85255000  0.40940000  1.0 -0.5718915398
O  O13  1  0.14745000  0.55454000  0.09060000  1.0 -0.5718915398
O  O14  1  0.85255000  0.44546000  0.09060000  1.0 -0.5718915398
O  O15  1  0.55454000  0.85255000  0.59060000  1.0 -0.5718915398
O  O16  1  0.44546000  0.14745000  0.59060000  1.0 -0.5718915398
O  O17  1  0.08340000  0.39760000  0.16600000  1.0 -0.5941330391
O  O18  1  0.39760000  0.91660000  0.66600000  1.0 -0.5941330391
O  O19  1  0.91660000  0.60240000  0.16600000  1.0 -0.5941330391
O  O20  1  0.60240000  0.08340000  0.66600000  1.0 -0.5941330391
O  O21  1  0.91660000  0.39760000  0.83400000  1.0 -0.5941330391
O  O22  1  0.08340000  0.60240000  0.83400000  1.0 -0.5941330391
O  O23  1  0.39760000  0.08340000  0.33400000  1.0 -0.5941330391
O  O24  1  0.60240000  0.91660000  0.33400000  1.0 -0.5941330391
O  O25  1  0.91660000  0.60240000  0.83400000  1.0 -0.5941330391
O  O26  1  0.60240000  0.08340000  0.33400000  1.0 -0.5941330391
O  O27  1  0.08340000  0.39760000  0.83400000  1.0 -0.5941330391
O  O28  1  0.39760000  0.91660000  0.33400000  1.0 -0.5941330391
O  O29  1  0.08340000  0.60240000  0.16600000  1.0 -0.5941330391
O  O30  1  0.91660000  0.39760000  0.16600000  1.0 -0.5941330391
O  O31  1  0.60240000  0.91660000  0.66600000  1.0 -0.5941330391
O  O32  1  0.39760000  0.08340000  0.66600000  1.0 -0.5941330391
O  O33  1  0.04920000  0.50000000  0.12010000  1.0 -1.0821672577
O  O34  1  0.50000000  0.95080000  0.62010000  1.0 -1.0862684943
O  O35  1  0.95080000  0.50000000  0.12010000  1.0 -1.0821672577
O  O36  1  0.50000000  0.04920000  0.62010000  1.0 -1.0862684943
O  O37  1  0.95080000  0.50000000  0.87990000  1.0 -1.0862684943
O  O38  1  0.04920000  0.50000000  0.87990000  1.0 -1.0862684943
O  O39  1  0.50000000  0.04920000  0.37990000  1.0 -1.0862684943
O  O40  1  0.50000000  0.95080000  0.37990000  1.0 -1.0862684943
O  O41  1  0.04890000  0.42740000  0.00000000  1.0 -1.1462585079
O  O42  1  0.42740000  0.95110000  0.50000000  1.0 -1.1462585079
O  O43  1  0.95110000  0.57260000  0.00000000  1.0 -1.1462585079
O  O44  1  0.57260000  0.04890000  0.50000000  1.0 -1.1462585079
O  O45  1  0.95110000  0.42740000  0.00000000  1.0 -1.1462585079
O  O46  1  0.04890000  0.57260000  0.00000000  1.0 -1.1462585079
O  O47  1  0.42740000  0.04890000  0.50000000  1.0 -1.1462585079
O  O48  1  0.57260000  0.95110000  0.50000000  1.0 -1.1462585079
O  O49  1  0.00000000  0.42770000  0.26960000  1.0 -0.5534087765
O  O50  1  0.42770000  0.00000000  0.76960000  1.0 -0.5534087765
O  O51  1  0.00000000  0.57230000  0.26960000  1.0 -0.5534087765
O  O52  1  0.57230000  0.00000000  0.76960000  1.0 -0.5534087765
O  O53  1  0.00000000  0.42770000  0.73040000  1.0 -0.5534087765
O  O54  1  0.00000000  0.57230000  0.73040000  1.0 -0.5534087765
O  O55  1  0.42770000  0.00000000  0.23040000  1.0 -0.5534087765
O  O56  1  0.57230000  0.00000000  0.23040000  1.0 -0.5534087765
O  O57  1  0.90730000  0.47400000  0.30410000  1.0 -0.0625573388
O  O58  1  0.47400000  0.09270000  0.80410000  1.0 -0.0625573388
O  O59  1  0.09270000  0.52600000  0.30410000  1.0 -0.0625573388
O  O60  1  0.52600000  0.90730000  0.80410000  1.0 -0.0625573388
O  O61  1  0.09270000  0.47400000  0.69590000  1.0 -0.0625573388
O  O62  1  0.90730000  0.52600000  0.69590000  1.0 -0.0625573388
O  O63  1  0.47400000  0.90730000  0.19590000  1.0 -0.0625573388
O  O64  1  0.52600000  0.09270000  0.19590000  1.0 -0.0625573388
O  O65  1  0.09270000  0.52600000  0.69590000  1.0 -0.0625573388
O  O66  1  0.52600000  0.90730000  0.19590000  1.0 -0.0625573388
O  O67  1  0.90730000  0.47400000  0.69590000  1.0 -0.0625573388
O  O68  1  0.47400000  0.09270000  0.19590000  1.0 -0.0625573388
O  O69  1  0.90730000  0.52600000  0.30410000  1.0 -0.0625573388
O  O70  1  0.09270000  0.47400000  0.30410000  1.0 -0.0625573388
O  O71  1  0.52600000  0.09270000  0.80410000  1.0 -0.0625573388
O  O72  1  0.47400000  0.90730000  0.80410000  1.0 -0.0625573388
F  F1  1  0.32580000  0.37600000  0.05420000  1.0 -0.0360374647
F  F2  1  0.37600000  0.67420000  0.55420000  1.0 -0.0306517939
F  F3  1  0.67420000  0.62400000  0.05420000  1.0 -0.0360374647
F  F4  1  0.62400000  0.32580000  0.55420000  1.0 -0.0306517939
F  F5  1  0.67420000  0.37600000  0.94580000  1.0 -0.0306517939
F  F6  1  0.32580000  0.62400000  0.94580000  1.0 -0.0306517939
F  F7  1  0.37600000  0.32580000  0.44580000  1.0 -0.0306517939
F  F8  1  0.62400000  0.67420000  0.44580000  1.0 -0.0306517939
F  F9  1  0.67420000  0.62400000  0.94580000  1.0 -0.0306517939
F  F10  1  0.62400000  0.32580000  0.44580000  1.0 -0.0306517939
F  F11  1  0.32580000  0.37600000  0.94580000  1.0 -0.0306517939
F  F12  1  0.37600000  0.67420000  0.44580000  1.0 -0.0306517939
F  F13  1  0.32580000  0.62400000  0.05420000  1.0 -0.0360374647
F  F14  1  0.67420000  0.37600000  0.05420000  1.0 -0.0360374647
F  F15  1  0.62400000  0.67420000  0.55420000  1.0 -0.0306517939
F  F16  1  0.37600000  0.32580000  0.55420000  1.0 -0.0306517939
F  F17  1  0.36510000  0.34660000  0.17310000  1.0 -0.1803238067
F  F18  1  0.34660000  0.63490000  0.67310000  1.0 -0.1803238067
F  F19  1  0.63490000  0.65340000  0.17310000  1.0 -0.1803238067
F  F20  1  0.65340000  0.36510000  0.67310000  1.0 -0.1803238067
F  F21  1  0.63490000  0.34660000  0.82690000  1.0 -0.1803238067
F  F22  1  0.36510000  0.65340000  0.82690000  1.0 -0.1803238067
F  F23  1  0.34660000  0.36510000  0.32690000  1.0 -0.1803238067
F  F24  1  0.65340000  0.63490000  0.32690000  1.0 -0.1803238067
F  F25  1  0.63490000  0.65340000  0.82690000  1.0 -0.1803238067
F  F26  1  0.65340000  0.36510000  0.32690000  1.0 -0.1803238067
F  F27  1  0.36510000  0.34660000  0.82690000  1.0 -0.1803238067
F  F28  1  0.34660000  0.63490000  0.32690000  1.0 -0.1803238067
F  F29  1  0.36510000  0.65340000  0.17310000  1.0 -0.1803238067
F  F30  1  0.63490000  0.34660000  0.17310000  1.0 -0.1803238067
F  F31  1  0.65340000  0.63490000  0.67310000  1.0 -0.1803238067
F  F32  1  0.34660000  0.36510000  0.67310000  1.0 -0.1803238067
F  F33  1  0.33790000  0.29120000  0.07170000  1.0 -0.1941477629
F  F34  1  0.29120000  0.66210000  0.57170000  1.0 -0.1941477629
F  F35  1  0.66210000  0.70880000  0.07170000  1.0 -0.1941477629
F  F36  1  0.70880000  0.33790000  0.57170000  1.0 -0.1941477629
F  F37  1  0.66210000  0.29120000  0.92830000  1.0 -0.1941477629
F  F38  1  0.33790000  0.70880000  0.92830000  1.0 -0.1941477629
F  F39  1  0.29120000  0.33790000  0.42830000  1.0 -0.1941477629
F  F40  1  0.70880000  0.66210000  0.42830000  1.0 -0.1941477629
F  F41  1  0.66210000  0.70880000  0.92830000  1.0 -0.1941477629
F  F42  1  0.70880000  0.33790000  0.42830000  1.0 -0.1941477629
F  F43  1  0.33790000  0.29120000  0.92830000  1.0 -0.1941477629
F  F44  1  0.29120000  0.66210000  0.42830000  1.0 -0.1941477629
F  F45  1  0.33790000  0.70880000  0.07170000  1.0 -0.1941477629
F  F46  1  0.66210000  0.29120000  0.07170000  1.0 -0.1941477629
F  F47  1  0.70880000  0.66210000  0.57170000  1.0 -0.1941477629
F  F48  1  0.29120000  0.33790000  0.57170000  1.0 -0.1941477629
F  F49  1  0.22440000  0.26990000  0.43470000  1.0 -0.1523047807
F  F50  1  0.26990000  0.77560000  0.93470000  1.0 -0.1523047807
F  F51  1  0.77560000  0.73010000  0.43470000  1.0 -0.1523047807
F  F52  1  0.73010000  0.22440000  0.93470000  1.0 -0.1523047807
F  F53  1  0.77560000  0.26990000  0.56530000  1.0 -0.1523047807
F  F54  1  0.22440000  0.73010000  0.56530000  1.0 -0.1523047807
F  F55  1  0.26990000  0.22440000  0.06530000  1.0 -0.1523047807
F  F56  1  0.73010000  0.77560000  0.06530000  1.0 -0.1523047807
F  F57  1  0.77560000  0.73010000  0.56530000  1.0 -0.1523047807
F  F58  1  0.73010000  0.22440000  0.06530000  1.0 -0.1523047807
F  F59  1  0.22440000  0.26990000  0.56530000  1.0 -0.1523047807
F  F60  1  0.26990000  0.77560000  0.06530000  1.0 -0.1523047807
F  F61  1  0.22440000  0.73010000  0.43470000  1.0 -0.1523047807
F  F62  1  0.77560000  0.26990000  0.43470000  1.0 -0.1523047807
F  F63  1  0.73010000  0.77560000  0.93470000  1.0 -0.1523047807
F  F64  1  0.26990000  0.22440000  0.93470000  1.0 -0.1523047807
F  F65  1  0.14090000  0.28240000  0.40860000  1.0 -0.2029899071
F  F66  1  0.28240000  0.85910000  0.90860000  1.0 -0.2029899071
F  F67  1  0.85910000  0.71760000  0.40860000  1.0 -0.2029899071
F  F68  1  0.71760000  0.14090000  0.90860000  1.0 -0.2029899071
F  F69  1  0.85910000  0.28240000  0.59140000  1.0 -0.2029899071
F  F70  1  0.14090000  0.71760000  0.59140000  1.0 -0.2029899071
F  F71  1  0.28240000  0.14090000  0.09140000  1.0 -0.2029899071
F  F72  1  0.71760000  0.85910000  0.09140000  1.0 -0.2029899071
F  F73  1  0.85910000  0.71760000  0.59140000  1.0 -0.2029899071
F  F74  1  0.71760000  0.14090000  0.09140000  1.0 -0.2029899071
F  F75  1  0.14090000  0.28240000  0.59140000  1.0 -0.2029899071
F  F76  1  0.28240000  0.85910000  0.09140000  1.0 -0.2029899071
F  F77  1  0.14090000  0.71760000  0.40860000  1.0 -0.2029899071
F  F78  1  0.85910000  0.28240000  0.40860000  1.0 -0.2029899071
F  F79  1  0.71760000  0.85910000  0.90860000  1.0 -0.2029899071
F  F80  1  0.28240000  0.14090000  0.90860000  1.0 -0.2029899071
F  F81  1  0.17950000  0.21210000  0.35860000  1.0 -0.1678411416
F  F82  1  0.21210000  0.82050000  0.85860000  1.0 -0.1678411416
F  F83  1  0.82050000  0.78790000  0.35860000  1.0 -0.1678411416
F  F84  1  0.78790000  0.17950000  0.85860000  1.0 -0.1678411416
F  F85  1  0.82050000  0.21210000  0.64140000  1.0 -0.1678411416
F  F86  1  0.17950000  0.78790000  0.64140000  1.0 -0.1678411416
F  F87  1  0.21210000  0.17950000  0.14140000  1.0 -0.1678411416
F  F88  1  0.78790000  0.82050000  0.14140000  1.0 -0.1678411416
F  F89  1  0.82050000  0.78790000  0.64140000  1.0 -0.1678411416
F  F90  1  0.78790000  0.17950000  0.14140000  1.0 -0.1678411416
F  F91  1  0.17950000  0.21210000  0.64140000  1.0 -0.1678411416
F  F92  1  0.21210000  0.82050000  0.14140000  1.0 -0.1678411416
F  F93  1  0.17950000  0.78790000  0.35860000  1.0 -0.1678411416
F  F94  1  0.82050000  0.21210000  0.35860000  1.0 -0.1678411416
F  F95  1  0.78790000  0.82050000  0.85860000  1.0 -0.1678411416
F  F96  1  0.21210000  0.17950000  0.85860000  1.0 -0.1678411416
