# DDEC6 charges by PACMAN v1.1 (https://github.com/mtap-research/PACMAN-charge/)
data_OQUFUD_ASR_pacman
_symmetry_space_group_name_H-M   'P 1'
_cell_length_a   23.78510000
_cell_length_b   23.78510000
_cell_length_c   16.83990000
_cell_angle_alpha   90.00000000
_cell_angle_beta   90.00000000
_cell_angle_gamma   90.00000000
_symmetry_Int_Tables_number   1
_chemical_formula_structural   Zr3H22C46(O7F12)2
_chemical_formula_sum   'Zr12 H88 C184 O56 F96'
_cell_volume   9526.85316395
_cell_formula_units_Z   4
loop_
 _symmetry_equiv_pos_site_id
 _symmetry_equiv_pos_as_xyz
  1  'x, y, z'
loop_
 _atom_site_type_symbol
 _atom_site_label
 _atom_site_symmetry_multiplicity
 _atom_site_fract_x
 _atom_site_fract_y
 _atom_site_fract_z
 _atom_site_occupancy
 _atom_site_charge
Zr  Zr1  1  0.10411000  0.50000000  0.00000000  1.0 2.3859485553
Zr  Zr2  1  0.50000000  0.89589000  0.50000000  1.0 2.3829679654
Zr  Zr3  1  0.89589000  0.50000000  0.00000000  1.0 2.3859485553
Zr  Zr4  1  0.50000000  0.10411000  0.50000000  1.0 2.3829679654
Zr  Zr5  1  0.00000000  0.42687000  0.10496000  1.0 2.4343847996
Zr  Zr6  1  0.42687000  0.00000000  0.60496000  1.0 2.4343847996
Zr  Zr7  1  0.00000000  0.57313000  0.10496000  1.0 2.4343847996
Zr  Zr8  1  0.57313000  0.00000000  0.60496000  1.0 2.4352170394
Zr  Zr9  1  0.00000000  0.42687000  0.89504000  1.0 2.4343847996
Zr  Zr10  1  0.00000000  0.57313000  0.89504000  1.0 2.4343847996
Zr  Zr11  1  0.42687000  0.00000000  0.39504000  1.0 2.4343847996
Zr  Zr12  1  0.57313000  0.00000000  0.39504000  1.0 2.4352170394
H  H1  1  0.12540000  0.33660000  0.24880000  1.0 0.1278179214
H  H2  1  0.33660000  0.87460000  0.74880000  1.0 0.1278179214
H  H3  1  0.87460000  0.66340000  0.24880000  1.0 0.1278179214
H  H4  1  0.66340000  0.12540000  0.74880000  1.0 0.1278179214
H  H5  1  0.87460000  0.33660000  0.75120000  1.0 0.1278179214
H  H6  1  0.12540000  0.66340000  0.75120000  1.0 0.1278179214
H  H7  1  0.33660000  0.12540000  0.25120000  1.0 0.1278179214
H  H8  1  0.66340000  0.87460000  0.25120000  1.0 0.1278179214
H  H9  1  0.87460000  0.66340000  0.75120000  1.0 0.1278179214
H  H10  1  0.66340000  0.12540000  0.25120000  1.0 0.1278179214
H  H11  1  0.12540000  0.33660000  0.75120000  1.0 0.1278179214
H  H12  1  0.33660000  0.87460000  0.25120000  1.0 0.1278179214
H  H13  1  0.12540000  0.66340000  0.24880000  1.0 0.1278179214
H  H14  1  0.87460000  0.33660000  0.24880000  1.0 0.1278179214
H  H15  1  0.66340000  0.87460000  0.74880000  1.0 0.1278179214
H  H16  1  0.33660000  0.12540000  0.74880000  1.0 0.1278179214
H  H17  1  0.19330000  0.27920000  0.30910000  1.0 0.1770129332
H  H18  1  0.27920000  0.80670000  0.80910000  1.0 0.1770129332
H  H19  1  0.80670000  0.72080000  0.30910000  1.0 0.1770129332
H  H20  1  0.72080000  0.19330000  0.80910000  1.0 0.1770129332
H  H21  1  0.80670000  0.27920000  0.69090000  1.0 0.1770129332
H  H22  1  0.19330000  0.72080000  0.69090000  1.0 0.1770129332
H  H23  1  0.27920000  0.19330000  0.19090000  1.0 0.1770129332
H  H24  1  0.72080000  0.80670000  0.19090000  1.0 0.1770129332
H  H25  1  0.80670000  0.72080000  0.69090000  1.0 0.1770129332
H  H26  1  0.72080000  0.19330000  0.19090000  1.0 0.1770129332
H  H27  1  0.19330000  0.27920000  0.69090000  1.0 0.1770129332
H  H28  1  0.27920000  0.80670000  0.19090000  1.0 0.1770129332
H  H29  1  0.19330000  0.72080000  0.30910000  1.0 0.1770129332
H  H30  1  0.80670000  0.27920000  0.30910000  1.0 0.1770129332
H  H31  1  0.72080000  0.80670000  0.80910000  1.0 0.1770129332
H  H32  1  0.27920000  0.19330000  0.80910000  1.0 0.1770129332
H  H33  1  0.24270000  0.39520000  0.09740000  1.0 0.1278179214
H  H34  1  0.39520000  0.75730000  0.59740000  1.0 0.1278179214
H  H35  1  0.75730000  0.60480000  0.09740000  1.0 0.1278179214
H  H36  1  0.60480000  0.24270000  0.59740000  1.0 0.1278179214
H  H37  1  0.75730000  0.39520000  0.90260000  1.0 0.1278179214
H  H38  1  0.24270000  0.60480000  0.90260000  1.0 0.1278179214
H  H39  1  0.39520000  0.24270000  0.40260000  1.0 0.1278179214
H  H40  1  0.60480000  0.75730000  0.40260000  1.0 0.1278179214
H  H41  1  0.75730000  0.60480000  0.90260000  1.0 0.1278179214
H  H42  1  0.60480000  0.24270000  0.40260000  1.0 0.1278179214
H  H43  1  0.24270000  0.39520000  0.90260000  1.0 0.1278179214
H  H44  1  0.39520000  0.75730000  0.40260000  1.0 0.1278179214
H  H45  1  0.24270000  0.60480000  0.09740000  1.0 0.1278179214
H  H46  1  0.75730000  0.39520000  0.09740000  1.0 0.1278179214
H  H47  1  0.60480000  0.75730000  0.59740000  1.0 0.1278179214
H  H48  1  0.39520000  0.24270000  0.59740000  1.0 0.1278179214
H  H49  1  0.00000000  0.41350000  0.33740000  1.0 0.1278179214
H  H50  1  0.41350000  0.00000000  0.83740000  1.0 0.1278179214
H  H51  1  0.00000000  0.58650000  0.33740000  1.0 0.1278179214
H  H52  1  0.58650000  0.00000000  0.83740000  1.0 0.1278179214
H  H53  1  0.00000000  0.41350000  0.66260000  1.0 0.1278179214
H  H54  1  0.00000000  0.58650000  0.66260000  1.0 0.1278179214
H  H55  1  0.41350000  0.00000000  0.16260000  1.0 0.1278179214
H  H56  1  0.58650000  0.00000000  0.16260000  1.0 0.1278179214
H  H57  1  0.00000000  0.39060000  0.47070000  1.0 0.1004349922
H  H58  1  0.39060000  0.00000000  0.97070000  1.0 0.1004349922
H  H59  1  0.00000000  0.60940000  0.47070000  1.0 0.1004349922
H  H60  1  0.60940000  0.00000000  0.97070000  1.0 0.1004349922
H  H61  1  0.00000000  0.39060000  0.52930000  1.0 0.1004349922
H  H62  1  0.00000000  0.60940000  0.52930000  1.0 0.1004349922
H  H63  1  0.39060000  0.00000000  0.02930000  1.0 0.1004349922
H  H64  1  0.60940000  0.00000000  0.02930000  1.0 0.1004349922
H  H65  1  0.00000000  0.58070000  0.39370000  1.0 0.1004349922
H  H66  1  0.58070000  0.00000000  0.89370000  1.0 0.1004349922
H  H67  1  0.00000000  0.41930000  0.39370000  1.0 0.1004349922
H  H68  1  0.41930000  0.00000000  0.89370000  1.0 0.1004349922
H  H69  1  0.00000000  0.58070000  0.60630000  1.0 0.1004349922
H  H70  1  0.00000000  0.41930000  0.60630000  1.0 0.1004349922
H  H71  1  0.58070000  0.00000000  0.10630000  1.0 0.1004349922
H  H72  1  0.41930000  0.00000000  0.10630000  1.0 0.1004349922
H  H73  1  0.30680000  0.33090000  0.15030000  1.0 0.1697003941
H  H74  1  0.33090000  0.69320000  0.65030000  1.0 0.1697003941
H  H75  1  0.69320000  0.66910000  0.15030000  1.0 0.1697003941
H  H76  1  0.66910000  0.30680000  0.65030000  1.0 0.1697003941
H  H77  1  0.69320000  0.33090000  0.84970000  1.0 0.1697003941
H  H78  1  0.30680000  0.66910000  0.84970000  1.0 0.1697003941
H  H79  1  0.33090000  0.30680000  0.34970000  1.0 0.1697003941
H  H80  1  0.66910000  0.69320000  0.34970000  1.0 0.1697003941
H  H81  1  0.69320000  0.66910000  0.84970000  1.0 0.1697003941
H  H82  1  0.66910000  0.30680000  0.34970000  1.0 0.1697003941
H  H83  1  0.30680000  0.33090000  0.84970000  1.0 0.1697003941
H  H84  1  0.33090000  0.69320000  0.34970000  1.0 0.1697003941
H  H85  1  0.30680000  0.66910000  0.15030000  1.0 0.1697003941
H  H86  1  0.69320000  0.33090000  0.15030000  1.0 0.1697003941
H  H87  1  0.66910000  0.69320000  0.65030000  1.0 0.1697003941
H  H88  1  0.33090000  0.30680000  0.65030000  1.0 0.1697003941
C  C1  1  0.13420000  0.40700000  0.12950000  1.0 0.6482738421
C  C2  1  0.40700000  0.86580000  0.62950000  1.0 0.6482738421
C  C3  1  0.86580000  0.59300000  0.12950000  1.0 0.6482738421
C  C4  1  0.59300000  0.13420000  0.62950000  1.0 0.6482738421
C  C5  1  0.86580000  0.40700000  0.87050000  1.0 0.6482738421
C  C6  1  0.13420000  0.59300000  0.87050000  1.0 0.6482738421
C  C7  1  0.40700000  0.13420000  0.37050000  1.0 0.6482738421
C  C8  1  0.59300000  0.86580000  0.37050000  1.0 0.6482738421
C  C9  1  0.86580000  0.59300000  0.87050000  1.0 0.6482738421
C  C10  1  0.59300000  0.13420000  0.37050000  1.0 0.6482738421
C  C11  1  0.13420000  0.40700000  0.87050000  1.0 0.6482738421
C  C12  1  0.40700000  0.86580000  0.37050000  1.0 0.6482738421
C  C13  1  0.13420000  0.59300000  0.12950000  1.0 0.6482738421
C  C14  1  0.86580000  0.40700000  0.12950000  1.0 0.6482738421
C  C15  1  0.59300000  0.86580000  0.62950000  1.0 0.6482738421
C  C16  1  0.40700000  0.13420000  0.62950000  1.0 0.6482738421
C  C17  1  0.17730000  0.37050000  0.16660000  1.0 -0.0481215044
C  C18  1  0.37050000  0.82270000  0.66666667  1.0 -0.0481215044
C  C19  1  0.82270000  0.62950000  0.16660000  1.0 -0.0481215044
C  C20  1  0.62950000  0.17730000  0.66666667  1.0 -0.0481215044
C  C21  1  0.82270000  0.37050000  0.83340000  1.0 -0.0481215044
C  C22  1  0.17730000  0.62950000  0.83340000  1.0 -0.0481215044
C  C23  1  0.37050000  0.17730000  0.33340000  1.0 -0.0481215044
C  C24  1  0.62950000  0.82270000  0.33340000  1.0 -0.0481215044
C  C25  1  0.82270000  0.62950000  0.83340000  1.0 -0.0481215044
C  C26  1  0.62950000  0.17730000  0.33340000  1.0 -0.0481215044
C  C27  1  0.17730000  0.37050000  0.83340000  1.0 -0.0481215044
C  C28  1  0.37050000  0.82270000  0.33340000  1.0 -0.0481215044
C  C29  1  0.17730000  0.62950000  0.16660000  1.0 -0.0481215044
C  C30  1  0.82270000  0.37050000  0.16660000  1.0 -0.0481215044
C  C31  1  0.62950000  0.82270000  0.66666667  1.0 -0.0481215044
C  C32  1  0.37050000  0.17730000  0.66666667  1.0 -0.0481215044
C  C33  1  0.16290000  0.33630000  0.22910000  1.0 -0.0396088989
C  C34  1  0.33630000  0.83710000  0.72910000  1.0 -0.0396088989
C  C35  1  0.83710000  0.66370000  0.22910000  1.0 -0.0396088989
C  C36  1  0.66370000  0.16290000  0.72910000  1.0 -0.0396088989
C  C37  1  0.83710000  0.33630000  0.77090000  1.0 -0.0396088989
C  C38  1  0.16290000  0.66370000  0.77090000  1.0 -0.0396088989
C  C39  1  0.33630000  0.16290000  0.27090000  1.0 -0.0396088989
C  C40  1  0.66370000  0.83710000  0.27090000  1.0 -0.0396088989
C  C41  1  0.83710000  0.66370000  0.77090000  1.0 -0.0396088989
C  C42  1  0.66370000  0.16290000  0.27090000  1.0 -0.0396088989
C  C43  1  0.16290000  0.33630000  0.77090000  1.0 -0.0396088989
C  C44  1  0.33630000  0.83710000  0.27090000  1.0 -0.0396088989
C  C45  1  0.16290000  0.66370000  0.22910000  1.0 -0.0396088989
C  C46  1  0.83710000  0.33630000  0.22910000  1.0 -0.0396088989
C  C47  1  0.66370000  0.83710000  0.72910000  1.0 -0.0396088989
C  C48  1  0.33630000  0.16290000  0.72910000  1.0 -0.0396088989
C  C49  1  0.20300000  0.30090000  0.26370000  1.0 -0.1559383425
C  C50  1  0.30090000  0.79700000  0.76370000  1.0 -0.1559383425
C  C51  1  0.79700000  0.69910000  0.26370000  1.0 -0.1559383425
C  C52  1  0.69910000  0.20300000  0.76370000  1.0 -0.1559383425
C  C53  1  0.79700000  0.30090000  0.73630000  1.0 -0.1559383425
C  C54  1  0.20300000  0.69910000  0.73630000  1.0 -0.1559383425
C  C55  1  0.30090000  0.20300000  0.23630000  1.0 -0.1559383425
C  C56  1  0.69910000  0.79700000  0.23630000  1.0 -0.1559383425
C  C57  1  0.79700000  0.69910000  0.73630000  1.0 -0.1559383425
C  C58  1  0.69910000  0.20300000  0.23630000  1.0 -0.1559383425
C  C59  1  0.20300000  0.30090000  0.73630000  1.0 -0.1559383425
C  C60  1  0.30090000  0.79700000  0.23630000  1.0 -0.1559383425
C  C61  1  0.20300000  0.69910000  0.26370000  1.0 -0.1559383425
C  C62  1  0.79700000  0.30090000  0.26370000  1.0 -0.1559383425
C  C63  1  0.69910000  0.79700000  0.76370000  1.0 -0.1559383425
C  C64  1  0.30090000  0.20300000  0.76370000  1.0 -0.1559383425
C  C65  1  0.25580000  0.29740000  0.23310000  1.0 0.0318279153
C  C66  1  0.29740000  0.74420000  0.73310000  1.0 0.0318279153
C  C67  1  0.74420000  0.70260000  0.23310000  1.0 0.0318279153
C  C68  1  0.70260000  0.25580000  0.73310000  1.0 0.0318279153
C  C69  1  0.74420000  0.29740000  0.76690000  1.0 0.0318279153
C  C70  1  0.25580000  0.70260000  0.76690000  1.0 0.0318279153
C  C71  1  0.29740000  0.25580000  0.26690000  1.0 0.0318279153
C  C72  1  0.70260000  0.74420000  0.26690000  1.0 0.0318279153
C  C73  1  0.74420000  0.70260000  0.76690000  1.0 0.0318279153
C  C74  1  0.70260000  0.25580000  0.26690000  1.0 0.0318279153
C  C75  1  0.25580000  0.29740000  0.76690000  1.0 0.0318279153
C  C76  1  0.29740000  0.74420000  0.26690000  1.0 0.0318279153
C  C77  1  0.25580000  0.70260000  0.23310000  1.0 0.0318279153
C  C78  1  0.74420000  0.29740000  0.23310000  1.0 0.0318279153
C  C79  1  0.70260000  0.74420000  0.73310000  1.0 0.0318279153
C  C80  1  0.29740000  0.25580000  0.73310000  1.0 0.0318279153
C  C81  1  0.26980000  0.33240000  0.17130000  1.0 -0.1485269845
C  C82  1  0.33240000  0.73020000  0.67130000  1.0 -0.1485269845
C  C83  1  0.73020000  0.66760000  0.17130000  1.0 -0.1485269845
C  C84  1  0.66760000  0.26980000  0.67130000  1.0 -0.1485269845
C  C85  1  0.73020000  0.33240000  0.82870000  1.0 -0.1485269845
C  C86  1  0.26980000  0.66760000  0.82870000  1.0 -0.1485269845
C  C87  1  0.33240000  0.26980000  0.32870000  1.0 -0.1485269845
C  C88  1  0.66760000  0.73020000  0.32870000  1.0 -0.1485269845
C  C89  1  0.73020000  0.66760000  0.82870000  1.0 -0.1485269845
C  C90  1  0.66760000  0.26980000  0.32870000  1.0 -0.1485269845
C  C91  1  0.26980000  0.33240000  0.82870000  1.0 -0.1485269845
C  C92  1  0.33240000  0.73020000  0.32870000  1.0 -0.1485269845
C  C93  1  0.26980000  0.66760000  0.17130000  1.0 -0.1485269845
C  C94  1  0.73020000  0.33240000  0.17130000  1.0 -0.1485269845
C  C95  1  0.66760000  0.73020000  0.67130000  1.0 -0.1485269845
C  C96  1  0.33240000  0.26980000  0.67130000  1.0 -0.1485269845
C  C97  1  0.23150000  0.37020000  0.13850000  1.0 -0.0481215044
C  C98  1  0.37020000  0.76850000  0.63850000  1.0 -0.0481215044
C  C99  1  0.76850000  0.62980000  0.13850000  1.0 -0.0481215044
C  C100  1  0.62980000  0.23150000  0.63850000  1.0 -0.0481215044
C  C101  1  0.76850000  0.37020000  0.86150000  1.0 -0.0481215044
C  C102  1  0.23150000  0.62980000  0.86150000  1.0 -0.0481215044
C  C103  1  0.37020000  0.23150000  0.36150000  1.0 -0.0481215044
C  C104  1  0.62980000  0.76850000  0.36150000  1.0 -0.0481215044
C  C105  1  0.76850000  0.62980000  0.86150000  1.0 -0.0481215044
C  C106  1  0.62980000  0.23150000  0.36150000  1.0 -0.0481215044
C  C107  1  0.23150000  0.37020000  0.86150000  1.0 -0.0481215044
C  C108  1  0.37020000  0.76850000  0.36150000  1.0 -0.0481215044
C  C109  1  0.23150000  0.62980000  0.13850000  1.0 -0.0481215044
C  C110  1  0.76850000  0.37020000  0.13850000  1.0 -0.0481215044
C  C111  1  0.62980000  0.76850000  0.63850000  1.0 -0.0481215044
C  C112  1  0.37020000  0.23150000  0.63850000  1.0 -0.0481215044
C  C113  1  0.00000000  0.50000000  0.26560000  1.0 0.5643949077
C  C114  1  0.50000000  0.00000000  0.76560000  1.0 0.5655564235
C  C115  1  0.00000000  0.50000000  0.73440000  1.0 0.5643949077
C  C116  1  0.50000000  0.00000000  0.23440000  1.0 0.5655564235
C  C117  1  0.00000000  0.50000000  0.35150000  1.0 -0.0811230171
C  C118  1  0.50000000  0.00000000  0.85150000  1.0 -0.0811230171
C  C119  1  0.00000000  0.50000000  0.64850000  1.0 -0.0811230171
C  C120  1  0.50000000  0.00000000  0.14850000  1.0 -0.0811230171
C  C121  1  0.00000000  0.44300000  0.37540000  1.0 -0.0973045401
C  C122  1  0.44300000  0.00000000  0.87540000  1.0 -0.0973045401
C  C123  1  0.00000000  0.55700000  0.37540000  1.0 -0.0973045401
C  C124  1  0.55700000  0.00000000  0.87540000  1.0 -0.0973045401
C  C125  1  0.00000000  0.44300000  0.62460000  1.0 -0.0973045401
C  C126  1  0.00000000  0.55700000  0.62460000  1.0 -0.0973045401
C  C127  1  0.44300000  0.00000000  0.12460000  1.0 -0.0973045401
C  C128  1  0.55700000  0.00000000  0.12460000  1.0 -0.0973045401
C  C129  1  0.00000000  0.42930000  0.45670000  1.0 -0.0481215044
C  C130  1  0.42930000  0.00000000  0.95670000  1.0 -0.0481215044
C  C131  1  0.00000000  0.57070000  0.45670000  1.0 -0.0481215044
C  C132  1  0.57070000  0.00000000  0.95670000  1.0 -0.0481215044
C  C133  1  0.00000000  0.42930000  0.54330000  1.0 -0.0481215044
C  C134  1  0.00000000  0.57070000  0.54330000  1.0 -0.0481215044
C  C135  1  0.42930000  0.00000000  0.04330000  1.0 -0.0481215044
C  C136  1  0.57070000  0.00000000  0.04330000  1.0 -0.0481215044
C  C137  1  0.00000000  0.47212000  0.51190000  1.0 0.0318279153
C  C138  1  0.47212000  0.00000000  0.01190000  1.0 0.0318279153
C  C139  1  0.00000000  0.52788000  0.51190000  1.0 0.0318279153
C  C140  1  0.52788000  0.00000000  0.01190000  1.0 0.0318279153
C  C141  1  0.00000000  0.47212000  0.48810000  1.0 0.0318279153
C  C142  1  0.00000000  0.52788000  0.48810000  1.0 0.0318279153
C  C143  1  0.47212000  0.00000000  0.98810000  1.0 0.0318279153
C  C144  1  0.52788000  0.00000000  0.98810000  1.0 0.0318279153
C  C145  1  0.00000000  0.54160000  0.40720000  1.0 -0.0268405437
C  C146  1  0.54160000  0.00000000  0.90720000  1.0 -0.0268405437
C  C147  1  0.00000000  0.45840000  0.40720000  1.0 -0.0268405437
C  C148  1  0.45840000  0.00000000  0.90720000  1.0 -0.0268405437
C  C149  1  0.00000000  0.54160000  0.59280000  1.0 -0.0268405437
C  C150  1  0.00000000  0.45840000  0.59280000  1.0 -0.0268405437
C  C151  1  0.54160000  0.00000000  0.09280000  1.0 -0.0268405437
C  C152  1  0.45840000  0.00000000  0.09280000  1.0 -0.0268405437
C  C153  1  0.32460000  0.33060000  0.12600000  1.0 0.3820979471
C  C154  1  0.33060000  0.67540000  0.62600000  1.0 0.3820979471
C  C155  1  0.67540000  0.66940000  0.12600000  1.0 0.3820979471
C  C156  1  0.66940000  0.32460000  0.62600000  1.0 0.3820979471
C  C157  1  0.67540000  0.33060000  0.87400000  1.0 0.3820979471
C  C158  1  0.32460000  0.66940000  0.87400000  1.0 0.3820979471
C  C159  1  0.33060000  0.32460000  0.37400000  1.0 0.3820979471
C  C160  1  0.66940000  0.67540000  0.37400000  1.0 0.3820979471
C  C161  1  0.67540000  0.66940000  0.87400000  1.0 0.3820979471
C  C162  1  0.66940000  0.32460000  0.37400000  1.0 0.3820979471
C  C163  1  0.32460000  0.33060000  0.87400000  1.0 0.3820979471
C  C164  1  0.33060000  0.67540000  0.37400000  1.0 0.3820979471
C  C165  1  0.32460000  0.66940000  0.12600000  1.0 0.3820979471
C  C166  1  0.67540000  0.33060000  0.12600000  1.0 0.3820979471
C  C167  1  0.66940000  0.67540000  0.62600000  1.0 0.3820979471
C  C168  1  0.33060000  0.32460000  0.62600000  1.0 0.3820979471
C  C169  1  0.17960000  0.26720000  0.33230000  1.0 0.3820979471
C  C170  1  0.26720000  0.82040000  0.83230000  1.0 0.3820979471
C  C171  1  0.82040000  0.73280000  0.33230000  1.0 0.3820979471
C  C172  1  0.73280000  0.17960000  0.83230000  1.0 0.3820979471
C  C173  1  0.82040000  0.26720000  0.66770000  1.0 0.3820979471
C  C174  1  0.17960000  0.73280000  0.66770000  1.0 0.3820979471
C  C175  1  0.26720000  0.17960000  0.16770000  1.0 0.3820979471
C  C176  1  0.73280000  0.82040000  0.16770000  1.0 0.3820979471
C  C177  1  0.82040000  0.73280000  0.66770000  1.0 0.3820979471
C  C178  1  0.73280000  0.17960000  0.16770000  1.0 0.3820979471
C  C179  1  0.17960000  0.26720000  0.66770000  1.0 0.3820979471
C  C180  1  0.26720000  0.82040000  0.16770000  1.0 0.3820979471
C  C181  1  0.17960000  0.73280000  0.33230000  1.0 0.3820979471
C  C182  1  0.82040000  0.26720000  0.33230000  1.0 0.3820979471
C  C183  1  0.73280000  0.82040000  0.83230000  1.0 0.3820979471
C  C184  1  0.26720000  0.17960000  0.83230000  1.0 0.3820979471
O  O1  1  0.15082000  0.44234000  0.07970000  1.0 -0.5705518781
O  O2  1  0.44234000  0.84918000  0.57970000  1.0 -0.5705518781
O  O3  1  0.84918000  0.55766000  0.07970000  1.0 -0.5705518781
O  O4  1  0.55766000  0.15082000  0.57970000  1.0 -0.5705518781
O  O5  1  0.84918000  0.44234000  0.92030000  1.0 -0.5705518781
O  O6  1  0.15082000  0.55766000  0.92030000  1.0 -0.5705518781
O  O7  1  0.44234000  0.15082000  0.42030000  1.0 -0.5705518781
O  O8  1  0.55766000  0.84918000  0.42030000  1.0 -0.5705518781
O  O9  1  0.84918000  0.55766000  0.92030000  1.0 -0.5705518781
O  O10  1  0.55766000  0.15082000  0.42030000  1.0 -0.5705518781
O  O11  1  0.15082000  0.44234000  0.92030000  1.0 -0.5705518781
O  O12  1  0.44234000  0.84918000  0.42030000  1.0 -0.5705518781
O  O13  1  0.15082000  0.55766000  0.07970000  1.0 -0.5705518781
O  O14  1  0.84918000  0.44234000  0.07970000  1.0 -0.5705518781
O  O15  1  0.55766000  0.84918000  0.57970000  1.0 -0.5705518781
O  O16  1  0.44234000  0.15082000  0.57970000  1.0 -0.5705518781
O  O17  1  0.08360000  0.39822000  0.15060000  1.0 -0.5912715628
O  O18  1  0.39822000  0.91640000  0.65060000  1.0 -0.5912715628
O  O19  1  0.91640000  0.60178000  0.15060000  1.0 -0.5912715628
O  O20  1  0.60178000  0.08360000  0.65060000  1.0 -0.5912715628
O  O21  1  0.91640000  0.39822000  0.84940000  1.0 -0.5912715628
O  O22  1  0.08360000  0.60178000  0.84940000  1.0 -0.5912715628
O  O23  1  0.39822000  0.08360000  0.34940000  1.0 -0.5912715628
O  O24  1  0.60178000  0.91640000  0.34940000  1.0 -0.5912715628
O  O25  1  0.91640000  0.60178000  0.84940000  1.0 -0.5912715628
O  O26  1  0.60178000  0.08360000  0.34940000  1.0 -0.5912715628
O  O27  1  0.08360000  0.39822000  0.84940000  1.0 -0.5912715628
O  O28  1  0.39822000  0.91640000  0.34940000  1.0 -0.5912715628
O  O29  1  0.08360000  0.60178000  0.15060000  1.0 -0.5912715628
O  O30  1  0.91640000  0.39822000  0.15060000  1.0 -0.5912715628
O  O31  1  0.60178000  0.91640000  0.65060000  1.0 -0.5912715628
O  O32  1  0.39822000  0.08360000  0.65060000  1.0 -0.5912715628
O  O33  1  0.05070000  0.42410000  0.00000000  1.0 -1.1482367947
O  O34  1  0.42410000  0.94930000  0.50000000  1.0 -1.144475682
O  O35  1  0.94930000  0.57590000  0.00000000  1.0 -1.1482367947
O  O36  1  0.57590000  0.05070000  0.50000000  1.0 -1.144475682
O  O37  1  0.94930000  0.42410000  0.00000000  1.0 -1.1482367947
O  O38  1  0.05070000  0.57590000  0.00000000  1.0 -1.1482367947
O  O39  1  0.42410000  0.05070000  0.50000000  1.0 -1.144475682
O  O40  1  0.57590000  0.94930000  0.50000000  1.0 -1.144475682
O  O41  1  0.05080000  0.50000000  0.09980000  1.0 -1.0919065311
O  O42  1  0.50000000  0.94920000  0.59980000  1.0 -1.0919065311
O  O43  1  0.94920000  0.50000000  0.09980000  1.0 -1.0919065311
O  O44  1  0.50000000  0.05080000  0.59980000  1.0 -1.0919065311
O  O45  1  0.94920000  0.50000000  0.90020000  1.0 -1.0919065311
O  O46  1  0.05080000  0.50000000  0.90020000  1.0 -1.0919065311
O  O47  1  0.50000000  0.05080000  0.40020000  1.0 -1.0919065311
O  O48  1  0.50000000  0.94920000  0.40020000  1.0 -1.0919065311
O  O49  1  0.00000000  0.45300000  0.23090000  1.0 -0.5395757838
O  O50  1  0.45300000  0.00000000  0.73090000  1.0 -0.5395757838
O  O51  1  0.00000000  0.54700000  0.23090000  1.0 -0.5395757838
O  O52  1  0.54700000  0.00000000  0.73090000  1.0 -0.5395757838
O  O53  1  0.00000000  0.45300000  0.76910000  1.0 -0.5395757838
O  O54  1  0.00000000  0.54700000  0.76910000  1.0 -0.5395757838
O  O55  1  0.45300000  0.00000000  0.26910000  1.0 -0.5395757838
O  O56  1  0.54700000  0.00000000  0.26910000  1.0 -0.5395757838
F  F1  1  0.37220000  0.34120000  0.17310000  1.0 -0.1753347649
F  F2  1  0.34120000  0.62780000  0.67310000  1.0 -0.1753347649
F  F3  1  0.62780000  0.65880000  0.17310000  1.0 -0.1753347649
F  F4  1  0.65880000  0.37220000  0.67310000  1.0 -0.1753347649
F  F5  1  0.62780000  0.34120000  0.82690000  1.0 -0.1753347649
F  F6  1  0.37220000  0.65880000  0.82690000  1.0 -0.1753347649
F  F7  1  0.34120000  0.37220000  0.32690000  1.0 -0.1753347649
F  F8  1  0.65880000  0.62780000  0.32690000  1.0 -0.1753347649
F  F9  1  0.62780000  0.65880000  0.82690000  1.0 -0.1753347649
F  F10  1  0.65880000  0.37220000  0.32690000  1.0 -0.1753347649
F  F11  1  0.37220000  0.34120000  0.82690000  1.0 -0.1753347649
F  F12  1  0.34120000  0.62780000  0.32690000  1.0 -0.1753347649
F  F13  1  0.37220000  0.65880000  0.17310000  1.0 -0.1753347649
F  F14  1  0.62780000  0.34120000  0.17310000  1.0 -0.1753347649
F  F15  1  0.65880000  0.62780000  0.67310000  1.0 -0.1753347649
F  F16  1  0.34120000  0.37220000  0.67310000  1.0 -0.1753347649
F  F17  1  0.33450000  0.36610000  0.06360000  1.0 -0.1485269845
F  F18  1  0.36610000  0.66550000  0.56360000  1.0 -0.1485269845
F  F19  1  0.66550000  0.63390000  0.06360000  1.0 -0.1485269845
F  F20  1  0.63390000  0.33450000  0.56360000  1.0 -0.1485269845
F  F21  1  0.66550000  0.36610000  0.93640000  1.0 -0.1485269845
F  F22  1  0.33450000  0.63390000  0.93640000  1.0 -0.1485269845
F  F23  1  0.36610000  0.33450000  0.43640000  1.0 -0.1485269845
F  F24  1  0.63390000  0.66550000  0.43640000  1.0 -0.1485269845
F  F25  1  0.66550000  0.63390000  0.93640000  1.0 -0.1485269845
F  F26  1  0.63390000  0.33450000  0.43640000  1.0 -0.1485269845
F  F27  1  0.33450000  0.36610000  0.93640000  1.0 -0.1485269845
F  F28  1  0.36610000  0.66550000  0.43640000  1.0 -0.1485269845
F  F29  1  0.33450000  0.63390000  0.06360000  1.0 -0.1485269845
F  F30  1  0.66550000  0.36610000  0.06360000  1.0 -0.1485269845
F  F31  1  0.63390000  0.66550000  0.56360000  1.0 -0.1485269845
F  F32  1  0.36610000  0.33450000  0.56360000  1.0 -0.1485269845
F  F33  1  0.34340000  0.28010000  0.09340000  1.0 -0.1987581624
F  F34  1  0.28010000  0.65660000  0.59340000  1.0 -0.1987581624
F  F35  1  0.65660000  0.71990000  0.09340000  1.0 -0.1987581624
F  F36  1  0.71990000  0.34340000  0.59340000  1.0 -0.1987581624
F  F37  1  0.65660000  0.28010000  0.90660000  1.0 -0.1987581624
F  F38  1  0.34340000  0.71990000  0.90660000  1.0 -0.1987581624
F  F39  1  0.28010000  0.34340000  0.40660000  1.0 -0.1987581624
F  F40  1  0.71990000  0.65660000  0.40660000  1.0 -0.1987581624
F  F41  1  0.65660000  0.71990000  0.90660000  1.0 -0.1987581624
F  F42  1  0.71990000  0.34340000  0.40660000  1.0 -0.1987581624
F  F43  1  0.34340000  0.28010000  0.90660000  1.0 -0.1987581624
F  F44  1  0.28010000  0.65660000  0.40660000  1.0 -0.1987581624
F  F45  1  0.34340000  0.71990000  0.09340000  1.0 -0.1987581624
F  F46  1  0.65660000  0.28010000  0.09340000  1.0 -0.1987581624
F  F47  1  0.71990000  0.65660000  0.59340000  1.0 -0.1987581624
F  F48  1  0.28010000  0.34340000  0.59340000  1.0 -0.1987581624
F  F49  1  0.12670000  0.27550000  0.36100000  1.0 -0.1987581624
F  F50  1  0.27550000  0.87330000  0.86100000  1.0 -0.1987581624
F  F51  1  0.87330000  0.72450000  0.36100000  1.0 -0.1987581624
F  F52  1  0.72450000  0.12670000  0.86100000  1.0 -0.1987581624
F  F53  1  0.87330000  0.27550000  0.63900000  1.0 -0.1987581624
F  F54  1  0.12670000  0.72450000  0.63900000  1.0 -0.1987581624
F  F55  1  0.27550000  0.12670000  0.13900000  1.0 -0.1987581624
F  F56  1  0.72450000  0.87330000  0.13900000  1.0 -0.1987581624
F  F57  1  0.87330000  0.72450000  0.63900000  1.0 -0.1987581624
F  F58  1  0.72450000  0.12670000  0.13900000  1.0 -0.1987581624
F  F59  1  0.12670000  0.27550000  0.63900000  1.0 -0.1987581624
F  F60  1  0.27550000  0.87330000  0.13900000  1.0 -0.1987581624
F  F61  1  0.12670000  0.72450000  0.36100000  1.0 -0.1987581624
F  F62  1  0.87330000  0.27550000  0.36100000  1.0 -0.1987581624
F  F63  1  0.72450000  0.87330000  0.86100000  1.0 -0.1987581624
F  F64  1  0.27550000  0.12670000  0.86100000  1.0 -0.1987581624
F  F65  1  0.17880000  0.20920000  0.32320000  1.0 -0.1686185321
F  F66  1  0.20920000  0.82120000  0.82320000  1.0 -0.1686185321
F  F67  1  0.82120000  0.79080000  0.32320000  1.0 -0.1686185321
F  F68  1  0.79080000  0.17880000  0.82320000  1.0 -0.1686185321
F  F69  1  0.82120000  0.20920000  0.67680000  1.0 -0.1686185321
F  F70  1  0.17880000  0.79080000  0.67680000  1.0 -0.1686185321
F  F71  1  0.20920000  0.17880000  0.17680000  1.0 -0.1686185321
F  F72  1  0.79080000  0.82120000  0.17680000  1.0 -0.1686185321
F  F73  1  0.82120000  0.79080000  0.67680000  1.0 -0.1686185321
F  F74  1  0.79080000  0.17880000  0.17680000  1.0 -0.1686185321
F  F75  1  0.17880000  0.20920000  0.67680000  1.0 -0.1686185321
F  F76  1  0.20920000  0.82120000  0.17680000  1.0 -0.1686185321
F  F77  1  0.17880000  0.79080000  0.32320000  1.0 -0.1686185321
F  F78  1  0.82120000  0.20920000  0.32320000  1.0 -0.1686185321
F  F79  1  0.79080000  0.82120000  0.82320000  1.0 -0.1686185321
F  F80  1  0.20920000  0.17880000  0.82320000  1.0 -0.1686185321
F  F81  1  0.20950000  0.27040000  0.40450000  1.0 -0.1940890367
F  F82  1  0.27040000  0.79050000  0.90450000  1.0 -0.1940890367
F  F83  1  0.79050000  0.72960000  0.40450000  1.0 -0.1940890367
F  F84  1  0.72960000  0.20950000  0.90450000  1.0 -0.1940890367
F  F85  1  0.79050000  0.27040000  0.59550000  1.0 -0.1940890367
F  F86  1  0.20950000  0.72960000  0.59550000  1.0 -0.1940890367
F  F87  1  0.27040000  0.20950000  0.09550000  1.0 -0.1940890367
F  F88  1  0.72960000  0.79050000  0.09550000  1.0 -0.1940890367
F  F89  1  0.79050000  0.72960000  0.59550000  1.0 -0.1940890367
F  F90  1  0.72960000  0.20950000  0.09550000  1.0 -0.1940890367
F  F91  1  0.20950000  0.27040000  0.59550000  1.0 -0.1940890367
F  F92  1  0.27040000  0.79050000  0.09550000  1.0 -0.1940890367
F  F93  1  0.20950000  0.72960000  0.40450000  1.0 -0.1940890367
F  F94  1  0.79050000  0.27040000  0.40450000  1.0 -0.1940890367
F  F95  1  0.72960000  0.79050000  0.90450000  1.0 -0.1940890367
F  F96  1  0.27040000  0.20950000  0.90450000  1.0 -0.1940890367
