# DDEC6 charges by PACMAN v1.1 (https://github.com/mtap-research/PACMAN-charge/)
data_OQUFAJ02_ASR_pacman
_symmetry_space_group_name_H-M   'P 1'
_cell_length_a   34.91950000
_cell_length_b   34.91950000
_cell_length_c   12.05920000
_cell_angle_alpha   90.00000000
_cell_angle_beta   90.00000000
_cell_angle_gamma   90.00000000
_symmetry_Int_Tables_number   1
_chemical_formula_structural   Zr3H16C36(OF2)12
_chemical_formula_sum   'Zr24 H128 C288 O96 F192'
_cell_volume   14704.64455463
_cell_formula_units_Z   8
loop_
 _symmetry_equiv_pos_site_id
 _symmetry_equiv_pos_as_xyz
  1  'x, y, z'
loop_
 _atom_site_type_symbol
 _atom_site_label
 _atom_site_symmetry_multiplicity
 _atom_site_fract_x
 _atom_site_fract_y
 _atom_site_fract_z
 _atom_site_occupancy
 _atom_site_charge
Zr  Zr1  1  0.29973000  0.29973000  0.25000000  1.0 2.3675591916
Zr  Zr2  1  0.79973000  0.20027000  0.75000000  1.0 2.3675591916
Zr  Zr3  1  0.70027000  0.70027000  0.25000000  1.0 2.3675591916
Zr  Zr4  1  0.20027000  0.79973000  0.75000000  1.0 2.3675591916
Zr  Zr5  1  0.20027000  0.20027000  0.25000000  1.0 2.3675591916
Zr  Zr6  1  0.70027000  0.29973000  0.75000000  1.0 2.3675591916
Zr  Zr7  1  0.79973000  0.79973000  0.25000000  1.0 2.3675591916
Zr  Zr8  1  0.29973000  0.70027000  0.75000000  1.0 2.3675591916
Zr  Zr9  1  0.20490000  0.29510000  0.15498000  1.0 2.511234191
Zr  Zr10  1  0.79510000  0.29510000  0.65498000  1.0 2.511234191
Zr  Zr11  1  0.79510000  0.70490000  0.15498000  1.0 2.511234191
Zr  Zr12  1  0.20490000  0.70490000  0.65498000  1.0 2.511234191
Zr  Zr13  1  0.29510000  0.79510000  0.84502000  1.0 2.511234191
Zr  Zr14  1  0.70490000  0.20490000  0.84502000  1.0 2.511234191
Zr  Zr15  1  0.29510000  0.20490000  0.34502000  1.0 2.511234191
Zr  Zr16  1  0.70490000  0.79510000  0.34502000  1.0 2.511234191
Zr  Zr17  1  0.22685000  0.27315000  0.43417000  1.0 2.4944685965
Zr  Zr18  1  0.77315000  0.27315000  0.93417000  1.0 2.4944685965
Zr  Zr19  1  0.77315000  0.72685000  0.43417000  1.0 2.4944685965
Zr  Zr20  1  0.22685000  0.72685000  0.93417000  1.0 2.4944685965
Zr  Zr21  1  0.27315000  0.77315000  0.56583000  1.0 2.4944685965
Zr  Zr22  1  0.72685000  0.22685000  0.56583000  1.0 2.4944685965
Zr  Zr23  1  0.27315000  0.22685000  0.06583000  1.0 2.4944685965
Zr  Zr24  1  0.72685000  0.77315000  0.06583000  1.0 2.4944685965
H  H1  1  0.25070000  0.37920000  0.64690000  1.0 0.1128349915
H  H2  1  0.87920000  0.24930000  0.14690000  1.0 0.1128349915
H  H3  1  0.74930000  0.62080000  0.64690000  1.0 0.1128349915
H  H4  1  0.12080000  0.75070000  0.14690000  1.0 0.1128349915
H  H5  1  0.24930000  0.87920000  0.35310000  1.0 0.1128349915
H  H6  1  0.75070000  0.12080000  0.35310000  1.0 0.1128349915
H  H7  1  0.37920000  0.25070000  0.85310000  1.0 0.1128349915
H  H8  1  0.62080000  0.74930000  0.85310000  1.0 0.1128349915
H  H9  1  0.24930000  0.12080000  0.85310000  1.0 0.1128349915
H  H10  1  0.62080000  0.25070000  0.35310000  1.0 0.1128349915
H  H11  1  0.75070000  0.87920000  0.85310000  1.0 0.1128349915
H  H12  1  0.37920000  0.74930000  0.35310000  1.0 0.1128349915
H  H13  1  0.25070000  0.62080000  0.14690000  1.0 0.1128349915
H  H14  1  0.74930000  0.37920000  0.14690000  1.0 0.1128349915
H  H15  1  0.12080000  0.24930000  0.64690000  1.0 0.1128349915
H  H16  1  0.87920000  0.75070000  0.64690000  1.0 0.1128349915
H  H17  1  0.30340000  0.47360000  0.42650000  1.0 0.1701618925
H  H18  1  0.97360000  0.19660000  0.92650000  1.0 0.1701618925
H  H19  1  0.69660000  0.52640000  0.42650000  1.0 0.1701618925
H  H20  1  0.02640000  0.80340000  0.92650000  1.0 0.1701618925
H  H21  1  0.19660000  0.97360000  0.57350000  1.0 0.1701618925
H  H22  1  0.80340000  0.02640000  0.57350000  1.0 0.1701618925
H  H23  1  0.47360000  0.30340000  0.07350000  1.0 0.1701618925
H  H24  1  0.52640000  0.69660000  0.07350000  1.0 0.1701618925
H  H25  1  0.19660000  0.02640000  0.07350000  1.0 0.1701618925
H  H26  1  0.52640000  0.30340000  0.57350000  1.0 0.1701618925
H  H27  1  0.80340000  0.97360000  0.07350000  1.0 0.1701618925
H  H28  1  0.47360000  0.69660000  0.57350000  1.0 0.1701618925
H  H29  1  0.30340000  0.52640000  0.92650000  1.0 0.1701618925
H  H30  1  0.69660000  0.47360000  0.92650000  1.0 0.1701618925
H  H31  1  0.02640000  0.19660000  0.42650000  1.0 0.1701618925
H  H32  1  0.97360000  0.80340000  0.42650000  1.0 0.1701618925
H  H33  1  0.30720000  0.40980000  0.37430000  1.0 0.1271057248
H  H34  1  0.90980000  0.19280000  0.87430000  1.0 0.1271057248
H  H35  1  0.69280000  0.59020000  0.37430000  1.0 0.1271057248
H  H36  1  0.09020000  0.80720000  0.87430000  1.0 0.1271057248
H  H37  1  0.19280000  0.90980000  0.62570000  1.0 0.1271057248
H  H38  1  0.80720000  0.09020000  0.62570000  1.0 0.1271057248
H  H39  1  0.40980000  0.30720000  0.12570000  1.0 0.1271057248
H  H40  1  0.59020000  0.69280000  0.12570000  1.0 0.1271057248
H  H41  1  0.19280000  0.09020000  0.12570000  1.0 0.1271057248
H  H42  1  0.59020000  0.30720000  0.62570000  1.0 0.1271057248
H  H43  1  0.80720000  0.90980000  0.12570000  1.0 0.1271057248
H  H44  1  0.40980000  0.69280000  0.62570000  1.0 0.1271057248
H  H45  1  0.30720000  0.59020000  0.87430000  1.0 0.1271057248
H  H46  1  0.69280000  0.40980000  0.87430000  1.0 0.1271057248
H  H47  1  0.09020000  0.19280000  0.37430000  1.0 0.1271057248
H  H48  1  0.90980000  0.80720000  0.37430000  1.0 0.1271057248
H  H49  1  0.31670000  0.58230000  0.66820000  1.0 0.1222996524
H  H50  1  0.08230000  0.18330000  0.16820000  1.0 0.1222996524
H  H51  1  0.68330000  0.41770000  0.66820000  1.0 0.1222996524
H  H52  1  0.91770000  0.81670000  0.16820000  1.0 0.1222996524
H  H53  1  0.18330000  0.08230000  0.33180000  1.0 0.1222996524
H  H54  1  0.81670000  0.91770000  0.33180000  1.0 0.1222996524
H  H55  1  0.58230000  0.31670000  0.83180000  1.0 0.1222996524
H  H56  1  0.41770000  0.68330000  0.83180000  1.0 0.1222996524
H  H57  1  0.18330000  0.91770000  0.83180000  1.0 0.1222996524
H  H58  1  0.41770000  0.31670000  0.33180000  1.0 0.1222996524
H  H59  1  0.81670000  0.08230000  0.83180000  1.0 0.1222996524
H  H60  1  0.58230000  0.68330000  0.33180000  1.0 0.1222996524
H  H61  1  0.31670000  0.41770000  0.16820000  1.0 0.1222996524
H  H62  1  0.68330000  0.58230000  0.16820000  1.0 0.1222996524
H  H63  1  0.91770000  0.18330000  0.66820000  1.0 0.1222996524
H  H64  1  0.08230000  0.81670000  0.66820000  1.0 0.1222996524
H  H65  1  0.20830000  0.57860000  0.56750000  1.0 0.1128349915
H  H66  1  0.07860000  0.29170000  0.06750000  1.0 0.1128349915
H  H67  1  0.79170000  0.42140000  0.56750000  1.0 0.1128349915
H  H68  1  0.92140000  0.70830000  0.06750000  1.0 0.1128349915
H  H69  1  0.29170000  0.07860000  0.43250000  1.0 0.1128349915
H  H70  1  0.70830000  0.92140000  0.43250000  1.0 0.1128349915
H  H71  1  0.57860000  0.20830000  0.93250000  1.0 0.1128349915
H  H72  1  0.42140000  0.79170000  0.93250000  1.0 0.1128349915
H  H73  1  0.29170000  0.92140000  0.93250000  1.0 0.1128349915
H  H74  1  0.42140000  0.20830000  0.43250000  1.0 0.1128349915
H  H75  1  0.70830000  0.07860000  0.93250000  1.0 0.1128349915
H  H76  1  0.57860000  0.79170000  0.43250000  1.0 0.1128349915
H  H77  1  0.20830000  0.42140000  0.06750000  1.0 0.1128349915
H  H78  1  0.79170000  0.57860000  0.06750000  1.0 0.1128349915
H  H79  1  0.92140000  0.29170000  0.56750000  1.0 0.1128349915
H  H80  1  0.07860000  0.70830000  0.56750000  1.0 0.1128349915
H  H81  1  0.21480000  0.51220000  0.53300000  1.0 0.1580056276
H  H82  1  0.01220000  0.28520000  0.03300000  1.0 0.1580056276
H  H83  1  0.78520000  0.48780000  0.53300000  1.0 0.1580056276
H  H84  1  0.98780000  0.71480000  0.03300000  1.0 0.1580056276
H  H85  1  0.28520000  0.01220000  0.46700000  1.0 0.1580056276
H  H86  1  0.71480000  0.98780000  0.46700000  1.0 0.1580056276
H  H87  1  0.51220000  0.21480000  0.96700000  1.0 0.1580056276
H  H88  1  0.48780000  0.78520000  0.96700000  1.0 0.1580056276
H  H89  1  0.28520000  0.98780000  0.96700000  1.0 0.1580056276
H  H90  1  0.48780000  0.21480000  0.46700000  1.0 0.1580056276
H  H91  1  0.71480000  0.01220000  0.96700000  1.0 0.1580056276
H  H92  1  0.51220000  0.78520000  0.46700000  1.0 0.1580056276
H  H93  1  0.21480000  0.48780000  0.03300000  1.0 0.1580056276
H  H94  1  0.78520000  0.51220000  0.03300000  1.0 0.1580056276
H  H95  1  0.98780000  0.28520000  0.53300000  1.0 0.1580056276
H  H96  1  0.01220000  0.71480000  0.53300000  1.0 0.1580056276
H  H97  1  0.24520000  0.44350000  0.70260000  1.0 0.1788655929
H  H98  1  0.94350000  0.25480000  0.20260000  1.0 0.1788655929
H  H99  1  0.75480000  0.55650000  0.70260000  1.0 0.1788655929
H  H100  1  0.05650000  0.74520000  0.20260000  1.0 0.1788655929
H  H101  1  0.25480000  0.94350000  0.29740000  1.0 0.1788655929
H  H102  1  0.74520000  0.05650000  0.29740000  1.0 0.1788655929
H  H103  1  0.44350000  0.24520000  0.79740000  1.0 0.1788655929
H  H104  1  0.55650000  0.75480000  0.79740000  1.0 0.1788655929
H  H105  1  0.25480000  0.05650000  0.79740000  1.0 0.1788655929
H  H106  1  0.55650000  0.24520000  0.29740000  1.0 0.1788655929
H  H107  1  0.74520000  0.94350000  0.79740000  1.0 0.1788655929
H  H108  1  0.44350000  0.75480000  0.29740000  1.0 0.1788655929
H  H109  1  0.24520000  0.55650000  0.20260000  1.0 0.1788655929
H  H110  1  0.75480000  0.44350000  0.20260000  1.0 0.1788655929
H  H111  1  0.05650000  0.25480000  0.70260000  1.0 0.1788655929
H  H112  1  0.94350000  0.74520000  0.70260000  1.0 0.1788655929
H  H113  1  0.32460000  0.51700000  0.64700000  1.0 0.1860873967
H  H114  1  0.01700000  0.17540000  0.14700000  1.0 0.1860873967
H  H115  1  0.67540000  0.48300000  0.64700000  1.0 0.1860873967
H  H116  1  0.98300000  0.82460000  0.14700000  1.0 0.1860873967
H  H117  1  0.17540000  0.01700000  0.35300000  1.0 0.1860873967
H  H118  1  0.82460000  0.98300000  0.35300000  1.0 0.1860873967
H  H119  1  0.51700000  0.32460000  0.85300000  1.0 0.1788655929
H  H120  1  0.48300000  0.67540000  0.85300000  1.0 0.1788655929
H  H121  1  0.17540000  0.98300000  0.85300000  1.0 0.1860873967
H  H122  1  0.48300000  0.32460000  0.35300000  1.0 0.1788655929
H  H123  1  0.82460000  0.01700000  0.85300000  1.0 0.1860873967
H  H124  1  0.51700000  0.67540000  0.35300000  1.0 0.1788655929
H  H125  1  0.32460000  0.48300000  0.14700000  1.0 0.1860873967
H  H126  1  0.67540000  0.51700000  0.14700000  1.0 0.1860873967
H  H127  1  0.98300000  0.17540000  0.64700000  1.0 0.1860873967
H  H128  1  0.01700000  0.82460000  0.64700000  1.0 0.1860873967
C  C1  1  0.28160000  0.34780000  0.46610000  1.0 0.6376899376
C  C2  1  0.84780000  0.21840000  0.96610000  1.0 0.6376899376
C  C3  1  0.71840000  0.65220000  0.46610000  1.0 0.6376899376
C  C4  1  0.15220000  0.78160000  0.96610000  1.0 0.6376899376
C  C5  1  0.21840000  0.84780000  0.53390000  1.0 0.6376899376
C  C6  1  0.78160000  0.15220000  0.53390000  1.0 0.6376899376
C  C7  1  0.34780000  0.28160000  0.03390000  1.0 0.6376899376
C  C8  1  0.65220000  0.71840000  0.03390000  1.0 0.6376899376
C  C9  1  0.21840000  0.15220000  0.03390000  1.0 0.6376899376
C  C10  1  0.65220000  0.28160000  0.53390000  1.0 0.6376899376
C  C11  1  0.78160000  0.84780000  0.03390000  1.0 0.6376899376
C  C12  1  0.34780000  0.71840000  0.53390000  1.0 0.6376899376
C  C13  1  0.28160000  0.65220000  0.96610000  1.0 0.6376899376
C  C14  1  0.71840000  0.34780000  0.96610000  1.0 0.6376899376
C  C15  1  0.15220000  0.21840000  0.46610000  1.0 0.6376899376
C  C16  1  0.84780000  0.78160000  0.46610000  1.0 0.6376899376
C  C17  1  0.28000000  0.38880000  0.50630000  1.0 -0.019719586
C  C18  1  0.88880000  0.22000000  0.00630000  1.0 -0.019719586
C  C19  1  0.72000000  0.61120000  0.50630000  1.0 -0.019719586
C  C20  1  0.11120000  0.78000000  0.00630000  1.0 -0.019719586
C  C21  1  0.22000000  0.88880000  0.49370000  1.0 -0.019719586
C  C22  1  0.78000000  0.11120000  0.49370000  1.0 -0.019719586
C  C23  1  0.38880000  0.28000000  0.99370000  1.0 -0.019719586
C  C24  1  0.61120000  0.72000000  0.99370000  1.0 -0.019719586
C  C25  1  0.22000000  0.11120000  0.99370000  1.0 -0.019719586
C  C26  1  0.61120000  0.28000000  0.49370000  1.0 -0.019719586
C  C27  1  0.78000000  0.88880000  0.99370000  1.0 -0.019719586
C  C28  1  0.38880000  0.72000000  0.49370000  1.0 -0.019719586
C  C29  1  0.28000000  0.61120000  0.00630000  1.0 -0.019719586
C  C30  1  0.72000000  0.38880000  0.00630000  1.0 -0.019719586
C  C31  1  0.11120000  0.22000000  0.50630000  1.0 -0.019719586
C  C32  1  0.88880000  0.78000000  0.50630000  1.0 -0.019719586
C  C33  1  0.26150000  0.39880000  0.60200000  1.0 -0.0418901725
C  C34  1  0.89880000  0.23850000  0.10200000  1.0 -0.0418901725
C  C35  1  0.73850000  0.60120000  0.60200000  1.0 -0.0418901725
C  C36  1  0.10120000  0.76150000  0.10200000  1.0 -0.0418901725
C  C37  1  0.23850000  0.89880000  0.39800000  1.0 -0.0418901725
C  C38  1  0.76150000  0.10120000  0.39800000  1.0 -0.0418901725
C  C39  1  0.39880000  0.26150000  0.89800000  1.0 -0.0418901725
C  C40  1  0.60120000  0.73850000  0.89800000  1.0 -0.0418901725
C  C41  1  0.23850000  0.10120000  0.89800000  1.0 -0.0418901725
C  C42  1  0.60120000  0.26150000  0.39800000  1.0 -0.0418901725
C  C43  1  0.76150000  0.89880000  0.89800000  1.0 -0.0418901725
C  C44  1  0.39880000  0.73850000  0.39800000  1.0 -0.0418901725
C  C45  1  0.26150000  0.60120000  0.10200000  1.0 -0.0418901725
C  C46  1  0.73850000  0.39880000  0.10200000  1.0 -0.0418901725
C  C47  1  0.10120000  0.23850000  0.60200000  1.0 -0.0418901725
C  C48  1  0.89880000  0.76150000  0.60200000  1.0 -0.0418901725
C  C49  1  0.25800000  0.43700000  0.63570000  1.0 -0.2085496329
C  C50  1  0.93700000  0.24200000  0.13570000  1.0 -0.2085496329
C  C51  1  0.74200000  0.56300000  0.63570000  1.0 -0.2085496329
C  C52  1  0.06300000  0.75800000  0.13570000  1.0 -0.2085496329
C  C53  1  0.24200000  0.93700000  0.36430000  1.0 -0.2085496329
C  C54  1  0.75800000  0.06300000  0.36430000  1.0 -0.2085496329
C  C55  1  0.43700000  0.25800000  0.86430000  1.0 -0.2085496329
C  C56  1  0.56300000  0.74200000  0.86430000  1.0 -0.2085496329
C  C57  1  0.24200000  0.06300000  0.86430000  1.0 -0.2085496329
C  C58  1  0.56300000  0.25800000  0.36430000  1.0 -0.2085496329
C  C59  1  0.75800000  0.93700000  0.86430000  1.0 -0.2085496329
C  C60  1  0.43700000  0.74200000  0.36430000  1.0 -0.2085496329
C  C61  1  0.25800000  0.56300000  0.13570000  1.0 -0.2085496329
C  C62  1  0.74200000  0.43700000  0.13570000  1.0 -0.2085496329
C  C63  1  0.06300000  0.24200000  0.63570000  1.0 -0.2085496329
C  C64  1  0.93700000  0.75800000  0.63570000  1.0 -0.2085496329
C  C65  1  0.27370000  0.46500000  0.56870000  1.0 0.0243242999
C  C66  1  0.96500000  0.22630000  0.06870000  1.0 0.0243242999
C  C67  1  0.72630000  0.53500000  0.56870000  1.0 0.0243242999
C  C68  1  0.03500000  0.77370000  0.06870000  1.0 0.0243242999
C  C69  1  0.22630000  0.96500000  0.43130000  1.0 0.0243242999
C  C70  1  0.77370000  0.03500000  0.43130000  1.0 0.0243242999
C  C71  1  0.46500000  0.27370000  0.93130000  1.0 0.0243242999
C  C72  1  0.53500000  0.72630000  0.93130000  1.0 0.0274698564
C  C73  1  0.22630000  0.03500000  0.93130000  1.0 0.0243242999
C  C74  1  0.53500000  0.27370000  0.43130000  1.0 0.0243242999
C  C75  1  0.77370000  0.96500000  0.93130000  1.0 0.0243242999
C  C76  1  0.46500000  0.72630000  0.43130000  1.0 0.0243242999
C  C77  1  0.27370000  0.53500000  0.06870000  1.0 0.0243242999
C  C78  1  0.72630000  0.46500000  0.06870000  1.0 0.0274698564
C  C79  1  0.03500000  0.22630000  0.56870000  1.0 0.0243242999
C  C80  1  0.96500000  0.77370000  0.56870000  1.0 0.0243242999
C  C81  1  0.29230000  0.45440000  0.47230000  1.0 -0.1873453569
C  C82  1  0.95440000  0.20770000  0.97230000  1.0 -0.1873453569
C  C83  1  0.70770000  0.54560000  0.47230000  1.0 -0.1873453569
C  C84  1  0.04560000  0.79230000  0.97230000  1.0 -0.1873453569
C  C85  1  0.20770000  0.95440000  0.52770000  1.0 -0.1873453569
C  C86  1  0.79230000  0.04560000  0.52770000  1.0 -0.1873453569
C  C87  1  0.45440000  0.29230000  0.02770000  1.0 -0.1873453569
C  C88  1  0.54560000  0.70770000  0.02770000  1.0 -0.1873453569
C  C89  1  0.20770000  0.04560000  0.02770000  1.0 -0.1873453569
C  C90  1  0.54560000  0.29230000  0.52770000  1.0 -0.1873453569
C  C91  1  0.79230000  0.95440000  0.02770000  1.0 -0.1873453569
C  C92  1  0.45440000  0.70770000  0.52770000  1.0 -0.1873453569
C  C93  1  0.29230000  0.54560000  0.97230000  1.0 -0.1873453569
C  C94  1  0.70770000  0.45440000  0.97230000  1.0 -0.1873453569
C  C95  1  0.04560000  0.20770000  0.47230000  1.0 -0.1873453569
C  C96  1  0.95440000  0.79230000  0.47230000  1.0 -0.1873453569
C  C97  1  0.29480000  0.41650000  0.44180000  1.0 -0.0574859572
C  C98  1  0.91650000  0.20520000  0.94180000  1.0 -0.0574859572
C  C99  1  0.70520000  0.58350000  0.44180000  1.0 -0.0574859572
C  C100  1  0.08350000  0.79480000  0.94180000  1.0 -0.0574859572
C  C101  1  0.20520000  0.91650000  0.55820000  1.0 -0.0574859572
C  C102  1  0.79480000  0.08350000  0.55820000  1.0 -0.0574859572
C  C103  1  0.41650000  0.29480000  0.05820000  1.0 -0.0574859572
C  C104  1  0.58350000  0.70520000  0.05820000  1.0 -0.0574859572
C  C105  1  0.20520000  0.08350000  0.05820000  1.0 -0.0574859572
C  C106  1  0.58350000  0.29480000  0.55820000  1.0 -0.0574859572
C  C107  1  0.79480000  0.91650000  0.05820000  1.0 -0.0574859572
C  C108  1  0.41650000  0.70520000  0.55820000  1.0 -0.0574859572
C  C109  1  0.29480000  0.58350000  0.94180000  1.0 -0.0574859572
C  C110  1  0.70520000  0.41650000  0.94180000  1.0 -0.0574859572
C  C111  1  0.08350000  0.20520000  0.44180000  1.0 -0.0574859572
C  C112  1  0.91650000  0.79480000  0.44180000  1.0 -0.0574859572
C  C113  1  0.23750000  0.44630000  0.73530000  1.0 0.2232766747
C  C114  1  0.94630000  0.26250000  0.23530000  1.0 0.2262376716
C  C115  1  0.76250000  0.55370000  0.73530000  1.0 0.2262376716
C  C116  1  0.05370000  0.73750000  0.23530000  1.0 0.2232766747
C  C117  1  0.26250000  0.94630000  0.26470000  1.0 0.2232766747
C  C118  1  0.73750000  0.05370000  0.26470000  1.0 0.2232766747
C  C119  1  0.44630000  0.23750000  0.76470000  1.0 0.2262376716
C  C120  1  0.55370000  0.76250000  0.76470000  1.0 0.2262376716
C  C121  1  0.26250000  0.05370000  0.76470000  1.0 0.2232766747
C  C122  1  0.55370000  0.23750000  0.26470000  1.0 0.2232766747
C  C123  1  0.73750000  0.94630000  0.76470000  1.0 0.2262376716
C  C124  1  0.44630000  0.76250000  0.26470000  1.0 0.2232766747
C  C125  1  0.23750000  0.55370000  0.23530000  1.0 0.2232766747
C  C126  1  0.76250000  0.44630000  0.23530000  1.0 0.2262376716
C  C127  1  0.05370000  0.26250000  0.73530000  1.0 0.2232766747
C  C128  1  0.94630000  0.73750000  0.73530000  1.0 0.2232766747
C  C129  1  0.27020000  0.50670000  0.59050000  1.0 -0.0294238951
C  C130  1  0.00670000  0.22980000  0.09050000  1.0 -0.0294238951
C  C131  1  0.72980000  0.49330000  0.59050000  1.0 -0.0294238951
C  C132  1  0.99330000  0.77020000  0.09050000  1.0 -0.0294238951
C  C133  1  0.22980000  0.00670000  0.40950000  1.0 -0.0294238951
C  C134  1  0.77020000  0.99330000  0.40950000  1.0 -0.019719586
C  C135  1  0.50670000  0.27020000  0.90950000  1.0 -0.0294238951
C  C136  1  0.49330000  0.72980000  0.90950000  1.0 -0.0294238951
C  C137  1  0.22980000  0.99330000  0.90950000  1.0 -0.0294238951
C  C138  1  0.49330000  0.27020000  0.40950000  1.0 -0.019719586
C  C139  1  0.77020000  0.00670000  0.90950000  1.0 -0.0294238951
C  C140  1  0.50670000  0.72980000  0.40950000  1.0 -0.0294238951
C  C141  1  0.27020000  0.49330000  0.09050000  1.0 -0.0294238951
C  C142  1  0.72980000  0.50670000  0.09050000  1.0 -0.0294238951
C  C143  1  0.99330000  0.22980000  0.59050000  1.0 -0.0294238951
C  C144  1  0.00670000  0.77020000  0.59050000  1.0 -0.0294238951
C  C145  1  0.30080000  0.52860000  0.62950000  1.0 -0.1657675449
C  C146  1  0.02860000  0.19920000  0.12950000  1.0 -0.1657675449
C  C147  1  0.69920000  0.47140000  0.62950000  1.0 -0.1604970847
C  C148  1  0.97140000  0.80080000  0.12950000  1.0 -0.1604970847
C  C149  1  0.19920000  0.02860000  0.37050000  1.0 -0.1604970847
C  C150  1  0.80080000  0.97140000  0.37050000  1.0 -0.1657675449
C  C151  1  0.52860000  0.30080000  0.87050000  1.0 -0.1604970847
C  C152  1  0.47140000  0.69920000  0.87050000  1.0 -0.1604970847
C  C153  1  0.19920000  0.97140000  0.87050000  1.0 -0.1657675449
C  C154  1  0.47140000  0.30080000  0.37050000  1.0 -0.1604970847
C  C155  1  0.80080000  0.02860000  0.87050000  1.0 -0.1604970847
C  C156  1  0.52860000  0.69920000  0.37050000  1.0 -0.1657675449
C  C157  1  0.30080000  0.47140000  0.12950000  1.0 -0.1604970847
C  C158  1  0.69920000  0.52860000  0.12950000  1.0 -0.1657675449
C  C159  1  0.97140000  0.19920000  0.62950000  1.0 -0.1604970847
C  C160  1  0.02860000  0.80080000  0.62950000  1.0 -0.1657675449
C  C161  1  0.29560000  0.56770000  0.64210000  1.0 -0.1366099783
C  C162  1  0.06770000  0.20440000  0.14210000  1.0 -0.1344778791
C  C163  1  0.70440000  0.43230000  0.64210000  1.0 -0.1366099783
C  C164  1  0.93230000  0.79560000  0.14210000  1.0 -0.1366099783
C  C165  1  0.20440000  0.06770000  0.35790000  1.0 -0.1366099783
C  C166  1  0.79560000  0.93230000  0.35790000  1.0 -0.1366099783
C  C167  1  0.56770000  0.29560000  0.85790000  1.0 -0.1366099783
C  C168  1  0.43230000  0.70440000  0.85790000  1.0 -0.1344778791
C  C169  1  0.20440000  0.93230000  0.85790000  1.0 -0.1344778791
C  C170  1  0.43230000  0.29560000  0.35790000  1.0 -0.1366099783
C  C171  1  0.79560000  0.06770000  0.85790000  1.0 -0.1366099783
C  C172  1  0.56770000  0.70440000  0.35790000  1.0 -0.1366099783
C  C173  1  0.29560000  0.43230000  0.14210000  1.0 -0.1366099783
C  C174  1  0.70440000  0.56770000  0.14210000  1.0 -0.1344778791
C  C175  1  0.93230000  0.20440000  0.64210000  1.0 -0.1366099783
C  C176  1  0.06770000  0.79560000  0.64210000  1.0 -0.1366099783
C  C177  1  0.26300000  0.58670000  0.62040000  1.0 -0.0483519532
C  C178  1  0.08670000  0.23700000  0.12040000  1.0 -0.0483519532
C  C179  1  0.73700000  0.41330000  0.62040000  1.0 -0.0483519532
C  C180  1  0.91330000  0.76300000  0.12040000  1.0 -0.0483519532
C  C181  1  0.23700000  0.08670000  0.37960000  1.0 -0.0483519532
C  C182  1  0.76300000  0.91330000  0.37960000  1.0 -0.0483519532
C  C183  1  0.58670000  0.26300000  0.87960000  1.0 -0.0483519532
C  C184  1  0.41330000  0.73700000  0.87960000  1.0 -0.0483519532
C  C185  1  0.23700000  0.91330000  0.87960000  1.0 -0.0483519532
C  C186  1  0.41330000  0.26300000  0.37960000  1.0 -0.0483519532
C  C187  1  0.76300000  0.08670000  0.87960000  1.0 -0.0483519532
C  C188  1  0.58670000  0.73700000  0.37960000  1.0 -0.0483519532
C  C189  1  0.26300000  0.41330000  0.12040000  1.0 -0.0483519532
C  C190  1  0.73700000  0.58670000  0.12040000  1.0 -0.0483519532
C  C191  1  0.91330000  0.23700000  0.62040000  1.0 -0.0483519532
C  C192  1  0.08670000  0.76300000  0.62040000  1.0 -0.0483519532
C  C193  1  0.23190000  0.56610000  0.58180000  1.0 -0.0574859572
C  C194  1  0.06610000  0.26810000  0.08180000  1.0 -0.0574859572
C  C195  1  0.76810000  0.43390000  0.58180000  1.0 -0.0574859572
C  C196  1  0.93390000  0.73190000  0.08180000  1.0 -0.0574859572
C  C197  1  0.26810000  0.06610000  0.41820000  1.0 -0.0483519532
C  C198  1  0.73190000  0.93390000  0.41820000  1.0 -0.0574859572
C  C199  1  0.56610000  0.23190000  0.91820000  1.0 -0.0574859572
C  C200  1  0.43390000  0.76810000  0.91820000  1.0 -0.0574859572
C  C201  1  0.26810000  0.93390000  0.91820000  1.0 -0.0574859572
C  C202  1  0.43390000  0.23190000  0.41820000  1.0 -0.0574859572
C  C203  1  0.73190000  0.06610000  0.91820000  1.0 -0.0574859572
C  C204  1  0.56610000  0.76810000  0.41820000  1.0 -0.0574859572
C  C205  1  0.23190000  0.43390000  0.08180000  1.0 -0.0574859572
C  C206  1  0.76810000  0.56610000  0.08180000  1.0 -0.0574859572
C  C207  1  0.93390000  0.26810000  0.58180000  1.0 -0.0574859572
C  C208  1  0.06610000  0.73190000  0.58180000  1.0 -0.0574859572
C  C209  1  0.23570000  0.52610000  0.56360000  1.0 -0.1873453569
C  C210  1  0.02610000  0.26430000  0.06360000  1.0 -0.1873453569
C  C211  1  0.76430000  0.47390000  0.56360000  1.0 -0.1873453569
C  C212  1  0.97390000  0.73570000  0.06360000  1.0 -0.1873453569
C  C213  1  0.26430000  0.02610000  0.43640000  1.0 -0.1873453569
C  C214  1  0.73570000  0.97390000  0.43640000  1.0 -0.1873453569
C  C215  1  0.52610000  0.23570000  0.93640000  1.0 -0.1873453569
C  C216  1  0.47390000  0.76430000  0.93640000  1.0 -0.1873453569
C  C217  1  0.26430000  0.97390000  0.93640000  1.0 -0.1873453569
C  C218  1  0.47390000  0.23570000  0.43640000  1.0 -0.1873453569
C  C219  1  0.73570000  0.02610000  0.93640000  1.0 -0.1873453569
C  C220  1  0.52610000  0.76430000  0.43640000  1.0 -0.1873453569
C  C221  1  0.23570000  0.47390000  0.06360000  1.0 -0.1873453569
C  C222  1  0.76430000  0.52610000  0.06360000  1.0 -0.1873453569
C  C223  1  0.97390000  0.26430000  0.56360000  1.0 -0.1873453569
C  C224  1  0.02610000  0.73570000  0.56360000  1.0 -0.1873453569
C  C225  1  0.33710000  0.51160000  0.65890000  1.0 0.3986989286
C  C226  1  0.01160000  0.16290000  0.15890000  1.0 0.3986989286
C  C227  1  0.66290000  0.48840000  0.65890000  1.0 0.3986989286
C  C228  1  0.98840000  0.83710000  0.15890000  1.0 0.3986989286
C  C229  1  0.16290000  0.01160000  0.34110000  1.0 0.3986989286
C  C230  1  0.83710000  0.98840000  0.34110000  1.0 0.3986989286
C  C231  1  0.51160000  0.33710000  0.84110000  1.0 0.3986989286
C  C232  1  0.48840000  0.66290000  0.84110000  1.0 0.3986989286
C  C233  1  0.16290000  0.98840000  0.84110000  1.0 0.3986989286
C  C234  1  0.48840000  0.33710000  0.34110000  1.0 0.3986989286
C  C235  1  0.83710000  0.01160000  0.84110000  1.0 0.3986989286
C  C236  1  0.51160000  0.66290000  0.34110000  1.0 0.3986989286
C  C237  1  0.33710000  0.48840000  0.15890000  1.0 0.3986989286
C  C238  1  0.66290000  0.51160000  0.15890000  1.0 0.3986989286
C  C239  1  0.98840000  0.16290000  0.65890000  1.0 0.3986989286
C  C240  1  0.01160000  0.83710000  0.65890000  1.0 0.3986989286
C  C241  1  0.25980000  0.62800000  0.63900000  1.0 0.6282035828
C  C242  1  0.12800000  0.24020000  0.13900000  1.0 0.6282035828
C  C243  1  0.74020000  0.37200000  0.63900000  1.0 0.6282035828
C  C244  1  0.87200000  0.75980000  0.13900000  1.0 0.6282035828
C  C245  1  0.24020000  0.12800000  0.36100000  1.0 0.6282035828
C  C246  1  0.75980000  0.87200000  0.36100000  1.0 0.6282035828
C  C247  1  0.62800000  0.25980000  0.86100000  1.0 0.6282035828
C  C248  1  0.37200000  0.74020000  0.86100000  1.0 0.6282035828
C  C249  1  0.24020000  0.87200000  0.86100000  1.0 0.6282035828
C  C250  1  0.37200000  0.25980000  0.36100000  1.0 0.6282035828
C  C251  1  0.75980000  0.12800000  0.86100000  1.0 0.6282035828
C  C252  1  0.62800000  0.74020000  0.36100000  1.0 0.6282035828
C  C253  1  0.25980000  0.37200000  0.13900000  1.0 0.6282035828
C  C254  1  0.74020000  0.62800000  0.13900000  1.0 0.6282035828
C  C255  1  0.87200000  0.24020000  0.63900000  1.0 0.6282035828
C  C256  1  0.12800000  0.75980000  0.63900000  1.0 0.6282035828
C  C257  1  0.20110000  0.50440000  0.54400000  1.0 0.350428012
C  C258  1  0.00440000  0.29890000  0.04400000  1.0 0.350428012
C  C259  1  0.79890000  0.49560000  0.54400000  1.0 0.350428012
C  C260  1  0.99560000  0.70110000  0.04400000  1.0 0.350428012
C  C261  1  0.29890000  0.00440000  0.45600000  1.0 0.350428012
C  C262  1  0.70110000  0.99560000  0.45600000  1.0 0.350428012
C  C263  1  0.50440000  0.20110000  0.95600000  1.0 0.350428012
C  C264  1  0.49560000  0.79890000  0.95600000  1.0 0.350428012
C  C265  1  0.29890000  0.99560000  0.95600000  1.0 0.350428012
C  C266  1  0.49560000  0.20110000  0.45600000  1.0 0.350428012
C  C267  1  0.70110000  0.00440000  0.95600000  1.0 0.350428012
C  C268  1  0.50440000  0.79890000  0.45600000  1.0 0.350428012
C  C269  1  0.20110000  0.49560000  0.04400000  1.0 0.350428012
C  C270  1  0.79890000  0.50440000  0.04400000  1.0 0.350428012
C  C271  1  0.99560000  0.29890000  0.54400000  1.0 0.350428012
C  C272  1  0.00440000  0.70110000  0.54400000  1.0 0.350428012
C  C273  1  0.30400000  0.48450000  0.39400000  1.0 0.2997657587
C  C274  1  0.98450000  0.19600000  0.89400000  1.0 0.2997657587
C  C275  1  0.69600000  0.51550000  0.39400000  1.0 0.2997657587
C  C276  1  0.01550000  0.80400000  0.89400000  1.0 0.2997657587
C  C277  1  0.19600000  0.98450000  0.60600000  1.0 0.2997657587
C  C278  1  0.80400000  0.01550000  0.60600000  1.0 0.2997657587
C  C279  1  0.48450000  0.30400000  0.10600000  1.0 0.3055450886
C  C280  1  0.51550000  0.69600000  0.10600000  1.0 0.2997657587
C  C281  1  0.19600000  0.01550000  0.10600000  1.0 0.2997657587
C  C282  1  0.51550000  0.30400000  0.60600000  1.0 0.2997657587
C  C283  1  0.80400000  0.98450000  0.10600000  1.0 0.2997657587
C  C284  1  0.48450000  0.69600000  0.60600000  1.0 0.2997657587
C  C285  1  0.30400000  0.51550000  0.89400000  1.0 0.2997657587
C  C286  1  0.69600000  0.48450000  0.89400000  1.0 0.2997657587
C  C287  1  0.01550000  0.19600000  0.39400000  1.0 0.2997657587
C  C288  1  0.98450000  0.80400000  0.39400000  1.0 0.2997657587
O  O1  1  0.30377000  0.34056000  0.38870000  1.0 -0.5415826433
O  O2  1  0.84056000  0.19623000  0.88870000  1.0 -0.5415826433
O  O3  1  0.69623000  0.65944000  0.38870000  1.0 -0.5415826433
O  O4  1  0.15944000  0.80377000  0.88870000  1.0 -0.5415826433
O  O5  1  0.19623000  0.84056000  0.61130000  1.0 -0.5415826433
O  O6  1  0.80377000  0.15944000  0.61130000  1.0 -0.5415826433
O  O7  1  0.34056000  0.30377000  0.11130000  1.0 -0.5415826433
O  O8  1  0.65944000  0.69623000  0.11130000  1.0 -0.5415826433
O  O9  1  0.19623000  0.15944000  0.11130000  1.0 -0.5415826433
O  O10  1  0.65944000  0.30377000  0.61130000  1.0 -0.5415826433
O  O11  1  0.80377000  0.84056000  0.11130000  1.0 -0.5415826433
O  O12  1  0.34056000  0.69623000  0.61130000  1.0 -0.5415826433
O  O13  1  0.30377000  0.65944000  0.88870000  1.0 -0.5415826433
O  O14  1  0.69623000  0.34056000  0.88870000  1.0 -0.5415826433
O  O15  1  0.15944000  0.19623000  0.38870000  1.0 -0.5415826433
O  O16  1  0.84056000  0.80377000  0.38870000  1.0 -0.5415826433
O  O17  1  0.25720000  0.32422000  0.51050000  1.0 -0.628846626
O  O18  1  0.82422000  0.24280000  0.01050000  1.0 -0.628846626
O  O19  1  0.74280000  0.67578000  0.51050000  1.0 -0.628846626
O  O20  1  0.17578000  0.75720000  0.01050000  1.0 -0.628846626
O  O21  1  0.24280000  0.82422000  0.48950000  1.0 -0.628846626
O  O22  1  0.75720000  0.17578000  0.48950000  1.0 -0.628846626
O  O23  1  0.32422000  0.25720000  0.98950000  1.0 -0.628846626
O  O24  1  0.67578000  0.74280000  0.98950000  1.0 -0.628846626
O  O25  1  0.24280000  0.17578000  0.98950000  1.0 -0.628846626
O  O26  1  0.67578000  0.25720000  0.48950000  1.0 -0.628846626
O  O27  1  0.75720000  0.82422000  0.98950000  1.0 -0.628846626
O  O28  1  0.32422000  0.74280000  0.48950000  1.0 -0.628846626
O  O29  1  0.25720000  0.67578000  0.01050000  1.0 -0.628846626
O  O30  1  0.74280000  0.32422000  0.01050000  1.0 -0.628846626
O  O31  1  0.17578000  0.24280000  0.51050000  1.0 -0.628846626
O  O32  1  0.82422000  0.75720000  0.51050000  1.0 -0.628846626
O  O33  1  0.28976000  0.64438000  0.67760000  1.0 -0.5707239501
O  O34  1  0.14438000  0.21024000  0.17760000  1.0 -0.5707239501
O  O35  1  0.71024000  0.35562000  0.67760000  1.0 -0.5707239501
O  O36  1  0.85562000  0.78976000  0.17760000  1.0 -0.5707239501
O  O37  1  0.21024000  0.14438000  0.32240000  1.0 -0.5707239501
O  O38  1  0.78976000  0.85562000  0.32240000  1.0 -0.5707239501
O  O39  1  0.64438000  0.28976000  0.82240000  1.0 -0.5707239501
O  O40  1  0.35562000  0.71024000  0.82240000  1.0 -0.5707239501
O  O41  1  0.21024000  0.85562000  0.82240000  1.0 -0.5707239501
O  O42  1  0.35562000  0.28976000  0.32240000  1.0 -0.5707239501
O  O43  1  0.78976000  0.14438000  0.82240000  1.0 -0.5707239501
O  O44  1  0.64438000  0.71024000  0.32240000  1.0 -0.5707239501
O  O45  1  0.28976000  0.35562000  0.17760000  1.0 -0.5707239501
O  O46  1  0.71024000  0.64438000  0.17760000  1.0 -0.5707239501
O  O47  1  0.85562000  0.21024000  0.67760000  1.0 -0.5707239501
O  O48  1  0.14438000  0.78976000  0.67760000  1.0 -0.5707239501
O  O49  1  0.22850000  0.64471000  0.61960000  1.0 -0.5877024189
O  O50  1  0.14471000  0.27150000  0.11960000  1.0 -0.5877024189
O  O51  1  0.77150000  0.35529000  0.61960000  1.0 -0.5877024189
O  O52  1  0.85529000  0.72850000  0.11960000  1.0 -0.5877024189
O  O53  1  0.27150000  0.14471000  0.38040000  1.0 -0.5877024189
O  O54  1  0.72850000  0.85529000  0.38040000  1.0 -0.5877024189
O  O55  1  0.64471000  0.22850000  0.88040000  1.0 -0.5877024189
O  O56  1  0.35529000  0.77150000  0.88040000  1.0 -0.5877024189
O  O57  1  0.27150000  0.85529000  0.88040000  1.0 -0.5877024189
O  O58  1  0.35529000  0.22850000  0.38040000  1.0 -0.5877024189
O  O59  1  0.72850000  0.14471000  0.88040000  1.0 -0.5877024189
O  O60  1  0.64471000  0.77150000  0.38040000  1.0 -0.5877024189
O  O61  1  0.22850000  0.35529000  0.11960000  1.0 -0.5877024189
O  O62  1  0.77150000  0.64471000  0.11960000  1.0 -0.5877024189
O  O63  1  0.85529000  0.27150000  0.61960000  1.0 -0.5877024189
O  O64  1  0.14471000  0.72850000  0.61960000  1.0 -0.5877024189
O  O65  1  0.30850000  0.23953000  0.20620000  1.0 -1.1803884399
O  O66  1  0.73953000  0.19150000  0.70620000  1.0 -1.1803884399
O  O67  1  0.69150000  0.76047000  0.20620000  1.0 -1.1803884399
O  O68  1  0.26047000  0.80850000  0.70620000  1.0 -1.1803884399
O  O69  1  0.19150000  0.73953000  0.79380000  1.0 -1.1803884399
O  O70  1  0.80850000  0.26047000  0.79380000  1.0 -1.1803884399
O  O71  1  0.23953000  0.30850000  0.29380000  1.0 -1.1862655908
O  O72  1  0.76047000  0.69150000  0.29380000  1.0 -1.1803884399
O  O73  1  0.19150000  0.26047000  0.29380000  1.0 -1.1803884399
O  O74  1  0.76047000  0.30850000  0.79380000  1.0 -1.1803884399
O  O75  1  0.80850000  0.73953000  0.29380000  1.0 -1.1803884399
O  O76  1  0.23953000  0.69150000  0.79380000  1.0 -1.1803884399
O  O77  1  0.30850000  0.76047000  0.70620000  1.0 -1.1803884399
O  O78  1  0.69150000  0.23953000  0.70620000  1.0 -1.1803884399
O  O79  1  0.26047000  0.19150000  0.20620000  1.0 -1.1803884399
O  O80  1  0.73953000  0.80850000  0.20620000  1.0 -1.1803884399
O  O81  1  0.26349000  0.28463000  0.10900000  1.0 -1.1803884399
O  O82  1  0.78463000  0.23651000  0.60900000  1.0 -1.1803884399
O  O83  1  0.73651000  0.71537000  0.10900000  1.0 -1.1862655908
O  O84  1  0.21537000  0.76349000  0.60900000  1.0 -1.1803884399
O  O85  1  0.23651000  0.78463000  0.89100000  1.0 -1.1803884399
O  O86  1  0.76349000  0.21537000  0.89100000  1.0 -1.1803884399
O  O87  1  0.28463000  0.26349000  0.39100000  1.0 -1.1803884399
O  O88  1  0.71537000  0.73651000  0.39100000  1.0 -1.1862655908
O  O89  1  0.23651000  0.21537000  0.39100000  1.0 -1.1862655908
O  O90  1  0.71537000  0.26349000  0.89100000  1.0 -1.1803884399
O  O91  1  0.76349000  0.78463000  0.39100000  1.0 -1.1803884399
O  O92  1  0.28463000  0.73651000  0.89100000  1.0 -1.1862655908
O  O93  1  0.26349000  0.71537000  0.60900000  1.0 -1.1803884399
O  O94  1  0.73651000  0.28463000  0.60900000  1.0 -1.1803884399
O  O95  1  0.21537000  0.23651000  0.10900000  1.0 -1.1862655908
O  O96  1  0.78463000  0.76349000  0.10900000  1.0 -1.1803884399
F  F1  1  0.23030000  0.41700000  0.80340000  1.0 -0.1466774934
F  F2  1  0.91700000  0.26970000  0.30340000  1.0 -0.1466774934
F  F3  1  0.76970000  0.58300000  0.80340000  1.0 -0.1466774934
F  F4  1  0.08300000  0.73030000  0.30340000  1.0 -0.1466774934
F  F5  1  0.26970000  0.91700000  0.19660000  1.0 -0.1466774934
F  F6  1  0.73030000  0.08300000  0.19660000  1.0 -0.1466774934
F  F7  1  0.41700000  0.23030000  0.69660000  1.0 -0.1466774934
F  F8  1  0.58300000  0.76970000  0.69660000  1.0 -0.1466774934
F  F9  1  0.26970000  0.08300000  0.69660000  1.0 -0.1466774934
F  F10  1  0.58300000  0.23030000  0.19660000  1.0 -0.1466774934
F  F11  1  0.73030000  0.91700000  0.69660000  1.0 -0.1466774934
F  F12  1  0.41700000  0.76970000  0.19660000  1.0 -0.1466774934
F  F13  1  0.23030000  0.58300000  0.30340000  1.0 -0.1466774934
F  F14  1  0.76970000  0.41700000  0.30340000  1.0 -0.1466774934
F  F15  1  0.08300000  0.26970000  0.80340000  1.0 -0.1466774934
F  F16  1  0.91700000  0.73030000  0.80340000  1.0 -0.1466774934
F  F17  1  0.20180000  0.46040000  0.71380000  1.0 -0.0483519532
F  F18  1  0.96040000  0.29820000  0.21380000  1.0 -0.0483519532
F  F19  1  0.79820000  0.53960000  0.71380000  1.0 -0.0483519532
F  F20  1  0.03960000  0.70180000  0.21380000  1.0 -0.0483519532
F  F21  1  0.29820000  0.96040000  0.28620000  1.0 -0.0483519532
F  F22  1  0.70180000  0.03960000  0.28620000  1.0 -0.0483519532
F  F23  1  0.46040000  0.20180000  0.78620000  1.0 -0.0483519532
F  F24  1  0.53960000  0.79820000  0.78620000  1.0 -0.0483519532
F  F25  1  0.29820000  0.03960000  0.78620000  1.0 -0.0483519532
F  F26  1  0.53960000  0.20180000  0.28620000  1.0 -0.0483519532
F  F27  1  0.70180000  0.96040000  0.78620000  1.0 -0.0483519532
F  F28  1  0.46040000  0.79820000  0.28620000  1.0 -0.0483519532
F  F29  1  0.20180000  0.53960000  0.21380000  1.0 -0.0483519532
F  F30  1  0.79820000  0.46040000  0.21380000  1.0 -0.0483519532
F  F31  1  0.03960000  0.29820000  0.71380000  1.0 -0.0483519532
F  F32  1  0.96040000  0.70180000  0.71380000  1.0 -0.0483519532
F  F33  1  0.25270000  0.47340000  0.79770000  1.0 -0.1130220657
F  F34  1  0.97340000  0.24730000  0.29770000  1.0 -0.1130220657
F  F35  1  0.74730000  0.52660000  0.79770000  1.0 -0.1130220657
F  F36  1  0.02660000  0.75270000  0.29770000  1.0 -0.1130220657
F  F37  1  0.24730000  0.97340000  0.20230000  1.0 -0.1130220657
F  F38  1  0.75270000  0.02660000  0.20230000  1.0 -0.1130220657
F  F39  1  0.47340000  0.25270000  0.70230000  1.0 -0.1130220657
F  F40  1  0.52660000  0.74730000  0.70230000  1.0 -0.1130220657
F  F41  1  0.24730000  0.02660000  0.70230000  1.0 -0.1130220657
F  F42  1  0.52660000  0.25270000  0.20230000  1.0 -0.1130220657
F  F43  1  0.75270000  0.97340000  0.70230000  1.0 -0.1130220657
F  F44  1  0.47340000  0.74730000  0.20230000  1.0 -0.1130220657
F  F45  1  0.25270000  0.52660000  0.29770000  1.0 -0.1130220657
F  F46  1  0.74730000  0.47340000  0.29770000  1.0 -0.1130220657
F  F47  1  0.02660000  0.24730000  0.79770000  1.0 -0.1130220657
F  F48  1  0.97340000  0.75270000  0.79770000  1.0 -0.1130220657
F  F49  1  0.33670000  0.47857000  0.71670000  1.0 -0.2021408781
F  F50  1  0.97857000  0.16330000  0.21670000  1.0 -0.2021408781
F  F51  1  0.66330000  0.52143000  0.71670000  1.0 -0.2021408781
F  F52  1  0.02143000  0.83670000  0.21670000  1.0 -0.2021408781
F  F53  1  0.16330000  0.97857000  0.28330000  1.0 -0.2021408781
F  F54  1  0.83670000  0.02143000  0.28330000  1.0 -0.2021408781
F  F55  1  0.47857000  0.33670000  0.78330000  1.0 -0.2021408781
F  F56  1  0.52143000  0.66330000  0.78330000  1.0 -0.2021408781
F  F57  1  0.16330000  0.02143000  0.78330000  1.0 -0.2021408781
F  F58  1  0.52143000  0.33670000  0.28330000  1.0 -0.2021408781
F  F59  1  0.83670000  0.97857000  0.78330000  1.0 -0.2021408781
F  F60  1  0.47857000  0.66330000  0.28330000  1.0 -0.2021408781
F  F61  1  0.33670000  0.52143000  0.21670000  1.0 -0.2021408781
F  F62  1  0.66330000  0.47857000  0.21670000  1.0 -0.2021408781
F  F63  1  0.02143000  0.16330000  0.71670000  1.0 -0.2021408781
F  F64  1  0.97857000  0.83670000  0.71670000  1.0 -0.2021408781
F  F65  1  0.35970000  0.50200000  0.57150000  1.0 -0.1604970847
F  F66  1  0.00200000  0.14030000  0.07150000  1.0 -0.1604970847
F  F67  1  0.64030000  0.49800000  0.57150000  1.0 -0.1604970847
F  F68  1  0.99800000  0.85970000  0.07150000  1.0 -0.1604970847
F  F69  1  0.14030000  0.00200000  0.42850000  1.0 -0.1604970847
F  F70  1  0.85970000  0.99800000  0.42850000  1.0 -0.1604970847
F  F71  1  0.50200000  0.35970000  0.92850000  1.0 -0.1604970847
F  F72  1  0.49800000  0.64030000  0.92850000  1.0 -0.1604970847
F  F73  1  0.14030000  0.99800000  0.92850000  1.0 -0.1604970847
F  F74  1  0.49800000  0.35970000  0.42850000  1.0 -0.1604970847
F  F75  1  0.85970000  0.00200000  0.92850000  1.0 -0.1604970847
F  F76  1  0.50200000  0.64030000  0.42850000  1.0 -0.1604970847
F  F77  1  0.35970000  0.49800000  0.07150000  1.0 -0.1604970847
F  F78  1  0.64030000  0.50200000  0.07150000  1.0 -0.1604970847
F  F79  1  0.99800000  0.14030000  0.57150000  1.0 -0.1604970847
F  F80  1  0.00200000  0.85970000  0.57150000  1.0 -0.1604970847
F  F81  1  0.36120000  0.53390000  0.71940000  1.0 -0.1604970847
F  F82  1  0.03390000  0.13880000  0.21940000  1.0 -0.1604970847
F  F83  1  0.63880000  0.46610000  0.71940000  1.0 -0.1604970847
F  F84  1  0.96610000  0.86120000  0.21940000  1.0 -0.1604970847
F  F85  1  0.13880000  0.03390000  0.28060000  1.0 -0.1604970847
F  F86  1  0.86120000  0.96610000  0.28060000  1.0 -0.1604970847
F  F87  1  0.53390000  0.36120000  0.78060000  1.0 -0.1604970847
F  F88  1  0.46610000  0.63880000  0.78060000  1.0 -0.1604970847
F  F89  1  0.13880000  0.96610000  0.78060000  1.0 -0.1604970847
F  F90  1  0.46610000  0.36120000  0.28060000  1.0 -0.1604970847
F  F91  1  0.86120000  0.03390000  0.78060000  1.0 -0.1604970847
F  F92  1  0.53390000  0.63880000  0.28060000  1.0 -0.1604970847
F  F93  1  0.36120000  0.46610000  0.21940000  1.0 -0.1604970847
F  F94  1  0.63880000  0.53390000  0.21940000  1.0 -0.1604970847
F  F95  1  0.96610000  0.13880000  0.71940000  1.0 -0.1604970847
F  F96  1  0.03390000  0.86120000  0.71940000  1.0 -0.1604970847
F  F97  1  0.19080000  0.47890000  0.62400000  1.0 -0.078141995
F  F98  1  0.97890000  0.30920000  0.12400000  1.0 -0.078141995
F  F99  1  0.80920000  0.52110000  0.62400000  1.0 -0.078141995
F  F100  1  0.02110000  0.69080000  0.12400000  1.0 -0.078141995
F  F101  1  0.30920000  0.97890000  0.37600000  1.0 -0.078141995
F  F102  1  0.69080000  0.02110000  0.37600000  1.0 -0.078141995
F  F103  1  0.47890000  0.19080000  0.87600000  1.0 -0.078141995
F  F104  1  0.52110000  0.80920000  0.87600000  1.0 -0.078141995
F  F105  1  0.30920000  0.02110000  0.87600000  1.0 -0.078141995
F  F106  1  0.52110000  0.19080000  0.37600000  1.0 -0.078141995
F  F107  1  0.69080000  0.97890000  0.87600000  1.0 -0.078141995
F  F108  1  0.47890000  0.80920000  0.37600000  1.0 -0.078141995
F  F109  1  0.19080000  0.52110000  0.12400000  1.0 -0.078141995
F  F110  1  0.80920000  0.47890000  0.12400000  1.0 -0.078141995
F  F111  1  0.02110000  0.30920000  0.62400000  1.0 -0.078141995
F  F112  1  0.97890000  0.69080000  0.62400000  1.0 -0.078141995
F  F113  1  0.16840000  0.52550000  0.53300000  1.0 -0.1604970847
F  F114  1  0.02550000  0.33160000  0.03300000  1.0 -0.1604970847
F  F115  1  0.83160000  0.47450000  0.53300000  1.0 -0.1604970847
F  F116  1  0.97450000  0.66840000  0.03300000  1.0 -0.1604970847
F  F117  1  0.33160000  0.02550000  0.46700000  1.0 -0.1604970847
F  F118  1  0.66840000  0.97450000  0.46700000  1.0 -0.1604970847
F  F119  1  0.52550000  0.16840000  0.96700000  1.0 -0.1604970847
F  F120  1  0.47450000  0.83160000  0.96700000  1.0 -0.1604970847
F  F121  1  0.33160000  0.97450000  0.96700000  1.0 -0.1604970847
F  F122  1  0.47450000  0.16840000  0.46700000  1.0 -0.1604970847
F  F123  1  0.66840000  0.02550000  0.96700000  1.0 -0.1604970847
F  F124  1  0.52550000  0.83160000  0.46700000  1.0 -0.1604970847
F  F125  1  0.16840000  0.47450000  0.03300000  1.0 -0.1604970847
F  F126  1  0.83160000  0.52550000  0.03300000  1.0 -0.1604970847
F  F127  1  0.97450000  0.33160000  0.53300000  1.0 -0.1604970847
F  F128  1  0.02550000  0.66840000  0.53300000  1.0 -0.1604970847
F  F129  1  0.19990000  0.48260000  0.45100000  1.0 -0.1873453569
F  F130  1  0.98260000  0.30010000  0.95100000  1.0 -0.1873453569
F  F131  1  0.80010000  0.51740000  0.45100000  1.0 -0.1873453569
F  F132  1  0.01740000  0.69990000  0.95100000  1.0 -0.1873453569
F  F133  1  0.30010000  0.98260000  0.54900000  1.0 -0.1873453569
F  F134  1  0.69990000  0.01740000  0.54900000  1.0 -0.1873453569
F  F135  1  0.48260000  0.19990000  0.04900000  1.0 -0.1873453569
F  F136  1  0.51740000  0.80010000  0.04900000  1.0 -0.1846038729
F  F137  1  0.30010000  0.01740000  0.04900000  1.0 -0.1873453569
F  F138  1  0.51740000  0.19990000  0.54900000  1.0 -0.1873453569
F  F139  1  0.69990000  0.98260000  0.04900000  1.0 -0.1873453569
F  F140  1  0.48260000  0.80010000  0.54900000  1.0 -0.1873453569
F  F141  1  0.19990000  0.51740000  0.95100000  1.0 -0.1873453569
F  F142  1  0.80010000  0.48260000  0.95100000  1.0 -0.1873453569
F  F143  1  0.01740000  0.30010000  0.45100000  1.0 -0.1873453569
F  F144  1  0.98260000  0.69990000  0.45100000  1.0 -0.1873453569
F  F145  1  0.28000000  0.51400000  0.39300000  1.0 -0.0740438986
F  F146  1  0.01400000  0.22000000  0.89300000  1.0 -0.0740438986
F  F147  1  0.72000000  0.48600000  0.39300000  1.0 -0.0740438986
F  F148  1  0.98600000  0.78000000  0.89300000  1.0 -0.0740438986
F  F149  1  0.22000000  0.01400000  0.60700000  1.0 -0.0740438986
F  F150  1  0.78000000  0.98600000  0.60700000  1.0 -0.0740438986
F  F151  1  0.51400000  0.28000000  0.10700000  1.0 -0.0740438986
F  F152  1  0.48600000  0.72000000  0.10700000  1.0 -0.0740438986
F  F153  1  0.22000000  0.98600000  0.10700000  1.0 -0.0740438986
F  F154  1  0.48600000  0.28000000  0.60700000  1.0 -0.0740438986
F  F155  1  0.78000000  0.01400000  0.10700000  1.0 -0.0740438986
F  F156  1  0.51400000  0.72000000  0.60700000  1.0 -0.0740438986
F  F157  1  0.28000000  0.48600000  0.89300000  1.0 -0.0740438986
F  F158  1  0.72000000  0.51400000  0.89300000  1.0 -0.0740438986
F  F159  1  0.98600000  0.22000000  0.39300000  1.0 -0.0740438986
F  F160  1  0.01400000  0.78000000  0.39300000  1.0 -0.0740438986
F  F161  1  0.33800000  0.49900000  0.41500000  1.0 -0.1466774934
F  F162  1  0.99900000  0.16200000  0.91500000  1.0 -0.1466774934
F  F163  1  0.66200000  0.50100000  0.41500000  1.0 -0.1466774934
F  F164  1  0.00100000  0.83800000  0.91500000  1.0 -0.1466774934
F  F165  1  0.16200000  0.99900000  0.58500000  1.0 -0.1466774934
F  F166  1  0.83800000  0.00100000  0.58500000  1.0 -0.1466774934
F  F167  1  0.49900000  0.33800000  0.08500000  1.0 -0.1466774934
F  F168  1  0.50100000  0.66200000  0.08500000  1.0 -0.1466774934
F  F169  1  0.16200000  0.00100000  0.08500000  1.0 -0.1466774934
F  F170  1  0.50100000  0.33800000  0.58500000  1.0 -0.1466774934
F  F171  1  0.83800000  0.99900000  0.08500000  1.0 -0.1466774934
F  F172  1  0.49900000  0.66200000  0.58500000  1.0 -0.1466774934
F  F173  1  0.33800000  0.50100000  0.91500000  1.0 -0.1466774934
F  F174  1  0.66200000  0.49900000  0.91500000  1.0 -0.1466774934
F  F175  1  0.00100000  0.16200000  0.41500000  1.0 -0.1466774934
F  F176  1  0.99900000  0.83800000  0.41500000  1.0 -0.1466774934
F  F177  1  0.30500000  0.47300000  0.28900000  1.0 -0.1130220657
F  F178  1  0.97300000  0.19500000  0.78900000  1.0 -0.1130220657
F  F179  1  0.69500000  0.52700000  0.28900000  1.0 -0.1130220657
F  F180  1  0.02700000  0.80500000  0.78900000  1.0 -0.1130220657
F  F181  1  0.19500000  0.97300000  0.71100000  1.0 -0.1130220657
F  F182  1  0.80500000  0.02700000  0.71100000  1.0 -0.1130220657
F  F183  1  0.47300000  0.30500000  0.21100000  1.0 -0.1130220657
F  F184  1  0.52700000  0.69500000  0.21100000  1.0 -0.1130220657
F  F185  1  0.19500000  0.02700000  0.21100000  1.0 -0.1130220657
F  F186  1  0.52700000  0.30500000  0.71100000  1.0 -0.1130220657
F  F187  1  0.80500000  0.97300000  0.21100000  1.0 -0.1130220657
F  F188  1  0.47300000  0.69500000  0.71100000  1.0 -0.1130220657
F  F189  1  0.30500000  0.52700000  0.78900000  1.0 -0.1130220657
F  F190  1  0.69500000  0.47300000  0.78900000  1.0 -0.1130220657
F  F191  1  0.02700000  0.19500000  0.28900000  1.0 -0.1130220657
F  F192  1  0.97300000  0.80500000  0.28900000  1.0 -0.1130220657
