# DDEC6 charges by PACMAN v1.1 (https://github.com/mtap-research/PACMAN-charge/)
data_OQUFAJ03_ASR_pacman
_symmetry_space_group_name_H-M   'P 1'
_cell_length_a   24.29500000
_cell_length_b   24.29500000
_cell_length_c   15.05740000
_cell_angle_alpha   90.00000000
_cell_angle_beta   90.00000000
_cell_angle_gamma   90.00000000
_symmetry_Int_Tables_number   1
_chemical_formula_structural   Zr3H16C36(OF2)12
_chemical_formula_sum   'Zr12 H64 C144 O48 F96'
_cell_volume   8887.58555424
_cell_formula_units_Z   4
loop_
 _symmetry_equiv_pos_site_id
 _symmetry_equiv_pos_as_xyz
  1  'x, y, z'
loop_
 _atom_site_type_symbol
 _atom_site_label
 _atom_site_symmetry_multiplicity
 _atom_site_fract_x
 _atom_site_fract_y
 _atom_site_fract_z
 _atom_site_occupancy
 _atom_site_charge
Zr  Zr1  1  0.50000000  0.10068000  0.00000000  1.0 2.3750086979
Zr  Zr2  1  0.10068000  0.50000000  0.50000000  1.0 2.3750086979
Zr  Zr3  1  0.50000000  0.89932000  0.00000000  1.0 2.3750086979
Zr  Zr4  1  0.89932000  0.50000000  0.50000000  1.0 2.3750086979
Zr  Zr5  1  0.42736000  0.00000000  0.11738000  1.0 2.4876077727
Zr  Zr6  1  0.00000000  0.57264000  0.61738000  1.0 2.4876077727
Zr  Zr7  1  0.57264000  0.00000000  0.11738000  1.0 2.4876077727
Zr  Zr8  1  0.00000000  0.42736000  0.61738000  1.0 2.4876077727
Zr  Zr9  1  0.57264000  0.00000000  0.88262000  1.0 2.4876077727
Zr  Zr10  1  0.42736000  0.00000000  0.88262000  1.0 2.4876077727
Zr  Zr11  1  0.00000000  0.42736000  0.38262000  1.0 2.4876077727
Zr  Zr12  1  0.00000000  0.57264000  0.38262000  1.0 2.4876077727
H  H1  1  0.39750000  0.23660000  0.09450000  1.0 0.1103853796
H  H2  1  0.23660000  0.60250000  0.59450000  1.0 0.1103853796
H  H3  1  0.60250000  0.76340000  0.09450000  1.0 0.1103853796
H  H4  1  0.76340000  0.39750000  0.59450000  1.0 0.1103853796
H  H5  1  0.60250000  0.23660000  0.90550000  1.0 0.1103853796
H  H6  1  0.39750000  0.76340000  0.90550000  1.0 0.1103853796
H  H7  1  0.23660000  0.39750000  0.40550000  1.0 0.1103853796
H  H8  1  0.76340000  0.60250000  0.40550000  1.0 0.1103853796
H  H9  1  0.60250000  0.76340000  0.90550000  1.0 0.1103853796
H  H10  1  0.76340000  0.39750000  0.40550000  1.0 0.1103853796
H  H11  1  0.39750000  0.23660000  0.90550000  1.0 0.1103853796
H  H12  1  0.23660000  0.60250000  0.40550000  1.0 0.1103853796
H  H13  1  0.39750000  0.76340000  0.09450000  1.0 0.1103853796
H  H14  1  0.60250000  0.23660000  0.09450000  1.0 0.1103853796
H  H15  1  0.76340000  0.60250000  0.59450000  1.0 0.1103853796
H  H16  1  0.23660000  0.39750000  0.59450000  1.0 0.1103853796
H  H17  1  0.33570000  0.12720000  0.26780000  1.0 0.1103853796
H  H18  1  0.12720000  0.66430000  0.76780000  1.0 0.1103853796
H  H19  1  0.66430000  0.87280000  0.26780000  1.0 0.1103853796
H  H20  1  0.87280000  0.33570000  0.76780000  1.0 0.1103853796
H  H21  1  0.66430000  0.12720000  0.73220000  1.0 0.1103853796
H  H22  1  0.33570000  0.87280000  0.73220000  1.0 0.1103853796
H  H23  1  0.12720000  0.33570000  0.23220000  1.0 0.1103853796
H  H24  1  0.87280000  0.66430000  0.23220000  1.0 0.1103853796
H  H25  1  0.66430000  0.87280000  0.73220000  1.0 0.1103853796
H  H26  1  0.87280000  0.33570000  0.23220000  1.0 0.1103853796
H  H27  1  0.33570000  0.12720000  0.73220000  1.0 0.1103853796
H  H28  1  0.12720000  0.66430000  0.23220000  1.0 0.1103853796
H  H29  1  0.33570000  0.87280000  0.26780000  1.0 0.1103853796
H  H30  1  0.66430000  0.12720000  0.26780000  1.0 0.1103853796
H  H31  1  0.87280000  0.66430000  0.76780000  1.0 0.1103853796
H  H32  1  0.12720000  0.33570000  0.76780000  1.0 0.1103853796
H  H33  1  0.27110000  0.19240000  0.31660000  1.0 0.1917010437
H  H34  1  0.19240000  0.72890000  0.81660000  1.0 0.1917010437
H  H35  1  0.72890000  0.80760000  0.31660000  1.0 0.1917010437
H  H36  1  0.80760000  0.27110000  0.81660000  1.0 0.1917010437
H  H37  1  0.72890000  0.19240000  0.68340000  1.0 0.1917010437
H  H38  1  0.27110000  0.80760000  0.68340000  1.0 0.1917010437
H  H39  1  0.19240000  0.27110000  0.18340000  1.0 0.1917010437
H  H40  1  0.80760000  0.72890000  0.18340000  1.0 0.1917010437
H  H41  1  0.72890000  0.80760000  0.68340000  1.0 0.1917010437
H  H42  1  0.80760000  0.27110000  0.18340000  1.0 0.1917010437
H  H43  1  0.27110000  0.19240000  0.68340000  1.0 0.1917010437
H  H44  1  0.19240000  0.72890000  0.18340000  1.0 0.1917010437
H  H45  1  0.27110000  0.80760000  0.31660000  1.0 0.1917010437
H  H46  1  0.72890000  0.19240000  0.31660000  1.0 0.1917010437
H  H47  1  0.80760000  0.72890000  0.81660000  1.0 0.1917010437
H  H48  1  0.19240000  0.27110000  0.81660000  1.0 0.1917010437
H  H49  1  0.33510000  0.30310000  0.14500000  1.0 0.1714431823
H  H50  1  0.30310000  0.66490000  0.64500000  1.0 0.1714431823
H  H51  1  0.66490000  0.69690000  0.14500000  1.0 0.1714431823
H  H52  1  0.69690000  0.33510000  0.64500000  1.0 0.1714431823
H  H53  1  0.66490000  0.30310000  0.85500000  1.0 0.1714431823
H  H54  1  0.33510000  0.69690000  0.85500000  1.0 0.1714431823
H  H55  1  0.30310000  0.33510000  0.35500000  1.0 0.1714431823
H  H56  1  0.69690000  0.66490000  0.35500000  1.0 0.1714431823
H  H57  1  0.66490000  0.69690000  0.85500000  1.0 0.1714431823
H  H58  1  0.69690000  0.33510000  0.35500000  1.0 0.1714431823
H  H59  1  0.33510000  0.30310000  0.85500000  1.0 0.1714431823
H  H60  1  0.30310000  0.66490000  0.35500000  1.0 0.1714431823
H  H61  1  0.33510000  0.69690000  0.14500000  1.0 0.1714431823
H  H62  1  0.66490000  0.30310000  0.14500000  1.0 0.1714431823
H  H63  1  0.69690000  0.66490000  0.64500000  1.0 0.1714431823
H  H64  1  0.30310000  0.33510000  0.64500000  1.0 0.1714431823
C  C1  1  0.29630000  0.25420000  0.23290000  1.0 0.0440765538
C  C2  1  0.25420000  0.70370000  0.73290000  1.0 0.0440765538
C  C3  1  0.70370000  0.74580000  0.23290000  1.0 0.0440765538
C  C4  1  0.74580000  0.29630000  0.73290000  1.0 0.0440765538
C  C5  1  0.70370000  0.25420000  0.76710000  1.0 0.0440765538
C  C6  1  0.29630000  0.74580000  0.76710000  1.0 0.0440765538
C  C7  1  0.25420000  0.29630000  0.26710000  1.0 0.0440765538
C  C8  1  0.74580000  0.70370000  0.26710000  1.0 0.0440765538
C  C9  1  0.70370000  0.74580000  0.76710000  1.0 0.0440765538
C  C10  1  0.74580000  0.29630000  0.26710000  1.0 0.0440765538
C  C11  1  0.29630000  0.25420000  0.76710000  1.0 0.0440765538
C  C12  1  0.25420000  0.70370000  0.26710000  1.0 0.0440765538
C  C13  1  0.29630000  0.74580000  0.23290000  1.0 0.0440765538
C  C14  1  0.70370000  0.25420000  0.23290000  1.0 0.0440765538
C  C15  1  0.74580000  0.70370000  0.73290000  1.0 0.0440765538
C  C16  1  0.25420000  0.29630000  0.73290000  1.0 0.0440765538
C  C17  1  0.33420000  0.26690000  0.16910000  1.0 -0.1606526139
C  C18  1  0.26690000  0.66580000  0.66910000  1.0 -0.1606526139
C  C19  1  0.66580000  0.73310000  0.16910000  1.0 -0.1606526139
C  C20  1  0.73310000  0.33420000  0.66910000  1.0 -0.1606526139
C  C21  1  0.66580000  0.26690000  0.83090000  1.0 -0.1606526139
C  C22  1  0.33420000  0.73310000  0.83090000  1.0 -0.1606526139
C  C23  1  0.26690000  0.33420000  0.33090000  1.0 -0.1606526139
C  C24  1  0.73310000  0.66580000  0.33090000  1.0 -0.1606526139
C  C25  1  0.66580000  0.73310000  0.83090000  1.0 -0.1606526139
C  C26  1  0.73310000  0.33420000  0.33090000  1.0 -0.1606526139
C  C27  1  0.33420000  0.26690000  0.83090000  1.0 -0.1606526139
C  C28  1  0.26690000  0.66580000  0.33090000  1.0 -0.1606526139
C  C29  1  0.33420000  0.73310000  0.16910000  1.0 -0.1606526139
C  C30  1  0.66580000  0.26690000  0.16910000  1.0 -0.1606526139
C  C31  1  0.73310000  0.66580000  0.66910000  1.0 -0.1606526139
C  C32  1  0.26690000  0.33420000  0.66910000  1.0 -0.1606526139
C  C33  1  0.37140000  0.22760000  0.13900000  1.0 -0.0613590458
C  C34  1  0.22760000  0.62860000  0.63900000  1.0 -0.0613590458
C  C35  1  0.62860000  0.77240000  0.13900000  1.0 -0.0613590458
C  C36  1  0.77240000  0.37140000  0.63900000  1.0 -0.0613590458
C  C37  1  0.62860000  0.22760000  0.86100000  1.0 -0.0613590458
C  C38  1  0.37140000  0.77240000  0.86100000  1.0 -0.0613590458
C  C39  1  0.22760000  0.37140000  0.36100000  1.0 -0.0613590458
C  C40  1  0.77240000  0.62860000  0.36100000  1.0 -0.0613590458
C  C41  1  0.62860000  0.77240000  0.86100000  1.0 -0.0613590458
C  C42  1  0.77240000  0.37140000  0.36100000  1.0 -0.0613590458
C  C43  1  0.37140000  0.22760000  0.86100000  1.0 -0.0613590458
C  C44  1  0.22760000  0.62860000  0.36100000  1.0 -0.0613590458
C  C45  1  0.37140000  0.77240000  0.13900000  1.0 -0.0613590458
C  C46  1  0.62860000  0.22760000  0.13900000  1.0 -0.0613590458
C  C47  1  0.77240000  0.62860000  0.63900000  1.0 -0.0613590458
C  C48  1  0.22760000  0.37140000  0.63900000  1.0 -0.0613590458
C  C49  1  0.36980000  0.17580000  0.17410000  1.0 -0.0466983595
C  C50  1  0.17580000  0.63020000  0.67410000  1.0 -0.0466983595
C  C51  1  0.63020000  0.82420000  0.17410000  1.0 -0.0466983595
C  C52  1  0.82420000  0.36980000  0.67410000  1.0 -0.0466983595
C  C53  1  0.63020000  0.17580000  0.82590000  1.0 -0.0466983595
C  C54  1  0.36980000  0.82420000  0.82590000  1.0 -0.0466983595
C  C55  1  0.17580000  0.36980000  0.32590000  1.0 -0.0466983595
C  C56  1  0.82420000  0.63020000  0.32590000  1.0 -0.0466983595
C  C57  1  0.63020000  0.82420000  0.82590000  1.0 -0.0466983595
C  C58  1  0.82420000  0.36980000  0.32590000  1.0 -0.0466983595
C  C59  1  0.36980000  0.17580000  0.82590000  1.0 -0.0466983595
C  C60  1  0.17580000  0.63020000  0.32590000  1.0 -0.0466983595
C  C61  1  0.36980000  0.82420000  0.17410000  1.0 -0.0466983595
C  C62  1  0.63020000  0.17580000  0.17410000  1.0 -0.0466983595
C  C63  1  0.82420000  0.63020000  0.67410000  1.0 -0.0466983595
C  C64  1  0.17580000  0.36980000  0.67410000  1.0 -0.0466983595
C  C65  1  0.33440000  0.16270000  0.24130000  1.0 -0.0613590458
C  C66  1  0.16270000  0.66560000  0.74130000  1.0 -0.0613590458
C  C67  1  0.66560000  0.83730000  0.24130000  1.0 -0.0613590458
C  C68  1  0.83730000  0.33440000  0.74130000  1.0 -0.0613590458
C  C69  1  0.66560000  0.16270000  0.75870000  1.0 -0.0613590458
C  C70  1  0.33440000  0.83730000  0.75870000  1.0 -0.0613590458
C  C71  1  0.16270000  0.33440000  0.25870000  1.0 -0.0613590458
C  C72  1  0.83730000  0.66560000  0.25870000  1.0 -0.0613590458
C  C73  1  0.66560000  0.83730000  0.75870000  1.0 -0.0613590458
C  C74  1  0.83730000  0.33440000  0.25870000  1.0 -0.0613590458
C  C75  1  0.33440000  0.16270000  0.75870000  1.0 -0.0613590458
C  C76  1  0.16270000  0.66560000  0.25870000  1.0 -0.0613590458
C  C77  1  0.33440000  0.83730000  0.24130000  1.0 -0.0613590458
C  C78  1  0.66560000  0.16270000  0.24130000  1.0 -0.0613590458
C  C79  1  0.83730000  0.66560000  0.74130000  1.0 -0.0613590458
C  C80  1  0.16270000  0.33440000  0.74130000  1.0 -0.0613590458
C  C81  1  0.29650000  0.20150000  0.27100000  1.0 -0.1436058271
C  C82  1  0.20150000  0.70350000  0.77100000  1.0 -0.1436058271
C  C83  1  0.70350000  0.79850000  0.27100000  1.0 -0.1436058271
C  C84  1  0.79850000  0.29650000  0.77100000  1.0 -0.1436058271
C  C85  1  0.70350000  0.20150000  0.72900000  1.0 -0.1436058271
C  C86  1  0.29650000  0.79850000  0.72900000  1.0 -0.1436058271
C  C87  1  0.20150000  0.29650000  0.22900000  1.0 -0.1436058271
C  C88  1  0.79850000  0.70350000  0.22900000  1.0 -0.1436058271
C  C89  1  0.70350000  0.79850000  0.72900000  1.0 -0.1436058271
C  C90  1  0.79850000  0.29650000  0.22900000  1.0 -0.1436058271
C  C91  1  0.29650000  0.20150000  0.72900000  1.0 -0.1436058271
C  C92  1  0.20150000  0.70350000  0.22900000  1.0 -0.1436058271
C  C93  1  0.29650000  0.79850000  0.27100000  1.0 -0.1436058271
C  C94  1  0.70350000  0.20150000  0.27100000  1.0 -0.1436058271
C  C95  1  0.79850000  0.70350000  0.77100000  1.0 -0.1436058271
C  C96  1  0.20150000  0.29650000  0.77100000  1.0 -0.1436058271
C  C97  1  0.40740000  0.13260000  0.13880000  1.0 0.6421120607
C  C98  1  0.13260000  0.59260000  0.63880000  1.0 0.6421120607
C  C99  1  0.59260000  0.86740000  0.13880000  1.0 0.6421120607
C  C100  1  0.86740000  0.40740000  0.63880000  1.0 0.6421120607
C  C101  1  0.59260000  0.13260000  0.86120000  1.0 0.6421120607
C  C102  1  0.40740000  0.86740000  0.86120000  1.0 0.6421120607
C  C103  1  0.13260000  0.40740000  0.36120000  1.0 0.6421120607
C  C104  1  0.86740000  0.59260000  0.36120000  1.0 0.6421120607
C  C105  1  0.59260000  0.86740000  0.86120000  1.0 0.6421120607
C  C106  1  0.86740000  0.40740000  0.36120000  1.0 0.6421120607
C  C107  1  0.40740000  0.13260000  0.86120000  1.0 0.6421120607
C  C108  1  0.13260000  0.59260000  0.36120000  1.0 0.6421120607
C  C109  1  0.40740000  0.86740000  0.13880000  1.0 0.6421120607
C  C110  1  0.59260000  0.13260000  0.13880000  1.0 0.6421120607
C  C111  1  0.86740000  0.59260000  0.63880000  1.0 0.6421120607
C  C112  1  0.13260000  0.40740000  0.63880000  1.0 0.6421120607
C  C113  1  0.34160000  0.32250000  0.12440000  1.0 0.370466367
C  C114  1  0.32250000  0.65840000  0.62440000  1.0 0.370466367
C  C115  1  0.65840000  0.67750000  0.12440000  1.0 0.370466367
C  C116  1  0.67750000  0.34160000  0.62440000  1.0 0.370466367
C  C117  1  0.65840000  0.32250000  0.87560000  1.0 0.370466367
C  C118  1  0.34160000  0.67750000  0.87560000  1.0 0.370466367
C  C119  1  0.32250000  0.34160000  0.37560000  1.0 0.370466367
C  C120  1  0.67750000  0.65840000  0.37560000  1.0 0.370466367
C  C121  1  0.65840000  0.67750000  0.87560000  1.0 0.370466367
C  C122  1  0.67750000  0.34160000  0.37560000  1.0 0.370466367
C  C123  1  0.34160000  0.32250000  0.87560000  1.0 0.370466367
C  C124  1  0.32250000  0.65840000  0.37560000  1.0 0.370466367
C  C125  1  0.34160000  0.67750000  0.12440000  1.0 0.370466367
C  C126  1  0.65840000  0.32250000  0.12440000  1.0 0.370466367
C  C127  1  0.67750000  0.65840000  0.62440000  1.0 0.370466367
C  C128  1  0.32250000  0.34160000  0.62440000  1.0 0.370466367
C  C129  1  0.25970000  0.17960000  0.34490000  1.0 0.3759919957
C  C130  1  0.17960000  0.74030000  0.84490000  1.0 0.3759919957
C  C131  1  0.74030000  0.82040000  0.34490000  1.0 0.370466367
C  C132  1  0.82040000  0.25970000  0.84490000  1.0 0.370466367
C  C133  1  0.74030000  0.17960000  0.65510000  1.0 0.3759919957
C  C134  1  0.25970000  0.82040000  0.65510000  1.0 0.370466367
C  C135  1  0.17960000  0.25970000  0.15510000  1.0 0.3759919957
C  C136  1  0.82040000  0.74030000  0.15510000  1.0 0.370466367
C  C137  1  0.74030000  0.82040000  0.65510000  1.0 0.370466367
C  C138  1  0.82040000  0.25970000  0.15510000  1.0 0.370466367
C  C139  1  0.25970000  0.17960000  0.65510000  1.0 0.3759919957
C  C140  1  0.17960000  0.74030000  0.15510000  1.0 0.3759919957
C  C141  1  0.25970000  0.82040000  0.34490000  1.0 0.370466367
C  C142  1  0.74030000  0.17960000  0.34490000  1.0 0.3759919957
C  C143  1  0.82040000  0.74030000  0.84490000  1.0 0.370466367
C  C144  1  0.17960000  0.25970000  0.84490000  1.0 0.3759919957
O  O1  1  0.50000000  0.04950000  0.11850000  1.0 -1.1834143444
O  O2  1  0.04950000  0.50000000  0.61850000  1.0 -1.1834143444
O  O3  1  0.50000000  0.95050000  0.11850000  1.0 -1.1865490719
O  O4  1  0.95050000  0.50000000  0.61850000  1.0 -1.1865490719
O  O5  1  0.50000000  0.04950000  0.88150000  1.0 -1.1834143444
O  O6  1  0.50000000  0.95050000  0.88150000  1.0 -1.1865490719
O  O7  1  0.04950000  0.50000000  0.38150000  1.0 -1.1834143444
O  O8  1  0.95050000  0.50000000  0.38150000  1.0 -1.1865490719
O  O9  1  0.44465000  0.14785000  0.08780000  1.0 -0.5443285747
O  O10  1  0.14785000  0.55535000  0.58780000  1.0 -0.5454840521
O  O11  1  0.55535000  0.85215000  0.08780000  1.0 -0.5454840521
O  O12  1  0.85215000  0.44465000  0.58780000  1.0 -0.5454840521
O  O13  1  0.55535000  0.14785000  0.91220000  1.0 -0.5454840521
O  O14  1  0.44465000  0.85215000  0.91220000  1.0 -0.5454840521
O  O15  1  0.14785000  0.44465000  0.41220000  1.0 -0.5443285747
O  O16  1  0.85215000  0.55535000  0.41220000  1.0 -0.5454840521
O  O17  1  0.55535000  0.85215000  0.91220000  1.0 -0.5454840521
O  O18  1  0.85215000  0.44465000  0.41220000  1.0 -0.5454840521
O  O19  1  0.44465000  0.14785000  0.91220000  1.0 -0.5443285747
O  O20  1  0.14785000  0.55535000  0.41220000  1.0 -0.5454840521
O  O21  1  0.44465000  0.85215000  0.08780000  1.0 -0.5454840521
O  O22  1  0.55535000  0.14785000  0.08780000  1.0 -0.5454840521
O  O23  1  0.85215000  0.55535000  0.58780000  1.0 -0.5454840521
O  O24  1  0.14785000  0.44465000  0.58780000  1.0 -0.5454840521
O  O25  1  0.42660000  0.04970000  0.00000000  1.0 -1.1865490719
O  O26  1  0.04970000  0.57340000  0.50000000  1.0 -1.1865490719
O  O27  1  0.57340000  0.95030000  0.00000000  1.0 -1.1865490719
O  O28  1  0.95030000  0.42660000  0.50000000  1.0 -1.1834143444
O  O29  1  0.57340000  0.04970000  0.00000000  1.0 -1.1834143444
O  O30  1  0.42660000  0.95030000  0.00000000  1.0 -1.1834143444
O  O31  1  0.04970000  0.42660000  0.50000000  1.0 -1.1865490719
O  O32  1  0.95030000  0.57340000  0.50000000  1.0 -1.1865490719
O  O33  1  0.39754000  0.08362000  0.16460000  1.0 -0.600201816
O  O34  1  0.08362000  0.60246000  0.66460000  1.0 -0.600201816
O  O35  1  0.60246000  0.91638000  0.16460000  1.0 -0.600201816
O  O36  1  0.91638000  0.39754000  0.66460000  1.0 -0.600201816
O  O37  1  0.60246000  0.08362000  0.83540000  1.0 -0.600201816
O  O38  1  0.39754000  0.91638000  0.83540000  1.0 -0.600201816
O  O39  1  0.08362000  0.39754000  0.33540000  1.0 -0.600201816
O  O40  1  0.91638000  0.60246000  0.33540000  1.0 -0.600201816
O  O41  1  0.60246000  0.91638000  0.83540000  1.0 -0.600201816
O  O42  1  0.91638000  0.39754000  0.33540000  1.0 -0.600201816
O  O43  1  0.39754000  0.08362000  0.83540000  1.0 -0.600201816
O  O44  1  0.08362000  0.60246000  0.33540000  1.0 -0.600201816
O  O45  1  0.39754000  0.91638000  0.16460000  1.0 -0.600201816
O  O46  1  0.60246000  0.08362000  0.16460000  1.0 -0.600201816
O  O47  1  0.91638000  0.60246000  0.66460000  1.0 -0.600201816
O  O48  1  0.08362000  0.39754000  0.66460000  1.0 -0.600201816
F  F1  1  0.29400000  0.34440000  0.08030000  1.0 -0.2230038314
F  F2  1  0.34440000  0.70600000  0.58030000  1.0 -0.2230038314
F  F3  1  0.70600000  0.65560000  0.08030000  1.0 -0.2230038314
F  F4  1  0.65560000  0.29400000  0.58030000  1.0 -0.2230038314
F  F5  1  0.70600000  0.34440000  0.91970000  1.0 -0.2230038314
F  F6  1  0.29400000  0.65560000  0.91970000  1.0 -0.2230038314
F  F7  1  0.34440000  0.29400000  0.41970000  1.0 -0.2230038314
F  F8  1  0.65560000  0.70600000  0.41970000  1.0 -0.2230038314
F  F9  1  0.70600000  0.65560000  0.91970000  1.0 -0.2230038314
F  F10  1  0.65560000  0.29400000  0.41970000  1.0 -0.2230038314
F  F11  1  0.29400000  0.34440000  0.91970000  1.0 -0.2230038314
F  F12  1  0.34440000  0.70600000  0.41970000  1.0 -0.2230038314
F  F13  1  0.29400000  0.65560000  0.08030000  1.0 -0.2230038314
F  F14  1  0.70600000  0.34440000  0.08030000  1.0 -0.2230038314
F  F15  1  0.65560000  0.70600000  0.58030000  1.0 -0.2230038314
F  F16  1  0.34440000  0.29400000  0.58030000  1.0 -0.2230038314
F  F17  1  0.38100000  0.32980000  0.05760000  1.0 -0.0783550736
F  F18  1  0.32980000  0.61900000  0.55760000  1.0 -0.0783550736
F  F19  1  0.61900000  0.67020000  0.05760000  1.0 -0.0783550736
F  F20  1  0.67020000  0.38100000  0.55760000  1.0 -0.0783550736
F  F21  1  0.61900000  0.32980000  0.94240000  1.0 -0.0783550736
F  F22  1  0.38100000  0.67020000  0.94240000  1.0 -0.0783550736
F  F23  1  0.32980000  0.38100000  0.44240000  1.0 -0.0783550736
F  F24  1  0.67020000  0.61900000  0.44240000  1.0 -0.0783550736
F  F25  1  0.61900000  0.67020000  0.94240000  1.0 -0.0783550736
F  F26  1  0.67020000  0.38100000  0.44240000  1.0 -0.0783550736
F  F27  1  0.38100000  0.32980000  0.94240000  1.0 -0.0783550736
F  F28  1  0.32980000  0.61900000  0.44240000  1.0 -0.0783550736
F  F29  1  0.38100000  0.67020000  0.05760000  1.0 -0.0783550736
F  F30  1  0.61900000  0.32980000  0.05760000  1.0 -0.0783550736
F  F31  1  0.67020000  0.61900000  0.55760000  1.0 -0.0783550736
F  F32  1  0.32980000  0.38100000  0.55760000  1.0 -0.0783550736
F  F33  1  0.35130000  0.36700000  0.18480000  1.0 -0.1695935751
F  F34  1  0.36700000  0.64870000  0.68480000  1.0 -0.1695935751
F  F35  1  0.64870000  0.63300000  0.18480000  1.0 -0.1695935751
F  F36  1  0.63300000  0.35130000  0.68480000  1.0 -0.1695935751
F  F37  1  0.64870000  0.36700000  0.81520000  1.0 -0.1695935751
F  F38  1  0.35130000  0.63300000  0.81520000  1.0 -0.1695935751
F  F39  1  0.36700000  0.35130000  0.31520000  1.0 -0.1695935751
F  F40  1  0.63300000  0.64870000  0.31520000  1.0 -0.1695935751
F  F41  1  0.64870000  0.63300000  0.81520000  1.0 -0.1695935751
F  F42  1  0.63300000  0.35130000  0.31520000  1.0 -0.1695935751
F  F43  1  0.35130000  0.36700000  0.81520000  1.0 -0.1695935751
F  F44  1  0.36700000  0.64870000  0.31520000  1.0 -0.1695935751
F  F45  1  0.35130000  0.63300000  0.18480000  1.0 -0.1695935751
F  F46  1  0.64870000  0.36700000  0.18480000  1.0 -0.1695935751
F  F47  1  0.63300000  0.64870000  0.68480000  1.0 -0.1695935751
F  F48  1  0.36700000  0.35130000  0.68480000  1.0 -0.1695935751
F  F49  1  0.25360000  0.21490000  0.42050000  1.0 -0.2283216805
F  F50  1  0.21490000  0.74640000  0.92050000  1.0 -0.2283216805
F  F51  1  0.74640000  0.78510000  0.42050000  1.0 -0.2283216805
F  F52  1  0.78510000  0.25360000  0.92050000  1.0 -0.2283216805
F  F53  1  0.74640000  0.21490000  0.57950000  1.0 -0.2283216805
F  F54  1  0.25360000  0.78510000  0.57950000  1.0 -0.2283216805
F  F55  1  0.21490000  0.25360000  0.07950000  1.0 -0.2283216805
F  F56  1  0.78510000  0.74640000  0.07950000  1.0 -0.2283216805
F  F57  1  0.74640000  0.78510000  0.57950000  1.0 -0.2283216805
F  F58  1  0.78510000  0.25360000  0.07950000  1.0 -0.2283216805
F  F59  1  0.25360000  0.21490000  0.57950000  1.0 -0.2283216805
F  F60  1  0.21490000  0.74640000  0.07950000  1.0 -0.2283216805
F  F61  1  0.25360000  0.78510000  0.42050000  1.0 -0.2283216805
F  F62  1  0.74640000  0.21490000  0.42050000  1.0 -0.2283216805
F  F63  1  0.78510000  0.74640000  0.92050000  1.0 -0.2283216805
F  F64  1  0.21490000  0.25360000  0.92050000  1.0 -0.2283216805
F  F65  1  0.27250000  0.12900000  0.38700000  1.0 -0.1695935751
F  F66  1  0.12900000  0.72750000  0.88700000  1.0 -0.1695935751
F  F67  1  0.72750000  0.87100000  0.38700000  1.0 -0.1695935751
F  F68  1  0.87100000  0.27250000  0.88700000  1.0 -0.1695935751
F  F69  1  0.72750000  0.12900000  0.61300000  1.0 -0.1695935751
F  F70  1  0.27250000  0.87100000  0.61300000  1.0 -0.1695935751
F  F71  1  0.12900000  0.27250000  0.11300000  1.0 -0.1695935751
F  F72  1  0.87100000  0.72750000  0.11300000  1.0 -0.1695935751
F  F73  1  0.72750000  0.87100000  0.61300000  1.0 -0.1695935751
F  F74  1  0.87100000  0.27250000  0.11300000  1.0 -0.1695935751
F  F75  1  0.27250000  0.12900000  0.61300000  1.0 -0.1695935751
F  F76  1  0.12900000  0.72750000  0.11300000  1.0 -0.1695935751
F  F77  1  0.27250000  0.87100000  0.38700000  1.0 -0.1695935751
F  F78  1  0.72750000  0.12900000  0.38700000  1.0 -0.1695935751
F  F79  1  0.87100000  0.72750000  0.88700000  1.0 -0.1695935751
F  F80  1  0.12900000  0.27250000  0.88700000  1.0 -0.1695935751
F  F81  1  0.20340000  0.17030000  0.32240000  1.0 -0.1781657363
F  F82  1  0.17030000  0.79660000  0.82240000  1.0 -0.1781657363
F  F83  1  0.79660000  0.82970000  0.32240000  1.0 -0.1781657363
F  F84  1  0.82970000  0.20340000  0.82240000  1.0 -0.1781657363
F  F85  1  0.79660000  0.17030000  0.67760000  1.0 -0.1781657363
F  F86  1  0.20340000  0.82970000  0.67760000  1.0 -0.1781657363
F  F87  1  0.17030000  0.20340000  0.17760000  1.0 -0.1781657363
F  F88  1  0.82970000  0.79660000  0.17760000  1.0 -0.1781657363
F  F89  1  0.79660000  0.82970000  0.67760000  1.0 -0.1781657363
F  F90  1  0.82970000  0.20340000  0.17760000  1.0 -0.1781657363
F  F91  1  0.20340000  0.17030000  0.67760000  1.0 -0.1781657363
F  F92  1  0.17030000  0.79660000  0.17760000  1.0 -0.1781657363
F  F93  1  0.20340000  0.82970000  0.32240000  1.0 -0.1781657363
F  F94  1  0.79660000  0.17030000  0.32240000  1.0 -0.1781657363
F  F95  1  0.82970000  0.79660000  0.82240000  1.0 -0.1781657363
F  F96  1  0.17030000  0.20340000  0.82240000  1.0 -0.1781657363
