# DDEC6 charges by PACMAN v1.1 (https://github.com/mtap-research/PACMAN-charge/)
data_OQUFAJ_ASR_pacman
_symmetry_space_group_name_H-M   'P 1'
_cell_length_a   24.26030000
_cell_length_b   24.26030000
_cell_length_c   15.14650000
_cell_angle_alpha   90.00000000
_cell_angle_beta   90.00000000
_cell_angle_gamma   90.00000000
_symmetry_Int_Tables_number   1
_chemical_formula_structural   Zr3H16C36(OF2)12
_chemical_formula_sum   'Zr12 H64 C144 O48 F96'
_cell_volume   8914.65669722
_cell_formula_units_Z   4
loop_
 _symmetry_equiv_pos_site_id
 _symmetry_equiv_pos_as_xyz
  1  'x, y, z'
loop_
 _atom_site_type_symbol
 _atom_site_label
 _atom_site_symmetry_multiplicity
 _atom_site_fract_x
 _atom_site_fract_y
 _atom_site_fract_z
 _atom_site_occupancy
 _atom_site_charge
Zr  Zr1  1  0.10058000  0.50000000  0.00000000  1.0 2.3928892026
Zr  Zr2  1  0.50000000  0.89942000  0.50000000  1.0 2.3928892026
Zr  Zr3  1  0.89942000  0.50000000  0.00000000  1.0 2.3928892026
Zr  Zr4  1  0.50000000  0.10058000  0.50000000  1.0 2.3928892026
Zr  Zr5  1  0.00000000  0.42719000  0.11608000  1.0 2.4885329613
Zr  Zr6  1  0.42719000  0.00000000  0.61608000  1.0 2.4885329613
Zr  Zr7  1  0.00000000  0.57281000  0.11608000  1.0 2.4885329613
Zr  Zr8  1  0.57281000  0.00000000  0.61608000  1.0 2.4885329613
Zr  Zr9  1  0.00000000  0.42719000  0.88392000  1.0 2.4885329613
Zr  Zr10  1  0.00000000  0.57281000  0.88392000  1.0 2.4885329613
Zr  Zr11  1  0.42719000  0.00000000  0.38392000  1.0 2.4885329613
Zr  Zr12  1  0.57281000  0.00000000  0.38392000  1.0 2.4885329613
H  H1  1  0.30190000  0.33380000  0.14230000  1.0 0.1403338769
H  H2  1  0.33380000  0.69810000  0.64230000  1.0 0.1403338769
H  H3  1  0.69810000  0.66620000  0.14230000  1.0 0.1403338769
H  H4  1  0.66620000  0.30190000  0.64230000  1.0 0.1403338769
H  H5  1  0.69810000  0.33380000  0.85770000  1.0 0.1403338769
H  H6  1  0.30190000  0.66620000  0.85770000  1.0 0.1403338769
H  H7  1  0.33380000  0.30190000  0.35770000  1.0 0.1403338769
H  H8  1  0.66620000  0.69810000  0.35770000  1.0 0.1403338769
H  H9  1  0.69810000  0.66620000  0.85770000  1.0 0.1403338769
H  H10  1  0.66620000  0.30190000  0.35770000  1.0 0.1403338769
H  H11  1  0.30190000  0.33380000  0.85770000  1.0 0.1403338769
H  H12  1  0.33380000  0.69810000  0.35770000  1.0 0.1403338769
H  H13  1  0.30190000  0.66620000  0.14230000  1.0 0.1403338769
H  H14  1  0.69810000  0.33380000  0.14230000  1.0 0.1403338769
H  H15  1  0.66620000  0.69810000  0.64230000  1.0 0.1403338769
H  H16  1  0.33380000  0.30190000  0.64230000  1.0 0.1403338769
H  H17  1  0.23950000  0.40170000  0.10170000  1.0 0.1193748177
H  H18  1  0.40170000  0.76050000  0.60170000  1.0 0.1193748177
H  H19  1  0.76050000  0.59830000  0.10170000  1.0 0.1193748177
H  H20  1  0.59830000  0.23950000  0.60170000  1.0 0.1193748177
H  H21  1  0.76050000  0.40170000  0.89830000  1.0 0.1193748177
H  H22  1  0.23950000  0.59830000  0.89830000  1.0 0.1193748177
H  H23  1  0.40170000  0.23950000  0.39830000  1.0 0.1193748177
H  H24  1  0.59830000  0.76050000  0.39830000  1.0 0.1193748177
H  H25  1  0.76050000  0.59830000  0.89830000  1.0 0.1193748177
H  H26  1  0.59830000  0.23950000  0.39830000  1.0 0.1193748177
H  H27  1  0.23950000  0.40170000  0.89830000  1.0 0.1193748177
H  H28  1  0.40170000  0.76050000  0.39830000  1.0 0.1193748177
H  H29  1  0.23950000  0.59830000  0.10170000  1.0 0.1193748177
H  H30  1  0.76050000  0.40170000  0.10170000  1.0 0.1193748177
H  H31  1  0.59830000  0.76050000  0.60170000  1.0 0.1193748177
H  H32  1  0.40170000  0.23950000  0.60170000  1.0 0.1193748177
H  H33  1  0.12860000  0.33310000  0.26170000  1.0 0.1193748177
H  H34  1  0.33310000  0.87140000  0.76170000  1.0 0.1193748177
H  H35  1  0.87140000  0.66690000  0.26170000  1.0 0.1193748177
H  H36  1  0.66690000  0.12860000  0.76170000  1.0 0.1193748177
H  H37  1  0.87140000  0.33310000  0.73830000  1.0 0.1193748177
H  H38  1  0.12860000  0.66690000  0.73830000  1.0 0.1193748177
H  H39  1  0.33310000  0.12860000  0.23830000  1.0 0.1193748177
H  H40  1  0.66690000  0.87140000  0.23830000  1.0 0.1193748177
H  H41  1  0.87140000  0.66690000  0.73830000  1.0 0.1193748177
H  H42  1  0.66690000  0.12860000  0.23830000  1.0 0.1193748177
H  H43  1  0.12860000  0.33310000  0.73830000  1.0 0.1193748177
H  H44  1  0.33310000  0.87140000  0.23830000  1.0 0.1193748177
H  H45  1  0.12860000  0.66690000  0.26170000  1.0 0.1193748177
H  H46  1  0.87140000  0.33310000  0.26170000  1.0 0.1193748177
H  H47  1  0.66690000  0.87140000  0.76170000  1.0 0.1193748177
H  H48  1  0.33310000  0.12860000  0.76170000  1.0 0.1193748177
H  H49  1  0.19500000  0.27060000  0.31630000  1.0 0.1314097056
H  H50  1  0.27060000  0.80500000  0.81630000  1.0 0.1314097056
H  H51  1  0.80500000  0.72940000  0.31630000  1.0 0.1314097056
H  H52  1  0.72940000  0.19500000  0.81630000  1.0 0.1314097056
H  H53  1  0.80500000  0.27060000  0.68370000  1.0 0.1314097056
H  H54  1  0.19500000  0.72940000  0.68370000  1.0 0.1314097056
H  H55  1  0.27060000  0.19500000  0.18370000  1.0 0.1314097056
H  H56  1  0.72940000  0.80500000  0.18370000  1.0 0.1314097056
H  H57  1  0.80500000  0.72940000  0.68370000  1.0 0.1314097056
H  H58  1  0.72940000  0.19500000  0.18370000  1.0 0.1314097056
H  H59  1  0.19500000  0.27060000  0.68370000  1.0 0.1314097056
H  H60  1  0.27060000  0.80500000  0.18370000  1.0 0.1314097056
H  H61  1  0.19500000  0.72940000  0.31630000  1.0 0.1314097056
H  H62  1  0.80500000  0.27060000  0.31630000  1.0 0.1314097056
H  H63  1  0.72940000  0.80500000  0.81630000  1.0 0.1314097056
H  H64  1  0.27060000  0.19500000  0.81630000  1.0 0.1314097056
C  C1  1  0.25560000  0.29720000  0.23370000  1.0 0.0775299156
C  C2  1  0.29720000  0.74440000  0.73370000  1.0 0.0775299156
C  C3  1  0.74440000  0.70280000  0.23370000  1.0 0.0775299156
C  C4  1  0.70280000  0.25560000  0.73370000  1.0 0.0775299156
C  C5  1  0.74440000  0.29720000  0.76630000  1.0 0.0775299156
C  C6  1  0.25560000  0.70280000  0.76630000  1.0 0.0775299156
C  C7  1  0.29720000  0.25560000  0.26630000  1.0 0.0775299156
C  C8  1  0.70280000  0.74440000  0.26630000  1.0 0.0775299156
C  C9  1  0.74440000  0.70280000  0.76630000  1.0 0.0775299156
C  C10  1  0.70280000  0.25560000  0.26630000  1.0 0.0775299156
C  C11  1  0.25560000  0.29720000  0.76630000  1.0 0.0775299156
C  C12  1  0.29720000  0.74440000  0.26630000  1.0 0.0775299156
C  C13  1  0.25560000  0.70280000  0.23370000  1.0 0.0775299156
C  C14  1  0.74440000  0.29720000  0.23370000  1.0 0.0775299156
C  C15  1  0.70280000  0.74440000  0.73370000  1.0 0.0775299156
C  C16  1  0.29720000  0.25560000  0.73370000  1.0 0.0775299156
C  C17  1  0.26660000  0.33440000  0.16930000  1.0 -0.1915295413
C  C18  1  0.33440000  0.73340000  0.66930000  1.0 -0.1915295413
C  C19  1  0.73340000  0.66560000  0.16930000  1.0 -0.1915295413
C  C20  1  0.66560000  0.26660000  0.66930000  1.0 -0.1915295413
C  C21  1  0.73340000  0.33440000  0.83070000  1.0 -0.1915295413
C  C22  1  0.26660000  0.66560000  0.83070000  1.0 -0.1915295413
C  C23  1  0.33440000  0.26660000  0.33070000  1.0 -0.1915295413
C  C24  1  0.66560000  0.73340000  0.33070000  1.0 -0.1915295413
C  C25  1  0.73340000  0.66560000  0.83070000  1.0 -0.1915295413
C  C26  1  0.66560000  0.26660000  0.33070000  1.0 -0.1915295413
C  C27  1  0.26660000  0.33440000  0.83070000  1.0 -0.1915295413
C  C28  1  0.33440000  0.73340000  0.33070000  1.0 -0.1915295413
C  C29  1  0.26660000  0.66560000  0.16930000  1.0 -0.1915295413
C  C30  1  0.73340000  0.33440000  0.16930000  1.0 -0.1915295413
C  C31  1  0.66560000  0.73340000  0.66930000  1.0 -0.1915295413
C  C32  1  0.33440000  0.26660000  0.66930000  1.0 -0.1915295413
C  C33  1  0.22880000  0.37320000  0.14110000  1.0 -0.0708783676
C  C34  1  0.37320000  0.77120000  0.64110000  1.0 -0.0603535347
C  C35  1  0.77120000  0.62680000  0.14110000  1.0 -0.0603535347
C  C36  1  0.62680000  0.22880000  0.64110000  1.0 -0.0708783676
C  C37  1  0.77120000  0.37320000  0.85890000  1.0 -0.0603535347
C  C38  1  0.22880000  0.62680000  0.85890000  1.0 -0.0708783676
C  C39  1  0.37320000  0.22880000  0.35890000  1.0 -0.0708783676
C  C40  1  0.62680000  0.77120000  0.35890000  1.0 -0.0603535347
C  C41  1  0.77120000  0.62680000  0.85890000  1.0 -0.0603535347
C  C42  1  0.62680000  0.22880000  0.35890000  1.0 -0.0603535347
C  C43  1  0.22880000  0.37320000  0.85890000  1.0 -0.0708783676
C  C44  1  0.37320000  0.77120000  0.35890000  1.0 -0.0708783676
C  C45  1  0.22880000  0.62680000  0.14110000  1.0 -0.0708783676
C  C46  1  0.77120000  0.37320000  0.14110000  1.0 -0.0603535347
C  C47  1  0.62680000  0.77120000  0.64110000  1.0 -0.0603535347
C  C48  1  0.37320000  0.22880000  0.64110000  1.0 -0.0708783676
C  C49  1  0.17560000  0.36990000  0.17110000  1.0 -0.0603535347
C  C50  1  0.36990000  0.82440000  0.67110000  1.0 -0.0603535347
C  C51  1  0.82440000  0.63010000  0.17110000  1.0 -0.0603535347
C  C52  1  0.63010000  0.17560000  0.67110000  1.0 -0.0603535347
C  C53  1  0.82440000  0.36990000  0.82890000  1.0 -0.0603535347
C  C54  1  0.17560000  0.63010000  0.82890000  1.0 -0.0603535347
C  C55  1  0.36990000  0.17560000  0.32890000  1.0 -0.0603535347
C  C56  1  0.63010000  0.82440000  0.32890000  1.0 -0.0603535347
C  C57  1  0.82440000  0.63010000  0.82890000  1.0 -0.0603535347
C  C58  1  0.63010000  0.17560000  0.32890000  1.0 -0.0603535347
C  C59  1  0.17560000  0.36990000  0.82890000  1.0 -0.0603535347
C  C60  1  0.36990000  0.82440000  0.32890000  1.0 -0.0603535347
C  C61  1  0.17560000  0.63010000  0.17110000  1.0 -0.0603535347
C  C62  1  0.82440000  0.36990000  0.17110000  1.0 -0.0603535347
C  C63  1  0.63010000  0.82440000  0.67110000  1.0 -0.0603535347
C  C64  1  0.36990000  0.17560000  0.67110000  1.0 -0.0603535347
C  C65  1  0.16460000  0.33340000  0.23690000  1.0 -0.0522764228
C  C66  1  0.33340000  0.83540000  0.73690000  1.0 -0.0522764228
C  C67  1  0.83540000  0.66666667  0.23690000  1.0 -0.0522764228
C  C68  1  0.66666667  0.16460000  0.73690000  1.0 -0.0522764228
C  C69  1  0.83540000  0.33340000  0.76310000  1.0 -0.0522764228
C  C70  1  0.16460000  0.66666667  0.76310000  1.0 -0.0522764228
C  C71  1  0.33340000  0.16460000  0.26310000  1.0 -0.0522764228
C  C72  1  0.66666667  0.83540000  0.26310000  1.0 -0.0522764228
C  C73  1  0.83540000  0.66666667  0.76310000  1.0 -0.0522764228
C  C74  1  0.66666667  0.16460000  0.26310000  1.0 -0.0522764228
C  C75  1  0.16460000  0.33340000  0.76310000  1.0 -0.0522764228
C  C76  1  0.33340000  0.83540000  0.26310000  1.0 -0.0522764228
C  C77  1  0.16460000  0.66666667  0.23690000  1.0 -0.0522764228
C  C78  1  0.83540000  0.33340000  0.23690000  1.0 -0.0522764228
C  C79  1  0.66666667  0.83540000  0.73690000  1.0 -0.0522764228
C  C80  1  0.33340000  0.16460000  0.73690000  1.0 -0.0522764228
C  C81  1  0.20390000  0.29580000  0.27040000  1.0 -0.2100818781
C  C82  1  0.29580000  0.79610000  0.77040000  1.0 -0.2100818781
C  C83  1  0.79610000  0.70420000  0.27040000  1.0 -0.2100818781
C  C84  1  0.70420000  0.20390000  0.77040000  1.0 -0.2100818781
C  C85  1  0.79610000  0.29580000  0.72960000  1.0 -0.2100818781
C  C86  1  0.20390000  0.70420000  0.72960000  1.0 -0.2100818781
C  C87  1  0.29580000  0.20390000  0.22960000  1.0 -0.2100818781
C  C88  1  0.70420000  0.79610000  0.22960000  1.0 -0.2100818781
C  C89  1  0.79610000  0.70420000  0.72960000  1.0 -0.2100818781
C  C90  1  0.70420000  0.20390000  0.22960000  1.0 -0.2100818781
C  C91  1  0.20390000  0.29580000  0.72960000  1.0 -0.2100818781
C  C92  1  0.29580000  0.79610000  0.22960000  1.0 -0.2100818781
C  C93  1  0.20390000  0.70420000  0.27040000  1.0 -0.2100818781
C  C94  1  0.79610000  0.29580000  0.27040000  1.0 -0.2100818781
C  C95  1  0.70420000  0.79610000  0.77040000  1.0 -0.2100818781
C  C96  1  0.29580000  0.20390000  0.77040000  1.0 -0.2100818781
C  C97  1  0.13350000  0.40680000  0.13890000  1.0 0.6442008624
C  C98  1  0.40680000  0.86650000  0.63890000  1.0 0.6442008624
C  C99  1  0.86650000  0.59320000  0.13890000  1.0 0.6442008624
C  C100  1  0.59320000  0.13350000  0.63890000  1.0 0.6442008624
C  C101  1  0.86650000  0.40680000  0.86110000  1.0 0.6442008624
C  C102  1  0.13350000  0.59320000  0.86110000  1.0 0.6442008624
C  C103  1  0.40680000  0.13350000  0.36110000  1.0 0.6442008624
C  C104  1  0.59320000  0.86650000  0.36110000  1.0 0.6442008624
C  C105  1  0.86650000  0.59320000  0.86110000  1.0 0.6442008624
C  C106  1  0.59320000  0.13350000  0.36110000  1.0 0.6442008624
C  C107  1  0.13350000  0.40680000  0.86110000  1.0 0.6442008624
C  C108  1  0.40680000  0.86650000  0.36110000  1.0 0.6442008624
C  C109  1  0.13350000  0.59320000  0.13890000  1.0 0.6442008624
C  C110  1  0.86650000  0.40680000  0.13890000  1.0 0.6442008624
C  C111  1  0.59320000  0.86650000  0.63890000  1.0 0.6442008624
C  C112  1  0.40680000  0.13350000  0.63890000  1.0 0.6442008624
C  C113  1  0.17670000  0.24740000  0.35450000  1.0 0.5005422467
C  C114  1  0.24740000  0.82330000  0.85450000  1.0 0.5005422467
C  C115  1  0.82330000  0.75260000  0.35450000  1.0 0.5005422467
C  C116  1  0.75260000  0.17670000  0.85450000  1.0 0.5005422467
C  C117  1  0.82330000  0.24740000  0.64550000  1.0 0.5005422467
C  C118  1  0.17670000  0.75260000  0.64550000  1.0 0.5005422467
C  C119  1  0.24740000  0.17670000  0.14550000  1.0 0.5005422467
C  C120  1  0.75260000  0.82330000  0.14550000  1.0 0.5005422467
C  C121  1  0.82330000  0.75260000  0.64550000  1.0 0.5005422467
C  C122  1  0.75260000  0.17670000  0.14550000  1.0 0.5005422467
C  C123  1  0.17670000  0.24740000  0.64550000  1.0 0.5005422467
C  C124  1  0.24740000  0.82330000  0.14550000  1.0 0.5005422467
C  C125  1  0.17670000  0.75260000  0.35450000  1.0 0.5005422467
C  C126  1  0.82330000  0.24740000  0.35450000  1.0 0.5005422467
C  C127  1  0.75260000  0.82330000  0.85450000  1.0 0.5005422467
C  C128  1  0.24740000  0.17670000  0.85450000  1.0 0.5005422467
C  C129  1  0.33190000  0.33300000  0.10880000  1.0 0.4318384296
C  C130  1  0.33300000  0.66810000  0.60880000  1.0 0.4318384296
C  C131  1  0.66810000  0.66700000  0.10880000  1.0 0.4318384296
C  C132  1  0.66700000  0.33190000  0.60880000  1.0 0.4318384296
C  C133  1  0.66810000  0.33300000  0.89120000  1.0 0.4318384296
C  C134  1  0.33190000  0.66700000  0.89120000  1.0 0.4318384296
C  C135  1  0.33300000  0.33190000  0.39120000  1.0 0.4318384296
C  C136  1  0.66700000  0.66810000  0.39120000  1.0 0.4318384296
C  C137  1  0.66810000  0.66700000  0.89120000  1.0 0.4318384296
C  C138  1  0.66700000  0.33190000  0.39120000  1.0 0.4318384296
C  C139  1  0.33190000  0.33300000  0.89120000  1.0 0.4318384296
C  C140  1  0.33300000  0.66810000  0.39120000  1.0 0.4318384296
C  C141  1  0.33190000  0.66700000  0.10880000  1.0 0.4318384296
C  C142  1  0.66810000  0.33300000  0.10880000  1.0 0.4318384296
C  C143  1  0.66700000  0.66810000  0.60880000  1.0 0.4318384296
C  C144  1  0.33300000  0.33190000  0.60880000  1.0 0.4318384296
O  O1  1  0.14881000  0.44490000  0.08590000  1.0 -0.5676464466
O  O2  1  0.44490000  0.85119000  0.58590000  1.0 -0.5676464466
O  O3  1  0.85119000  0.55510000  0.08590000  1.0 -0.5676464466
O  O4  1  0.55510000  0.14881000  0.58590000  1.0 -0.5676464466
O  O5  1  0.85119000  0.44490000  0.91410000  1.0 -0.5676464466
O  O6  1  0.14881000  0.55510000  0.91410000  1.0 -0.5676464466
O  O7  1  0.44490000  0.14881000  0.41410000  1.0 -0.5676464466
O  O8  1  0.55510000  0.85119000  0.41410000  1.0 -0.5676464466
O  O9  1  0.85119000  0.55510000  0.91410000  1.0 -0.5676464466
O  O10  1  0.55510000  0.14881000  0.41410000  1.0 -0.5676464466
O  O11  1  0.14881000  0.44490000  0.91410000  1.0 -0.5676464466
O  O12  1  0.44490000  0.85119000  0.41410000  1.0 -0.5676464466
O  O13  1  0.14881000  0.55510000  0.08590000  1.0 -0.5676464466
O  O14  1  0.85119000  0.44490000  0.08590000  1.0 -0.5676464466
O  O15  1  0.55510000  0.85119000  0.58590000  1.0 -0.5676464466
O  O16  1  0.44490000  0.14881000  0.58590000  1.0 -0.5676464466
O  O17  1  0.08310000  0.39700000  0.16150000  1.0 -0.6082529044
O  O18  1  0.39700000  0.91690000  0.66150000  1.0 -0.6082529044
O  O19  1  0.91690000  0.60300000  0.16150000  1.0 -0.6082529044
O  O20  1  0.60300000  0.08310000  0.66150000  1.0 -0.6082529044
O  O21  1  0.91690000  0.39700000  0.83850000  1.0 -0.6082529044
O  O22  1  0.08310000  0.60300000  0.83850000  1.0 -0.6082529044
O  O23  1  0.39700000  0.08310000  0.33850000  1.0 -0.6082529044
O  O24  1  0.60300000  0.91690000  0.33850000  1.0 -0.6082529044
O  O25  1  0.91690000  0.60300000  0.83850000  1.0 -0.6082529044
O  O26  1  0.60300000  0.08310000  0.33850000  1.0 -0.6082529044
O  O27  1  0.08310000  0.39700000  0.83850000  1.0 -0.6082529044
O  O28  1  0.39700000  0.91690000  0.33850000  1.0 -0.6082529044
O  O29  1  0.08310000  0.60300000  0.16150000  1.0 -0.6082529044
O  O30  1  0.91690000  0.39700000  0.16150000  1.0 -0.6082529044
O  O31  1  0.60300000  0.91690000  0.66150000  1.0 -0.6082529044
O  O32  1  0.39700000  0.08310000  0.66150000  1.0 -0.6082529044
O  O33  1  0.05010000  0.42610000  0.00000000  1.0 -1.1681496194
O  O34  1  0.42610000  0.94990000  0.50000000  1.0 -1.1681496194
O  O35  1  0.94990000  0.57390000  0.00000000  1.0 -1.1681496194
O  O36  1  0.57390000  0.05010000  0.50000000  1.0 -1.1681496194
O  O37  1  0.94990000  0.42610000  0.00000000  1.0 -1.1681496194
O  O38  1  0.05010000  0.57390000  0.00000000  1.0 -1.1681496194
O  O39  1  0.42610000  0.05010000  0.50000000  1.0 -1.1681496194
O  O40  1  0.57390000  0.94990000  0.50000000  1.0 -1.1681496194
O  O41  1  0.04850000  0.50000000  0.11440000  1.0 -1.1681496194
O  O42  1  0.50000000  0.95150000  0.61440000  1.0 -1.1681496194
O  O43  1  0.95150000  0.50000000  0.11440000  1.0 -1.1681496194
O  O44  1  0.50000000  0.04850000  0.61440000  1.0 -1.1681496194
O  O45  1  0.95150000  0.50000000  0.88560000  1.0 -1.1681496194
O  O46  1  0.04850000  0.50000000  0.88560000  1.0 -1.1681496194
O  O47  1  0.50000000  0.04850000  0.38560000  1.0 -1.1681496194
O  O48  1  0.50000000  0.95150000  0.38560000  1.0 -1.1681496194
F  F1  1  0.12670000  0.26770000  0.37000000  1.0 -0.2100818781
F  F2  1  0.26770000  0.87330000  0.87000000  1.0 -0.2100818781
F  F3  1  0.87330000  0.73230000  0.37000000  1.0 -0.2100818781
F  F4  1  0.73230000  0.12670000  0.87000000  1.0 -0.2100818781
F  F5  1  0.87330000  0.26770000  0.63000000  1.0 -0.2100818781
F  F6  1  0.12670000  0.73230000  0.63000000  1.0 -0.2100818781
F  F7  1  0.26770000  0.12670000  0.13000000  1.0 -0.2100818781
F  F8  1  0.73230000  0.87330000  0.13000000  1.0 -0.2100818781
F  F9  1  0.87330000  0.73230000  0.63000000  1.0 -0.2100818781
F  F10  1  0.73230000  0.12670000  0.13000000  1.0 -0.2100818781
F  F11  1  0.12670000  0.26770000  0.63000000  1.0 -0.2100818781
F  F12  1  0.26770000  0.87330000  0.13000000  1.0 -0.2100818781
F  F13  1  0.12670000  0.73230000  0.37000000  1.0 -0.2100818781
F  F14  1  0.87330000  0.26770000  0.37000000  1.0 -0.2100818781
F  F15  1  0.73230000  0.87330000  0.87000000  1.0 -0.2100818781
F  F16  1  0.26770000  0.12670000  0.87000000  1.0 -0.2100818781
F  F17  1  0.21330000  0.25410000  0.41910000  1.0 -0.2325061634
F  F18  1  0.25410000  0.78670000  0.91910000  1.0 -0.2325061634
F  F19  1  0.78670000  0.74590000  0.41910000  1.0 -0.2325061634
F  F20  1  0.74590000  0.21330000  0.91910000  1.0 -0.2325061634
F  F21  1  0.78670000  0.25410000  0.58090000  1.0 -0.2325061634
F  F22  1  0.21330000  0.74590000  0.58090000  1.0 -0.2325061634
F  F23  1  0.25410000  0.21330000  0.08090000  1.0 -0.2325061634
F  F24  1  0.74590000  0.78670000  0.08090000  1.0 -0.2325061634
F  F25  1  0.78670000  0.74590000  0.58090000  1.0 -0.2325061634
F  F26  1  0.74590000  0.21330000  0.08090000  1.0 -0.2325061634
F  F27  1  0.21330000  0.25410000  0.58090000  1.0 -0.2325061634
F  F28  1  0.25410000  0.78670000  0.08090000  1.0 -0.2325061634
F  F29  1  0.21330000  0.74590000  0.41910000  1.0 -0.2325061634
F  F30  1  0.78670000  0.25410000  0.41910000  1.0 -0.2325061634
F  F31  1  0.74590000  0.78670000  0.91910000  1.0 -0.2325061634
F  F32  1  0.25410000  0.21330000  0.91910000  1.0 -0.2325061634
F  F33  1  0.17780000  0.19990000  0.31100000  1.0 -0.1681093266
F  F34  1  0.19990000  0.82220000  0.81100000  1.0 -0.1681093266
F  F35  1  0.82220000  0.80010000  0.31100000  1.0 -0.1681093266
F  F36  1  0.80010000  0.17780000  0.81100000  1.0 -0.1681093266
F  F37  1  0.82220000  0.19990000  0.68900000  1.0 -0.1681093266
F  F38  1  0.17780000  0.80010000  0.68900000  1.0 -0.1681093266
F  F39  1  0.19990000  0.17780000  0.18900000  1.0 -0.1681093266
F  F40  1  0.80010000  0.82220000  0.18900000  1.0 -0.1681093266
F  F41  1  0.82220000  0.80010000  0.68900000  1.0 -0.1681093266
F  F42  1  0.80010000  0.17780000  0.18900000  1.0 -0.1681093266
F  F43  1  0.17780000  0.19990000  0.68900000  1.0 -0.1681093266
F  F44  1  0.19990000  0.82220000  0.18900000  1.0 -0.1681093266
F  F45  1  0.17780000  0.80010000  0.31100000  1.0 -0.1681093266
F  F46  1  0.82220000  0.19990000  0.31100000  1.0 -0.1681093266
F  F47  1  0.80010000  0.82220000  0.81100000  1.0 -0.1681093266
F  F48  1  0.19990000  0.17780000  0.81100000  1.0 -0.1681093266
F  F49  1  0.32540000  0.37390000  0.04990000  1.0 -0.0708783676
F  F50  1  0.37390000  0.67460000  0.54990000  1.0 -0.0708783676
F  F51  1  0.67460000  0.62610000  0.04990000  1.0 -0.0708783676
F  F52  1  0.62610000  0.32540000  0.54990000  1.0 -0.0708783676
F  F53  1  0.67460000  0.37390000  0.95010000  1.0 -0.0708783676
F  F54  1  0.32540000  0.62610000  0.95010000  1.0 -0.0708783676
F  F55  1  0.37390000  0.32540000  0.45010000  1.0 -0.0708783676
F  F56  1  0.62610000  0.67460000  0.45010000  1.0 -0.0708783676
F  F57  1  0.67460000  0.62610000  0.95010000  1.0 -0.0708783676
F  F58  1  0.62610000  0.32540000  0.45010000  1.0 -0.0708783676
F  F59  1  0.32540000  0.37390000  0.95010000  1.0 -0.0708783676
F  F60  1  0.37390000  0.67460000  0.45010000  1.0 -0.0708783676
F  F61  1  0.32540000  0.62610000  0.04990000  1.0 -0.0708783676
F  F62  1  0.67460000  0.37390000  0.04990000  1.0 -0.0708783676
F  F63  1  0.62610000  0.67460000  0.54990000  1.0 -0.0708783676
F  F64  1  0.37390000  0.32540000  0.54990000  1.0 -0.0708783676
F  F65  1  0.33210000  0.28300000  0.07330000  1.0 -0.2100818781
F  F66  1  0.28300000  0.66790000  0.57330000  1.0 -0.2100818781
F  F67  1  0.66790000  0.71700000  0.07330000  1.0 -0.2100818781
F  F68  1  0.71700000  0.33210000  0.57330000  1.0 -0.2100818781
F  F69  1  0.66790000  0.28300000  0.92670000  1.0 -0.2100818781
F  F70  1  0.33210000  0.71700000  0.92670000  1.0 -0.2100818781
F  F71  1  0.28300000  0.33210000  0.42670000  1.0 -0.2100818781
F  F72  1  0.71700000  0.66790000  0.42670000  1.0 -0.2100818781
F  F73  1  0.66790000  0.71700000  0.92670000  1.0 -0.2100818781
F  F74  1  0.71700000  0.33210000  0.42670000  1.0 -0.2100818781
F  F75  1  0.33210000  0.28300000  0.92670000  1.0 -0.2100818781
F  F76  1  0.28300000  0.66790000  0.42670000  1.0 -0.2100818781
F  F77  1  0.33210000  0.71700000  0.07330000  1.0 -0.2100818781
F  F78  1  0.66790000  0.28300000  0.07330000  1.0 -0.2100818781
F  F79  1  0.71700000  0.66790000  0.57330000  1.0 -0.2100818781
F  F80  1  0.28300000  0.33210000  0.57330000  1.0 -0.2100818781
F  F81  1  0.36760000  0.34250000  0.17350000  1.0 -0.1915295413
F  F82  1  0.34250000  0.63240000  0.67350000  1.0 -0.1915295413
F  F83  1  0.63240000  0.65750000  0.17350000  1.0 -0.1915295413
F  F84  1  0.65750000  0.36760000  0.67350000  1.0 -0.1915295413
F  F85  1  0.63240000  0.34250000  0.82650000  1.0 -0.1915295413
F  F86  1  0.36760000  0.65750000  0.82650000  1.0 -0.1915295413
F  F87  1  0.34250000  0.36760000  0.32650000  1.0 -0.1915295413
F  F88  1  0.65750000  0.63240000  0.32650000  1.0 -0.1915295413
F  F89  1  0.63240000  0.65750000  0.82650000  1.0 -0.1915295413
F  F90  1  0.65750000  0.36760000  0.32650000  1.0 -0.1915295413
F  F91  1  0.36760000  0.34250000  0.82650000  1.0 -0.1915295413
F  F92  1  0.34250000  0.63240000  0.32650000  1.0 -0.1915295413
F  F93  1  0.36760000  0.65750000  0.17350000  1.0 -0.1915295413
F  F94  1  0.63240000  0.34250000  0.17350000  1.0 -0.1915295413
F  F95  1  0.65750000  0.63240000  0.67350000  1.0 -0.1915295413
F  F96  1  0.34250000  0.36760000  0.67350000  1.0 -0.1915295413
