# DDEC6 charges by PACMAN v1.1 (https://github.com/mtap-research/PACMAN-charge/)
data_OQUGUE_ASR_pacman
_symmetry_space_group_name_H-M   'P 1'
_cell_length_a   22.89950000
_cell_length_b   22.89950000
_cell_length_c   19.02010000
_cell_angle_alpha   90.00000000
_cell_angle_beta   90.00000000
_cell_angle_gamma   90.00000000
_symmetry_Int_Tables_number   1
_chemical_formula_structural   Zr3H22C43(O2F3)8
_chemical_formula_sum   'Zr12 H88 C172 O64 F96'
_cell_volume   9973.89508547
_cell_formula_units_Z   4
loop_
 _symmetry_equiv_pos_site_id
 _symmetry_equiv_pos_as_xyz
  1  'x, y, z'
loop_
 _atom_site_type_symbol
 _atom_site_label
 _atom_site_symmetry_multiplicity
 _atom_site_fract_x
 _atom_site_fract_y
 _atom_site_fract_z
 _atom_site_occupancy
 _atom_site_charge
Zr  Zr1  1  0.42394000  0.00000000  0.09283000  1.0 2.4554695364
Zr  Zr2  1  0.00000000  0.57606000  0.59283000  1.0 2.4554695364
Zr  Zr3  1  0.57606000  0.00000000  0.09283000  1.0 2.4554695364
Zr  Zr4  1  0.00000000  0.42394000  0.59283000  1.0 2.4554695364
Zr  Zr5  1  0.57606000  0.00000000  0.90717000  1.0 2.4554695364
Zr  Zr6  1  0.42394000  0.00000000  0.90717000  1.0 2.4554695364
Zr  Zr7  1  0.00000000  0.42394000  0.40717000  1.0 2.4554695364
Zr  Zr8  1  0.00000000  0.57606000  0.40717000  1.0 2.4554695364
Zr  Zr9  1  0.50000000  0.10788000  0.00000000  1.0 2.396524119
Zr  Zr10  1  0.10788000  0.50000000  0.50000000  1.0 2.396524119
Zr  Zr11  1  0.50000000  0.89212000  0.00000000  1.0 2.396524119
Zr  Zr12  1  0.89212000  0.50000000  0.50000000  1.0 2.396524119
H  H1  1  0.40230000  0.25540000  0.10670000  1.0 0.1272090071
H  H2  1  0.25540000  0.59770000  0.60670000  1.0 0.1272090071
H  H3  1  0.59770000  0.74460000  0.10670000  1.0 0.1272090071
H  H4  1  0.74460000  0.40230000  0.60670000  1.0 0.1272090071
H  H5  1  0.59770000  0.25540000  0.89330000  1.0 0.1272090071
H  H6  1  0.40230000  0.74460000  0.89330000  1.0 0.1272090071
H  H7  1  0.25540000  0.40230000  0.39330000  1.0 0.1272090071
H  H8  1  0.74460000  0.59770000  0.39330000  1.0 0.1272090071
H  H9  1  0.59770000  0.74460000  0.89330000  1.0 0.1272090071
H  H10  1  0.74460000  0.40230000  0.39330000  1.0 0.1272090071
H  H11  1  0.40230000  0.25540000  0.89330000  1.0 0.1272090071
H  H12  1  0.25540000  0.59770000  0.39330000  1.0 0.1272090071
H  H13  1  0.40230000  0.74460000  0.10670000  1.0 0.1272090071
H  H14  1  0.59770000  0.25540000  0.10670000  1.0 0.1272090071
H  H15  1  0.74460000  0.59770000  0.60670000  1.0 0.1272090071
H  H16  1  0.25540000  0.40230000  0.60670000  1.0 0.1272090071
H  H17  1  0.28780000  0.19130000  0.29130000  1.0 0.1909241088
H  H18  1  0.19130000  0.71220000  0.79130000  1.0 0.1909241088
H  H19  1  0.71220000  0.80870000  0.29130000  1.0 0.1909241088
H  H20  1  0.80870000  0.28780000  0.79130000  1.0 0.1909241088
H  H21  1  0.71220000  0.19130000  0.70870000  1.0 0.1909241088
H  H22  1  0.28780000  0.80870000  0.70870000  1.0 0.1909241088
H  H23  1  0.19130000  0.28780000  0.20870000  1.0 0.1909241088
H  H24  1  0.80870000  0.71220000  0.20870000  1.0 0.1909241088
H  H25  1  0.71220000  0.80870000  0.70870000  1.0 0.1909241088
H  H26  1  0.80870000  0.28780000  0.20870000  1.0 0.1909241088
H  H27  1  0.28780000  0.19130000  0.70870000  1.0 0.1909241088
H  H28  1  0.19130000  0.71220000  0.20870000  1.0 0.1909241088
H  H29  1  0.28780000  0.80870000  0.29130000  1.0 0.1909241088
H  H30  1  0.71220000  0.19130000  0.29130000  1.0 0.1909241088
H  H31  1  0.80870000  0.71220000  0.79130000  1.0 0.1909241088
H  H32  1  0.19130000  0.28780000  0.79130000  1.0 0.1909241088
H  H33  1  0.33760000  0.12450000  0.22080000  1.0 0.12009083
H  H34  1  0.12450000  0.66240000  0.72080000  1.0 0.12009083
H  H35  1  0.66240000  0.87550000  0.22080000  1.0 0.12009083
H  H36  1  0.87550000  0.33760000  0.72080000  1.0 0.12009083
H  H37  1  0.66240000  0.12450000  0.77920000  1.0 0.12009083
H  H38  1  0.33760000  0.87550000  0.77920000  1.0 0.12009083
H  H39  1  0.12450000  0.33760000  0.27920000  1.0 0.12009083
H  H40  1  0.87550000  0.66240000  0.27920000  1.0 0.12009083
H  H41  1  0.66240000  0.87550000  0.77920000  1.0 0.12009083
H  H42  1  0.87550000  0.33760000  0.27920000  1.0 0.12009083
H  H43  1  0.33760000  0.12450000  0.77920000  1.0 0.12009083
H  H44  1  0.12450000  0.66240000  0.27920000  1.0 0.12009083
H  H45  1  0.33760000  0.87550000  0.22080000  1.0 0.12009083
H  H46  1  0.66240000  0.12450000  0.22080000  1.0 0.12009083
H  H47  1  0.87550000  0.66240000  0.72080000  1.0 0.12009083
H  H48  1  0.12450000  0.33760000  0.72080000  1.0 0.12009083
H  H49  1  0.41150000  0.00000000  0.32420000  1.0 0.156350768
H  H50  1  0.00000000  0.58850000  0.82420000  1.0 0.156350768
H  H51  1  0.58850000  0.00000000  0.32420000  1.0 0.156350768
H  H52  1  0.00000000  0.41150000  0.82420000  1.0 0.156350768
H  H53  1  0.58850000  0.00000000  0.67580000  1.0 0.156350768
H  H54  1  0.41150000  0.00000000  0.67580000  1.0 0.156350768
H  H55  1  0.00000000  0.41150000  0.17580000  1.0 0.156350768
H  H56  1  0.00000000  0.58850000  0.17580000  1.0 0.156350768
H  H57  1  0.36250000  0.00000000  0.44350000  1.0 0.2551989134
H  H58  1  0.00000000  0.63750000  0.94350000  1.0 0.2551989134
H  H59  1  0.63750000  0.00000000  0.44350000  1.0 0.2551989134
H  H60  1  0.00000000  0.36250000  0.94350000  1.0 0.2551989134
H  H61  1  0.63750000  0.00000000  0.55650000  1.0 0.2551989134
H  H62  1  0.36250000  0.00000000  0.55650000  1.0 0.2551989134
H  H63  1  0.00000000  0.36250000  0.05650000  1.0 0.2551989134
H  H64  1  0.00000000  0.63750000  0.05650000  1.0 0.2551989134
H  H65  1  0.34650000  0.32220000  0.17310000  1.0 0.1909241088
H  H66  1  0.32220000  0.65350000  0.67310000  1.0 0.1909241088
H  H67  1  0.65350000  0.67780000  0.17310000  1.0 0.1909241088
H  H68  1  0.67780000  0.34650000  0.67310000  1.0 0.1909241088
H  H69  1  0.65350000  0.32220000  0.82690000  1.0 0.1909241088
H  H70  1  0.34650000  0.67780000  0.82690000  1.0 0.1909241088
H  H71  1  0.32220000  0.34650000  0.32690000  1.0 0.1909241088
H  H72  1  0.67780000  0.65350000  0.32690000  1.0 0.1909241088
H  H73  1  0.65350000  0.67780000  0.82690000  1.0 0.1909241088
H  H74  1  0.67780000  0.34650000  0.32690000  1.0 0.1909241088
H  H75  1  0.34650000  0.32220000  0.82690000  1.0 0.1909241088
H  H76  1  0.32220000  0.65350000  0.32690000  1.0 0.1909241088
H  H77  1  0.34650000  0.67780000  0.17310000  1.0 0.1909241088
H  H78  1  0.65350000  0.32220000  0.17310000  1.0 0.1909241088
H  H79  1  0.67780000  0.65350000  0.67310000  1.0 0.1909241088
H  H80  1  0.32220000  0.34650000  0.67310000  1.0 0.1909241088
H  H81  1  0.41140000  0.00000000  0.44700000  1.0 0.1048754629
H  H82  1  0.00000000  0.58860000  0.94700000  1.0 0.1055601042
H  H83  1  0.58860000  0.00000000  0.44700000  1.0 0.1048754629
H  H84  1  0.00000000  0.41140000  0.94700000  1.0 0.1055601042
H  H85  1  0.58860000  0.00000000  0.55300000  1.0 0.1048754629
H  H86  1  0.41140000  0.00000000  0.55300000  1.0 0.1048754629
H  H87  1  0.00000000  0.41140000  0.05300000  1.0 0.1048754629
H  H88  1  0.00000000  0.58860000  0.05300000  1.0 0.1048754629
C  C1  1  0.40480000  0.14000000  0.11520000  1.0 0.6551443141
C  C2  1  0.14000000  0.59520000  0.61520000  1.0 0.6551443141
C  C3  1  0.59520000  0.86000000  0.11520000  1.0 0.6551443141
C  C4  1  0.86000000  0.40480000  0.61520000  1.0 0.6551443141
C  C5  1  0.59520000  0.14000000  0.88480000  1.0 0.6551443141
C  C6  1  0.40480000  0.86000000  0.88480000  1.0 0.6551443141
C  C7  1  0.14000000  0.40480000  0.38480000  1.0 0.6551443141
C  C8  1  0.86000000  0.59520000  0.38480000  1.0 0.6551443141
C  C9  1  0.59520000  0.86000000  0.88480000  1.0 0.6551443141
C  C10  1  0.86000000  0.40480000  0.38480000  1.0 0.6551443141
C  C11  1  0.40480000  0.14000000  0.88480000  1.0 0.6551443141
C  C12  1  0.14000000  0.59520000  0.38480000  1.0 0.6551443141
C  C13  1  0.40480000  0.86000000  0.11520000  1.0 0.6551443141
C  C14  1  0.59520000  0.14000000  0.11520000  1.0 0.6551443141
C  C15  1  0.86000000  0.59520000  0.61520000  1.0 0.6551443141
C  C16  1  0.14000000  0.40480000  0.61520000  1.0 0.6551443141
C  C17  1  0.37190000  0.18490000  0.15650000  1.0 -0.0561681526
C  C18  1  0.18490000  0.62810000  0.65650000  1.0 -0.0561681526
C  C19  1  0.62810000  0.81510000  0.15650000  1.0 -0.0561681526
C  C20  1  0.81510000  0.37190000  0.65650000  1.0 -0.0561681526
C  C21  1  0.62810000  0.18490000  0.84350000  1.0 -0.0561681526
C  C22  1  0.37190000  0.81510000  0.84350000  1.0 -0.0561681526
C  C23  1  0.18490000  0.37190000  0.34350000  1.0 -0.0561681526
C  C24  1  0.81510000  0.62810000  0.34350000  1.0 -0.0561681526
C  C25  1  0.62810000  0.81510000  0.84350000  1.0 -0.0561681526
C  C26  1  0.81510000  0.37190000  0.34350000  1.0 -0.0561681526
C  C27  1  0.37190000  0.18490000  0.84350000  1.0 -0.0561681526
C  C28  1  0.18490000  0.62810000  0.34350000  1.0 -0.0561681526
C  C29  1  0.37190000  0.81510000  0.15650000  1.0 -0.0561681526
C  C30  1  0.62810000  0.18490000  0.15650000  1.0 -0.0561681526
C  C31  1  0.81510000  0.62810000  0.65650000  1.0 -0.0561681526
C  C32  1  0.18490000  0.37190000  0.65650000  1.0 -0.0561681526
C  C33  1  0.37660000  0.24190000  0.14240000  1.0 -0.0315853851
C  C34  1  0.24190000  0.62340000  0.64240000  1.0 -0.0315853851
C  C35  1  0.62340000  0.75810000  0.14240000  1.0 -0.0315853851
C  C36  1  0.75810000  0.37660000  0.64240000  1.0 -0.0315853851
C  C37  1  0.62340000  0.24190000  0.85760000  1.0 -0.0315853851
C  C38  1  0.37660000  0.75810000  0.85760000  1.0 -0.0315853851
C  C39  1  0.24190000  0.37660000  0.35760000  1.0 -0.0315853851
C  C40  1  0.75810000  0.62340000  0.35760000  1.0 -0.0315853851
C  C41  1  0.62340000  0.75810000  0.85760000  1.0 -0.0315853851
C  C42  1  0.75810000  0.37660000  0.35760000  1.0 -0.0315853851
C  C43  1  0.37660000  0.24190000  0.85760000  1.0 -0.0315853851
C  C44  1  0.24190000  0.62340000  0.35760000  1.0 -0.0315853851
C  C45  1  0.37660000  0.75810000  0.14240000  1.0 -0.0315853851
C  C46  1  0.62340000  0.24190000  0.14240000  1.0 -0.0315853851
C  C47  1  0.75810000  0.62340000  0.64240000  1.0 -0.0315853851
C  C48  1  0.24190000  0.37660000  0.64240000  1.0 -0.0315853851
C  C49  1  0.34250000  0.28160000  0.18170000  1.0 -0.1503041808
C  C50  1  0.28160000  0.65750000  0.68170000  1.0 -0.1503041808
C  C51  1  0.65750000  0.71840000  0.18170000  1.0 -0.1503041808
C  C52  1  0.71840000  0.34250000  0.68170000  1.0 -0.1503041808
C  C53  1  0.65750000  0.28160000  0.81830000  1.0 -0.1503041808
C  C54  1  0.34250000  0.71840000  0.81830000  1.0 -0.1503041808
C  C55  1  0.28160000  0.34250000  0.31830000  1.0 -0.1503041808
C  C56  1  0.71840000  0.65750000  0.31830000  1.0 -0.1503041808
C  C57  1  0.65750000  0.71840000  0.81830000  1.0 -0.1503041808
C  C58  1  0.71840000  0.34250000  0.31830000  1.0 -0.1503041808
C  C59  1  0.34250000  0.28160000  0.81830000  1.0 -0.1503041808
C  C60  1  0.28160000  0.65750000  0.31830000  1.0 -0.1503041808
C  C61  1  0.34250000  0.71840000  0.18170000  1.0 -0.1503041808
C  C62  1  0.65750000  0.28160000  0.18170000  1.0 -0.1503041808
C  C63  1  0.71840000  0.65750000  0.68170000  1.0 -0.1503041808
C  C64  1  0.28160000  0.34250000  0.68170000  1.0 -0.1503041808
C  C65  1  0.30350000  0.26300000  0.23210000  1.0 0.0344857359
C  C66  1  0.26300000  0.69650000  0.73210000  1.0 0.0344857359
C  C67  1  0.69650000  0.73700000  0.23210000  1.0 0.0352175895
C  C68  1  0.73700000  0.30350000  0.73210000  1.0 0.0344857359
C  C69  1  0.69650000  0.26300000  0.76790000  1.0 0.0344857359
C  C70  1  0.30350000  0.73700000  0.76790000  1.0 0.0344857359
C  C71  1  0.26300000  0.30350000  0.26790000  1.0 0.0344857359
C  C72  1  0.73700000  0.69650000  0.26790000  1.0 0.0344857359
C  C73  1  0.69650000  0.73700000  0.76790000  1.0 0.0352175895
C  C74  1  0.73700000  0.30350000  0.26790000  1.0 0.0344857359
C  C75  1  0.30350000  0.26300000  0.76790000  1.0 0.0344857359
C  C76  1  0.26300000  0.69650000  0.26790000  1.0 0.0344857359
C  C77  1  0.30350000  0.73700000  0.23210000  1.0 0.0344857359
C  C78  1  0.69650000  0.26300000  0.23210000  1.0 0.0344857359
C  C79  1  0.73700000  0.69650000  0.73210000  1.0 0.0352175895
C  C80  1  0.26300000  0.30350000  0.73210000  1.0 0.0344857359
C  C81  1  0.30740000  0.20460000  0.25030000  1.0 -0.1503041808
C  C82  1  0.20460000  0.69260000  0.75030000  1.0 -0.1503041808
C  C83  1  0.69260000  0.79540000  0.25030000  1.0 -0.1503041808
C  C84  1  0.79540000  0.30740000  0.75030000  1.0 -0.1503041808
C  C85  1  0.69260000  0.20460000  0.74970000  1.0 -0.1503041808
C  C86  1  0.30740000  0.79540000  0.74970000  1.0 -0.1503041808
C  C87  1  0.20460000  0.30740000  0.24970000  1.0 -0.1503041808
C  C88  1  0.79540000  0.69260000  0.24970000  1.0 -0.1503041808
C  C89  1  0.69260000  0.79540000  0.74970000  1.0 -0.1503041808
C  C90  1  0.79540000  0.30740000  0.24970000  1.0 -0.1503041808
C  C91  1  0.30740000  0.20460000  0.74970000  1.0 -0.1503041808
C  C92  1  0.20460000  0.69260000  0.24970000  1.0 -0.1503041808
C  C93  1  0.30740000  0.79540000  0.25030000  1.0 -0.1503041808
C  C94  1  0.69260000  0.20460000  0.25030000  1.0 -0.1503041808
C  C95  1  0.79540000  0.69260000  0.75030000  1.0 -0.1503041808
C  C96  1  0.20460000  0.30740000  0.75030000  1.0 -0.1503041808
C  C97  1  0.33900000  0.16500000  0.21040000  1.0 -0.0505390675
C  C98  1  0.16500000  0.66100000  0.71040000  1.0 -0.0505390675
C  C99  1  0.66100000  0.83500000  0.21040000  1.0 -0.0505390675
C  C100  1  0.83500000  0.33900000  0.71040000  1.0 -0.0505390675
C  C101  1  0.66100000  0.16500000  0.78960000  1.0 -0.0505390675
C  C102  1  0.33900000  0.83500000  0.78960000  1.0 -0.0505390675
C  C103  1  0.16500000  0.33900000  0.28960000  1.0 -0.0505390675
C  C104  1  0.83500000  0.66100000  0.28960000  1.0 -0.0505390675
C  C105  1  0.66100000  0.83500000  0.78960000  1.0 -0.0505390675
C  C106  1  0.83500000  0.33900000  0.28960000  1.0 -0.0505390675
C  C107  1  0.33900000  0.16500000  0.78960000  1.0 -0.0505390675
C  C108  1  0.16500000  0.66100000  0.28960000  1.0 -0.0505390675
C  C109  1  0.33900000  0.83500000  0.21040000  1.0 -0.0505390675
C  C110  1  0.66100000  0.16500000  0.21040000  1.0 -0.0505390675
C  C111  1  0.83500000  0.66100000  0.71040000  1.0 -0.0505390675
C  C112  1  0.16500000  0.33900000  0.71040000  1.0 -0.0505390675
C  C113  1  0.34100000  0.34220000  0.15620000  1.0 0.3447189208
C  C114  1  0.34220000  0.65900000  0.65620000  1.0 0.3447189208
C  C115  1  0.65900000  0.65780000  0.15620000  1.0 0.3447189208
C  C116  1  0.65780000  0.34100000  0.65620000  1.0 0.3447189208
C  C117  1  0.65900000  0.34220000  0.84380000  1.0 0.3447189208
C  C118  1  0.34100000  0.65780000  0.84380000  1.0 0.3447189208
C  C119  1  0.34220000  0.34100000  0.34380000  1.0 0.3447189208
C  C120  1  0.65780000  0.65900000  0.34380000  1.0 0.3447189208
C  C121  1  0.65900000  0.65780000  0.84380000  1.0 0.3447189208
C  C122  1  0.65780000  0.34100000  0.34380000  1.0 0.3447189208
C  C123  1  0.34100000  0.34220000  0.84380000  1.0 0.3447189208
C  C124  1  0.34220000  0.65900000  0.34380000  1.0 0.3447189208
C  C125  1  0.34100000  0.65780000  0.15620000  1.0 0.3447189208
C  C126  1  0.65900000  0.34220000  0.15620000  1.0 0.3447189208
C  C127  1  0.65780000  0.65900000  0.65620000  1.0 0.3447189208
C  C128  1  0.34220000  0.34100000  0.65620000  1.0 0.3447189208
C  C129  1  0.50000000  0.00000000  0.23300000  1.0 0.6346935507
C  C130  1  0.00000000  0.50000000  0.73300000  1.0 0.6346935507
C  C131  1  0.50000000  0.00000000  0.76700000  1.0 0.6346935507
C  C132  1  0.00000000  0.50000000  0.26700000  1.0 0.6346935507
C  C133  1  0.50000000  0.00000000  0.31260000  1.0 0.0185454675
C  C134  1  0.00000000  0.50000000  0.81260000  1.0 0.0185454675
C  C135  1  0.50000000  0.00000000  0.68740000  1.0 0.0185454675
C  C136  1  0.00000000  0.50000000  0.18740000  1.0 0.0185454675
C  C137  1  0.44739000  0.00000000  0.34920000  1.0 -0.2145648722
C  C138  1  0.00000000  0.55261000  0.84920000  1.0 -0.2183852468
C  C139  1  0.55261000  0.00000000  0.34920000  1.0 -0.2145648722
C  C140  1  0.00000000  0.44739000  0.84920000  1.0 -0.2183852468
C  C141  1  0.55261000  0.00000000  0.65080000  1.0 -0.2145648722
C  C142  1  0.44739000  0.00000000  0.65080000  1.0 -0.2145648722
C  C143  1  0.00000000  0.44739000  0.15080000  1.0 -0.2183852468
C  C144  1  0.00000000  0.55261000  0.15080000  1.0 -0.2183852468
C  C145  1  0.44744000  0.00000000  0.42230000  1.0 0.0908563834
C  C146  1  0.00000000  0.55256000  0.92230000  1.0 0.0908563834
C  C147  1  0.55256000  0.00000000  0.42230000  1.0 0.0908563834
C  C148  1  0.00000000  0.44744000  0.92230000  1.0 0.0908563834
C  C149  1  0.55256000  0.00000000  0.57770000  1.0 0.0908563834
C  C150  1  0.44744000  0.00000000  0.57770000  1.0 0.0908563834
C  C151  1  0.00000000  0.44744000  0.07770000  1.0 0.0908563834
C  C152  1  0.00000000  0.55256000  0.07770000  1.0 0.0908563834
C  C153  1  0.50000000  0.00000000  0.45990000  1.0 -0.0710843049
C  C154  1  0.00000000  0.50000000  0.95990000  1.0 -0.0710843049
C  C155  1  0.50000000  0.00000000  0.54010000  1.0 -0.0710843049
C  C156  1  0.00000000  0.50000000  0.04010000  1.0 -0.0710843049
C  C157  1  0.27070000  0.17940000  0.30640000  1.0 0.3483266558
C  C158  1  0.17940000  0.72930000  0.80640000  1.0 0.3483266558
C  C159  1  0.72930000  0.82060000  0.30640000  1.0 0.3483266558
C  C160  1  0.82060000  0.27070000  0.80640000  1.0 0.3483266558
C  C161  1  0.72930000  0.17940000  0.69360000  1.0 0.3483266558
C  C162  1  0.27070000  0.82060000  0.69360000  1.0 0.3483266558
C  C163  1  0.17940000  0.27070000  0.19360000  1.0 0.3483266558
C  C164  1  0.82060000  0.72930000  0.19360000  1.0 0.3483266558
C  C165  1  0.72930000  0.82060000  0.69360000  1.0 0.3483266558
C  C166  1  0.82060000  0.27070000  0.19360000  1.0 0.3483266558
C  C167  1  0.27070000  0.17940000  0.69360000  1.0 0.3483266558
C  C168  1  0.17940000  0.72930000  0.19360000  1.0 0.3483266558
C  C169  1  0.27070000  0.82060000  0.30640000  1.0 0.3483266558
C  C170  1  0.72930000  0.17940000  0.30640000  1.0 0.3483266558
C  C171  1  0.82060000  0.72930000  0.80640000  1.0 0.3483266558
C  C172  1  0.17940000  0.27070000  0.80640000  1.0 0.3483266558
O  O1  1  0.44160000  0.15810000  0.07000000  1.0 -0.5784071211
O  O2  1  0.15810000  0.55840000  0.57000000  1.0 -0.5784071211
O  O3  1  0.55840000  0.84190000  0.07000000  1.0 -0.5784071211
O  O4  1  0.84190000  0.44160000  0.57000000  1.0 -0.5784071211
O  O5  1  0.55840000  0.15810000  0.93000000  1.0 -0.5784071211
O  O6  1  0.44160000  0.84190000  0.93000000  1.0 -0.5784071211
O  O7  1  0.15810000  0.44160000  0.43000000  1.0 -0.5784071211
O  O8  1  0.84190000  0.55840000  0.43000000  1.0 -0.5784071211
O  O9  1  0.55840000  0.84190000  0.93000000  1.0 -0.5784071211
O  O10  1  0.84190000  0.44160000  0.43000000  1.0 -0.5784071211
O  O11  1  0.44160000  0.15810000  0.93000000  1.0 -0.5784071211
O  O12  1  0.15810000  0.55840000  0.43000000  1.0 -0.5784071211
O  O13  1  0.44160000  0.84190000  0.07000000  1.0 -0.5784071211
O  O14  1  0.55840000  0.15810000  0.07000000  1.0 -0.5784071211
O  O15  1  0.84190000  0.55840000  0.57000000  1.0 -0.5784071211
O  O16  1  0.15810000  0.44160000  0.57000000  1.0 -0.5784071211
O  O17  1  0.39440000  0.08690000  0.13040000  1.0 -0.5877805773
O  O18  1  0.08690000  0.60560000  0.63040000  1.0 -0.5877805773
O  O19  1  0.60560000  0.91310000  0.13040000  1.0 -0.5877805773
O  O20  1  0.91310000  0.39440000  0.63040000  1.0 -0.5877805773
O  O21  1  0.60560000  0.08690000  0.86960000  1.0 -0.5877805773
O  O22  1  0.39440000  0.91310000  0.86960000  1.0 -0.5877805773
O  O23  1  0.08690000  0.39440000  0.36960000  1.0 -0.5877805773
O  O24  1  0.91310000  0.60560000  0.36960000  1.0 -0.5877805773
O  O25  1  0.60560000  0.91310000  0.86960000  1.0 -0.5877805773
O  O26  1  0.91310000  0.39440000  0.36960000  1.0 -0.5877805773
O  O27  1  0.39440000  0.08690000  0.86960000  1.0 -0.5877805773
O  O28  1  0.08690000  0.60560000  0.36960000  1.0 -0.5877805773
O  O29  1  0.39440000  0.91310000  0.13040000  1.0 -0.5877805773
O  O30  1  0.60560000  0.08690000  0.13040000  1.0 -0.5877805773
O  O31  1  0.91310000  0.60560000  0.63040000  1.0 -0.5877805773
O  O32  1  0.08690000  0.39440000  0.63040000  1.0 -0.5877805773
O  O33  1  0.44410000  0.00000000  0.20790000  1.0 -0.6609253857
O  O34  1  0.00000000  0.55590000  0.70790000  1.0 -0.6609253857
O  O35  1  0.55590000  0.00000000  0.20790000  1.0 -0.6609253857
O  O36  1  0.00000000  0.44410000  0.70790000  1.0 -0.6609253857
O  O37  1  0.55590000  0.00000000  0.79210000  1.0 -0.6609253857
O  O38  1  0.44410000  0.00000000  0.79210000  1.0 -0.6609253857
O  O39  1  0.00000000  0.44410000  0.29210000  1.0 -0.6609253857
O  O40  1  0.00000000  0.55590000  0.29210000  1.0 -0.6609253857
O  O41  1  0.42120000  0.05410000  0.00000000  1.0 -1.1642007553
O  O42  1  0.05410000  0.57880000  0.50000000  1.0 -1.1650217298
O  O43  1  0.57880000  0.94590000  0.00000000  1.0 -1.1642007553
O  O44  1  0.94590000  0.42120000  0.50000000  1.0 -1.1642007553
O  O45  1  0.57880000  0.05410000  0.00000000  1.0 -1.1642007553
O  O46  1  0.42120000  0.94590000  0.00000000  1.0 -1.1642007553
O  O47  1  0.05410000  0.42120000  0.50000000  1.0 -1.1650217298
O  O48  1  0.94590000  0.57880000  0.50000000  1.0 -1.1642007553
O  O49  1  0.50000000  0.94830000  0.09050000  1.0 -1.1190898393
O  O50  1  0.94830000  0.50000000  0.59050000  1.0 -1.1190898393
O  O51  1  0.50000000  0.05170000  0.09050000  1.0 -1.1190898393
O  O52  1  0.05170000  0.50000000  0.59050000  1.0 -1.1190898393
O  O53  1  0.50000000  0.94830000  0.90950000  1.0 -1.1190898393
O  O54  1  0.50000000  0.05170000  0.90950000  1.0 -1.1190898393
O  O55  1  0.94830000  0.50000000  0.40950000  1.0 -1.1190898393
O  O56  1  0.05170000  0.50000000  0.40950000  1.0 -1.1190898393
O  O57  1  0.39690000  0.00000000  0.45880000  1.0 -0.1423934187
O  O58  1  0.00000000  0.60310000  0.95880000  1.0 -0.1423934187
O  O59  1  0.60310000  0.00000000  0.45880000  1.0 -0.1423934187
O  O60  1  0.00000000  0.39690000  0.95880000  1.0 -0.1423934187
O  O61  1  0.60310000  0.00000000  0.54120000  1.0 -0.1423934187
O  O62  1  0.39690000  0.00000000  0.54120000  1.0 -0.1423934187
O  O63  1  0.00000000  0.39690000  0.04120000  1.0 -0.1423934187
O  O64  1  0.00000000  0.60310000  0.04120000  1.0 -0.1423934187
F  F1  1  0.37300000  0.35770000  0.08970000  1.0 -0.1664398138
F  F2  1  0.35770000  0.62700000  0.58970000  1.0 -0.1664398138
F  F3  1  0.62700000  0.64230000  0.08970000  1.0 -0.1664398138
F  F4  1  0.64230000  0.37300000  0.58970000  1.0 -0.1664398138
F  F5  1  0.62700000  0.35770000  0.91030000  1.0 -0.1664398138
F  F6  1  0.37300000  0.64230000  0.91030000  1.0 -0.1664398138
F  F7  1  0.35770000  0.37300000  0.41030000  1.0 -0.1664398138
F  F8  1  0.64230000  0.62700000  0.41030000  1.0 -0.1664398138
F  F9  1  0.62700000  0.64230000  0.91030000  1.0 -0.1664398138
F  F10  1  0.64230000  0.37300000  0.41030000  1.0 -0.1664398138
F  F11  1  0.37300000  0.35770000  0.91030000  1.0 -0.1664398138
F  F12  1  0.35770000  0.62700000  0.41030000  1.0 -0.1664398138
F  F13  1  0.37300000  0.64230000  0.08970000  1.0 -0.1664398138
F  F14  1  0.62700000  0.35770000  0.08970000  1.0 -0.1664398138
F  F15  1  0.64230000  0.62700000  0.58970000  1.0 -0.1664398138
F  F16  1  0.35770000  0.37300000  0.58970000  1.0 -0.1664398138
F  F17  1  0.36320000  0.39090000  0.19960000  1.0 -0.1423934187
F  F18  1  0.39090000  0.63680000  0.69960000  1.0 -0.1423934187
F  F19  1  0.63680000  0.60910000  0.19960000  1.0 -0.1423934187
F  F20  1  0.60910000  0.36320000  0.69960000  1.0 -0.1423934187
F  F21  1  0.63680000  0.39090000  0.80040000  1.0 -0.1423934187
F  F22  1  0.36320000  0.60910000  0.80040000  1.0 -0.1423934187
F  F23  1  0.39090000  0.36320000  0.30040000  1.0 -0.1423934187
F  F24  1  0.60910000  0.63680000  0.30040000  1.0 -0.1423934187
F  F25  1  0.63680000  0.60910000  0.80040000  1.0 -0.1423934187
F  F26  1  0.60910000  0.36320000  0.30040000  1.0 -0.1423934187
F  F27  1  0.36320000  0.39090000  0.80040000  1.0 -0.1423934187
F  F28  1  0.39090000  0.63680000  0.30040000  1.0 -0.1423934187
F  F29  1  0.36320000  0.60910000  0.19960000  1.0 -0.1423934187
F  F30  1  0.63680000  0.39090000  0.19960000  1.0 -0.1423934187
F  F31  1  0.60910000  0.63680000  0.69960000  1.0 -0.1423934187
F  F32  1  0.39090000  0.36320000  0.69960000  1.0 -0.1423934187
F  F33  1  0.28370000  0.36870000  0.13550000  1.0 -0.2016770441
F  F34  1  0.36870000  0.71630000  0.63550000  1.0 -0.2016770441
F  F35  1  0.71630000  0.63130000  0.13550000  1.0 -0.2016770441
F  F36  1  0.63130000  0.28370000  0.63550000  1.0 -0.2016770441
F  F37  1  0.71630000  0.36870000  0.86450000  1.0 -0.2016770441
F  F38  1  0.28370000  0.63130000  0.86450000  1.0 -0.2016770441
F  F39  1  0.36870000  0.28370000  0.36450000  1.0 -0.2016770441
F  F40  1  0.63130000  0.71630000  0.36450000  1.0 -0.2016770441
F  F41  1  0.71630000  0.63130000  0.86450000  1.0 -0.2016770441
F  F42  1  0.63130000  0.28370000  0.36450000  1.0 -0.2016770441
F  F43  1  0.28370000  0.36870000  0.86450000  1.0 -0.2016770441
F  F44  1  0.36870000  0.71630000  0.36450000  1.0 -0.2016770441
F  F45  1  0.28370000  0.63130000  0.13550000  1.0 -0.2016770441
F  F46  1  0.71630000  0.36870000  0.13550000  1.0 -0.2016770441
F  F47  1  0.63130000  0.71630000  0.63550000  1.0 -0.2016770441
F  F48  1  0.36870000  0.28370000  0.63550000  1.0 -0.2016770441
F  F49  1  0.20640000  0.17320000  0.29710000  1.0 -0.112839834
F  F50  1  0.17320000  0.79360000  0.79710000  1.0 -0.112839834
F  F51  1  0.79360000  0.82680000  0.29710000  1.0 -0.112839834
F  F52  1  0.82680000  0.20640000  0.79710000  1.0 -0.112839834
F  F53  1  0.79360000  0.17320000  0.70290000  1.0 -0.112839834
F  F54  1  0.20640000  0.82680000  0.70290000  1.0 -0.112839834
F  F55  1  0.17320000  0.20640000  0.20290000  1.0 -0.112839834
F  F56  1  0.82680000  0.79360000  0.20290000  1.0 -0.112839834
F  F57  1  0.79360000  0.82680000  0.70290000  1.0 -0.112839834
F  F58  1  0.82680000  0.20640000  0.20290000  1.0 -0.112839834
F  F59  1  0.20640000  0.17320000  0.70290000  1.0 -0.112839834
F  F60  1  0.17320000  0.79360000  0.20290000  1.0 -0.112839834
F  F61  1  0.20640000  0.82680000  0.29710000  1.0 -0.112839834
F  F62  1  0.79360000  0.17320000  0.29710000  1.0 -0.112839834
F  F63  1  0.82680000  0.79360000  0.79710000  1.0 -0.112839834
F  F64  1  0.17320000  0.20640000  0.79710000  1.0 -0.112839834
F  F65  1  0.28140000  0.11610000  0.32660000  1.0 -0.2183852468
F  F66  1  0.11610000  0.71860000  0.82660000  1.0 -0.2183852468
F  F67  1  0.71860000  0.88390000  0.32660000  1.0 -0.2183852468
F  F68  1  0.88390000  0.28140000  0.82660000  1.0 -0.2183852468
F  F69  1  0.71860000  0.11610000  0.67340000  1.0 -0.2183852468
F  F70  1  0.28140000  0.88390000  0.67340000  1.0 -0.2183852468
F  F71  1  0.11610000  0.28140000  0.17340000  1.0 -0.2183852468
F  F72  1  0.88390000  0.71860000  0.17340000  1.0 -0.2183852468
F  F73  1  0.71860000  0.88390000  0.67340000  1.0 -0.2183852468
F  F74  1  0.88390000  0.28140000  0.17340000  1.0 -0.2183852468
F  F75  1  0.28140000  0.11610000  0.67340000  1.0 -0.2183852468
F  F76  1  0.11610000  0.71860000  0.17340000  1.0 -0.2183852468
F  F77  1  0.28140000  0.88390000  0.32660000  1.0 -0.2183852468
F  F78  1  0.71860000  0.11610000  0.32660000  1.0 -0.2183852468
F  F79  1  0.88390000  0.71860000  0.82660000  1.0 -0.2183852468
F  F80  1  0.11610000  0.28140000  0.82660000  1.0 -0.2183852468
F  F81  1  0.27130000  0.20390000  0.37830000  1.0 -0.1896228503
F  F82  1  0.20390000  0.72870000  0.87830000  1.0 -0.1896228503
F  F83  1  0.72870000  0.79610000  0.37830000  1.0 -0.1896228503
F  F84  1  0.79610000  0.27130000  0.87830000  1.0 -0.1896228503
F  F85  1  0.72870000  0.20390000  0.62170000  1.0 -0.1896228503
F  F86  1  0.27130000  0.79610000  0.62170000  1.0 -0.1896228503
F  F87  1  0.20390000  0.27130000  0.12170000  1.0 -0.1896228503
F  F88  1  0.79610000  0.72870000  0.12170000  1.0 -0.1896228503
F  F89  1  0.72870000  0.79610000  0.62170000  1.0 -0.1896228503
F  F90  1  0.79610000  0.27130000  0.12170000  1.0 -0.1896228503
F  F91  1  0.27130000  0.20390000  0.62170000  1.0 -0.1896228503
F  F92  1  0.20390000  0.72870000  0.12170000  1.0 -0.1896228503
F  F93  1  0.27130000  0.79610000  0.37830000  1.0 -0.1896228503
F  F94  1  0.72870000  0.20390000  0.37830000  1.0 -0.1896228503
F  F95  1  0.79610000  0.72870000  0.87830000  1.0 -0.1896228503
F  F96  1  0.20390000  0.27130000  0.87830000  1.0 -0.1896228503
