# DDEC6 charges by PACMAN v1.1 (https://github.com/mtap-research/PACMAN-charge/)
data_OQUGAK_ASR_pacman
_symmetry_space_group_name_H-M   'P 1'
_cell_length_a   22.87270000
_cell_length_b   22.87270000
_cell_length_c   19.05900000
_cell_angle_alpha   90.00000000
_cell_angle_beta   90.00000000
_cell_angle_gamma   90.00000000
_symmetry_Int_Tables_number   1
_chemical_formula_structural   Zr3H56C84N6(O11F12)2
_chemical_formula_sum   'Zr12 H224 C336 N24 O88 F96'
_cell_volume   9970.91416442
_cell_formula_units_Z   4
loop_
 _symmetry_equiv_pos_site_id
 _symmetry_equiv_pos_as_xyz
  1  'x, y, z'
loop_
 _atom_site_type_symbol
 _atom_site_label
 _atom_site_symmetry_multiplicity
 _atom_site_fract_x
 _atom_site_fract_y
 _atom_site_fract_z
 _atom_site_occupancy
 _atom_site_charge
Zr  Zr1  1  0.50000000  0.10741000  0.00000000  1.0 2.3976290942
Zr  Zr2  1  0.10741000  0.50000000  0.50000000  1.0 2.3976290942
Zr  Zr3  1  0.50000000  0.89259000  0.00000000  1.0 2.3976290942
Zr  Zr4  1  0.89259000  0.50000000  0.50000000  1.0 2.3976290942
Zr  Zr5  1  0.42335000  0.00000000  0.09233000  1.0 2.282806766
Zr  Zr6  1  0.00000000  0.57665000  0.59233000  1.0 2.282806766
Zr  Zr7  1  0.57665000  0.00000000  0.09233000  1.0 2.282806766
Zr  Zr8  1  0.00000000  0.42335000  0.59233000  1.0 2.282806766
Zr  Zr9  1  0.57665000  0.00000000  0.90767000  1.0 2.282806766
Zr  Zr10  1  0.42335000  0.00000000  0.90767000  1.0 2.282806766
Zr  Zr11  1  0.00000000  0.42335000  0.40767000  1.0 2.282806766
Zr  Zr12  1  0.00000000  0.57665000  0.40767000  1.0 2.282806766
H  H1  1  0.24810000  0.03850000  0.45320000  1.0 0.1313097303
H  H2  1  0.03850000  0.75190000  0.95320000  1.0 0.1313097303
H  H3  1  0.75190000  0.96150000  0.45320000  1.0 0.1313097303
H  H4  1  0.96150000  0.24810000  0.95320000  1.0 0.1313097303
H  H5  1  0.75190000  0.03850000  0.54680000  1.0 0.1313097303
H  H6  1  0.24810000  0.96150000  0.54680000  1.0 0.1313097303
H  H7  1  0.03850000  0.24810000  0.04680000  1.0 0.1313097303
H  H8  1  0.96150000  0.75190000  0.04680000  1.0 0.1313097303
H  H9  1  0.75190000  0.96150000  0.54680000  1.0 0.1313097303
H  H10  1  0.96150000  0.24810000  0.04680000  1.0 0.1313097303
H  H11  1  0.24810000  0.03850000  0.54680000  1.0 0.1313097303
H  H12  1  0.03850000  0.75190000  0.04680000  1.0 0.1313097303
H  H13  1  0.24810000  0.96150000  0.45320000  1.0 0.1313097303
H  H14  1  0.75190000  0.03850000  0.45320000  1.0 0.1313097303
H  H15  1  0.96150000  0.75190000  0.95320000  1.0 0.1313097303
H  H16  1  0.03850000  0.24810000  0.95320000  1.0 0.1313097303
H  H17  1  0.28900000  0.05020000  0.51710000  1.0 0.080218884
H  H18  1  0.05020000  0.71100000  0.01710000  1.0 0.080218884
H  H19  1  0.71100000  0.94980000  0.51710000  1.0 0.080218884
H  H20  1  0.94980000  0.28900000  0.01710000  1.0 0.080218884
H  H21  1  0.71100000  0.05020000  0.48290000  1.0 0.080218884
H  H22  1  0.28900000  0.94980000  0.48290000  1.0 0.080218884
H  H23  1  0.05020000  0.28900000  0.98290000  1.0 0.080218884
H  H24  1  0.94980000  0.71100000  0.98290000  1.0 0.080218884
H  H25  1  0.71100000  0.94980000  0.48290000  1.0 0.080218884
H  H26  1  0.94980000  0.28900000  0.98290000  1.0 0.080218884
H  H27  1  0.28900000  0.05020000  0.48290000  1.0 0.080218884
H  H28  1  0.05020000  0.71100000  0.98290000  1.0 0.080218884
H  H29  1  0.28900000  0.94980000  0.51710000  1.0 0.080218884
H  H30  1  0.71100000  0.05020000  0.51710000  1.0 0.080218884
H  H31  1  0.94980000  0.71100000  0.01710000  1.0 0.080218884
H  H32  1  0.05020000  0.28900000  0.01710000  1.0 0.080218884
H  H33  1  0.39720000  0.25560000  0.09940000  1.0 0.1416467697
H  H34  1  0.25560000  0.60280000  0.59940000  1.0 0.1416467697
H  H35  1  0.60280000  0.74440000  0.09940000  1.0 0.1416467697
H  H36  1  0.74440000  0.39720000  0.59940000  1.0 0.1416467697
H  H37  1  0.60280000  0.25560000  0.90060000  1.0 0.1416467697
H  H38  1  0.39720000  0.74440000  0.90060000  1.0 0.1416467697
H  H39  1  0.25560000  0.39720000  0.40060000  1.0 0.1416467697
H  H40  1  0.74440000  0.60280000  0.40060000  1.0 0.1416467697
H  H41  1  0.60280000  0.74440000  0.90060000  1.0 0.1416467697
H  H42  1  0.74440000  0.39720000  0.40060000  1.0 0.1416467697
H  H43  1  0.39720000  0.25560000  0.90060000  1.0 0.1416467697
H  H44  1  0.25560000  0.60280000  0.40060000  1.0 0.1416467697
H  H45  1  0.39720000  0.74440000  0.09940000  1.0 0.1416467697
H  H46  1  0.60280000  0.25560000  0.09940000  1.0 0.1416467697
H  H47  1  0.74440000  0.60280000  0.59940000  1.0 0.1416467697
H  H48  1  0.25560000  0.39720000  0.59940000  1.0 0.1416467697
H  H49  1  0.33690000  0.12530000  0.22270000  1.0 0.1416467697
H  H50  1  0.12530000  0.66310000  0.72270000  1.0 0.1416467697
H  H51  1  0.66310000  0.87470000  0.22270000  1.0 0.1416467697
H  H52  1  0.87470000  0.33690000  0.72270000  1.0 0.1416467697
H  H53  1  0.66310000  0.12530000  0.77730000  1.0 0.1416467697
H  H54  1  0.33690000  0.87470000  0.77730000  1.0 0.1416467697
H  H55  1  0.12530000  0.33690000  0.27730000  1.0 0.1416467697
H  H56  1  0.87470000  0.66310000  0.27730000  1.0 0.1416467697
H  H57  1  0.66310000  0.87470000  0.77730000  1.0 0.1416467697
H  H58  1  0.87470000  0.33690000  0.27730000  1.0 0.1416467697
H  H59  1  0.33690000  0.12530000  0.77730000  1.0 0.1416467697
H  H60  1  0.12530000  0.66310000  0.27730000  1.0 0.1416467697
H  H61  1  0.33690000  0.87470000  0.22270000  1.0 0.1416467697
H  H62  1  0.66310000  0.12530000  0.22270000  1.0 0.1416467697
H  H63  1  0.87470000  0.66310000  0.72270000  1.0 0.1416467697
H  H64  1  0.12530000  0.33690000  0.72270000  1.0 0.1416467697
H  H65  1  0.28350000  0.19390000  0.28830000  1.0 0.1792012377
H  H66  1  0.19390000  0.71650000  0.78830000  1.0 0.1792012377
H  H67  1  0.71650000  0.80610000  0.28830000  1.0 0.1792012377
H  H68  1  0.80610000  0.28350000  0.78830000  1.0 0.1792012377
H  H69  1  0.71650000  0.19390000  0.71170000  1.0 0.1792012377
H  H70  1  0.28350000  0.80610000  0.71170000  1.0 0.1792012377
H  H71  1  0.19390000  0.28350000  0.21170000  1.0 0.1792012377
H  H72  1  0.80610000  0.71650000  0.21170000  1.0 0.1792012377
H  H73  1  0.71650000  0.80610000  0.71170000  1.0 0.1792012377
H  H74  1  0.80610000  0.28350000  0.21170000  1.0 0.1792012377
H  H75  1  0.28350000  0.19390000  0.71170000  1.0 0.1792012377
H  H76  1  0.19390000  0.71650000  0.21170000  1.0 0.1792012377
H  H77  1  0.28350000  0.80610000  0.28830000  1.0 0.1792012377
H  H78  1  0.71650000  0.19390000  0.28830000  1.0 0.1792012377
H  H79  1  0.80610000  0.71650000  0.78830000  1.0 0.1792012377
H  H80  1  0.19390000  0.28350000  0.78830000  1.0 0.1792012377
H  H81  1  0.28300000  0.02720000  0.33410000  1.0 0.0929062536
H  H82  1  0.02720000  0.71700000  0.83410000  1.0 0.0929062536
H  H83  1  0.71700000  0.97280000  0.33410000  1.0 0.0929062536
H  H84  1  0.97280000  0.28300000  0.83410000  1.0 0.0929062536
H  H85  1  0.71700000  0.02720000  0.66590000  1.0 0.0929062536
H  H86  1  0.28300000  0.97280000  0.66590000  1.0 0.0929062536
H  H87  1  0.02720000  0.28300000  0.16590000  1.0 0.0929062536
H  H88  1  0.97280000  0.71700000  0.16590000  1.0 0.0929062536
H  H89  1  0.71700000  0.97280000  0.66590000  1.0 0.0929062536
H  H90  1  0.97280000  0.28300000  0.16590000  1.0 0.0929062536
H  H91  1  0.28300000  0.02720000  0.66590000  1.0 0.0929062536
H  H92  1  0.02720000  0.71700000  0.16590000  1.0 0.0929062536
H  H93  1  0.28300000  0.97280000  0.33410000  1.0 0.0929062536
H  H94  1  0.71700000  0.02720000  0.33410000  1.0 0.0929062536
H  H95  1  0.97280000  0.71700000  0.83410000  1.0 0.0929062536
H  H96  1  0.02720000  0.28300000  0.83410000  1.0 0.0929062536
H  H97  1  0.45520000  0.99460000  0.30800000  1.0 0.1007260594
H  H98  1  0.99460000  0.54480000  0.80800000  1.0 0.1007260594
H  H99  1  0.54480000  0.00540000  0.30800000  1.0 0.1007260594
H  H100  1  0.00540000  0.45520000  0.80800000  1.0 0.1007260594
H  H101  1  0.54480000  0.99460000  0.69200000  1.0 0.1007260594
H  H102  1  0.45520000  0.00540000  0.69200000  1.0 0.1007260594
H  H103  1  0.99460000  0.45520000  0.19200000  1.0 0.1007260594
H  H104  1  0.00540000  0.54480000  0.19200000  1.0 0.1007260594
H  H105  1  0.54480000  0.00540000  0.69200000  1.0 0.1007260594
H  H106  1  0.00540000  0.45520000  0.19200000  1.0 0.1007260594
H  H107  1  0.45520000  0.99460000  0.69200000  1.0 0.1007260594
H  H108  1  0.99460000  0.54480000  0.19200000  1.0 0.1007260594
H  H109  1  0.45520000  0.00540000  0.30800000  1.0 0.1007260594
H  H110  1  0.54480000  0.99460000  0.30800000  1.0 0.1007260594
H  H111  1  0.00540000  0.54480000  0.80800000  1.0 0.1007260594
H  H112  1  0.99460000  0.45520000  0.80800000  1.0 0.1007260594
H  H113  1  0.47170000  0.00990000  0.42750000  1.0 0.0738601581
H  H114  1  0.00990000  0.52830000  0.92750000  1.0 0.0738601581
H  H115  1  0.52830000  0.99010000  0.42750000  1.0 0.0738601581
H  H116  1  0.99010000  0.47170000  0.92750000  1.0 0.0738601581
H  H117  1  0.52830000  0.00990000  0.57250000  1.0 0.0738601581
H  H118  1  0.47170000  0.99010000  0.57250000  1.0 0.0738601581
H  H119  1  0.00990000  0.47170000  0.07250000  1.0 0.0738601581
H  H120  1  0.99010000  0.52830000  0.07250000  1.0 0.0738601581
H  H121  1  0.52830000  0.99010000  0.57250000  1.0 0.0738601581
H  H122  1  0.99010000  0.47170000  0.07250000  1.0 0.0738601581
H  H123  1  0.47170000  0.00990000  0.57250000  1.0 0.0738601581
H  H124  1  0.00990000  0.52830000  0.07250000  1.0 0.0738601581
H  H125  1  0.47170000  0.99010000  0.42750000  1.0 0.0738601581
H  H126  1  0.52830000  0.00990000  0.42750000  1.0 0.0738601581
H  H127  1  0.99010000  0.52830000  0.92750000  1.0 0.0738601581
H  H128  1  0.00990000  0.47170000  0.92750000  1.0 0.0738601581
H  H129  1  0.45200000  0.11440000  0.45470000  1.0 0.1007260594
H  H130  1  0.11440000  0.54800000  0.95470000  1.0 0.1007260594
H  H131  1  0.54800000  0.88560000  0.45470000  1.0 0.1007260594
H  H132  1  0.88560000  0.45200000  0.95470000  1.0 0.1007260594
H  H133  1  0.54800000  0.11440000  0.54530000  1.0 0.1007260594
H  H134  1  0.45200000  0.88560000  0.54530000  1.0 0.1007260594
H  H135  1  0.11440000  0.45200000  0.04530000  1.0 0.1007260594
H  H136  1  0.88560000  0.54800000  0.04530000  1.0 0.1007260594
H  H137  1  0.54800000  0.88560000  0.54530000  1.0 0.1007260594
H  H138  1  0.88560000  0.45200000  0.04530000  1.0 0.1007260594
H  H139  1  0.45200000  0.11440000  0.54530000  1.0 0.1007260594
H  H140  1  0.11440000  0.54800000  0.04530000  1.0 0.1007260594
H  H141  1  0.45200000  0.88560000  0.45470000  1.0 0.1007260594
H  H142  1  0.54800000  0.11440000  0.45470000  1.0 0.1007260594
H  H143  1  0.88560000  0.54800000  0.95470000  1.0 0.1007260594
H  H144  1  0.11440000  0.45200000  0.95470000  1.0 0.1007260594
H  H145  1  0.48710000  0.14380000  0.51290000  1.0 0.0929062536
H  H146  1  0.14380000  0.51290000  0.01290000  1.0 0.0929062536
H  H147  1  0.51290000  0.85620000  0.51290000  1.0 0.0929062536
H  H148  1  0.85620000  0.48710000  0.01290000  1.0 0.0929062536
H  H149  1  0.51290000  0.14380000  0.48710000  1.0 0.0929062536
H  H150  1  0.48710000  0.85620000  0.48710000  1.0 0.0929062536
H  H151  1  0.14380000  0.48710000  0.98710000  1.0 0.0929062536
H  H152  1  0.85620000  0.51290000  0.98710000  1.0 0.0929062536
H  H153  1  0.51290000  0.85620000  0.48710000  1.0 0.0929062536
H  H154  1  0.85620000  0.48710000  0.98710000  1.0 0.0929062536
H  H155  1  0.48710000  0.14380000  0.48710000  1.0 0.0929062536
H  H156  1  0.14380000  0.51290000  0.98710000  1.0 0.0929062536
H  H157  1  0.48710000  0.85620000  0.51290000  1.0 0.0929062536
H  H158  1  0.51290000  0.14380000  0.51290000  1.0 0.0929062536
H  H159  1  0.85620000  0.51290000  0.01290000  1.0 0.0929062536
H  H160  1  0.14380000  0.48710000  0.01290000  1.0 0.0929062536
H  H161  1  0.34450000  0.32440000  0.16450000  1.0 0.1976405129
H  H162  1  0.32440000  0.65550000  0.66450000  1.0 0.1976405129
H  H163  1  0.65550000  0.67560000  0.16450000  1.0 0.1976405129
H  H164  1  0.67560000  0.34450000  0.66450000  1.0 0.1976405129
H  H165  1  0.65550000  0.32440000  0.83550000  1.0 0.1976405129
H  H166  1  0.34450000  0.67560000  0.83550000  1.0 0.1976405129
H  H167  1  0.32440000  0.34450000  0.33550000  1.0 0.1976405129
H  H168  1  0.67560000  0.65550000  0.33550000  1.0 0.1976405129
H  H169  1  0.65550000  0.67560000  0.83550000  1.0 0.1976405129
H  H170  1  0.67560000  0.34450000  0.33550000  1.0 0.1976405129
H  H171  1  0.34450000  0.32440000  0.83550000  1.0 0.1976405129
H  H172  1  0.32440000  0.65550000  0.33550000  1.0 0.1976405129
H  H173  1  0.34450000  0.67560000  0.16450000  1.0 0.1976405129
H  H174  1  0.65550000  0.32440000  0.16450000  1.0 0.1976405129
H  H175  1  0.67560000  0.65550000  0.66450000  1.0 0.1976405129
H  H176  1  0.32440000  0.34450000  0.66450000  1.0 0.1976405129
H  H177  1  0.48480000  0.11000000  0.63380000  1.0 0.0929062536
H  H178  1  0.11000000  0.51520000  0.13380000  1.0 0.0929062536
H  H179  1  0.51520000  0.89000000  0.63380000  1.0 0.0929062536
H  H180  1  0.89000000  0.48480000  0.13380000  1.0 0.0929062536
H  H181  1  0.51520000  0.11000000  0.36620000  1.0 0.0929062536
H  H182  1  0.48480000  0.89000000  0.36620000  1.0 0.0929062536
H  H183  1  0.11000000  0.48480000  0.86620000  1.0 0.0929062536
H  H184  1  0.89000000  0.51520000  0.86620000  1.0 0.0929062536
H  H185  1  0.51520000  0.89000000  0.36620000  1.0 0.0929062536
H  H186  1  0.89000000  0.48480000  0.86620000  1.0 0.0929062536
H  H187  1  0.48480000  0.11000000  0.36620000  1.0 0.0929062536
H  H188  1  0.11000000  0.51520000  0.86620000  1.0 0.0929062536
H  H189  1  0.48480000  0.89000000  0.63380000  1.0 0.0929062536
H  H190  1  0.51520000  0.11000000  0.63380000  1.0 0.0929062536
H  H191  1  0.89000000  0.51520000  0.13380000  1.0 0.0929062536
H  H192  1  0.11000000  0.48480000  0.13380000  1.0 0.0929062536
H  H193  1  0.37980000  0.97190000  0.67970000  1.0 0.1007260594
H  H194  1  0.97190000  0.62020000  0.17970000  1.0 0.1007260594
H  H195  1  0.62020000  0.02810000  0.67970000  1.0 0.1007260594
H  H196  1  0.02810000  0.37980000  0.17970000  1.0 0.1007260594
H  H197  1  0.62020000  0.97190000  0.32030000  1.0 0.1007260594
H  H198  1  0.37980000  0.02810000  0.32030000  1.0 0.1007260594
H  H199  1  0.97190000  0.37980000  0.82030000  1.0 0.1007260594
H  H200  1  0.02810000  0.62020000  0.82030000  1.0 0.1007260594
H  H201  1  0.62020000  0.02810000  0.32030000  1.0 0.1007260594
H  H202  1  0.02810000  0.37980000  0.82030000  1.0 0.1007260594
H  H203  1  0.37980000  0.97190000  0.32030000  1.0 0.1007260594
H  H204  1  0.97190000  0.62020000  0.82030000  1.0 0.1007260594
H  H205  1  0.37980000  0.02810000  0.67970000  1.0 0.1007260594
H  H206  1  0.62020000  0.97190000  0.67970000  1.0 0.1007260594
H  H207  1  0.02810000  0.62020000  0.17970000  1.0 0.1007260594
H  H208  1  0.97190000  0.37980000  0.17970000  1.0 0.1007260594
H  H209  1  0.34590000  0.97180000  0.56390000  1.0 0.080218884
H  H210  1  0.97180000  0.65410000  0.06390000  1.0 0.080218884
H  H211  1  0.65410000  0.02820000  0.56390000  1.0 0.080218884
H  H212  1  0.02820000  0.34590000  0.06390000  1.0 0.080218884
H  H213  1  0.65410000  0.97180000  0.43610000  1.0 0.080218884
H  H214  1  0.34590000  0.02820000  0.43610000  1.0 0.080218884
H  H215  1  0.97180000  0.34590000  0.93610000  1.0 0.080218884
H  H216  1  0.02820000  0.65410000  0.93610000  1.0 0.080218884
H  H217  1  0.65410000  0.02820000  0.43610000  1.0 0.080218884
H  H218  1  0.02820000  0.34590000  0.93610000  1.0 0.080218884
H  H219  1  0.34590000  0.97180000  0.43610000  1.0 0.080218884
H  H220  1  0.97180000  0.65410000  0.93610000  1.0 0.080218884
H  H221  1  0.34590000  0.02820000  0.56390000  1.0 0.080218884
H  H222  1  0.65410000  0.97180000  0.56390000  1.0 0.080218884
H  H223  1  0.02820000  0.65410000  0.06390000  1.0 0.080218884
H  H224  1  0.97180000  0.34590000  0.06390000  1.0 0.080218884
C  C1  1  0.30850000  0.26610000  0.23330000  1.0 0.0367577367
C  C2  1  0.26610000  0.69150000  0.73330000  1.0 0.0367577367
C  C3  1  0.69150000  0.73390000  0.23330000  1.0 0.0367577367
C  C4  1  0.73390000  0.30850000  0.73330000  1.0 0.0367577367
C  C5  1  0.69150000  0.26610000  0.76670000  1.0 0.0367577367
C  C6  1  0.30850000  0.73390000  0.76670000  1.0 0.0367577367
C  C7  1  0.26610000  0.30850000  0.26670000  1.0 0.0367577367
C  C8  1  0.73390000  0.69150000  0.26670000  1.0 0.0367577367
C  C9  1  0.69150000  0.73390000  0.76670000  1.0 0.0367577367
C  C10  1  0.73390000  0.30850000  0.26670000  1.0 0.0367577367
C  C11  1  0.30850000  0.26610000  0.76670000  1.0 0.0367577367
C  C12  1  0.26610000  0.69150000  0.26670000  1.0 0.0367577367
C  C13  1  0.30850000  0.73390000  0.23330000  1.0 0.0367577367
C  C14  1  0.69150000  0.26610000  0.23330000  1.0 0.0367577367
C  C15  1  0.73390000  0.69150000  0.73330000  1.0 0.0367577367
C  C16  1  0.26610000  0.30850000  0.73330000  1.0 0.0367577367
C  C17  1  0.34270000  0.28410000  0.17670000  1.0 -0.1511533027
C  C18  1  0.28410000  0.65730000  0.67670000  1.0 -0.1511533027
C  C19  1  0.65730000  0.71590000  0.17670000  1.0 -0.1511533027
C  C20  1  0.71590000  0.34270000  0.67670000  1.0 -0.1511533027
C  C21  1  0.65730000  0.28410000  0.82330000  1.0 -0.1511533027
C  C22  1  0.34270000  0.71590000  0.82330000  1.0 -0.1511533027
C  C23  1  0.28410000  0.34270000  0.32330000  1.0 -0.1511533027
C  C24  1  0.71590000  0.65730000  0.32330000  1.0 -0.1511533027
C  C25  1  0.65730000  0.71590000  0.82330000  1.0 -0.1511533027
C  C26  1  0.71590000  0.34270000  0.32330000  1.0 -0.1511533027
C  C27  1  0.34270000  0.28410000  0.82330000  1.0 -0.1511533027
C  C28  1  0.28410000  0.65730000  0.32330000  1.0 -0.1511533027
C  C29  1  0.34270000  0.71590000  0.17670000  1.0 -0.1511533027
C  C30  1  0.65730000  0.28410000  0.17670000  1.0 -0.1511533027
C  C31  1  0.71590000  0.65730000  0.67670000  1.0 -0.1511533027
C  C32  1  0.28410000  0.34270000  0.67670000  1.0 -0.1511533027
C  C33  1  0.37410000  0.24310000  0.13810000  1.0 -0.0706589785
C  C34  1  0.24310000  0.62590000  0.63810000  1.0 -0.0706589785
C  C35  1  0.62590000  0.75690000  0.13810000  1.0 -0.0706589785
C  C36  1  0.75690000  0.37410000  0.63810000  1.0 -0.0706589785
C  C37  1  0.62590000  0.24310000  0.86190000  1.0 -0.0706589785
C  C38  1  0.37410000  0.75690000  0.86190000  1.0 -0.0706589785
C  C39  1  0.24310000  0.37410000  0.36190000  1.0 -0.0706589785
C  C40  1  0.75690000  0.62590000  0.36190000  1.0 -0.0706589785
C  C41  1  0.62590000  0.75690000  0.86190000  1.0 -0.0706589785
C  C42  1  0.75690000  0.37410000  0.36190000  1.0 -0.0706589785
C  C43  1  0.37410000  0.24310000  0.86190000  1.0 -0.0706589785
C  C44  1  0.24310000  0.62590000  0.36190000  1.0 -0.0706589785
C  C45  1  0.37410000  0.75690000  0.13810000  1.0 -0.0706589785
C  C46  1  0.62590000  0.24310000  0.13810000  1.0 -0.0706589785
C  C47  1  0.75690000  0.62590000  0.63810000  1.0 -0.0706589785
C  C48  1  0.24310000  0.37410000  0.63810000  1.0 -0.0706589785
C  C49  1  0.37220000  0.18490000  0.15520000  1.0 -0.0293254653
C  C50  1  0.18490000  0.62780000  0.65520000  1.0 -0.0293254653
C  C51  1  0.62780000  0.81510000  0.15520000  1.0 -0.0293254653
C  C52  1  0.81510000  0.37220000  0.65520000  1.0 -0.0293254653
C  C53  1  0.62780000  0.18490000  0.84480000  1.0 -0.0293254653
C  C54  1  0.37220000  0.81510000  0.84480000  1.0 -0.0293254653
C  C55  1  0.18490000  0.37220000  0.34480000  1.0 -0.0293254653
C  C56  1  0.81510000  0.62780000  0.34480000  1.0 -0.0293254653
C  C57  1  0.62780000  0.81510000  0.84480000  1.0 -0.0293254653
C  C58  1  0.81510000  0.37220000  0.34480000  1.0 -0.0293254653
C  C59  1  0.37220000  0.18490000  0.84480000  1.0 -0.0293254653
C  C60  1  0.18490000  0.62780000  0.34480000  1.0 -0.0293254653
C  C61  1  0.37220000  0.81510000  0.15520000  1.0 -0.0293254653
C  C62  1  0.62780000  0.18490000  0.15520000  1.0 -0.0293254653
C  C63  1  0.81510000  0.62780000  0.65520000  1.0 -0.0293254653
C  C64  1  0.18490000  0.37220000  0.65520000  1.0 -0.0293254653
C  C65  1  0.33840000  0.16570000  0.21100000  1.0 -0.0706589785
C  C66  1  0.16570000  0.66160000  0.71100000  1.0 -0.0706589785
C  C67  1  0.66160000  0.83430000  0.21100000  1.0 -0.0706589785
C  C68  1  0.83430000  0.33840000  0.71100000  1.0 -0.0706589785
C  C69  1  0.66160000  0.16570000  0.78900000  1.0 -0.0706589785
C  C70  1  0.33840000  0.83430000  0.78900000  1.0 -0.0706589785
C  C71  1  0.16570000  0.33840000  0.28900000  1.0 -0.0706589785
C  C72  1  0.83430000  0.66160000  0.28900000  1.0 -0.0706589785
C  C73  1  0.66160000  0.83430000  0.78900000  1.0 -0.0706589785
C  C74  1  0.83430000  0.33840000  0.28900000  1.0 -0.0706589785
C  C75  1  0.33840000  0.16570000  0.78900000  1.0 -0.0706589785
C  C76  1  0.16570000  0.66160000  0.28900000  1.0 -0.0706589785
C  C77  1  0.33840000  0.83430000  0.21100000  1.0 -0.0706589785
C  C78  1  0.66160000  0.16570000  0.21100000  1.0 -0.0706589785
C  C79  1  0.83430000  0.66160000  0.71100000  1.0 -0.0706589785
C  C80  1  0.16570000  0.33840000  0.71100000  1.0 -0.0706589785
C  C81  1  0.30670000  0.20670000  0.24990000  1.0 -0.1631124459
C  C82  1  0.20670000  0.69330000  0.74990000  1.0 -0.1631124459
C  C83  1  0.69330000  0.79330000  0.24990000  1.0 -0.1631124459
C  C84  1  0.79330000  0.30670000  0.74990000  1.0 -0.1631124459
C  C85  1  0.69330000  0.20670000  0.75010000  1.0 -0.1631124459
C  C86  1  0.30670000  0.79330000  0.75010000  1.0 -0.1631124459
C  C87  1  0.20670000  0.30670000  0.25010000  1.0 -0.1631124459
C  C88  1  0.79330000  0.69330000  0.25010000  1.0 -0.1631124459
C  C89  1  0.69330000  0.79330000  0.75010000  1.0 -0.1631124459
C  C90  1  0.79330000  0.30670000  0.25010000  1.0 -0.1631124459
C  C91  1  0.30670000  0.20670000  0.75010000  1.0 -0.1631124459
C  C92  1  0.20670000  0.69330000  0.25010000  1.0 -0.1631124459
C  C93  1  0.30670000  0.79330000  0.24990000  1.0 -0.1631124459
C  C94  1  0.69330000  0.20670000  0.24990000  1.0 -0.1631124459
C  C95  1  0.79330000  0.69330000  0.74990000  1.0 -0.1631124459
C  C96  1  0.20670000  0.30670000  0.74990000  1.0 -0.1631124459
C  C97  1  0.34590000  0.34720000  0.15700000  1.0 0.3798817814
C  C98  1  0.34720000  0.65410000  0.65700000  1.0 0.3798817814
C  C99  1  0.65410000  0.65280000  0.15700000  1.0 0.3798817814
C  C100  1  0.65280000  0.34590000  0.65700000  1.0 0.3798817814
C  C101  1  0.65410000  0.34720000  0.84300000  1.0 0.3798817814
C  C102  1  0.34590000  0.65280000  0.84300000  1.0 0.3798817814
C  C103  1  0.34720000  0.34590000  0.34300000  1.0 0.3798817814
C  C104  1  0.65280000  0.65410000  0.34300000  1.0 0.3798817814
C  C105  1  0.65410000  0.65280000  0.84300000  1.0 0.3798817814
C  C106  1  0.65280000  0.34590000  0.34300000  1.0 0.3798817814
C  C107  1  0.34590000  0.34720000  0.84300000  1.0 0.3798817814
C  C108  1  0.34720000  0.65410000  0.34300000  1.0 0.3798817814
C  C109  1  0.34590000  0.65280000  0.15700000  1.0 0.3798817814
C  C110  1  0.65410000  0.34720000  0.15700000  1.0 0.3798817814
C  C111  1  0.65280000  0.65410000  0.65700000  1.0 0.3798817814
C  C112  1  0.34720000  0.34590000  0.65700000  1.0 0.3798817814
C  C113  1  0.40480000  0.14070000  0.11440000  1.0 0.6289737344
C  C114  1  0.14070000  0.59520000  0.61440000  1.0 0.6289737344
C  C115  1  0.59520000  0.85930000  0.11440000  1.0 0.6289737344
C  C116  1  0.85930000  0.40480000  0.61440000  1.0 0.6289737344
C  C117  1  0.59520000  0.14070000  0.88560000  1.0 0.6289737344
C  C118  1  0.40480000  0.85930000  0.88560000  1.0 0.6289737344
C  C119  1  0.14070000  0.40480000  0.38560000  1.0 0.6289737344
C  C120  1  0.85930000  0.59520000  0.38560000  1.0 0.6289737344
C  C121  1  0.59520000  0.85930000  0.88560000  1.0 0.6289737344
C  C122  1  0.85930000  0.40480000  0.38560000  1.0 0.6289737344
C  C123  1  0.40480000  0.14070000  0.88560000  1.0 0.6289737344
C  C124  1  0.14070000  0.59520000  0.38560000  1.0 0.6289737344
C  C125  1  0.40480000  0.85930000  0.11440000  1.0 0.6289737344
C  C126  1  0.59520000  0.14070000  0.11440000  1.0 0.6289737344
C  C127  1  0.85930000  0.59520000  0.61440000  1.0 0.6289737344
C  C128  1  0.14070000  0.40480000  0.61440000  1.0 0.6289737344
C  C129  1  0.39990000  0.03580000  0.52840000  1.0 0.0266022292
C  C130  1  0.03580000  0.60010000  0.02840000  1.0 0.0266022292
C  C131  1  0.60010000  0.96420000  0.52840000  1.0 0.0266022292
C  C132  1  0.96420000  0.39990000  0.02840000  1.0 0.0266022292
C  C133  1  0.60010000  0.03580000  0.47160000  1.0 0.0266022292
C  C134  1  0.39990000  0.96420000  0.47160000  1.0 0.0266022292
C  C135  1  0.03580000  0.39990000  0.97160000  1.0 0.0266022292
C  C136  1  0.96420000  0.60010000  0.97160000  1.0 0.0266022292
C  C137  1  0.60010000  0.96420000  0.47160000  1.0 0.0266022292
C  C138  1  0.96420000  0.39990000  0.97160000  1.0 0.0266022292
C  C139  1  0.39990000  0.03580000  0.47160000  1.0 0.0266022292
C  C140  1  0.03580000  0.60010000  0.97160000  1.0 0.0266022292
C  C141  1  0.39990000  0.96420000  0.52840000  1.0 0.0266022292
C  C142  1  0.60010000  0.03580000  0.52840000  1.0 0.0266022292
C  C143  1  0.96420000  0.60010000  0.02840000  1.0 0.0266022292
C  C144  1  0.03580000  0.39990000  0.02840000  1.0 0.0266022292
C  C145  1  0.38750000  0.02740000  0.45200000  1.0 0.0204899985
C  C146  1  0.02740000  0.61250000  0.95200000  1.0 0.0204899985
C  C147  1  0.61250000  0.97260000  0.45200000  1.0 0.0204899985
C  C148  1  0.97260000  0.38750000  0.95200000  1.0 0.0204899985
C  C149  1  0.61250000  0.02740000  0.54800000  1.0 0.0204899985
C  C150  1  0.38750000  0.97260000  0.54800000  1.0 0.0204899985
C  C151  1  0.02740000  0.38750000  0.04800000  1.0 0.0204899985
C  C152  1  0.97260000  0.61250000  0.04800000  1.0 0.0204899985
C  C153  1  0.61250000  0.97260000  0.54800000  1.0 0.0204899985
C  C154  1  0.97260000  0.38750000  0.04800000  1.0 0.0204899985
C  C155  1  0.38750000  0.02740000  0.54800000  1.0 0.0204899985
C  C156  1  0.02740000  0.61250000  0.04800000  1.0 0.0204899985
C  C157  1  0.38750000  0.97260000  0.45200000  1.0 0.0204899985
C  C158  1  0.61250000  0.02740000  0.45200000  1.0 0.0204899985
C  C159  1  0.97260000  0.61250000  0.95200000  1.0 0.0204899985
C  C160  1  0.02740000  0.38750000  0.95200000  1.0 0.0204899985
C  C161  1  0.33180000  0.03460000  0.42540000  1.0 -0.0293254653
C  C162  1  0.03460000  0.66820000  0.92540000  1.0 -0.0293254653
C  C163  1  0.66820000  0.96540000  0.42540000  1.0 -0.0293254653
C  C164  1  0.96540000  0.33180000  0.92540000  1.0 -0.0293254653
C  C165  1  0.66820000  0.03460000  0.57460000  1.0 -0.0293254653
C  C166  1  0.33180000  0.96540000  0.57460000  1.0 -0.0293254653
C  C167  1  0.03460000  0.33180000  0.07460000  1.0 -0.0293254653
C  C168  1  0.96540000  0.66820000  0.07460000  1.0 -0.0293254653
C  C169  1  0.66820000  0.96540000  0.57460000  1.0 -0.0293254653
C  C170  1  0.96540000  0.33180000  0.07460000  1.0 -0.0293254653
C  C171  1  0.33180000  0.03460000  0.57460000  1.0 -0.0293254653
C  C172  1  0.03460000  0.66820000  0.07460000  1.0 -0.0293254653
C  C173  1  0.33180000  0.96540000  0.42540000  1.0 -0.0293254653
C  C174  1  0.66820000  0.03460000  0.42540000  1.0 -0.0293254653
C  C175  1  0.96540000  0.66820000  0.92540000  1.0 -0.0293254653
C  C176  1  0.03460000  0.33180000  0.92540000  1.0 -0.0293254653
C  C177  1  0.32140000  0.02540000  0.35420000  1.0 -0.0581564337
C  C178  1  0.02540000  0.67860000  0.85420000  1.0 -0.0581564337
C  C179  1  0.67860000  0.97460000  0.35420000  1.0 -0.0581564337
C  C180  1  0.97460000  0.32140000  0.85420000  1.0 -0.0581564337
C  C181  1  0.67860000  0.02540000  0.64580000  1.0 -0.0581564337
C  C182  1  0.32140000  0.97460000  0.64580000  1.0 -0.0581564337
C  C183  1  0.02540000  0.32140000  0.14580000  1.0 -0.0581564337
C  C184  1  0.97460000  0.67860000  0.14580000  1.0 -0.0581564337
C  C185  1  0.67860000  0.97460000  0.64580000  1.0 -0.0581564337
C  C186  1  0.97460000  0.32140000  0.14580000  1.0 -0.0581564337
C  C187  1  0.32140000  0.02540000  0.64580000  1.0 -0.0581564337
C  C188  1  0.02540000  0.67860000  0.14580000  1.0 -0.0581564337
C  C189  1  0.32140000  0.97460000  0.35420000  1.0 -0.0581564337
C  C190  1  0.67860000  0.02540000  0.35420000  1.0 -0.0581564337
C  C191  1  0.97460000  0.67860000  0.85420000  1.0 -0.0581564337
C  C192  1  0.02540000  0.32140000  0.85420000  1.0 -0.0581564337
C  C193  1  0.36670000  0.00910000  0.31010000  1.0 -0.0293254653
C  C194  1  0.00910000  0.63330000  0.81010000  1.0 -0.0293254653
C  C195  1  0.63330000  0.99090000  0.31010000  1.0 -0.0293254653
C  C196  1  0.99090000  0.36670000  0.81010000  1.0 -0.0293254653
C  C197  1  0.63330000  0.00910000  0.68990000  1.0 -0.0293254653
C  C198  1  0.36670000  0.99090000  0.68990000  1.0 -0.0293254653
C  C199  1  0.00910000  0.36670000  0.18990000  1.0 -0.0293254653
C  C200  1  0.99090000  0.63330000  0.18990000  1.0 -0.0293254653
C  C201  1  0.63330000  0.99090000  0.68990000  1.0 -0.0293254653
C  C202  1  0.99090000  0.36670000  0.18990000  1.0 -0.0293254653
C  C203  1  0.36670000  0.00910000  0.68990000  1.0 -0.0293254653
C  C204  1  0.00910000  0.63330000  0.18990000  1.0 -0.0293254653
C  C205  1  0.36670000  0.99090000  0.31010000  1.0 -0.0293254653
C  C206  1  0.63330000  0.00910000  0.31010000  1.0 -0.0293254653
C  C207  1  0.99090000  0.63330000  0.81010000  1.0 -0.0293254653
C  C208  1  0.00910000  0.36670000  0.81010000  1.0 -0.0293254653
C  C209  1  0.42230000  0.00000000  0.33760000  1.0 -0.0706589785
C  C210  1  0.00000000  0.57770000  0.83760000  1.0 -0.0706589785
C  C211  1  0.57770000  0.00000000  0.33760000  1.0 -0.0706589785
C  C212  1  0.00000000  0.42230000  0.83760000  1.0 -0.0706589785
C  C213  1  0.57770000  0.00000000  0.66240000  1.0 -0.0706589785
C  C214  1  0.42230000  0.00000000  0.66240000  1.0 -0.0706589785
C  C215  1  0.00000000  0.42230000  0.16240000  1.0 -0.0706589785
C  C216  1  0.00000000  0.57770000  0.16240000  1.0 -0.0706589785
C  C217  1  0.43320000  0.01160000  0.40750000  1.0 -0.0046280044
C  C218  1  0.01160000  0.56680000  0.90750000  1.0 -0.0046280044
C  C219  1  0.56680000  0.98840000  0.40750000  1.0 -0.0046280044
C  C220  1  0.98840000  0.43320000  0.90750000  1.0 -0.0046280044
C  C221  1  0.56680000  0.01160000  0.59250000  1.0 -0.0046280044
C  C222  1  0.43320000  0.98840000  0.59250000  1.0 -0.0046280044
C  C223  1  0.01160000  0.43320000  0.09250000  1.0 -0.0046280044
C  C224  1  0.98840000  0.56680000  0.09250000  1.0 -0.0046280044
C  C225  1  0.56680000  0.98840000  0.59250000  1.0 -0.0046280044
C  C226  1  0.98840000  0.43320000  0.09250000  1.0 -0.0046280044
C  C227  1  0.43320000  0.01160000  0.59250000  1.0 -0.0046280044
C  C228  1  0.01160000  0.56680000  0.09250000  1.0 -0.0046280044
C  C229  1  0.43320000  0.98840000  0.40750000  1.0 -0.0046280044
C  C230  1  0.56680000  0.01160000  0.40750000  1.0 -0.0046280044
C  C231  1  0.98840000  0.56680000  0.90750000  1.0 -0.0046280044
C  C232  1  0.01160000  0.43320000  0.90750000  1.0 -0.0046280044
C  C233  1  0.35600000  0.00000000  0.23280000  1.0 0.2199558102
C  C234  1  0.00000000  0.64400000  0.73280000  1.0 0.2199558102
C  C235  1  0.64400000  0.00000000  0.23280000  1.0 0.2199558102
C  C236  1  0.00000000  0.35600000  0.73280000  1.0 0.2199558102
C  C237  1  0.64400000  0.00000000  0.76720000  1.0 0.2199558102
C  C238  1  0.35600000  0.00000000  0.76720000  1.0 0.2199558102
C  C239  1  0.00000000  0.35600000  0.26720000  1.0 0.2199558102
C  C240  1  0.00000000  0.64400000  0.26720000  1.0 0.2199558102
C  C241  1  0.27050000  0.18570000  0.31030000  1.0 0.3961691678
C  C242  1  0.18570000  0.72950000  0.81030000  1.0 0.3961691678
C  C243  1  0.72950000  0.81430000  0.31030000  1.0 0.3961691678
C  C244  1  0.81430000  0.27050000  0.81030000  1.0 0.3961691678
C  C245  1  0.72950000  0.18570000  0.68970000  1.0 0.3961691678
C  C246  1  0.27050000  0.81430000  0.68970000  1.0 0.3961691678
C  C247  1  0.18570000  0.27050000  0.18970000  1.0 0.3931321025
C  C248  1  0.81430000  0.72950000  0.18970000  1.0 0.3931321025
C  C249  1  0.72950000  0.81430000  0.68970000  1.0 0.3961691678
C  C250  1  0.81430000  0.27050000  0.18970000  1.0 0.3931321025
C  C251  1  0.27050000  0.18570000  0.68970000  1.0 0.3961691678
C  C252  1  0.18570000  0.72950000  0.18970000  1.0 0.3931321025
C  C253  1  0.27050000  0.81430000  0.31030000  1.0 0.3961691678
C  C254  1  0.72950000  0.18570000  0.31030000  1.0 0.3961691678
C  C255  1  0.81430000  0.72950000  0.81030000  1.0 0.3961691678
C  C256  1  0.18570000  0.27050000  0.81030000  1.0 0.3961691678
C  C257  1  0.43960000  0.07800000  0.54990000  1.0 -0.0496026912
C  C258  1  0.07800000  0.56040000  0.04990000  1.0 -0.0496026912
C  C259  1  0.56040000  0.92200000  0.54990000  1.0 -0.0496026912
C  C260  1  0.92200000  0.43960000  0.04990000  1.0 -0.0496026912
C  C261  1  0.56040000  0.07800000  0.45010000  1.0 -0.0496026912
C  C262  1  0.43960000  0.92200000  0.45010000  1.0 -0.0496026912
C  C263  1  0.07800000  0.43960000  0.95010000  1.0 -0.0496026912
C  C264  1  0.92200000  0.56040000  0.95010000  1.0 -0.0496026912
C  C265  1  0.56040000  0.92200000  0.45010000  1.0 -0.0496026912
C  C266  1  0.92200000  0.43960000  0.95010000  1.0 -0.0496026912
C  C267  1  0.43960000  0.07800000  0.45010000  1.0 -0.0496026912
C  C268  1  0.07800000  0.56040000  0.95010000  1.0 -0.0496026912
C  C269  1  0.43960000  0.92200000  0.54990000  1.0 -0.0496026912
C  C270  1  0.56040000  0.07800000  0.54990000  1.0 -0.0496026912
C  C271  1  0.92200000  0.56040000  0.04990000  1.0 -0.0496026912
C  C272  1  0.07800000  0.43960000  0.04990000  1.0 -0.0496026912
C  C273  1  0.45600000  0.08180000  0.61980000  1.0 -0.2423319054
C  C274  1  0.08180000  0.54400000  0.11980000  1.0 -0.2423319054
C  C275  1  0.54400000  0.91820000  0.61980000  1.0 -0.2423319054
C  C276  1  0.91820000  0.45600000  0.11980000  1.0 -0.2423319054
C  C277  1  0.54400000  0.08180000  0.38020000  1.0 -0.2423319054
C  C278  1  0.45600000  0.91820000  0.38020000  1.0 -0.2423319054
C  C279  1  0.08180000  0.45600000  0.88020000  1.0 -0.2423319054
C  C280  1  0.91820000  0.54400000  0.88020000  1.0 -0.2423319054
C  C281  1  0.54400000  0.91820000  0.38020000  1.0 -0.2423319054
C  C282  1  0.91820000  0.45600000  0.88020000  1.0 -0.2423319054
C  C283  1  0.45600000  0.08180000  0.38020000  1.0 -0.2423319054
C  C284  1  0.08180000  0.54400000  0.88020000  1.0 -0.2423319054
C  C285  1  0.45600000  0.91820000  0.61980000  1.0 -0.2423319054
C  C286  1  0.54400000  0.08180000  0.61980000  1.0 -0.2423319054
C  C287  1  0.91820000  0.54400000  0.11980000  1.0 -0.2423319054
C  C288  1  0.08180000  0.45600000  0.11980000  1.0 -0.2423319054
C  C289  1  0.43240000  0.04350000  0.66890000  1.0 -0.0446206836
C  C290  1  0.04350000  0.56760000  0.16890000  1.0 -0.0446206836
C  C291  1  0.56760000  0.95650000  0.66890000  1.0 -0.0446206836
C  C292  1  0.95650000  0.43240000  0.16890000  1.0 -0.0446206836
C  C293  1  0.56760000  0.04350000  0.33110000  1.0 -0.0446206836
C  C294  1  0.43240000  0.95650000  0.33110000  1.0 -0.0446206836
C  C295  1  0.04350000  0.43240000  0.83110000  1.0 -0.0446206836
C  C296  1  0.95650000  0.56760000  0.83110000  1.0 -0.0446206836
C  C297  1  0.56760000  0.95650000  0.33110000  1.0 -0.0446206836
C  C298  1  0.95650000  0.43240000  0.83110000  1.0 -0.0446206836
C  C299  1  0.43240000  0.04350000  0.33110000  1.0 -0.0446206836
C  C300  1  0.04350000  0.56760000  0.83110000  1.0 -0.0446206836
C  C301  1  0.43240000  0.95650000  0.66890000  1.0 -0.0446206836
C  C302  1  0.56760000  0.04350000  0.66890000  1.0 -0.0446206836
C  C303  1  0.95650000  0.56760000  0.16890000  1.0 -0.0446206836
C  C304  1  0.04350000  0.43240000  0.16890000  1.0 -0.0446206836
C  C305  1  0.39410000  0.00000000  0.64650000  1.0 -0.0075638158
C  C306  1  0.00000000  0.60590000  0.14650000  1.0 -0.0075638158
C  C307  1  0.60590000  0.00000000  0.64650000  1.0 -0.0075638158
C  C308  1  0.00000000  0.39410000  0.14650000  1.0 -0.0075638158
C  C309  1  0.60590000  0.00000000  0.35350000  1.0 -0.0075638158
C  C310  1  0.39410000  0.00000000  0.35350000  1.0 -0.0075638158
C  C311  1  0.00000000  0.39410000  0.85350000  1.0 -0.0075638158
C  C312  1  0.00000000  0.60590000  0.85350000  1.0 -0.0075638158
C  C313  1  0.37470000  0.00000000  0.57790000  1.0 -0.0293254653
C  C314  1  0.00000000  0.62530000  0.07790000  1.0 -0.0293254653
C  C315  1  0.62530000  0.00000000  0.57790000  1.0 -0.0293254653
C  C316  1  0.00000000  0.37470000  0.07790000  1.0 -0.0293254653
C  C317  1  0.62530000  0.00000000  0.42210000  1.0 -0.0293254653
C  C318  1  0.37470000  0.00000000  0.42210000  1.0 -0.0293254653
C  C319  1  0.00000000  0.37470000  0.92210000  1.0 -0.0293254653
C  C320  1  0.00000000  0.62530000  0.92210000  1.0 -0.0293254653
C  C321  1  0.45240000  0.04460000  0.74430000  1.0 0.1050156698
C  C322  1  0.04460000  0.54760000  0.24430000  1.0 0.1050156698
C  C323  1  0.54760000  0.95540000  0.74430000  1.0 0.1050156698
C  C324  1  0.95540000  0.45240000  0.24430000  1.0 0.1050156698
C  C325  1  0.54760000  0.04460000  0.25570000  1.0 0.1050156698
C  C326  1  0.45240000  0.95540000  0.25570000  1.0 0.1050156698
C  C327  1  0.04460000  0.45240000  0.75570000  1.0 0.1050156698
C  C328  1  0.95540000  0.54760000  0.75570000  1.0 0.1050156698
C  C329  1  0.54760000  0.95540000  0.25570000  1.0 0.1050156698
C  C330  1  0.95540000  0.45240000  0.75570000  1.0 0.1050156698
C  C331  1  0.45240000  0.04460000  0.25570000  1.0 0.1050156698
C  C332  1  0.04460000  0.54760000  0.75570000  1.0 0.1050156698
C  C333  1  0.45240000  0.95540000  0.74430000  1.0 0.1050156698
C  C334  1  0.54760000  0.04460000  0.74430000  1.0 0.1050156698
C  C335  1  0.95540000  0.54760000  0.24430000  1.0 0.1050156698
C  C336  1  0.04460000  0.45240000  0.24430000  1.0 0.1050156698
N  N1  1  0.28420000  0.04400000  0.47080000  1.0 -0.1511533027
N  N2  1  0.04400000  0.71580000  0.97080000  1.0 -0.1511533027
N  N3  1  0.71580000  0.95600000  0.47080000  1.0 -0.1511533027
N  N4  1  0.95600000  0.28420000  0.97080000  1.0 -0.1511533027
N  N5  1  0.71580000  0.04400000  0.52920000  1.0 -0.1511533027
N  N6  1  0.28420000  0.95600000  0.52920000  1.0 -0.1511533027
N  N7  1  0.04400000  0.28420000  0.02920000  1.0 -0.1511533027
N  N8  1  0.95600000  0.71580000  0.02920000  1.0 -0.1511533027
N  N9  1  0.71580000  0.95600000  0.52920000  1.0 -0.1511533027
N  N10  1  0.95600000  0.28420000  0.02920000  1.0 -0.1511533027
N  N11  1  0.28420000  0.04400000  0.52920000  1.0 -0.1511533027
N  N12  1  0.04400000  0.71580000  0.02920000  1.0 -0.1511533027
N  N13  1  0.28420000  0.95600000  0.47080000  1.0 -0.1511533027
N  N14  1  0.71580000  0.04400000  0.47080000  1.0 -0.1511533027
N  N15  1  0.95600000  0.71580000  0.97080000  1.0 -0.1511533027
N  N16  1  0.04400000  0.28420000  0.97080000  1.0 -0.1511533027
N  N17  1  0.46300000  0.11700000  0.50000000  1.0 -0.2552219174
N  N18  1  0.11700000  0.53700000  0.00000000  1.0 -0.2552219174
N  N19  1  0.53700000  0.88300000  0.50000000  1.0 -0.2552219174
N  N20  1  0.88300000  0.46300000  0.00000000  1.0 -0.2552219174
N  N21  1  0.53700000  0.11700000  0.50000000  1.0 -0.2552219174
N  N22  1  0.46300000  0.88300000  0.50000000  1.0 -0.2552219174
N  N23  1  0.11700000  0.46300000  0.00000000  1.0 -0.2552219174
N  N24  1  0.88300000  0.53700000  0.00000000  1.0 -0.2552219174
O  O1  1  0.58080000  0.05430000  0.00000000  1.0 -1.1619913161
O  O2  1  0.05430000  0.41920000  0.50000000  1.0 -1.1619913161
O  O3  1  0.41920000  0.94570000  0.00000000  1.0 -1.1619913161
O  O4  1  0.94570000  0.58080000  0.50000000  1.0 -1.1619913161
O  O5  1  0.41920000  0.05430000  0.00000000  1.0 -1.1619913161
O  O6  1  0.58080000  0.94570000  0.00000000  1.0 -1.1619913161
O  O7  1  0.05430000  0.58080000  0.50000000  1.0 -1.1619913161
O  O8  1  0.94570000  0.41920000  0.50000000  1.0 -1.1619913161
O  O9  1  0.50000000  0.05290000  0.09130000  1.0 -1.053092721
O  O10  1  0.05290000  0.50000000  0.59130000  1.0 -1.053092721
O  O11  1  0.50000000  0.94710000  0.09130000  1.0 -1.053092721
O  O12  1  0.94710000  0.50000000  0.59130000  1.0 -1.053092721
O  O13  1  0.50000000  0.05290000  0.90870000  1.0 -1.053092721
O  O14  1  0.50000000  0.94710000  0.90870000  1.0 -1.053092721
O  O15  1  0.05290000  0.50000000  0.40870000  1.0 -1.053092721
O  O16  1  0.94710000  0.50000000  0.40870000  1.0 -1.053092721
O  O17  1  0.44120000  0.15810000  0.06970000  1.0 -0.5681113481
O  O18  1  0.15810000  0.55880000  0.56970000  1.0 -0.5681113481
O  O19  1  0.55880000  0.84190000  0.06970000  1.0 -0.5681113481
O  O20  1  0.84190000  0.44120000  0.56970000  1.0 -0.5681113481
O  O21  1  0.55880000  0.15810000  0.93030000  1.0 -0.5681113481
O  O22  1  0.44120000  0.84190000  0.93030000  1.0 -0.5681113481
O  O23  1  0.15810000  0.44120000  0.43030000  1.0 -0.5681113481
O  O24  1  0.84190000  0.55880000  0.43030000  1.0 -0.5681113481
O  O25  1  0.55880000  0.84190000  0.93030000  1.0 -0.5681113481
O  O26  1  0.84190000  0.44120000  0.43030000  1.0 -0.5681113481
O  O27  1  0.44120000  0.15810000  0.93030000  1.0 -0.5681113481
O  O28  1  0.15810000  0.55880000  0.43030000  1.0 -0.5681113481
O  O29  1  0.44120000  0.84190000  0.06970000  1.0 -0.5681113481
O  O30  1  0.55880000  0.15810000  0.06970000  1.0 -0.5681113481
O  O31  1  0.84190000  0.55880000  0.56970000  1.0 -0.5681113481
O  O32  1  0.15810000  0.44120000  0.56970000  1.0 -0.5681113481
O  O33  1  0.39360000  0.08800000  0.12750000  1.0 -0.588498558
O  O34  1  0.08800000  0.60640000  0.62750000  1.0 -0.588498558
O  O35  1  0.60640000  0.91200000  0.12750000  1.0 -0.588498558
O  O36  1  0.91200000  0.39360000  0.62750000  1.0 -0.588498558
O  O37  1  0.60640000  0.08800000  0.87250000  1.0 -0.588498558
O  O38  1  0.39360000  0.91200000  0.87250000  1.0 -0.588498558
O  O39  1  0.08800000  0.39360000  0.37250000  1.0 -0.588498558
O  O40  1  0.91200000  0.60640000  0.37250000  1.0 -0.588498558
O  O41  1  0.60640000  0.91200000  0.87250000  1.0 -0.588498558
O  O42  1  0.91200000  0.39360000  0.37250000  1.0 -0.588498558
O  O43  1  0.39360000  0.08800000  0.87250000  1.0 -0.588498558
O  O44  1  0.08800000  0.60640000  0.37250000  1.0 -0.588498558
O  O45  1  0.39360000  0.91200000  0.12750000  1.0 -0.588498558
O  O46  1  0.60640000  0.08800000  0.12750000  1.0 -0.588498558
O  O47  1  0.91200000  0.60640000  0.62750000  1.0 -0.588498558
O  O48  1  0.08800000  0.39360000  0.62750000  1.0 -0.588498558
O  O49  1  0.40200000  0.00000000  0.19690000  1.0 -0.1818740621
O  O50  1  0.00000000  0.59800000  0.69690000  1.0 -0.1818740621
O  O51  1  0.59800000  0.00000000  0.19690000  1.0 -0.1818740621
O  O52  1  0.00000000  0.40200000  0.69690000  1.0 -0.1818740621
O  O53  1  0.59800000  0.00000000  0.80310000  1.0 -0.1818740621
O  O54  1  0.40200000  0.00000000  0.80310000  1.0 -0.1818740621
O  O55  1  0.00000000  0.40200000  0.30310000  1.0 -0.1818740621
O  O56  1  0.00000000  0.59800000  0.30310000  1.0 -0.1818740621
O  O57  1  0.30580000  0.00000000  0.20710000  1.0 -0.4275348402
O  O58  1  0.00000000  0.69420000  0.70710000  1.0 -0.4275348402
O  O59  1  0.69420000  0.00000000  0.20710000  1.0 -0.4275348402
O  O60  1  0.00000000  0.30580000  0.70710000  1.0 -0.4275348402
O  O61  1  0.69420000  0.00000000  0.79290000  1.0 -0.4275348402
O  O62  1  0.30580000  0.00000000  0.79290000  1.0 -0.4275348402
O  O63  1  0.00000000  0.30580000  0.29290000  1.0 -0.4275348402
O  O64  1  0.00000000  0.69420000  0.29290000  1.0 -0.4275348402
O  O65  1  0.47880000  0.08970000  0.76350000  1.0 -0.0706589785
O  O66  1  0.08970000  0.52120000  0.26350000  1.0 -0.0706589785
O  O67  1  0.52120000  0.91030000  0.76350000  1.0 -0.0706589785
O  O68  1  0.91030000  0.47880000  0.26350000  1.0 -0.0706589785
O  O69  1  0.52120000  0.08970000  0.23650000  1.0 -0.0706589785
O  O70  1  0.47880000  0.91030000  0.23650000  1.0 -0.0706589785
O  O71  1  0.08970000  0.47880000  0.73650000  1.0 -0.0706589785
O  O72  1  0.91030000  0.52120000  0.73650000  1.0 -0.0706589785
O  O73  1  0.52120000  0.91030000  0.23650000  1.0 -0.0706589785
O  O74  1  0.91030000  0.47880000  0.73650000  1.0 -0.0706589785
O  O75  1  0.47880000  0.08970000  0.23650000  1.0 -0.0706589785
O  O76  1  0.08970000  0.52120000  0.73650000  1.0 -0.0706589785
O  O77  1  0.47880000  0.91030000  0.76350000  1.0 -0.0706589785
O  O78  1  0.52120000  0.08970000  0.76350000  1.0 -0.0706589785
O  O79  1  0.91030000  0.52120000  0.26350000  1.0 -0.0706589785
O  O80  1  0.08970000  0.47880000  0.26350000  1.0 -0.0706589785
O  O81  1  0.44100000  0.00000000  0.78180000  1.0 -0.1440208062
O  O82  1  0.00000000  0.55900000  0.28180000  1.0 -0.1440208062
O  O83  1  0.55900000  0.00000000  0.78180000  1.0 -0.1440208062
O  O84  1  0.00000000  0.44100000  0.28180000  1.0 -0.1440208062
O  O85  1  0.55900000  0.00000000  0.21820000  1.0 -0.1440208062
O  O86  1  0.44100000  0.00000000  0.21820000  1.0 -0.1440208062
O  O87  1  0.00000000  0.44100000  0.71820000  1.0 -0.1511533027
O  O88  1  0.00000000  0.55900000  0.71820000  1.0 -0.1511533027
F  F1  1  0.29630000  0.36890000  0.13200000  1.0 -0.1904992043
F  F2  1  0.36890000  0.70370000  0.63200000  1.0 -0.1904992043
F  F3  1  0.70370000  0.63110000  0.13200000  1.0 -0.1904992043
F  F4  1  0.63110000  0.29630000  0.63200000  1.0 -0.1904992043
F  F5  1  0.70370000  0.36890000  0.86800000  1.0 -0.1904992043
F  F6  1  0.29630000  0.63110000  0.86800000  1.0 -0.1904992043
F  F7  1  0.36890000  0.29630000  0.36800000  1.0 -0.1904992043
F  F8  1  0.63110000  0.70370000  0.36800000  1.0 -0.1904992043
F  F9  1  0.70370000  0.63110000  0.86800000  1.0 -0.1904992043
F  F10  1  0.63110000  0.29630000  0.36800000  1.0 -0.1904992043
F  F11  1  0.29630000  0.36890000  0.86800000  1.0 -0.1904992043
F  F12  1  0.36890000  0.70370000  0.36800000  1.0 -0.1904992043
F  F13  1  0.29630000  0.63110000  0.13200000  1.0 -0.1904992043
F  F14  1  0.70370000  0.36890000  0.13200000  1.0 -0.1904992043
F  F15  1  0.63110000  0.70370000  0.63200000  1.0 -0.1904992043
F  F16  1  0.36890000  0.29630000  0.63200000  1.0 -0.1904992043
F  F17  1  0.36110000  0.38250000  0.20900000  1.0 -0.1210125071
F  F18  1  0.38250000  0.63890000  0.70900000  1.0 -0.1210125071
F  F19  1  0.63890000  0.61750000  0.20900000  1.0 -0.1210125071
F  F20  1  0.61750000  0.36110000  0.70900000  1.0 -0.1210125071
F  F21  1  0.63890000  0.38250000  0.79100000  1.0 -0.1210125071
F  F22  1  0.36110000  0.61750000  0.79100000  1.0 -0.1210125071
F  F23  1  0.38250000  0.36110000  0.29100000  1.0 -0.1210125071
F  F24  1  0.61750000  0.63890000  0.29100000  1.0 -0.1210125071
F  F25  1  0.63890000  0.61750000  0.79100000  1.0 -0.1210125071
F  F26  1  0.61750000  0.36110000  0.29100000  1.0 -0.1210125071
F  F27  1  0.36110000  0.38250000  0.79100000  1.0 -0.1210125071
F  F28  1  0.38250000  0.63890000  0.29100000  1.0 -0.1210125071
F  F29  1  0.36110000  0.61750000  0.20900000  1.0 -0.1210125071
F  F30  1  0.63890000  0.38250000  0.20900000  1.0 -0.1210125071
F  F31  1  0.61750000  0.63890000  0.70900000  1.0 -0.1210125071
F  F32  1  0.38250000  0.36110000  0.70900000  1.0 -0.1210125071
F  F33  1  0.38520000  0.35800000  0.10670000  1.0 -0.1818740621
F  F34  1  0.35800000  0.61480000  0.60670000  1.0 -0.1818740621
F  F35  1  0.61480000  0.64200000  0.10670000  1.0 -0.1818740621
F  F36  1  0.64200000  0.38520000  0.60670000  1.0 -0.1818740621
F  F37  1  0.61480000  0.35800000  0.89330000  1.0 -0.1818740621
F  F38  1  0.38520000  0.64200000  0.89330000  1.0 -0.1818740621
F  F39  1  0.35800000  0.38520000  0.39330000  1.0 -0.1818740621
F  F40  1  0.64200000  0.61480000  0.39330000  1.0 -0.1818740621
F  F41  1  0.61480000  0.64200000  0.89330000  1.0 -0.1818740621
F  F42  1  0.64200000  0.38520000  0.39330000  1.0 -0.1818740621
F  F43  1  0.38520000  0.35800000  0.89330000  1.0 -0.1818740621
F  F44  1  0.35800000  0.61480000  0.39330000  1.0 -0.1818740621
F  F45  1  0.38520000  0.64200000  0.10670000  1.0 -0.1818740621
F  F46  1  0.61480000  0.35800000  0.10670000  1.0 -0.1818740621
F  F47  1  0.64200000  0.61480000  0.60670000  1.0 -0.1818740621
F  F48  1  0.35800000  0.38520000  0.60670000  1.0 -0.1818740621
F  F49  1  0.28300000  0.21210000  0.37050000  1.0 -0.1962777405
F  F50  1  0.21210000  0.71700000  0.87050000  1.0 -0.1962777405
F  F51  1  0.71700000  0.78790000  0.37050000  1.0 -0.1962777405
F  F52  1  0.78790000  0.28300000  0.87050000  1.0 -0.1962777405
F  F53  1  0.71700000  0.21210000  0.62950000  1.0 -0.1962777405
F  F54  1  0.28300000  0.78790000  0.62950000  1.0 -0.1962777405
F  F55  1  0.21210000  0.28300000  0.12950000  1.0 -0.1962777405
F  F56  1  0.78790000  0.71700000  0.12950000  1.0 -0.1962777405
F  F57  1  0.71700000  0.78790000  0.62950000  1.0 -0.1962777405
F  F58  1  0.78790000  0.28300000  0.12950000  1.0 -0.1962777405
F  F59  1  0.28300000  0.21210000  0.62950000  1.0 -0.1962777405
F  F60  1  0.21210000  0.71700000  0.12950000  1.0 -0.1962777405
F  F61  1  0.28300000  0.78790000  0.37050000  1.0 -0.1962777405
F  F62  1  0.71700000  0.21210000  0.37050000  1.0 -0.1962777405
F  F63  1  0.78790000  0.71700000  0.87050000  1.0 -0.1962777405
F  F64  1  0.21210000  0.28300000  0.87050000  1.0 -0.1962777405
F  F65  1  0.27810000  0.12840000  0.32270000  1.0 -0.2423319054
F  F66  1  0.12840000  0.72190000  0.82270000  1.0 -0.2423319054
F  F67  1  0.72190000  0.87160000  0.32270000  1.0 -0.2423319054
F  F68  1  0.87160000  0.27810000  0.82270000  1.0 -0.2423319054
F  F69  1  0.72190000  0.12840000  0.67730000  1.0 -0.2423319054
F  F70  1  0.27810000  0.87160000  0.67730000  1.0 -0.2423319054
F  F71  1  0.12840000  0.27810000  0.17730000  1.0 -0.2423319054
F  F72  1  0.87160000  0.72190000  0.17730000  1.0 -0.2423319054
F  F73  1  0.72190000  0.87160000  0.67730000  1.0 -0.2423319054
F  F74  1  0.87160000  0.27810000  0.17730000  1.0 -0.2423319054
F  F75  1  0.27810000  0.12840000  0.67730000  1.0 -0.2423319054
F  F76  1  0.12840000  0.72190000  0.17730000  1.0 -0.2423319054
F  F77  1  0.27810000  0.87160000  0.32270000  1.0 -0.2423319054
F  F78  1  0.72190000  0.12840000  0.32270000  1.0 -0.2423319054
F  F79  1  0.87160000  0.72190000  0.82270000  1.0 -0.2423319054
F  F80  1  0.12840000  0.27810000  0.82270000  1.0 -0.2423319054
F  F81  1  0.21330000  0.19230000  0.30050000  1.0 -0.1307085484
F  F82  1  0.19230000  0.78670000  0.80050000  1.0 -0.1307085484
F  F83  1  0.78670000  0.80770000  0.30050000  1.0 -0.1307085484
F  F84  1  0.80770000  0.21330000  0.80050000  1.0 -0.1307085484
F  F85  1  0.78670000  0.19230000  0.69950000  1.0 -0.1307085484
F  F86  1  0.21330000  0.80770000  0.69950000  1.0 -0.1307085484
F  F87  1  0.19230000  0.21330000  0.19950000  1.0 -0.1307085484
F  F88  1  0.80770000  0.78670000  0.19950000  1.0 -0.1307085484
F  F89  1  0.78670000  0.80770000  0.69950000  1.0 -0.1307085484
F  F90  1  0.80770000  0.21330000  0.19950000  1.0 -0.1307085484
F  F91  1  0.21330000  0.19230000  0.69950000  1.0 -0.1307085484
F  F92  1  0.19230000  0.78670000  0.19950000  1.0 -0.1307085484
F  F93  1  0.21330000  0.80770000  0.30050000  1.0 -0.1307085484
F  F94  1  0.78670000  0.19230000  0.30050000  1.0 -0.1307085484
F  F95  1  0.80770000  0.78670000  0.80050000  1.0 -0.1307085484
F  F96  1  0.19230000  0.21330000  0.80050000  1.0 -0.1307085484
