# DDEC6 charges by PACMAN v1.1 (https://github.com/mtap-research/PACMAN-charge/)
data_OQUWUU_ASR_pacman
_symmetry_space_group_name_H-M   'P 1'
_cell_length_a   25.18900000
_cell_length_b   27.24900000
_cell_length_c   27.42000000
_cell_angle_alpha   90.00000000
_cell_angle_beta   90.00000000
_cell_angle_gamma   90.00000000
_symmetry_Int_Tables_number   1
_chemical_formula_structural   Co5P2H80W24C96(N16O31)2
_chemical_formula_sum   'Co20 P8 H320 W96 C384 N128 O248'
_cell_volume   18820.40417262
_cell_formula_units_Z   4
loop_
 _symmetry_equiv_pos_site_id
 _symmetry_equiv_pos_as_xyz
  1  'x, y, z'
loop_
 _atom_site_type_symbol
 _atom_site_label
 _atom_site_symmetry_multiplicity
 _atom_site_fract_x
 _atom_site_fract_y
 _atom_site_fract_z
 _atom_site_occupancy
 _atom_site_charge
Co  Co1  1  0.47069000  0.90150000  0.91062000  1.0 0.4924808661
Co  Co2  1  0.97069000  0.59850000  0.58938000  1.0 0.4924808661
Co  Co3  1  0.52931000  0.40150000  0.58938000  1.0 0.4924808661
Co  Co4  1  0.02931000  0.09850000  0.91062000  1.0 0.4924808661
Co  Co5  1  0.52931000  0.09850000  0.08938000  1.0 0.4924808661
Co  Co6  1  0.02931000  0.40150000  0.41062000  1.0 0.4924808661
Co  Co7  1  0.47069000  0.59850000  0.41062000  1.0 0.4924808661
Co  Co8  1  0.97069000  0.90150000  0.08938000  1.0 0.4924808661
Co  Co9  1  0.25760000  0.25113000  0.71621000  1.0 0.7775289114
Co  Co10  1  0.75760000  0.24887000  0.78379000  1.0 0.7775289114
Co  Co11  1  0.74240000  0.75113000  0.78379000  1.0 0.7775289114
Co  Co12  1  0.24240000  0.74887000  0.71621000  1.0 0.7775289114
Co  Co13  1  0.74240000  0.74887000  0.28379000  1.0 0.7775289114
Co  Co14  1  0.24240000  0.75113000  0.21621000  1.0 0.7775289114
Co  Co15  1  0.25760000  0.24887000  0.21621000  1.0 0.7775289114
Co  Co16  1  0.75760000  0.25113000  0.28379000  1.0 0.7775289114
Co  Co17  1  0.75000000  0.50000000  0.04720000  1.0 0.0154553982
Co  Co18  1  0.25000000  0.00000000  0.45280000  1.0 0.0111238101
Co  Co19  1  0.25000000  0.50000000  0.95280000  1.0 0.0111238101
Co  Co20  1  0.75000000  0.00000000  0.54720000  1.0 0.0111238101
P  P1  1  0.49435000  0.14452000  0.82089000  1.0 1.221970695
P  P2  1  0.99435000  0.35548000  0.67911000  1.0 1.2256761114
P  P3  1  0.50565000  0.64452000  0.67911000  1.0 1.221970695
P  P4  1  0.00565000  0.85548000  0.82089000  1.0 1.221970695
P  P5  1  0.50565000  0.85548000  0.17911000  1.0 1.221970695
P  P6  1  0.00565000  0.64452000  0.32089000  1.0 1.221970695
P  P7  1  0.49435000  0.35548000  0.32089000  1.0 1.221970695
P  P8  1  0.99435000  0.14452000  0.17911000  1.0 1.221970695
H  H1  1  0.65640000  0.58050000  0.02160000  1.0 0.1003112643
H  H2  1  0.15640000  0.91950000  0.47840000  1.0 0.1003112643
H  H3  1  0.34360000  0.08050000  0.47840000  1.0 0.1003112643
H  H4  1  0.84360000  0.41950000  0.02160000  1.0 0.1003112643
H  H5  1  0.34360000  0.41950000  0.97840000  1.0 0.1003112643
H  H6  1  0.84360000  0.08050000  0.52160000  1.0 0.1003112643
H  H7  1  0.65640000  0.91950000  0.52160000  1.0 0.1003112643
H  H8  1  0.15640000  0.58050000  0.97840000  1.0 0.1003112643
H  H9  1  0.72410000  0.62060000  0.90110000  1.0 0.1003112643
H  H10  1  0.22410000  0.87940000  0.59890000  1.0 0.1003112643
H  H11  1  0.27590000  0.12060000  0.59890000  1.0 0.1003112643
H  H12  1  0.77590000  0.37940000  0.90110000  1.0 0.1003112643
H  H13  1  0.27590000  0.37940000  0.09890000  1.0 0.1003112643
H  H14  1  0.77590000  0.12060000  0.40110000  1.0 0.1003112643
H  H15  1  0.72410000  0.87940000  0.40110000  1.0 0.1003112643
H  H16  1  0.22410000  0.62060000  0.09890000  1.0 0.1003112643
H  H17  1  0.78050000  0.55550000  0.95140000  1.0 0.1003112643
H  H18  1  0.28050000  0.94450000  0.54860000  1.0 0.1003112643
H  H19  1  0.21950000  0.05550000  0.54860000  1.0 0.1003112643
H  H20  1  0.71950000  0.44450000  0.95140000  1.0 0.1003112643
H  H21  1  0.21950000  0.44450000  0.04860000  1.0 0.1003112643
H  H22  1  0.71950000  0.05550000  0.45140000  1.0 0.1003112643
H  H23  1  0.78050000  0.94450000  0.45140000  1.0 0.1003112643
H  H24  1  0.28050000  0.55550000  0.04860000  1.0 0.1003112643
H  H25  1  0.15010000  0.19180000  0.70230000  1.0 0.1101548751
H  H26  1  0.65010000  0.30820000  0.79770000  1.0 0.1101548751
H  H27  1  0.84990000  0.69180000  0.79770000  1.0 0.1101548751
H  H28  1  0.34990000  0.80820000  0.70230000  1.0 0.1101548751
H  H29  1  0.84990000  0.80820000  0.29770000  1.0 0.1101548751
H  H30  1  0.34990000  0.69180000  0.20230000  1.0 0.1101548751
H  H31  1  0.15010000  0.30820000  0.20230000  1.0 0.1101548751
H  H32  1  0.65010000  0.19180000  0.29770000  1.0 0.1101548751
H  H33  1  0.14040000  0.09960000  0.69770000  1.0 0.1101548751
H  H34  1  0.64040000  0.40040000  0.80230000  1.0 0.1101548751
H  H35  1  0.85960000  0.59960000  0.80230000  1.0 0.1101548751
H  H36  1  0.35960000  0.90040000  0.69770000  1.0 0.1101548751
H  H37  1  0.85960000  0.90040000  0.30230000  1.0 0.1101548751
H  H38  1  0.35960000  0.59960000  0.19770000  1.0 0.1101548751
H  H39  1  0.14040000  0.40040000  0.19770000  1.0 0.1101548751
H  H40  1  0.64040000  0.09960000  0.30230000  1.0 0.1101548751
H  H41  1  0.30900000  0.05670000  0.72260000  1.0 0.0912328013
H  H42  1  0.80900000  0.44330000  0.77740000  1.0 0.0912328013
H  H43  1  0.69100000  0.55670000  0.77740000  1.0 0.0912328013
H  H44  1  0.19100000  0.94330000  0.72260000  1.0 0.0912328013
H  H45  1  0.69100000  0.94330000  0.27740000  1.0 0.0912328013
H  H46  1  0.19100000  0.55670000  0.22260000  1.0 0.0912328013
H  H47  1  0.30900000  0.44330000  0.22260000  1.0 0.0912328013
H  H48  1  0.80900000  0.05670000  0.27740000  1.0 0.0912328013
H  H49  1  0.16390000  0.02320000  0.70070000  1.0 0.1101548751
H  H50  1  0.66390000  0.47680000  0.79930000  1.0 0.1101548751
H  H51  1  0.83610000  0.52320000  0.79930000  1.0 0.1101548751
H  H52  1  0.33610000  0.97680000  0.70070000  1.0 0.1101548751
H  H53  1  0.83610000  0.97680000  0.29930000  1.0 0.1101548751
H  H54  1  0.33610000  0.52320000  0.20070000  1.0 0.1101548751
H  H55  1  0.16390000  0.47680000  0.20070000  1.0 0.1101548751
H  H56  1  0.66390000  0.02320000  0.29930000  1.0 0.1101548751
H  H57  1  0.15700000  0.27860000  0.78310000  1.0 0.0912328013
H  H58  1  0.65700000  0.22140000  0.71690000  1.0 0.0912328013
H  H59  1  0.84300000  0.77860000  0.71690000  1.0 0.0912328013
H  H60  1  0.34300000  0.72140000  0.78310000  1.0 0.0912328013
H  H61  1  0.84300000  0.72140000  0.21690000  1.0 0.0912328013
H  H62  1  0.34300000  0.77860000  0.28310000  1.0 0.0912328013
H  H63  1  0.15700000  0.22140000  0.28310000  1.0 0.0912328013
H  H64  1  0.65700000  0.27860000  0.21690000  1.0 0.0912328013
H  H65  1  0.63350000  0.64030000  0.87990000  1.0 0.1003112643
H  H66  1  0.13350000  0.85970000  0.62010000  1.0 0.1003112643
H  H67  1  0.36650000  0.14030000  0.62010000  1.0 0.1003112643
H  H68  1  0.86650000  0.35970000  0.87990000  1.0 0.1003112643
H  H69  1  0.36650000  0.35970000  0.12010000  1.0 0.1003112643
H  H70  1  0.86650000  0.14030000  0.37990000  1.0 0.1003112643
H  H71  1  0.63350000  0.85970000  0.37990000  1.0 0.1003112643
H  H72  1  0.13350000  0.64030000  0.12010000  1.0 0.1003112643
H  H73  1  0.56810000  0.70100000  0.86420000  1.0 0.1301483606
H  H74  1  0.06810000  0.79900000  0.63580000  1.0 0.1301483606
H  H75  1  0.43190000  0.20100000  0.63580000  1.0 0.1301483606
H  H76  1  0.93190000  0.29900000  0.86420000  1.0 0.1301483606
H  H77  1  0.43190000  0.29900000  0.13580000  1.0 0.1301483606
H  H78  1  0.93190000  0.20100000  0.36420000  1.0 0.1301483606
H  H79  1  0.56810000  0.79900000  0.36420000  1.0 0.1301483606
H  H80  1  0.06810000  0.70100000  0.13580000  1.0 0.1301483606
H  H81  1  0.14770000  0.27320000  0.87210000  1.0 0.1003112643
H  H82  1  0.64770000  0.22680000  0.62790000  1.0 0.1003112643
H  H83  1  0.85230000  0.77320000  0.62790000  1.0 0.1003112643
H  H84  1  0.35230000  0.72680000  0.87210000  1.0 0.1003112643
H  H85  1  0.85230000  0.72680000  0.12790000  1.0 0.1003112643
H  H86  1  0.35230000  0.77320000  0.37210000  1.0 0.1003112643
H  H87  1  0.14770000  0.22680000  0.37210000  1.0 0.1003112643
H  H88  1  0.64770000  0.27320000  0.12790000  1.0 0.1003112643
H  H89  1  0.45510000  0.71590000  0.88530000  1.0 0.1101548751
H  H90  1  0.95510000  0.78410000  0.61470000  1.0 0.1101548751
H  H91  1  0.54490000  0.21590000  0.61470000  1.0 0.1101548751
H  H92  1  0.04490000  0.28410000  0.88530000  1.0 0.1101548751
H  H93  1  0.54490000  0.28410000  0.11470000  1.0 0.1101548751
H  H94  1  0.04490000  0.21590000  0.38530000  1.0 0.1101548751
H  H95  1  0.45510000  0.78410000  0.38530000  1.0 0.1101548751
H  H96  1  0.95510000  0.71590000  0.11470000  1.0 0.1101548751
H  H97  1  0.35660000  0.40680000  0.77400000  1.0 0.1101548751
H  H98  1  0.85660000  0.09320000  0.72600000  1.0 0.1101548751
H  H99  1  0.64340000  0.90680000  0.72600000  1.0 0.1101548751
H  H100  1  0.14340000  0.59320000  0.77400000  1.0 0.1101548751
H  H101  1  0.64340000  0.59320000  0.22600000  1.0 0.1101548751
H  H102  1  0.14340000  0.90680000  0.27400000  1.0 0.1101548751
H  H103  1  0.35660000  0.09320000  0.27400000  1.0 0.1101548751
H  H104  1  0.85660000  0.40680000  0.22600000  1.0 0.1101548751
H  H105  1  0.85930000  0.88800000  0.15540000  1.0 0.1101548751
H  H106  1  0.35930000  0.61200000  0.34460000  1.0 0.1101548751
H  H107  1  0.14070000  0.38800000  0.34460000  1.0 0.1101548751
H  H108  1  0.64070000  0.11200000  0.15540000  1.0 0.1101548751
H  H109  1  0.14070000  0.11200000  0.84460000  1.0 0.1101548751
H  H110  1  0.64070000  0.38800000  0.65540000  1.0 0.1101548751
H  H111  1  0.85930000  0.61200000  0.65540000  1.0 0.1101548751
H  H112  1  0.35930000  0.88800000  0.84460000  1.0 0.1101548751
H  H113  1  0.62020000  0.66540000  0.02270000  1.0 0.1101548751
H  H114  1  0.12020000  0.83460000  0.47730000  1.0 0.1101548751
H  H115  1  0.37980000  0.16540000  0.47730000  1.0 0.1101548751
H  H116  1  0.87980000  0.33460000  0.02270000  1.0 0.1101548751
H  H117  1  0.37980000  0.33460000  0.97730000  1.0 0.1101548751
H  H118  1  0.87980000  0.16540000  0.52270000  1.0 0.1101548751
H  H119  1  0.62020000  0.83460000  0.52270000  1.0 0.1101548751
H  H120  1  0.12020000  0.66540000  0.97730000  1.0 0.1101548751
H  H121  1  0.18920000  0.43640000  0.73180000  1.0 0.1397609147
H  H122  1  0.68920000  0.06360000  0.76820000  1.0 0.1397609147
H  H123  1  0.81080000  0.93640000  0.76820000  1.0 0.1397609147
H  H124  1  0.31080000  0.56360000  0.73180000  1.0 0.1397609147
H  H125  1  0.81080000  0.56360000  0.26820000  1.0 0.1397609147
H  H126  1  0.31080000  0.93640000  0.23180000  1.0 0.1397609147
H  H127  1  0.18920000  0.06360000  0.23180000  1.0 0.1397609147
H  H128  1  0.68920000  0.43640000  0.26820000  1.0 0.1397609147
H  H129  1  0.16210000  0.22310000  0.94550000  1.0 0.1003112643
H  H130  1  0.66210000  0.27690000  0.55450000  1.0 0.1003112643
H  H131  1  0.83790000  0.72310000  0.55450000  1.0 0.1003112643
H  H132  1  0.33790000  0.77690000  0.94550000  1.0 0.1003112643
H  H133  1  0.83790000  0.77690000  0.05450000  1.0 0.1003112643
H  H134  1  0.33790000  0.72310000  0.44550000  1.0 0.1003112643
H  H135  1  0.16210000  0.27690000  0.44550000  1.0 0.1003112643
H  H136  1  0.66210000  0.22310000  0.05450000  1.0 0.1003112643
H  H137  1  0.55160000  0.71910000  0.00780000  1.0 0.1101548751
H  H138  1  0.05160000  0.78090000  0.49220000  1.0 0.1101548751
H  H139  1  0.44840000  0.21910000  0.49220000  1.0 0.1101548751
H  H140  1  0.94840000  0.28090000  0.00780000  1.0 0.1101548751
H  H141  1  0.44840000  0.28090000  0.99220000  1.0 0.1101548751
H  H142  1  0.94840000  0.21910000  0.50780000  1.0 0.1101548751
H  H143  1  0.55160000  0.78090000  0.50780000  1.0 0.1101548751
H  H144  1  0.05160000  0.71910000  0.99220000  1.0 0.1101548751
H  H145  1  0.66340000  0.92660000  0.85570000  1.0 0.1003112643
H  H146  1  0.16340000  0.57340000  0.64430000  1.0 0.1003112643
H  H147  1  0.33660000  0.42660000  0.64430000  1.0 0.1003112643
H  H148  1  0.83660000  0.07340000  0.85570000  1.0 0.1003112643
H  H149  1  0.33660000  0.07340000  0.14430000  1.0 0.1003112643
H  H150  1  0.83660000  0.42660000  0.35570000  1.0 0.1003112643
H  H151  1  0.66340000  0.57340000  0.35570000  1.0 0.1003112643
H  H152  1  0.16340000  0.92660000  0.14430000  1.0 0.1003112643
H  H153  1  0.57230000  0.91400000  0.83090000  1.0 0.1101548751
H  H154  1  0.07230000  0.58600000  0.66910000  1.0 0.1101548751
H  H155  1  0.42770000  0.41400000  0.66910000  1.0 0.1101548751
H  H156  1  0.92770000  0.08600000  0.83090000  1.0 0.1101548751
H  H157  1  0.42770000  0.08600000  0.16910000  1.0 0.1101548751
H  H158  1  0.92770000  0.41400000  0.33090000  1.0 0.1101548751
H  H159  1  0.57230000  0.58600000  0.33090000  1.0 0.1101548751
H  H160  1  0.07230000  0.91400000  0.16910000  1.0 0.1101548751
H  H161  1  0.33880000  0.23380000  0.98890000  1.0 0.1003112643
H  H162  1  0.83880000  0.26620000  0.51110000  1.0 0.1003112643
H  H163  1  0.66120000  0.73380000  0.51110000  1.0 0.1003112643
H  H164  1  0.16120000  0.76620000  0.98890000  1.0 0.1003112643
H  H165  1  0.66120000  0.76620000  0.01110000  1.0 0.1003112643
H  H166  1  0.16120000  0.73380000  0.48890000  1.0 0.1003112643
H  H167  1  0.33880000  0.26620000  0.48890000  1.0 0.1003112643
H  H168  1  0.83880000  0.23380000  0.01110000  1.0 0.1003112643
H  H169  1  0.35450000  0.31740000  0.77030000  1.0 0.1301483606
H  H170  1  0.85450000  0.18260000  0.72970000  1.0 0.119185695
H  H171  1  0.64550000  0.81740000  0.72970000  1.0 0.119185695
H  H172  1  0.14550000  0.68260000  0.77030000  1.0 0.1301483606
H  H173  1  0.64550000  0.68260000  0.22970000  1.0 0.1301483606
H  H174  1  0.14550000  0.81740000  0.27030000  1.0 0.1301483606
H  H175  1  0.35450000  0.18260000  0.27030000  1.0 0.1301483606
H  H176  1  0.85450000  0.31740000  0.22970000  1.0 0.1301483606
H  H177  1  0.71560000  0.95670000  0.06850000  1.0 0.1101548751
H  H178  1  0.21560000  0.54330000  0.43150000  1.0 0.1101548751
H  H179  1  0.28440000  0.45670000  0.43150000  1.0 0.1101548751
H  H180  1  0.78440000  0.04330000  0.06850000  1.0 0.1101548751
H  H181  1  0.28440000  0.04330000  0.93150000  1.0 0.1101548751
H  H182  1  0.78440000  0.45670000  0.56850000  1.0 0.1101548751
H  H183  1  0.71560000  0.54330000  0.56850000  1.0 0.1101548751
H  H184  1  0.21560000  0.95670000  0.93150000  1.0 0.1101548751
H  H185  1  0.41840000  0.79950000  0.87280000  1.0 0.1003112643
H  H186  1  0.91840000  0.70050000  0.62720000  1.0 0.1003112643
H  H187  1  0.58160000  0.29950000  0.62720000  1.0 0.1003112643
H  H188  1  0.08160000  0.20050000  0.87280000  1.0 0.1003112643
H  H189  1  0.58160000  0.20050000  0.12720000  1.0 0.1003112643
H  H190  1  0.08160000  0.29950000  0.37280000  1.0 0.1003112643
H  H191  1  0.41840000  0.70050000  0.37280000  1.0 0.1003112643
H  H192  1  0.91840000  0.79950000  0.12720000  1.0 0.1003112643
H  H193  1  0.35490000  0.19140000  0.06300000  1.0 0.1003112643
H  H194  1  0.85490000  0.30860000  0.43700000  1.0 0.1003112643
H  H195  1  0.64510000  0.69140000  0.43700000  1.0 0.1003112643
H  H196  1  0.14510000  0.80860000  0.06300000  1.0 0.1003112643
H  H197  1  0.64510000  0.80860000  0.93700000  1.0 0.1003112643
H  H198  1  0.14510000  0.69140000  0.56300000  1.0 0.1003112643
H  H199  1  0.35490000  0.30860000  0.56300000  1.0 0.1003112643
H  H200  1  0.85490000  0.19140000  0.93700000  1.0 0.1003112643
H  H201  1  0.29030000  0.13710000  0.70720000  1.0 0.0912328013
H  H202  1  0.79030000  0.36290000  0.79280000  1.0 0.0912328013
H  H203  1  0.70970000  0.63710000  0.79280000  1.0 0.0912328013
H  H204  1  0.20970000  0.86290000  0.70720000  1.0 0.0912328013
H  H205  1  0.70970000  0.86290000  0.29280000  1.0 0.0912328013
H  H206  1  0.20970000  0.63710000  0.20720000  1.0 0.0912328013
H  H207  1  0.29030000  0.36290000  0.20720000  1.0 0.0912328013
H  H208  1  0.79030000  0.13710000  0.29280000  1.0 0.0912328013
H  H209  1  0.54400000  0.81450000  0.95410000  1.0 0.080600504
H  H210  1  0.04400000  0.68550000  0.54590000  1.0 0.080600504
H  H211  1  0.45600000  0.31450000  0.54590000  1.0 0.080600504
H  H212  1  0.95600000  0.18550000  0.95410000  1.0 0.080600504
H  H213  1  0.45600000  0.18550000  0.04590000  1.0 0.080600504
H  H214  1  0.95600000  0.31450000  0.45410000  1.0 0.080600504
H  H215  1  0.54400000  0.68550000  0.45410000  1.0 0.080600504
H  H216  1  0.04400000  0.81450000  0.04590000  1.0 0.080600504
H  H217  1  0.33870000  0.48180000  0.73120000  1.0 0.1003112643
H  H218  1  0.83870000  0.01820000  0.76880000  1.0 0.1003112643
H  H219  1  0.66130000  0.98180000  0.76880000  1.0 0.1003112643
H  H220  1  0.16130000  0.51820000  0.73120000  1.0 0.1003112643
H  H221  1  0.66130000  0.51820000  0.26880000  1.0 0.1003112643
H  H222  1  0.16130000  0.98180000  0.23120000  1.0 0.1003112643
H  H223  1  0.33870000  0.01820000  0.23120000  1.0 0.1003112643
H  H224  1  0.83870000  0.48180000  0.26880000  1.0 0.1003112643
H  H225  1  0.22280000  0.25780000  0.10260000  1.0 0.1101548751
H  H226  1  0.72280000  0.24220000  0.39740000  1.0 0.1101548751
H  H227  1  0.77720000  0.75780000  0.39740000  1.0 0.1101548751
H  H228  1  0.27720000  0.74220000  0.10260000  1.0 0.1101548751
H  H229  1  0.77720000  0.74220000  0.89740000  1.0 0.1101548751
H  H230  1  0.27720000  0.75780000  0.60260000  1.0 0.1101548751
H  H231  1  0.22280000  0.24220000  0.60260000  1.0 0.1101548751
H  H232  1  0.72280000  0.25780000  0.89740000  1.0 0.1101548751
H  H233  1  0.18860000  0.21680000  0.02640000  1.0 0.1101548751
H  H234  1  0.68860000  0.28320000  0.47360000  1.0 0.119185695
H  H235  1  0.81140000  0.71680000  0.47360000  1.0 0.119185695
H  H236  1  0.31140000  0.78320000  0.02640000  1.0 0.1101548751
H  H237  1  0.81140000  0.78320000  0.97360000  1.0 0.1101548751
H  H238  1  0.31140000  0.71680000  0.52640000  1.0 0.119185695
H  H239  1  0.18860000  0.28320000  0.52640000  1.0 0.119185695
H  H240  1  0.68860000  0.21680000  0.97360000  1.0 0.1101548751
H  H241  1  0.80140000  0.88760000  0.96520000  1.0 0.1003112643
H  H242  1  0.30140000  0.61240000  0.53480000  1.0 0.1003112643
H  H243  1  0.19860000  0.38760000  0.53480000  1.0 0.1003112643
H  H244  1  0.69860000  0.11240000  0.96520000  1.0 0.1003112643
H  H245  1  0.19860000  0.11240000  0.03480000  1.0 0.1003112643
H  H246  1  0.69860000  0.38760000  0.46520000  1.0 0.1003112643
H  H247  1  0.80140000  0.61240000  0.46520000  1.0 0.1003112643
H  H248  1  0.30140000  0.88760000  0.03480000  1.0 0.1003112643
H  H249  1  0.31480000  0.24050000  0.90720000  1.0 0.119185695
H  H250  1  0.81480000  0.25950000  0.59280000  1.0 0.119185695
H  H251  1  0.68520000  0.74050000  0.59280000  1.0 0.119185695
H  H252  1  0.18520000  0.75950000  0.90720000  1.0 0.119185695
H  H253  1  0.68520000  0.75950000  0.09280000  1.0 0.119185695
H  H254  1  0.18520000  0.74050000  0.40720000  1.0 0.119185695
H  H255  1  0.31480000  0.25950000  0.40720000  1.0 0.119185695
H  H256  1  0.81480000  0.24050000  0.09280000  1.0 0.119185695
H  H257  1  0.57380000  0.92490000  0.97340000  1.0 0.1003112643
H  H258  1  0.07380000  0.57510000  0.52660000  1.0 0.1101548751
H  H259  1  0.42620000  0.42490000  0.52660000  1.0 0.1101548751
H  H260  1  0.92620000  0.07510000  0.97340000  1.0 0.1003112643
H  H261  1  0.42620000  0.07510000  0.02660000  1.0 0.1101548751
H  H262  1  0.92620000  0.42490000  0.47340000  1.0 0.1003112643
H  H263  1  0.57380000  0.57510000  0.47340000  1.0 0.1101548751
H  H264  1  0.07380000  0.92490000  0.02660000  1.0 0.1101548751
H  H265  1  0.76920000  0.90270000  0.12280000  1.0 0.1003112643
H  H266  1  0.26920000  0.59730000  0.37720000  1.0 0.1003112643
H  H267  1  0.23080000  0.40270000  0.37720000  1.0 0.1003112643
H  H268  1  0.73080000  0.09730000  0.12280000  1.0 0.1003112643
H  H269  1  0.23080000  0.09730000  0.87720000  1.0 0.1003112643
H  H270  1  0.73080000  0.40270000  0.62280000  1.0 0.1003112643
H  H271  1  0.76920000  0.59730000  0.62280000  1.0 0.1003112643
H  H272  1  0.26920000  0.90270000  0.87720000  1.0 0.1003112643
H  H273  1  0.28520000  0.21730000  0.83070000  1.0 0.1101548751
H  H274  1  0.78520000  0.28270000  0.66930000  1.0 0.1101548751
H  H275  1  0.71480000  0.71730000  0.66930000  1.0 0.1101548751
H  H276  1  0.21480000  0.78270000  0.83070000  1.0 0.1101548751
H  H277  1  0.71480000  0.78270000  0.16930000  1.0 0.1101548751
H  H278  1  0.21480000  0.71730000  0.33070000  1.0 0.1101548751
H  H279  1  0.28520000  0.28270000  0.33070000  1.0 0.1101548751
H  H280  1  0.78520000  0.21730000  0.16930000  1.0 0.1101548751
H  H281  1  0.22890000  0.36390000  0.70360000  1.0 0.1003112643
H  H282  1  0.72890000  0.13610000  0.79640000  1.0 0.1003112643
H  H283  1  0.77110000  0.86390000  0.79640000  1.0 0.1003112643
H  H284  1  0.27110000  0.63610000  0.70360000  1.0 0.1003112643
H  H285  1  0.77110000  0.63610000  0.29640000  1.0 0.1101548751
H  H286  1  0.27110000  0.86390000  0.20360000  1.0 0.1101548751
H  H287  1  0.22890000  0.13610000  0.20360000  1.0 0.1003112643
H  H288  1  0.72890000  0.36390000  0.29640000  1.0 0.1003112643
H  H289  1  0.35610000  0.20400000  0.15150000  1.0 0.1101548751
H  H290  1  0.85610000  0.29600000  0.34850000  1.0 0.1101548751
H  H291  1  0.64390000  0.70400000  0.34850000  1.0 0.1101548751
H  H292  1  0.14390000  0.79600000  0.15150000  1.0 0.1101548751
H  H293  1  0.64390000  0.79600000  0.84850000  1.0 0.1101548751
H  H294  1  0.14390000  0.70400000  0.65150000  1.0 0.1101548751
H  H295  1  0.35610000  0.29600000  0.65150000  1.0 0.1101548751
H  H296  1  0.85610000  0.20400000  0.84850000  1.0 0.1101548751
H  H297  1  0.64480000  0.96270000  0.01370000  1.0 0.119185695
H  H298  1  0.14480000  0.53730000  0.48630000  1.0 0.119185695
H  H299  1  0.35520000  0.46270000  0.48630000  1.0 0.119185695
H  H300  1  0.85520000  0.03730000  0.01370000  1.0 0.119185695
H  H301  1  0.35520000  0.03730000  0.98630000  1.0 0.119185695
H  H302  1  0.85520000  0.46270000  0.51370000  1.0 0.119185695
H  H303  1  0.64480000  0.53730000  0.51370000  1.0 0.119185695
H  H304  1  0.14480000  0.96270000  0.98630000  1.0 0.119185695
H  H305  1  0.87320000  0.91400000  0.01590000  1.0 0.1101548751
H  H306  1  0.37320000  0.58600000  0.48410000  1.0 0.1101548751
H  H307  1  0.12680000  0.41400000  0.48410000  1.0 0.1101548751
H  H308  1  0.62680000  0.08600000  0.01590000  1.0 0.1101548751
H  H309  1  0.12680000  0.08600000  0.98410000  1.0 0.1101548751
H  H310  1  0.62680000  0.41400000  0.51590000  1.0 0.1101548751
H  H311  1  0.87320000  0.58600000  0.51590000  1.0 0.1101548751
H  H312  1  0.37320000  0.91400000  0.98410000  1.0 0.1101548751
H  H313  1  0.73080000  0.89480000  0.91160000  1.0 0.1101548751
H  H314  1  0.23080000  0.60520000  0.58840000  1.0 0.1101548751
H  H315  1  0.26920000  0.39480000  0.58840000  1.0 0.1101548751
H  H316  1  0.76920000  0.10520000  0.91160000  1.0 0.1101548751
H  H317  1  0.26920000  0.10520000  0.08840000  1.0 0.1101548751
H  H318  1  0.76920000  0.39480000  0.41160000  1.0 0.1101548751
H  H319  1  0.73080000  0.60520000  0.41160000  1.0 0.1101548751
H  H320  1  0.23080000  0.89480000  0.08840000  1.0 0.1101548751
W  W1  1  0.62329000  0.19158000  0.81996000  1.0 2.3562580864
W  W2  1  0.12329000  0.30842000  0.68004000  1.0 2.3562580864
W  W3  1  0.37671000  0.69158000  0.68004000  1.0 2.3562580864
W  W4  1  0.87671000  0.80842000  0.81996000  1.0 2.3562580864
W  W5  1  0.37671000  0.80842000  0.18004000  1.0 2.3562580864
W  W6  1  0.87671000  0.69158000  0.31996000  1.0 2.3562580864
W  W7  1  0.62329000  0.30842000  0.31996000  1.0 2.3562580864
W  W8  1  0.12329000  0.19158000  0.18004000  1.0 2.3562580864
W  W9  1  0.46567000  0.03685000  0.88659000  1.0 2.3981891791
W  W10  1  0.96567000  0.46315000  0.61341000  1.0 2.3981891791
W  W11  1  0.53433000  0.53685000  0.61341000  1.0 2.3981891791
W  W12  1  0.03433000  0.96315000  0.88659000  1.0 2.3981891791
W  W13  1  0.53433000  0.96315000  0.11341000  1.0 2.3981891791
W  W14  1  0.03433000  0.53685000  0.38659000  1.0 2.3981891791
W  W15  1  0.46567000  0.46315000  0.38659000  1.0 2.3981891791
W  W16  1  0.96567000  0.03685000  0.11341000  1.0 2.3981891791
W  W17  1  0.39150000  0.20741000  0.76221000  1.0 2.3397857706
W  W18  1  0.89150000  0.29259000  0.73779000  1.0 2.3397857706
W  W19  1  0.60850000  0.70741000  0.73779000  1.0 2.3397857706
W  W20  1  0.10850000  0.79259000  0.76221000  1.0 2.3397857706
W  W21  1  0.60850000  0.79259000  0.23779000  1.0 2.3397857706
W  W22  1  0.10850000  0.70741000  0.26221000  1.0 2.3397857706
W  W23  1  0.39150000  0.29259000  0.26221000  1.0 2.3397857706
W  W24  1  0.89150000  0.20741000  0.23779000  1.0 2.3397857706
W  W25  1  0.41937000  0.14602000  0.93021000  1.0 2.0375531066
W  W26  1  0.91937000  0.35398000  0.56979000  1.0 2.0375531066
W  W27  1  0.58063000  0.64602000  0.56979000  1.0 2.0375531066
W  W28  1  0.08063000  0.85398000  0.93021000  1.0 2.0337039749
W  W29  1  0.58063000  0.85398000  0.06979000  1.0 2.0375531066
W  W30  1  0.08063000  0.64602000  0.43021000  1.0 2.0375531066
W  W31  1  0.41937000  0.35398000  0.43021000  1.0 2.0375531066
W  W32  1  0.91937000  0.14602000  0.06979000  1.0 2.0375531066
W  W33  1  0.51486000  0.25612000  0.75589000  1.0 2.3083153884
W  W34  1  0.01486000  0.24388000  0.74411000  1.0 2.3083153884
W  W35  1  0.48514000  0.75612000  0.74411000  1.0 2.3083153884
W  W36  1  0.98514000  0.74388000  0.75589000  1.0 2.3083153884
W  W37  1  0.48514000  0.74388000  0.24411000  1.0 2.3083153884
W  W38  1  0.98514000  0.75612000  0.25589000  1.0 2.3083153884
W  W39  1  0.51486000  0.24388000  0.25589000  1.0 2.3083153884
W  W40  1  0.01486000  0.25612000  0.24411000  1.0 2.3083153884
W  W41  1  0.43969000  0.08919000  0.71518000  1.0 2.3199225585
W  W42  1  0.93969000  0.41081000  0.78482000  1.0 2.3006399195
W  W43  1  0.56031000  0.58919000  0.78482000  1.0 2.3006399195
W  W44  1  0.06031000  0.91081000  0.71518000  1.0 2.3199225585
W  W45  1  0.56031000  0.91081000  0.28482000  1.0 2.3006399195
W  W46  1  0.06031000  0.58919000  0.21518000  1.0 2.3006399195
W  W47  1  0.43969000  0.41081000  0.21518000  1.0 2.3006399195
W  W48  1  0.93969000  0.08919000  0.28482000  1.0 2.3006399195
W  W49  1  0.56367000  0.13756000  0.70927000  1.0 2.3318049232
W  W50  1  0.06367000  0.36244000  0.79073000  1.0 2.3199225585
W  W51  1  0.43633000  0.63756000  0.79073000  1.0 2.3199225585
W  W52  1  0.93633000  0.86244000  0.70927000  1.0 2.3318049232
W  W53  1  0.43633000  0.86244000  0.29073000  1.0 2.3083153884
W  W54  1  0.93633000  0.63756000  0.20927000  1.0 2.3083153884
W  W55  1  0.56367000  0.36244000  0.20927000  1.0 2.3083153884
W  W56  1  0.06367000  0.13756000  0.29073000  1.0 2.3083153884
W  W57  1  0.54265000  0.03234000  0.77242000  1.0 2.3471191446
W  W58  1  0.04265000  0.46766000  0.72758000  1.0 2.3397857706
W  W59  1  0.45735000  0.53234000  0.72758000  1.0 2.3397857706
W  W60  1  0.95735000  0.96766000  0.77242000  1.0 2.3471191446
W  W61  1  0.45735000  0.96766000  0.22758000  1.0 2.3318049232
W  W62  1  0.95735000  0.53234000  0.27242000  1.0 2.3318049232
W  W63  1  0.54265000  0.46766000  0.27242000  1.0 2.3318049232
W  W64  1  0.04265000  0.03234000  0.22758000  1.0 2.3318049232
W  W65  1  0.44661000  0.26024000  0.86309000  1.0 2.3318049232
W  W66  1  0.94661000  0.23976000  0.63691000  1.0 2.3318049232
W  W67  1  0.55339000  0.76024000  0.63691000  1.0 2.3318049232
W  W68  1  0.05339000  0.73976000  0.86309000  1.0 2.3318049232
W  W69  1  0.55339000  0.73976000  0.13691000  1.0 2.3318049232
W  W70  1  0.05339000  0.76024000  0.36309000  1.0 2.3318049232
W  W71  1  0.44661000  0.23976000  0.36309000  1.0 2.3318049232
W  W72  1  0.94661000  0.26024000  0.13691000  1.0 2.3318049232
W  W73  1  0.60168000  0.08614000  0.88282000  1.0 2.1371226112
W  W74  1  0.10168000  0.41386000  0.61718000  1.0 2.1513194363
W  W75  1  0.39832000  0.58614000  0.61718000  1.0 2.1513194363
W  W76  1  0.89832000  0.91386000  0.88282000  1.0 2.1371226112
W  W77  1  0.39832000  0.91386000  0.11718000  1.0 2.1320184191
W  W78  1  0.89832000  0.58614000  0.38282000  1.0 2.1513194363
W  W79  1  0.60168000  0.41386000  0.38282000  1.0 2.1513194363
W  W80  1  0.10168000  0.08614000  0.11718000  1.0 2.1320184191
W  W81  1  0.55583000  0.19633000  0.92645000  1.0 2.243510751
W  W82  1  0.05583000  0.30367000  0.57355000  1.0 2.243510751
W  W83  1  0.44417000  0.69633000  0.57355000  1.0 2.243510751
W  W84  1  0.94417000  0.80367000  0.92645000  1.0 2.243510751
W  W85  1  0.44417000  0.80367000  0.07355000  1.0 2.243510751
W  W86  1  0.94417000  0.69633000  0.42645000  1.0 2.261353306
W  W87  1  0.55583000  0.30367000  0.42645000  1.0 2.261353306
W  W88  1  0.05583000  0.19633000  0.07355000  1.0 2.2452403824
W  W89  1  0.36378000  0.09440000  0.82986000  1.0 2.1171464245
W  W90  1  0.86378000  0.40560000  0.67014000  1.0 2.1371226112
W  W91  1  0.63622000  0.59440000  0.67014000  1.0 2.1371226112
W  W92  1  0.13622000  0.90560000  0.82986000  1.0 2.1148032467
W  W93  1  0.63622000  0.90560000  0.17014000  1.0 2.1320184191
W  W94  1  0.13622000  0.59440000  0.32986000  1.0 2.1148032467
W  W95  1  0.36378000  0.40560000  0.32986000  1.0 2.1171464245
W  W96  1  0.86378000  0.09440000  0.17014000  1.0 2.1371226112
C  C1  1  0.68090000  0.58050000  0.99630000  1.0 0.119185695
C  C2  1  0.18090000  0.91950000  0.50370000  1.0 0.119185695
C  C3  1  0.31910000  0.08050000  0.50370000  1.0 0.119185695
C  C4  1  0.81910000  0.41950000  0.99630000  1.0 0.119185695
C  C5  1  0.31910000  0.41950000  0.00370000  1.0 0.119185695
C  C6  1  0.81910000  0.08050000  0.49630000  1.0 0.119185695
C  C7  1  0.68090000  0.91950000  0.49630000  1.0 0.119185695
C  C8  1  0.18090000  0.58050000  0.00370000  1.0 0.119185695
C  C9  1  0.71600000  0.60600000  0.93100000  1.0 -0.0895937127
C  C10  1  0.21600000  0.89400000  0.56900000  1.0 -0.0895937127
C  C11  1  0.28400000  0.10600000  0.56900000  1.0 -0.0895937127
C  C12  1  0.78400000  0.39400000  0.93100000  1.0 -0.0895937127
C  C13  1  0.28400000  0.39400000  0.06900000  1.0 -0.0895937127
C  C14  1  0.78400000  0.10600000  0.43100000  1.0 -0.0895937127
C  C15  1  0.71600000  0.89400000  0.43100000  1.0 -0.0895937127
C  C16  1  0.21600000  0.60600000  0.06900000  1.0 -0.0895937127
C  C17  1  0.74700000  0.56640000  0.95920000  1.0 -0.0397157811
C  C18  1  0.24700000  0.93360000  0.54080000  1.0 -0.0397157811
C  C19  1  0.25300000  0.06640000  0.54080000  1.0 -0.0397157811
C  C20  1  0.75300000  0.43360000  0.95920000  1.0 -0.0397157811
C  C21  1  0.25300000  0.43360000  0.04080000  1.0 -0.0397157811
C  C22  1  0.75300000  0.06640000  0.45920000  1.0 -0.0397157811
C  C23  1  0.74700000  0.93360000  0.45920000  1.0 -0.0397157811
C  C24  1  0.24700000  0.56640000  0.04080000  1.0 -0.0397157811
C  C25  1  0.17790000  0.16930000  0.70170000  1.0 0.0047025175
C  C26  1  0.67790000  0.33070000  0.79830000  1.0 0.0047025175
C  C27  1  0.82210000  0.66930000  0.79830000  1.0 0.0047025175
C  C28  1  0.32210000  0.83070000  0.70170000  1.0 0.0047025175
C  C29  1  0.82210000  0.83070000  0.29830000  1.0 0.0047025175
C  C30  1  0.32210000  0.66930000  0.20170000  1.0 0.0047025175
C  C31  1  0.17790000  0.33070000  0.20170000  1.0 0.0047025175
C  C32  1  0.67790000  0.16930000  0.29830000  1.0 0.0047025175
C  C33  1  0.17190000  0.11740000  0.69920000  1.0 -0.1427072789
C  C34  1  0.67190000  0.38260000  0.80080000  1.0 -0.1427072789
C  C35  1  0.82810000  0.61740000  0.80080000  1.0 -0.1427072789
C  C36  1  0.32810000  0.88260000  0.69920000  1.0 -0.1427072789
C  C37  1  0.82810000  0.88260000  0.30080000  1.0 -0.1427072789
C  C38  1  0.32810000  0.61740000  0.19920000  1.0 -0.1427072789
C  C39  1  0.17190000  0.38260000  0.19920000  1.0 -0.1427072789
C  C40  1  0.67190000  0.11740000  0.30080000  1.0 -0.1427072789
C  C41  1  0.28470000  0.03400000  0.71050000  1.0 -0.2187138652
C  C42  1  0.78470000  0.46600000  0.78950000  1.0 -0.2187138652
C  C43  1  0.71530000  0.53400000  0.78950000  1.0 -0.2187138652
C  C44  1  0.21530000  0.96600000  0.71050000  1.0 -0.2187138652
C  C45  1  0.71530000  0.96600000  0.28950000  1.0 -0.2187138652
C  C46  1  0.21530000  0.53400000  0.21050000  1.0 -0.2187138652
C  C47  1  0.28470000  0.46600000  0.21050000  1.0 -0.2187138652
C  C48  1  0.78470000  0.03400000  0.28950000  1.0 -0.2187138652
C  C49  1  0.19960000  0.01490000  0.70320000  1.0 -0.1908903065
C  C50  1  0.69960000  0.48510000  0.79680000  1.0 -0.1908903065
C  C51  1  0.80040000  0.51490000  0.79680000  1.0 -0.1908903065
C  C52  1  0.30040000  0.98510000  0.70320000  1.0 -0.1908903065
C  C53  1  0.80040000  0.98510000  0.29680000  1.0 -0.1908903065
C  C54  1  0.30040000  0.51490000  0.20320000  1.0 -0.1908903065
C  C55  1  0.19960000  0.48510000  0.20320000  1.0 -0.1908903065
C  C56  1  0.69960000  0.01490000  0.29680000  1.0 -0.1908903065
C  C57  1  0.18190000  0.26480000  0.80400000  1.0 -0.0477947687
C  C58  1  0.68190000  0.23520000  0.69600000  1.0 -0.0477947687
C  C59  1  0.81810000  0.76480000  0.69600000  1.0 -0.0397157811
C  C60  1  0.31810000  0.73520000  0.80400000  1.0 -0.0477947687
C  C61  1  0.81810000  0.73520000  0.19600000  1.0 -0.0477947687
C  C62  1  0.31810000  0.76480000  0.30400000  1.0 -0.0477947687
C  C63  1  0.18190000  0.23520000  0.30400000  1.0 -0.0477947687
C  C64  1  0.68190000  0.26480000  0.19600000  1.0 -0.0477947687
C  C65  1  0.63190000  0.64710000  0.95150000  1.0 0.1101548751
C  C66  1  0.13190000  0.85290000  0.54850000  1.0 0.1101548751
C  C67  1  0.36810000  0.14710000  0.54850000  1.0 0.1101548751
C  C68  1  0.86810000  0.35290000  0.95150000  1.0 0.1101548751
C  C69  1  0.36810000  0.35290000  0.04850000  1.0 0.1101548751
C  C70  1  0.86810000  0.14710000  0.45150000  1.0 0.1101548751
C  C71  1  0.63190000  0.85290000  0.45150000  1.0 0.1101548751
C  C72  1  0.13190000  0.64710000  0.04850000  1.0 0.1101548751
C  C73  1  0.61750000  0.65700000  0.90560000  1.0 -0.1991429765
C  C74  1  0.11750000  0.84300000  0.59440000  1.0 -0.1991429765
C  C75  1  0.38250000  0.15700000  0.59440000  1.0 -0.1991429765
C  C76  1  0.88250000  0.34300000  0.90560000  1.0 -0.1991429765
C  C77  1  0.38250000  0.34300000  0.09440000  1.0 -0.1991429765
C  C78  1  0.88250000  0.15700000  0.40560000  1.0 -0.1991429765
C  C79  1  0.61750000  0.84300000  0.40560000  1.0 -0.1991429765
C  C80  1  0.11750000  0.65700000  0.09440000  1.0 -0.1991429765
C  C81  1  0.57750000  0.69290000  0.89590000  1.0 -0.1707438142
C  C82  1  0.07750000  0.80710000  0.60410000  1.0 -0.1707438142
C  C83  1  0.42250000  0.19290000  0.60410000  1.0 -0.1707438142
C  C84  1  0.92250000  0.30710000  0.89590000  1.0 -0.1707438142
C  C85  1  0.42250000  0.30710000  0.10410000  1.0 -0.1707438142
C  C86  1  0.92250000  0.19290000  0.39590000  1.0 -0.1707438142
C  C87  1  0.57750000  0.80710000  0.39590000  1.0 -0.1707438142
C  C88  1  0.07750000  0.69290000  0.10410000  1.0 -0.1707438142
C  C89  1  0.17600000  0.26230000  0.85320000  1.0 -0.1427072789
C  C90  1  0.67600000  0.23770000  0.64680000  1.0 -0.1427072789
C  C91  1  0.82400000  0.76230000  0.64680000  1.0 -0.1427072789
C  C92  1  0.32400000  0.73770000  0.85320000  1.0 -0.1427072789
C  C93  1  0.82400000  0.73770000  0.14680000  1.0 -0.1427072789
C  C94  1  0.32400000  0.76230000  0.35320000  1.0 -0.1427072789
C  C95  1  0.17600000  0.23770000  0.35320000  1.0 -0.1427072789
C  C96  1  0.67600000  0.26230000  0.14680000  1.0 -0.1427072789
C  C97  1  0.46900000  0.74520000  0.89700000  1.0 -0.1427072789
C  C98  1  0.96900000  0.75480000  0.60300000  1.0 -0.1427072789
C  C99  1  0.53100000  0.24520000  0.60300000  1.0 -0.1427072789
C  C100  1  0.03100000  0.25480000  0.89700000  1.0 -0.1427072789
C  C101  1  0.53100000  0.25480000  0.10300000  1.0 -0.1427072789
C  C102  1  0.03100000  0.24520000  0.39700000  1.0 -0.1427072789
C  C103  1  0.46900000  0.75480000  0.39700000  1.0 -0.1427072789
C  C104  1  0.96900000  0.74520000  0.10300000  1.0 -0.1427072789
C  C105  1  0.33030000  0.38760000  0.75970000  1.0 -0.1166215976
C  C106  1  0.83030000  0.11240000  0.74030000  1.0 -0.1166215976
C  C107  1  0.66970000  0.88760000  0.74030000  1.0 -0.1075228093
C  C108  1  0.16970000  0.61240000  0.75970000  1.0 -0.1166215976
C  C109  1  0.66970000  0.61240000  0.24030000  1.0 -0.1166215976
C  C110  1  0.16970000  0.88760000  0.25970000  1.0 -0.1166215976
C  C111  1  0.33030000  0.11240000  0.25970000  1.0 -0.1166215976
C  C112  1  0.83030000  0.38760000  0.24030000  1.0 -0.1166215976
C  C113  1  0.85090000  0.89570000  0.12330000  1.0 -0.0671490957
C  C114  1  0.35090000  0.60430000  0.37670000  1.0 -0.0671490957
C  C115  1  0.14910000  0.39570000  0.37670000  1.0 -0.0671490957
C  C116  1  0.64910000  0.10430000  0.12330000  1.0 -0.0671490957
C  C117  1  0.14910000  0.10430000  0.87670000  1.0 -0.0671490957
C  C118  1  0.64910000  0.39570000  0.62330000  1.0 -0.0671490957
C  C119  1  0.85090000  0.60430000  0.62330000  1.0 -0.0671490957
C  C120  1  0.35090000  0.89570000  0.87670000  1.0 -0.0671490957
C  C121  1  0.60880000  0.67140000  0.99100000  1.0 -0.1991429765
C  C122  1  0.10880000  0.82860000  0.50900000  1.0 -0.1991429765
C  C123  1  0.39120000  0.17140000  0.50900000  1.0 -0.1991429765
C  C124  1  0.89120000  0.32860000  0.99100000  1.0 -0.1991429765
C  C125  1  0.39120000  0.32860000  0.00900000  1.0 -0.1991429765
C  C126  1  0.89120000  0.17140000  0.49100000  1.0 -0.1991429765
C  C127  1  0.60880000  0.82860000  0.49100000  1.0 -0.1991429765
C  C128  1  0.10880000  0.67140000  0.00900000  1.0 -0.1991429765
C  C129  1  0.21370000  0.46190000  0.73220000  1.0 -0.1787059293
C  C130  1  0.71370000  0.03810000  0.76780000  1.0 -0.1787059293
C  C131  1  0.78630000  0.96190000  0.76780000  1.0 -0.1787059293
C  C132  1  0.28630000  0.53810000  0.73220000  1.0 -0.1787059293
C  C133  1  0.78630000  0.53810000  0.26780000  1.0 -0.1787059293
C  C134  1  0.28630000  0.96190000  0.23220000  1.0 -0.1787059293
C  C135  1  0.21370000  0.03810000  0.23220000  1.0 -0.1787059293
C  C136  1  0.71370000  0.46190000  0.26780000  1.0 -0.1787059293
C  C137  1  0.19770000  0.22610000  0.95400000  1.0 -0.1991429765
C  C138  1  0.69770000  0.27390000  0.54600000  1.0 -0.1991429765
C  C139  1  0.80230000  0.72610000  0.54600000  1.0 -0.1991429765
C  C140  1  0.30230000  0.77390000  0.95400000  1.0 -0.1991429765
C  C141  1  0.80230000  0.77390000  0.04600000  1.0 -0.1991429765
C  C142  1  0.30230000  0.72610000  0.45400000  1.0 -0.1991429765
C  C143  1  0.19770000  0.27390000  0.45400000  1.0 -0.1991429765
C  C144  1  0.69770000  0.22610000  0.04600000  1.0 -0.1991429765
C  C145  1  0.56890000  0.70400000  0.98190000  1.0 -0.1991429765
C  C146  1  0.06890000  0.79600000  0.51810000  1.0 -0.1991429765
C  C147  1  0.43110000  0.20400000  0.51810000  1.0 -0.1991429765
C  C148  1  0.93110000  0.29600000  0.98190000  1.0 -0.1991429765
C  C149  1  0.43110000  0.29600000  0.01810000  1.0 -0.1991429765
C  C150  1  0.93110000  0.20400000  0.48190000  1.0 -0.1991429765
C  C151  1  0.56890000  0.79600000  0.48190000  1.0 -0.1991429765
C  C152  1  0.06890000  0.70400000  0.01810000  1.0 -0.1991429765
C  C153  1  0.63440000  0.92460000  0.87660000  1.0 -0.1075228093
C  C154  1  0.13440000  0.57540000  0.62340000  1.0 -0.1075228093
C  C155  1  0.36560000  0.42460000  0.62340000  1.0 -0.1075228093
C  C156  1  0.86560000  0.07540000  0.87660000  1.0 -0.1075228093
C  C157  1  0.36560000  0.07540000  0.12340000  1.0 -0.1075228093
C  C158  1  0.86560000  0.42460000  0.37660000  1.0 -0.1075228093
C  C159  1  0.63440000  0.57540000  0.37660000  1.0 -0.1075228093
C  C160  1  0.13440000  0.92460000  0.12340000  1.0 -0.1075228093
C  C161  1  0.58420000  0.91760000  0.86280000  1.0 -0.0849121013
C  C162  1  0.08420000  0.58240000  0.63720000  1.0 -0.0849121013
C  C163  1  0.41580000  0.41760000  0.63720000  1.0 -0.0849121013
C  C164  1  0.91580000  0.08240000  0.86280000  1.0 -0.0849121013
C  C165  1  0.41580000  0.08240000  0.13720000  1.0 -0.0849121013
C  C166  1  0.91580000  0.41760000  0.36280000  1.0 -0.0849121013
C  C167  1  0.58420000  0.58240000  0.36280000  1.0 -0.0849121013
C  C168  1  0.08420000  0.91760000  0.13720000  1.0 -0.0849121013
C  C169  1  0.30320000  0.23300000  0.97990000  1.0 -0.1991429765
C  C170  1  0.80320000  0.26700000  0.52010000  1.0 -0.1991429765
C  C171  1  0.69680000  0.73300000  0.52010000  1.0 -0.1991429765
C  C172  1  0.19680000  0.76700000  0.97990000  1.0 -0.1991429765
C  C173  1  0.69680000  0.76700000  0.02010000  1.0 -0.1991429765
C  C174  1  0.19680000  0.73300000  0.47990000  1.0 -0.1991429765
C  C175  1  0.30320000  0.26700000  0.47990000  1.0 -0.1991429765
C  C176  1  0.80320000  0.23300000  0.02010000  1.0 -0.1991429765
C  C177  1  0.32880000  0.33810000  0.75730000  1.0 -0.0397157811
C  C178  1  0.82880000  0.16190000  0.74270000  1.0 -0.0397157811
C  C179  1  0.67120000  0.83810000  0.74270000  1.0 -0.0397157811
C  C180  1  0.17120000  0.66190000  0.75730000  1.0 -0.0397157811
C  C181  1  0.67120000  0.66190000  0.24270000  1.0 -0.0397157811
C  C182  1  0.17120000  0.83810000  0.25730000  1.0 -0.0397157811
C  C183  1  0.32880000  0.16190000  0.25730000  1.0 -0.0397157811
C  C184  1  0.82880000  0.33810000  0.24270000  1.0 -0.0397157811
C  C185  1  0.71850000  0.94340000  0.03740000  1.0 -0.1991429765
C  C186  1  0.21850000  0.55660000  0.46260000  1.0 -0.1991429765
C  C187  1  0.28150000  0.44340000  0.46260000  1.0 -0.1991429765
C  C188  1  0.78150000  0.05660000  0.03740000  1.0 -0.1991429765
C  C189  1  0.28150000  0.05660000  0.96260000  1.0 -0.1991429765
C  C190  1  0.78150000  0.44340000  0.53740000  1.0 -0.1991429765
C  C191  1  0.71850000  0.55660000  0.53740000  1.0 -0.1991429765
C  C192  1  0.21850000  0.94340000  0.96260000  1.0 -0.1991429765
C  C193  1  0.44840000  0.79180000  0.89100000  1.0 -0.0477947687
C  C194  1  0.94840000  0.70820000  0.60900000  1.0 -0.0477947687
C  C195  1  0.55160000  0.29180000  0.60900000  1.0 -0.0477947687
C  C196  1  0.05160000  0.20820000  0.89100000  1.0 -0.0477947687
C  C197  1  0.55160000  0.20820000  0.10900000  1.0 -0.0477947687
C  C198  1  0.05160000  0.29180000  0.39100000  1.0 -0.0477947687
C  C199  1  0.44840000  0.70820000  0.39100000  1.0 -0.0477947687
C  C200  1  0.94840000  0.79180000  0.10900000  1.0 -0.0477947687
C  C201  1  0.32860000  0.20640000  0.08160000  1.0 -0.1450044741
C  C202  1  0.82860000  0.29360000  0.41840000  1.0 -0.1427072789
C  C203  1  0.67140000  0.70640000  0.41840000  1.0 -0.1450044741
C  C204  1  0.17140000  0.79360000  0.08160000  1.0 -0.1450044741
C  C205  1  0.67140000  0.79360000  0.91840000  1.0 -0.1450044741
C  C206  1  0.17140000  0.70640000  0.58160000  1.0 -0.1450044741
C  C207  1  0.32860000  0.29360000  0.58160000  1.0 -0.1450044741
C  C208  1  0.82860000  0.20640000  0.91840000  1.0 -0.1450044741
C  C209  1  0.76430000  0.92000000  0.02340000  1.0 0.1397609147
C  C210  1  0.26430000  0.58000000  0.47660000  1.0 0.1397609147
C  C211  1  0.23570000  0.42000000  0.47660000  1.0 0.1397609147
C  C212  1  0.73570000  0.08000000  0.02340000  1.0 0.1397609147
C  C213  1  0.23570000  0.08000000  0.97660000  1.0 0.1397609147
C  C214  1  0.73570000  0.42000000  0.52340000  1.0 0.1397609147
C  C215  1  0.76430000  0.58000000  0.52340000  1.0 0.1397609147
C  C216  1  0.26430000  0.92000000  0.97660000  1.0 0.1397609147
C  C217  1  0.26660000  0.45260000  0.73310000  1.0 0.1101548751
C  C218  1  0.76660000  0.04740000  0.76690000  1.0 0.1101548751
C  C219  1  0.73340000  0.95260000  0.76690000  1.0 0.119185695
C  C220  1  0.23340000  0.54740000  0.73310000  1.0 0.1101548751
C  C221  1  0.73340000  0.54740000  0.26690000  1.0 0.1101548751
C  C222  1  0.23340000  0.95260000  0.23310000  1.0 0.1101548751
C  C223  1  0.26660000  0.04740000  0.23310000  1.0 0.1101548751
C  C224  1  0.76660000  0.45260000  0.26690000  1.0 0.1101548751
C  C225  1  0.25360000  0.13900000  0.70380000  1.0 0.080600504
C  C226  1  0.75360000  0.36100000  0.79620000  1.0 0.080600504
C  C227  1  0.74640000  0.63900000  0.79620000  1.0 0.080600504
C  C228  1  0.24640000  0.86100000  0.70380000  1.0 0.080600504
C  C229  1  0.74640000  0.86100000  0.29620000  1.0 0.080600504
C  C230  1  0.24640000  0.63900000  0.20380000  1.0 0.080600504
C  C231  1  0.25360000  0.36100000  0.20380000  1.0 0.080600504
C  C232  1  0.75360000  0.13900000  0.29620000  1.0 0.080600504
C  C233  1  0.51770000  0.80010000  0.93510000  1.0 0.080600504
C  C234  1  0.01770000  0.69990000  0.56490000  1.0 0.080600504
C  C235  1  0.48230000  0.30010000  0.56490000  1.0 0.080600504
C  C236  1  0.98230000  0.19990000  0.93510000  1.0 0.080600504
C  C237  1  0.48230000  0.19990000  0.06490000  1.0 0.080600504
C  C238  1  0.98230000  0.30010000  0.43510000  1.0 0.080600504
C  C239  1  0.51770000  0.69990000  0.43510000  1.0 0.080600504
C  C240  1  0.01770000  0.80010000  0.06490000  1.0 0.080600504
C  C241  1  0.30270000  0.48920000  0.73210000  1.0 -0.1908903065
C  C242  1  0.80270000  0.01080000  0.76790000  1.0 -0.1908903065
C  C243  1  0.69730000  0.98920000  0.76790000  1.0 -0.1908903065
C  C244  1  0.19730000  0.51080000  0.73210000  1.0 -0.1908903065
C  C245  1  0.69730000  0.51080000  0.26790000  1.0 -0.1908903065
C  C246  1  0.19730000  0.98920000  0.23210000  1.0 -0.1908903065
C  C247  1  0.30270000  0.01080000  0.23210000  1.0 -0.1908903065
C  C248  1  0.80270000  0.48920000  0.26790000  1.0 -0.1908903065
C  C249  1  0.25610000  0.24310000  0.10400000  1.0 0.1003112643
C  C250  1  0.75610000  0.25690000  0.39600000  1.0 0.1003112643
C  C251  1  0.74390000  0.74310000  0.39600000  1.0 0.1003112643
C  C252  1  0.24390000  0.75690000  0.10400000  1.0 0.1003112643
C  C253  1  0.74390000  0.75690000  0.89600000  1.0 0.1003112643
C  C254  1  0.24390000  0.74310000  0.60400000  1.0 0.1003112643
C  C255  1  0.25610000  0.25690000  0.60400000  1.0 0.1003112643
C  C256  1  0.75610000  0.24310000  0.89600000  1.0 0.1003112643
C  C257  1  0.21360000  0.22280000  0.00220000  1.0 -0.1787059293
C  C258  1  0.71360000  0.27720000  0.49780000  1.0 -0.1787059293
C  C259  1  0.78640000  0.72280000  0.49780000  1.0 -0.1787059293
C  C260  1  0.28640000  0.77720000  0.00220000  1.0 -0.1787059293
C  C261  1  0.78640000  0.77720000  0.99780000  1.0 -0.1787059293
C  C262  1  0.28640000  0.72280000  0.50220000  1.0 -0.1787059293
C  C263  1  0.21360000  0.27720000  0.50220000  1.0 -0.1787059293
C  C264  1  0.71360000  0.22280000  0.99780000  1.0 -0.1787059293
C  C265  1  0.76990000  0.90210000  0.97520000  1.0 -0.2187138652
C  C266  1  0.26990000  0.59790000  0.52480000  1.0 -0.2187138652
C  C267  1  0.23010000  0.40210000  0.52480000  1.0 -0.2187138652
C  C268  1  0.73010000  0.09790000  0.97520000  1.0 -0.2187138652
C  C269  1  0.23010000  0.09790000  0.02480000  1.0 -0.2187138652
C  C270  1  0.73010000  0.40210000  0.47520000  1.0 -0.2187138652
C  C271  1  0.76990000  0.59790000  0.47520000  1.0 -0.2187138652
C  C272  1  0.26990000  0.90210000  0.02480000  1.0 -0.2187138652
C  C273  1  0.28890000  0.23650000  0.93100000  1.0 -0.1991429765
C  C274  1  0.78890000  0.26350000  0.56900000  1.0 -0.1991429765
C  C275  1  0.71110000  0.73650000  0.56900000  1.0 -0.1991429765
C  C276  1  0.21110000  0.76350000  0.93100000  1.0 -0.1991429765
C  C277  1  0.71110000  0.76350000  0.06900000  1.0 -0.1991429765
C  C278  1  0.21110000  0.73650000  0.43100000  1.0 -0.1991429765
C  C279  1  0.28890000  0.26350000  0.43100000  1.0 -0.1991429765
C  C280  1  0.78890000  0.23650000  0.06900000  1.0 -0.1991429765
C  C281  1  0.68080000  0.92850000  0.95830000  1.0 0.1301483606
C  C282  1  0.18080000  0.57150000  0.54170000  1.0 0.1301483606
C  C283  1  0.31920000  0.42850000  0.54170000  1.0 0.1301483606
C  C284  1  0.81920000  0.07150000  0.95830000  1.0 0.1301483606
C  C285  1  0.31920000  0.07150000  0.04170000  1.0 0.1301483606
C  C286  1  0.81920000  0.42850000  0.45830000  1.0 0.1301483606
C  C287  1  0.68080000  0.57150000  0.45830000  1.0 0.1301483606
C  C288  1  0.18080000  0.92850000  0.04170000  1.0 0.1301483606
C  C289  1  0.58450000  0.92340000  0.94100000  1.0 0.0912328013
C  C290  1  0.08450000  0.57660000  0.55900000  1.0 0.0912328013
C  C291  1  0.41550000  0.42340000  0.55900000  1.0 0.0912328013
C  C292  1  0.91550000  0.07660000  0.94100000  1.0 0.0912328013
C  C293  1  0.41550000  0.07660000  0.05900000  1.0 0.0912328013
C  C294  1  0.91550000  0.42340000  0.44100000  1.0 0.0912328013
C  C295  1  0.58450000  0.57660000  0.44100000  1.0 0.0912328013
C  C296  1  0.08450000  0.92340000  0.05900000  1.0 0.0912328013
C  C297  1  0.80070000  0.90340000  0.10520000  1.0 -0.1166215976
C  C298  1  0.30070000  0.59660000  0.39480000  1.0 -0.1166215976
C  C299  1  0.19930000  0.40340000  0.39480000  1.0 -0.1166215976
C  C300  1  0.69930000  0.09660000  0.10520000  1.0 -0.1166215976
C  C301  1  0.19930000  0.09660000  0.89480000  1.0 -0.1166215976
C  C302  1  0.69930000  0.40340000  0.60520000  1.0 -0.1166215976
C  C303  1  0.80070000  0.59660000  0.60520000  1.0 -0.1166215976
C  C304  1  0.30070000  0.90340000  0.89480000  1.0 -0.1166215976
C  C305  1  0.25150000  0.23130000  0.82930000  1.0 0.1101548751
C  C306  1  0.75150000  0.26870000  0.67070000  1.0 0.1101548751
C  C307  1  0.74850000  0.73130000  0.67070000  1.0 0.1101548751
C  C308  1  0.24850000  0.76870000  0.82930000  1.0 0.1101548751
C  C309  1  0.74850000  0.76870000  0.17070000  1.0 0.1101548751
C  C310  1  0.24850000  0.73130000  0.32930000  1.0 0.1101548751
C  C311  1  0.25150000  0.26870000  0.32930000  1.0 0.1101548751
C  C312  1  0.75150000  0.23130000  0.17070000  1.0 0.1101548751
C  C313  1  0.26490000  0.22830000  0.01410000  1.0 0.119185695
C  C314  1  0.76490000  0.27170000  0.48590000  1.0 0.119185695
C  C315  1  0.73510000  0.72830000  0.48590000  1.0 0.119185695
C  C316  1  0.23510000  0.77170000  0.01410000  1.0 0.119185695
C  C317  1  0.73510000  0.77170000  0.98590000  1.0 0.119185695
C  C318  1  0.23510000  0.72830000  0.51410000  1.0 0.119185695
C  C319  1  0.26490000  0.27170000  0.51410000  1.0 0.119185695
C  C320  1  0.76490000  0.22830000  0.98590000  1.0 0.119185695
C  C321  1  0.26040000  0.36290000  0.72120000  1.0 0.1003112643
C  C322  1  0.76040000  0.13710000  0.77880000  1.0 0.1003112643
C  C323  1  0.73960000  0.86290000  0.77880000  1.0 0.1003112643
C  C324  1  0.23960000  0.63710000  0.72120000  1.0 0.1003112643
C  C325  1  0.73960000  0.63710000  0.27880000  1.0 0.1003112643
C  C326  1  0.23960000  0.86290000  0.22120000  1.0 0.1003112643
C  C327  1  0.26040000  0.13710000  0.22120000  1.0 0.1003112643
C  C328  1  0.76040000  0.36290000  0.27880000  1.0 0.1003112643
C  C329  1  0.23670000  0.23410000  0.91810000  1.0 0.1397609147
C  C330  1  0.73670000  0.26590000  0.58190000  1.0 0.1397609147
C  C331  1  0.76330000  0.73410000  0.58190000  1.0 0.1397609147
C  C332  1  0.26330000  0.76590000  0.91810000  1.0 0.1397609147
C  C333  1  0.76330000  0.76590000  0.08190000  1.0 0.1397609147
C  C334  1  0.26330000  0.73410000  0.41810000  1.0 0.1397609147
C  C335  1  0.23670000  0.26590000  0.41810000  1.0 0.1397609147
C  C336  1  0.73670000  0.23410000  0.08190000  1.0 0.1397609147
C  C337  1  0.23570000  0.04800000  0.70020000  1.0 0.1101548751
C  C338  1  0.73570000  0.45200000  0.79980000  1.0 0.1101548751
C  C339  1  0.76430000  0.54800000  0.79980000  1.0 0.1101548751
C  C340  1  0.26430000  0.95200000  0.70020000  1.0 0.1101548751
C  C341  1  0.76430000  0.95200000  0.29980000  1.0 0.1101548751
C  C342  1  0.26430000  0.54800000  0.20020000  1.0 0.1101548751
C  C343  1  0.23570000  0.45200000  0.20020000  1.0 0.1101548751
C  C344  1  0.73570000  0.04800000  0.29980000  1.0 0.1101548751
C  C345  1  0.32900000  0.21350000  0.13050000  1.0 -0.0577162648
C  C346  1  0.82900000  0.28650000  0.36950000  1.0 -0.0577162648
C  C347  1  0.67100000  0.71350000  0.36950000  1.0 -0.0577162648
C  C348  1  0.17100000  0.78650000  0.13050000  1.0 -0.0577162648
C  C349  1  0.67100000  0.78650000  0.86950000  1.0 -0.0577162648
C  C350  1  0.17100000  0.71350000  0.63050000  1.0 -0.0577162648
C  C351  1  0.32900000  0.28650000  0.63050000  1.0 -0.0577162648
C  C352  1  0.82900000  0.21350000  0.86950000  1.0 -0.0577162648
C  C353  1  0.67610000  0.94730000  0.00430000  1.0 -0.2088766084
C  C354  1  0.17610000  0.55270000  0.49570000  1.0 -0.2088766084
C  C355  1  0.32390000  0.44730000  0.49570000  1.0 -0.2088766084
C  C356  1  0.82390000  0.05270000  0.00430000  1.0 -0.2088766084
C  C357  1  0.32390000  0.05270000  0.99570000  1.0 -0.2088766084
C  C358  1  0.82390000  0.44730000  0.50430000  1.0 -0.2088766084
C  C359  1  0.67610000  0.55270000  0.50430000  1.0 -0.2088766084
C  C360  1  0.17610000  0.94730000  0.99570000  1.0 -0.2088766084
C  C361  1  0.85890000  0.90990000  0.04690000  1.0 0.1003112643
C  C362  1  0.35890000  0.59010000  0.45310000  1.0 0.1003112643
C  C363  1  0.14110000  0.40990000  0.45310000  1.0 0.1003112643
C  C364  1  0.64110000  0.09010000  0.04690000  1.0 0.1003112643
C  C365  1  0.14110000  0.09010000  0.95310000  1.0 0.1003112643
C  C366  1  0.64110000  0.40990000  0.54690000  1.0 0.1003112643
C  C367  1  0.85890000  0.59010000  0.54690000  1.0 0.1003112643
C  C368  1  0.35890000  0.90990000  0.95310000  1.0 0.1003112643
C  C369  1  0.55390000  0.71470000  0.93480000  1.0 0.1301483606
C  C370  1  0.05390000  0.78530000  0.56520000  1.0 0.1301483606
C  C371  1  0.44610000  0.21470000  0.56520000  1.0 0.1301483606
C  C372  1  0.94610000  0.28530000  0.93480000  1.0 0.1301483606
C  C373  1  0.44610000  0.28530000  0.06520000  1.0 0.1301483606
C  C374  1  0.94610000  0.21470000  0.43480000  1.0 0.1301483606
C  C375  1  0.55390000  0.78530000  0.43480000  1.0 0.1301483606
C  C376  1  0.05390000  0.71470000  0.06520000  1.0 0.1301483606
C  C377  1  0.72770000  0.90650000  0.94330000  1.0 -0.1908903065
C  C378  1  0.22770000  0.59350000  0.55670000  1.0 -0.1908903065
C  C379  1  0.27230000  0.40650000  0.55670000  1.0 -0.1908903065
C  C380  1  0.77230000  0.09350000  0.94330000  1.0 -0.1908903065
C  C381  1  0.27230000  0.09350000  0.05670000  1.0 -0.1908903065
C  C382  1  0.77230000  0.40650000  0.44330000  1.0 -0.1908903065
C  C383  1  0.72770000  0.59350000  0.44330000  1.0 -0.1908903065
C  C384  1  0.22770000  0.90650000  0.05670000  1.0 -0.1908903065
N  N1  1  0.71840000  0.54990000  0.99610000  1.0 -0.2702488681
N  N2  1  0.21840000  0.95010000  0.50390000  1.0 -0.2702488681
N  N3  1  0.28160000  0.04990000  0.50390000  1.0 -0.2702488681
N  N4  1  0.78160000  0.45010000  0.99610000  1.0 -0.2702488681
N  N5  1  0.28160000  0.45010000  0.00390000  1.0 -0.2702488681
N  N6  1  0.78160000  0.04990000  0.49610000  1.0 -0.2702488681
N  N7  1  0.71840000  0.95010000  0.49610000  1.0 -0.2702488681
N  N8  1  0.21840000  0.54990000  0.00390000  1.0 -0.2702488681
N  N9  1  0.51530000  0.75190000  0.92450000  1.0 -0.0112629926
N  N10  1  0.01530000  0.74810000  0.57550000  1.0 -0.0112629926
N  N11  1  0.48470000  0.25190000  0.57550000  1.0 -0.0112629926
N  N12  1  0.98470000  0.24810000  0.92450000  1.0 -0.0112629926
N  N13  1  0.48470000  0.24810000  0.07550000  1.0 -0.0112629926
N  N14  1  0.98470000  0.25190000  0.42450000  1.0 -0.0112629926
N  N15  1  0.51530000  0.74810000  0.42450000  1.0 -0.0112629926
N  N16  1  0.01530000  0.75190000  0.07550000  1.0 -0.0112629926
N  N17  1  0.28460000  0.32280000  0.73300000  1.0 -0.2914809093
N  N18  1  0.78460000  0.17720000  0.76700000  1.0 -0.2914809093
N  N19  1  0.71540000  0.82280000  0.76700000  1.0 -0.2914809093
N  N20  1  0.21540000  0.67720000  0.73300000  1.0 -0.2914809093
N  N21  1  0.71540000  0.67720000  0.26700000  1.0 -0.2914809093
N  N22  1  0.21540000  0.82280000  0.23300000  1.0 -0.2914809093
N  N23  1  0.28460000  0.17720000  0.23300000  1.0 -0.2914809093
N  N24  1  0.78460000  0.32280000  0.26700000  1.0 -0.2914809093
N  N25  1  0.67650000  0.61220000  0.96090000  1.0 -0.0276104612
N  N26  1  0.17650000  0.88780000  0.53910000  1.0 -0.0276104612
N  N27  1  0.32350000  0.11220000  0.53910000  1.0 -0.0276104612
N  N28  1  0.82350000  0.38780000  0.96090000  1.0 -0.0276104612
N  N29  1  0.32350000  0.38780000  0.03910000  1.0 -0.0207473241
N  N30  1  0.82350000  0.11220000  0.46090000  1.0 -0.0276104612
N  N31  1  0.67650000  0.88780000  0.46090000  1.0 -0.0276104612
N  N32  1  0.17650000  0.61220000  0.03910000  1.0 -0.0207473241
N  N33  1  0.28610000  0.40330000  0.73750000  1.0 -0.0112629926
N  N34  1  0.78610000  0.09670000  0.76250000  1.0 -0.0112629926
N  N35  1  0.71390000  0.90330000  0.76250000  1.0 -0.0112629926
N  N36  1  0.21390000  0.59670000  0.73750000  1.0 -0.0112629926
N  N37  1  0.71390000  0.59670000  0.26250000  1.0 -0.0112629926
N  N38  1  0.21390000  0.90330000  0.23750000  1.0 -0.0112629926
N  N39  1  0.28610000  0.09670000  0.23750000  1.0 -0.0112629926
N  N40  1  0.78610000  0.40330000  0.26250000  1.0 -0.0112629926
N  N41  1  0.80620000  0.91200000  0.05720000  1.0 -0.0112629926
N  N42  1  0.30620000  0.58800000  0.44280000  1.0 -0.0112629926
N  N43  1  0.19380000  0.41200000  0.44280000  1.0 -0.0112629926
N  N44  1  0.69380000  0.08800000  0.05720000  1.0 -0.0112629926
N  N45  1  0.19380000  0.08800000  0.94280000  1.0 -0.0112629926
N  N46  1  0.69380000  0.41200000  0.55720000  1.0 -0.0112629926
N  N47  1  0.80620000  0.58800000  0.55720000  1.0 -0.0112629926
N  N48  1  0.30620000  0.91200000  0.94280000  1.0 -0.0112629926
N  N49  1  0.47830000  0.82420000  0.91540000  1.0 -0.2914809093
N  N50  1  0.97830000  0.67580000  0.58460000  1.0 -0.2914809093
N  N51  1  0.52170000  0.32420000  0.58460000  1.0 -0.2914809093
N  N52  1  0.02170000  0.17580000  0.91540000  1.0 -0.2914809093
N  N53  1  0.52170000  0.17580000  0.08460000  1.0 -0.2914809093
N  N54  1  0.02170000  0.32420000  0.41540000  1.0 -0.2914809093
N  N55  1  0.47830000  0.67580000  0.41540000  1.0 -0.2914809093
N  N56  1  0.97830000  0.82420000  0.08460000  1.0 -0.2914809093
N  N57  1  0.28190000  0.22570000  0.06490000  1.0 -0.0207473241
N  N58  1  0.78190000  0.27430000  0.43510000  1.0 -0.0207473241
N  N59  1  0.71810000  0.72570000  0.43510000  1.0 -0.0207473241
N  N60  1  0.21810000  0.77430000  0.06490000  1.0 -0.0207473241
N  N61  1  0.71810000  0.77430000  0.93510000  1.0 -0.0207473241
N  N62  1  0.21810000  0.72570000  0.56490000  1.0 -0.0207473241
N  N63  1  0.28190000  0.27430000  0.56490000  1.0 -0.0207473241
N  N64  1  0.78190000  0.22570000  0.93510000  1.0 -0.0207473241
N  N65  1  0.22860000  0.24470000  0.78890000  1.0 -0.2979321149
N  N66  1  0.72860000  0.25530000  0.71110000  1.0 -0.2979321149
N  N67  1  0.77140000  0.74470000  0.71110000  1.0 -0.2979321149
N  N68  1  0.27140000  0.75530000  0.78890000  1.0 -0.2979321149
N  N69  1  0.77140000  0.75530000  0.21110000  1.0 -0.2979321149
N  N70  1  0.27140000  0.74470000  0.28890000  1.0 -0.2979321149
N  N71  1  0.22860000  0.25530000  0.28890000  1.0 -0.2979321149
N  N72  1  0.72860000  0.24470000  0.21110000  1.0 -0.2979321149
N  N73  1  0.22170000  0.23980000  0.86820000  1.0 -0.0112629926
N  N74  1  0.72170000  0.26020000  0.63180000  1.0 -0.0112629926
N  N75  1  0.77830000  0.73980000  0.63180000  1.0 -0.0112629926
N  N76  1  0.27830000  0.76020000  0.86820000  1.0 -0.0112629926
N  N77  1  0.77830000  0.76020000  0.13180000  1.0 -0.0112629926
N  N78  1  0.27830000  0.73980000  0.36820000  1.0 -0.0112629926
N  N79  1  0.22170000  0.26020000  0.36820000  1.0 -0.0112629926
N  N80  1  0.72170000  0.23980000  0.13180000  1.0 -0.0112629926
N  N81  1  0.22800000  0.18030000  0.70280000  1.0 -0.2777406094
N  N82  1  0.72800000  0.31970000  0.79720000  1.0 -0.2777406094
N  N83  1  0.77200000  0.68030000  0.79720000  1.0 -0.2777406094
N  N84  1  0.27200000  0.81970000  0.70280000  1.0 -0.2777406094
N  N85  1  0.77200000  0.81970000  0.29720000  1.0 -0.2777406094
N  N86  1  0.27200000  0.68030000  0.20280000  1.0 -0.2777406094
N  N87  1  0.22800000  0.31970000  0.20280000  1.0 -0.2777406094
N  N88  1  0.72800000  0.18030000  0.29720000  1.0 -0.2777406094
N  N89  1  0.63650000  0.92850000  0.92610000  1.0 -0.0112629926
N  N90  1  0.13650000  0.57150000  0.57390000  1.0 -0.0112629926
N  N91  1  0.36350000  0.42850000  0.57390000  1.0 -0.0112629926
N  N92  1  0.86350000  0.07150000  0.92610000  1.0 -0.0112629926
N  N93  1  0.36350000  0.07150000  0.07390000  1.0 -0.0112629926
N  N94  1  0.86350000  0.42850000  0.42610000  1.0 -0.0112629926
N  N95  1  0.63650000  0.57150000  0.42610000  1.0 -0.0112629926
N  N96  1  0.13650000  0.92850000  0.07390000  1.0 -0.0112629926
N  N97  1  0.22250000  0.09930000  0.69950000  1.0 -0.0112629926
N  N98  1  0.72250000  0.40070000  0.80050000  1.0 -0.0112629926
N  N99  1  0.77750000  0.59930000  0.80050000  1.0 -0.0112629926
N  N100  1  0.27750000  0.90070000  0.69950000  1.0 -0.0112629926
N  N101  1  0.77750000  0.90070000  0.30050000  1.0 -0.0112629926
N  N102  1  0.27750000  0.59930000  0.19950000  1.0 -0.0112629926
N  N103  1  0.22250000  0.40070000  0.19950000  1.0 -0.0112629926
N  N104  1  0.72250000  0.09930000  0.30050000  1.0 -0.0112629926
N  N105  1  0.88690000  0.90150000  0.08580000  1.0 -0.2914809093
N  N106  1  0.38690000  0.59850000  0.41420000  1.0 -0.2914809093
N  N107  1  0.11310000  0.40150000  0.41420000  1.0 -0.2914809093
N  N108  1  0.61310000  0.09850000  0.08580000  1.0 -0.2914809093
N  N109  1  0.11310000  0.09850000  0.91420000  1.0 -0.2914809093
N  N110  1  0.61310000  0.40150000  0.58580000  1.0 -0.2914809093
N  N111  1  0.88690000  0.59850000  0.58580000  1.0 -0.2914809093
N  N112  1  0.38690000  0.90150000  0.91420000  1.0 -0.2914809093
N  N113  1  0.28280000  0.23710000  0.14430000  1.0 -0.2979321149
N  N114  1  0.78280000  0.26290000  0.35570000  1.0 -0.2979321149
N  N115  1  0.71720000  0.73710000  0.35570000  1.0 -0.2979321149
N  N116  1  0.21720000  0.76290000  0.14430000  1.0 -0.2979321149
N  N117  1  0.71720000  0.76290000  0.85570000  1.0 -0.2979321149
N  N118  1  0.21720000  0.73710000  0.64430000  1.0 -0.2979321149
N  N119  1  0.28280000  0.26290000  0.64430000  1.0 -0.2979321149
N  N120  1  0.78280000  0.23710000  0.85570000  1.0 -0.2979321149
N  N121  1  0.55220000  0.91640000  0.90530000  1.0 -0.2979321149
N  N122  1  0.05220000  0.58360000  0.59470000  1.0 -0.2979321149
N  N123  1  0.44780000  0.41640000  0.59470000  1.0 -0.2979321149
N  N124  1  0.94780000  0.08360000  0.90530000  1.0 -0.2979321149
N  N125  1  0.44780000  0.08360000  0.09470000  1.0 -0.2979321149
N  N126  1  0.94780000  0.41640000  0.40530000  1.0 -0.2979321149
N  N127  1  0.55220000  0.58360000  0.40530000  1.0 -0.2979321149
N  N128  1  0.05220000  0.91640000  0.09470000  1.0 -0.2979321149
O  O1  1  0.54650000  0.15270000  0.84850000  1.0 -0.9880012329
O  O2  1  0.04650000  0.34730000  0.65150000  1.0 -0.9880012329
O  O3  1  0.45350000  0.65270000  0.65150000  1.0 -0.9880012329
O  O4  1  0.95350000  0.84730000  0.84850000  1.0 -0.9880012329
O  O5  1  0.45350000  0.84730000  0.15150000  1.0 -0.9880012329
O  O6  1  0.95350000  0.65270000  0.34850000  1.0 -0.9880012329
O  O7  1  0.54650000  0.34730000  0.34850000  1.0 -0.9880012329
O  O8  1  0.04650000  0.15270000  0.15150000  1.0 -0.9880012329
O  O9  1  0.46400000  0.98040000  0.91390000  1.0 -0.7307016928
O  O10  1  0.96400000  0.51960000  0.58610000  1.0 -0.7307016928
O  O11  1  0.53600000  0.48040000  0.58610000  1.0 -0.7307016928
O  O12  1  0.03600000  0.01960000  0.91390000  1.0 -0.7307016928
O  O13  1  0.53600000  0.01960000  0.08610000  1.0 -0.7307016928
O  O14  1  0.03600000  0.48040000  0.41390000  1.0 -0.7307016928
O  O15  1  0.46400000  0.51960000  0.41390000  1.0 -0.7307016928
O  O16  1  0.96400000  0.98040000  0.08610000  1.0 -0.7307016928
O  O17  1  0.33530000  0.22590000  0.73260000  1.0 -0.7615514365
O  O18  1  0.83530000  0.27410000  0.76740000  1.0 -0.7615514365
O  O19  1  0.66470000  0.72590000  0.76740000  1.0 -0.7615514365
O  O20  1  0.16470000  0.77410000  0.73260000  1.0 -0.7615514365
O  O21  1  0.66470000  0.77410000  0.26740000  1.0 -0.7615514365
O  O22  1  0.16470000  0.72590000  0.23260000  1.0 -0.7615514365
O  O23  1  0.33530000  0.27410000  0.23260000  1.0 -0.7615514365
O  O24  1  0.83530000  0.22590000  0.26740000  1.0 -0.7615514365
O  O25  1  0.47090000  0.19460000  0.80650000  1.0 -0.9880012329
O  O26  1  0.97090000  0.30540000  0.69350000  1.0 -0.9880012329
O  O27  1  0.52910000  0.69460000  0.69350000  1.0 -0.9880012329
O  O28  1  0.02910000  0.80540000  0.80650000  1.0 -0.9880012329
O  O29  1  0.52910000  0.80540000  0.19350000  1.0 -0.9880012329
O  O30  1  0.02910000  0.69460000  0.30650000  1.0 -0.9880012329
O  O31  1  0.47090000  0.30540000  0.30650000  1.0 -0.9880012329
O  O32  1  0.97090000  0.19460000  0.19350000  1.0 -0.9880012329
O  O33  1  0.36080000  0.12420000  0.89340000  1.0 -0.9184416239
O  O34  1  0.86080000  0.37580000  0.60660000  1.0 -0.9184416239
O  O35  1  0.63920000  0.62420000  0.60660000  1.0 -0.9184416239
O  O36  1  0.13920000  0.87580000  0.89340000  1.0 -0.9184416239
O  O37  1  0.63920000  0.87580000  0.10660000  1.0 -0.9184416239
O  O38  1  0.13920000  0.62420000  0.39340000  1.0 -0.9184416239
O  O39  1  0.36080000  0.37580000  0.39340000  1.0 -0.9184416239
O  O40  1  0.86080000  0.12420000  0.10660000  1.0 -0.9184416239
O  O41  1  0.41540000  0.15610000  0.72260000  1.0 -0.9308593452
O  O42  1  0.91540000  0.34390000  0.77740000  1.0 -0.9308593452
O  O43  1  0.58460000  0.65610000  0.77740000  1.0 -0.9308593452
O  O44  1  0.08460000  0.84390000  0.72260000  1.0 -0.9308593452
O  O45  1  0.58460000  0.84390000  0.27740000  1.0 -0.9308593452
O  O46  1  0.08460000  0.65610000  0.22260000  1.0 -0.9308593452
O  O47  1  0.41540000  0.34390000  0.22260000  1.0 -0.9308593452
O  O48  1  0.91540000  0.15610000  0.27740000  1.0 -0.9308593452
O  O49  1  0.51040000  0.24240000  0.89610000  1.0 -0.9824070567
O  O50  1  0.01040000  0.25760000  0.60390000  1.0 -0.9824070567
O  O51  1  0.48960000  0.74240000  0.60390000  1.0 -0.9824070567
O  O52  1  0.98960000  0.75760000  0.89610000  1.0 -0.9824070567
O  O53  1  0.48960000  0.75760000  0.10390000  1.0 -0.9824070567
O  O54  1  0.98960000  0.74240000  0.39610000  1.0 -0.9824070567
O  O55  1  0.51040000  0.25760000  0.39610000  1.0 -0.9824070567
O  O56  1  0.01040000  0.24240000  0.10390000  1.0 -0.9824070567
O  O57  1  0.53510000  0.05920000  0.90200000  1.0 -0.9184416239
O  O58  1  0.03510000  0.44080000  0.59800000  1.0 -0.9184416239
O  O59  1  0.46490000  0.55920000  0.59800000  1.0 -0.9184416239
O  O60  1  0.96490000  0.94080000  0.90200000  1.0 -0.9184416239
O  O61  1  0.46490000  0.94080000  0.09800000  1.0 -0.9184416239
O  O62  1  0.96490000  0.55920000  0.40200000  1.0 -0.9184416239
O  O63  1  0.53510000  0.44080000  0.40200000  1.0 -0.9184416239
O  O64  1  0.03510000  0.05920000  0.09800000  1.0 -0.9184416239
O  O65  1  0.59390000  0.13540000  0.93240000  1.0 -0.9596670588
O  O66  1  0.09390000  0.36460000  0.56760000  1.0 -0.9596670588
O  O67  1  0.40610000  0.63540000  0.56760000  1.0 -0.9596670588
O  O68  1  0.90610000  0.86460000  0.93240000  1.0 -0.9596670588
O  O69  1  0.40610000  0.86460000  0.06760000  1.0 -0.9596670588
O  O70  1  0.90610000  0.63540000  0.43240000  1.0 -0.9596670588
O  O71  1  0.59390000  0.36460000  0.43240000  1.0 -0.9596670588
O  O72  1  0.09390000  0.13540000  0.06760000  1.0 -0.9596670588
O  O73  1  0.45480000  0.11700000  0.85370000  1.0 -0.9880012329
O  O74  1  0.95480000  0.38300000  0.64630000  1.0 -0.9824070567
O  O75  1  0.54520000  0.61700000  0.64630000  1.0 -0.9824070567
O  O76  1  0.04520000  0.88300000  0.85370000  1.0 -0.9880012329
O  O77  1  0.54520000  0.88300000  0.14630000  1.0 -0.9880012329
O  O78  1  0.04520000  0.61700000  0.35370000  1.0 -0.9880012329
O  O79  1  0.45480000  0.38300000  0.35370000  1.0 -0.9880012329
O  O80  1  0.95480000  0.11700000  0.14630000  1.0 -0.9880012329
O  O81  1  0.58920000  0.05580000  0.82150000  1.0 -0.9492195583
O  O82  1  0.08920000  0.44420000  0.67850000  1.0 -0.9492195583
O  O83  1  0.41080000  0.55580000  0.67850000  1.0 -0.9492195583
O  O84  1  0.91080000  0.94420000  0.82150000  1.0 -0.9492195583
O  O85  1  0.41080000  0.94420000  0.17850000  1.0 -0.9492195583
O  O86  1  0.91080000  0.55580000  0.32150000  1.0 -0.9492195583
O  O87  1  0.58920000  0.44420000  0.32150000  1.0 -0.9492195583
O  O88  1  0.08920000  0.05580000  0.17850000  1.0 -0.9492195583
O  O89  1  0.57930000  0.06960000  0.72450000  1.0 -0.9880012329
O  O90  1  0.07930000  0.43040000  0.77550000  1.0 -0.9880012329
O  O91  1  0.42070000  0.56960000  0.77550000  1.0 -0.9880012329
O  O92  1  0.92070000  0.93040000  0.72450000  1.0 -0.9824070567
O  O93  1  0.42070000  0.93040000  0.27550000  1.0 -0.9824070567
O  O94  1  0.92070000  0.56960000  0.22450000  1.0 -0.9824070567
O  O95  1  0.57930000  0.43040000  0.22450000  1.0 -0.9824070567
O  O96  1  0.07930000  0.06960000  0.27550000  1.0 -0.9824070567
O  O97  1  0.49970000  0.11510000  0.68010000  1.0 -0.9658524622
O  O98  1  0.99970000  0.38490000  0.81990000  1.0 -0.9658524622
O  O99  1  0.50030000  0.61510000  0.81990000  1.0 -0.9658524622
O  O100  1  0.00030000  0.88490000  0.68010000  1.0 -0.9658524622
O  O101  1  0.50030000  0.88490000  0.31990000  1.0 -0.9658524622
O  O102  1  0.00030000  0.61510000  0.18010000  1.0 -0.9658524622
O  O103  1  0.49970000  0.38490000  0.18010000  1.0 -0.9658524622
O  O104  1  0.99970000  0.11510000  0.31990000  1.0 -0.9658524622
O  O105  1  0.39090000  0.25230000  0.81650000  1.0 -0.9492195583
O  O106  1  0.89090000  0.24770000  0.68350000  1.0 -0.9492195583
O  O107  1  0.60910000  0.75230000  0.68350000  1.0 -0.9492195583
O  O108  1  0.10910000  0.74770000  0.81650000  1.0 -0.9492195583
O  O109  1  0.60910000  0.74770000  0.18350000  1.0 -0.9492195583
O  O110  1  0.10910000  0.75230000  0.31650000  1.0 -0.9492195583
O  O111  1  0.39090000  0.24770000  0.31650000  1.0 -0.9492195583
O  O112  1  0.89090000  0.25230000  0.18350000  1.0 -0.9492195583
O  O113  1  0.49290000  0.16170000  0.94340000  1.0 -0.9492195583
O  O114  1  0.99290000  0.33830000  0.55660000  1.0 -0.9492195583
O  O115  1  0.50710000  0.66170000  0.55660000  1.0 -0.9492195583
O  O116  1  0.00710000  0.83830000  0.94340000  1.0 -0.9492195583
O  O117  1  0.50710000  0.83830000  0.05660000  1.0 -0.9492195583
O  O118  1  0.00710000  0.66170000  0.44340000  1.0 -0.9492195583
O  O119  1  0.49290000  0.33830000  0.44340000  1.0 -0.9492195583
O  O120  1  0.99290000  0.16170000  0.05660000  1.0 -0.9492195583
O  O121  1  0.60950000  0.15580000  0.76190000  1.0 -0.9308593452
O  O122  1  0.10950000  0.34420000  0.73810000  1.0 -0.9308593452
O  O123  1  0.39050000  0.65580000  0.73810000  1.0 -0.9308593452
O  O124  1  0.89050000  0.84420000  0.76190000  1.0 -0.9308593452
O  O125  1  0.39050000  0.84420000  0.23810000  1.0 -0.9308593452
O  O126  1  0.89050000  0.65580000  0.26190000  1.0 -0.9308593452
O  O127  1  0.60950000  0.34420000  0.26190000  1.0 -0.9308593452
O  O128  1  0.10950000  0.15580000  0.23810000  1.0 -0.9308593452
O  O129  1  0.57480000  0.23880000  0.79510000  1.0 -0.9308593452
O  O130  1  0.07480000  0.26120000  0.70490000  1.0 -0.9308593452
O  O131  1  0.42520000  0.73880000  0.70490000  1.0 -0.9308593452
O  O132  1  0.92520000  0.76120000  0.79510000  1.0 -0.9308593452
O  O133  1  0.42520000  0.76120000  0.20490000  1.0 -0.9308593452
O  O134  1  0.92520000  0.73880000  0.29510000  1.0 -0.9308593452
O  O135  1  0.57480000  0.26120000  0.29510000  1.0 -0.9308593452
O  O136  1  0.07480000  0.23880000  0.20490000  1.0 -0.9308593452
O  O137  1  0.44350000  0.24990000  0.73380000  1.0 -0.9112190832
O  O138  1  0.94350000  0.25010000  0.76620000  1.0 -0.9112190832
O  O139  1  0.55650000  0.74990000  0.76620000  1.0 -0.9112190832
O  O140  1  0.05650000  0.75010000  0.73380000  1.0 -0.9112190832
O  O141  1  0.55650000  0.75010000  0.26620000  1.0 -0.9112190832
O  O142  1  0.05650000  0.74990000  0.23380000  1.0 -0.9112190832
O  O143  1  0.44350000  0.25010000  0.23380000  1.0 -0.9112190832
O  O144  1  0.94350000  0.24990000  0.26620000  1.0 -0.9112190832
O  O145  1  0.49280000  0.02190000  0.82440000  1.0 -0.9381362194
O  O146  1  0.99280000  0.47810000  0.67560000  1.0 -0.9381362194
O  O147  1  0.50720000  0.52190000  0.67560000  1.0 -0.9381362194
O  O148  1  0.00720000  0.97810000  0.82440000  1.0 -0.9381362194
O  O149  1  0.50720000  0.97810000  0.17560000  1.0 -0.9381362194
O  O150  1  0.00720000  0.52190000  0.32440000  1.0 -0.9308593452
O  O151  1  0.49280000  0.47810000  0.32440000  1.0 -0.9308593452
O  O152  1  0.99280000  0.02190000  0.17560000  1.0 -0.9381362194
O  O153  1  0.61240000  0.21720000  0.88390000  1.0 -0.9308593452
O  O154  1  0.11240000  0.28280000  0.61610000  1.0 -0.9308593452
O  O155  1  0.38760000  0.71720000  0.61610000  1.0 -0.9308593452
O  O156  1  0.88760000  0.78280000  0.88390000  1.0 -0.9308593452
O  O157  1  0.38760000  0.78280000  0.11610000  1.0 -0.9308593452
O  O158  1  0.88760000  0.71720000  0.38390000  1.0 -0.9308593452
O  O159  1  0.61240000  0.28280000  0.38390000  1.0 -0.9308593452
O  O160  1  0.11240000  0.21720000  0.11610000  1.0 -0.9308593452
O  O161  1  0.39580000  0.03870000  0.85960000  1.0 -0.9039928545
O  O162  1  0.89580000  0.46130000  0.64040000  1.0 -0.9039928545
O  O163  1  0.60420000  0.53870000  0.64040000  1.0 -0.9039928545
O  O164  1  0.10420000  0.96130000  0.85960000  1.0 -0.9039928545
O  O165  1  0.60420000  0.96130000  0.14040000  1.0 -0.9039928545
O  O166  1  0.10420000  0.53870000  0.35960000  1.0 -0.9039928545
O  O167  1  0.39580000  0.46130000  0.35960000  1.0 -0.9039928545
O  O168  1  0.89580000  0.03870000  0.14040000  1.0 -0.9039928545
O  O169  1  0.36360000  0.15870000  0.80360000  1.0 -0.9112190832
O  O170  1  0.86360000  0.34130000  0.69640000  1.0 -0.9112190832
O  O171  1  0.63640000  0.65870000  0.69640000  1.0 -0.9112190832
O  O172  1  0.13640000  0.84130000  0.80360000  1.0 -0.9112190832
O  O173  1  0.63640000  0.84130000  0.19640000  1.0 -0.9112190832
O  O174  1  0.13640000  0.65870000  0.30360000  1.0 -0.9112190832
O  O175  1  0.36360000  0.34130000  0.30360000  1.0 -0.9112190832
O  O176  1  0.86360000  0.15870000  0.19640000  1.0 -0.9112190832
O  O177  1  0.48700000  0.28950000  0.81240000  1.0 -0.9824070567
O  O178  1  0.98700000  0.21050000  0.68760000  1.0 -0.9824070567
O  O179  1  0.51300000  0.78950000  0.68760000  1.0 -0.9824070567
O  O180  1  0.01300000  0.71050000  0.81240000  1.0 -0.9824070567
O  O181  1  0.51300000  0.71050000  0.18760000  1.0 -0.9824070567
O  O182  1  0.01300000  0.78950000  0.31240000  1.0 -0.9824070567
O  O183  1  0.48700000  0.21050000  0.31240000  1.0 -0.9824070567
O  O184  1  0.98700000  0.28950000  0.18760000  1.0 -0.9824070567
O  O185  1  0.53320000  0.20110000  0.71720000  1.0 -0.9596670588
O  O186  1  0.03320000  0.29890000  0.78280000  1.0 -0.9596670588
O  O187  1  0.46680000  0.70110000  0.78280000  1.0 -0.9596670588
O  O188  1  0.96680000  0.79890000  0.71720000  1.0 -0.9596670588
O  O189  1  0.46680000  0.79890000  0.28280000  1.0 -0.9596670588
O  O190  1  0.96680000  0.70110000  0.21720000  1.0 -0.9596670588
O  O191  1  0.53320000  0.29890000  0.21720000  1.0 -0.9596670588
O  O192  1  0.03320000  0.20110000  0.28280000  1.0 -0.9596670588
O  O193  1  0.48150000  0.03270000  0.72910000  1.0 -0.9824070567
O  O194  1  0.98150000  0.46730000  0.77090000  1.0 -0.9824070567
O  O195  1  0.51850000  0.53270000  0.77090000  1.0 -0.9824070567
O  O196  1  0.01850000  0.96730000  0.72910000  1.0 -0.9824070567
O  O197  1  0.51850000  0.96730000  0.27090000  1.0 -0.9824070567
O  O198  1  0.01850000  0.53270000  0.22910000  1.0 -0.9824070567
O  O199  1  0.48150000  0.46730000  0.22910000  1.0 -0.9824070567
O  O200  1  0.98150000  0.03270000  0.27090000  1.0 -0.9824070567
O  O201  1  0.43910000  0.07790000  0.93810000  1.0 -0.9308593452
O  O202  1  0.93910000  0.42210000  0.56190000  1.0 -0.9308593452
O  O203  1  0.56090000  0.57790000  0.56190000  1.0 -0.9308593452
O  O204  1  0.06090000  0.92210000  0.93810000  1.0 -0.9308593452
O  O205  1  0.56090000  0.92210000  0.06190000  1.0 -0.9308593452
O  O206  1  0.06090000  0.57790000  0.43810000  1.0 -0.9308593452
O  O207  1  0.43910000  0.42210000  0.43810000  1.0 -0.9308593452
O  O208  1  0.93910000  0.07790000  0.06190000  1.0 -0.9308593452
O  O209  1  0.39690000  0.07640000  0.77010000  1.0 -0.9596670588
O  O210  1  0.89690000  0.42360000  0.72990000  1.0 -0.9492195583
O  O211  1  0.60310000  0.57640000  0.72990000  1.0 -0.9492195583
O  O212  1  0.10310000  0.92360000  0.77010000  1.0 -0.9596670588
O  O213  1  0.60310000  0.92360000  0.22990000  1.0 -0.9492195583
O  O214  1  0.10310000  0.57640000  0.27010000  1.0 -0.9596670588
O  O215  1  0.39690000  0.42360000  0.27010000  1.0 -0.9596670588
O  O216  1  0.89690000  0.07640000  0.22990000  1.0 -0.9492195583
O  O217  1  0.50530000  0.11410000  0.77490000  1.0 -0.9824070567
O  O218  1  0.00530000  0.38590000  0.72510000  1.0 -0.9824070567
O  O219  1  0.49470000  0.61410000  0.72510000  1.0 -0.9824070567
O  O220  1  0.99470000  0.88590000  0.77490000  1.0 -0.9824070567
O  O221  1  0.49470000  0.88590000  0.22510000  1.0 -0.9824070567
O  O222  1  0.99470000  0.61410000  0.27490000  1.0 -0.9824070567
O  O223  1  0.50530000  0.38590000  0.27490000  1.0 -0.9824070567
O  O224  1  0.00530000  0.11410000  0.22510000  1.0 -0.9824070567
O  O225  1  0.68230000  0.21890000  0.80610000  1.0 -0.7615514365
O  O226  1  0.18230000  0.28110000  0.69390000  1.0 -0.7615514365
O  O227  1  0.31770000  0.71890000  0.69390000  1.0 -0.7615514365
O  O228  1  0.81770000  0.78110000  0.80610000  1.0 -0.7615514365
O  O229  1  0.31770000  0.78110000  0.19390000  1.0 -0.7615514365
O  O230  1  0.81770000  0.71890000  0.30610000  1.0 -0.7615514365
O  O231  1  0.68230000  0.28110000  0.30610000  1.0 -0.7615514365
O  O232  1  0.18230000  0.21890000  0.19390000  1.0 -0.7615514365
O  O233  1  0.64720000  0.13260000  0.84970000  1.0 -0.9184416239
O  O234  1  0.14720000  0.36740000  0.65030000  1.0 -0.9184416239
O  O235  1  0.35280000  0.63260000  0.65030000  1.0 -0.9184416239
O  O236  1  0.85280000  0.86740000  0.84970000  1.0 -0.9184416239
O  O237  1  0.35280000  0.86740000  0.15030000  1.0 -0.9184416239
O  O238  1  0.85280000  0.63260000  0.34970000  1.0 -0.9184416239
O  O239  1  0.64720000  0.36740000  0.34970000  1.0 -0.9184416239
O  O240  1  0.14720000  0.13260000  0.15030000  1.0 -0.9184416239
O  O241  1  0.41580000  0.20760000  0.89980000  1.0 -0.9492195583
O  O242  1  0.91580000  0.29240000  0.60020000  1.0 -0.9492195583
O  O243  1  0.58420000  0.70760000  0.60020000  1.0 -0.9492195583
O  O244  1  0.08420000  0.79240000  0.89980000  1.0 -0.9492195583
O  O245  1  0.58420000  0.79240000  0.10020000  1.0 -0.9381362194
O  O246  1  0.08420000  0.70760000  0.39980000  1.0 -0.9492195583
O  O247  1  0.41580000  0.29240000  0.39980000  1.0 -0.9492195583
O  O248  1  0.91580000  0.20760000  0.10020000  1.0 -0.9492195583
