# DDEC6 charges by PACMAN v1.1 (https://github.com/mtap-research/PACMAN-charge/)
data_OQUXEF_ASR_pacman
_symmetry_space_group_name_H-M   'P 1'
_cell_length_a   12.98000000
_cell_length_b   19.96300000
_cell_length_c   26.78000000
_cell_angle_alpha   90.00000000
_cell_angle_beta   90.00000000
_cell_angle_gamma   90.00000000
_symmetry_Int_Tables_number   1
_chemical_formula_structural   Co2BH20W12C24(N4O17)2
_chemical_formula_sum   'Co8 B4 H80 W48 C96 N32 O136'
_cell_volume   6939.22663720
_cell_formula_units_Z   4
loop_
 _symmetry_equiv_pos_site_id
 _symmetry_equiv_pos_as_xyz
  1  'x, y, z'
loop_
 _atom_site_type_symbol
 _atom_site_label
 _atom_site_symmetry_multiplicity
 _atom_site_fract_x
 _atom_site_fract_y
 _atom_site_fract_z
 _atom_site_occupancy
 _atom_site_charge
Co  Co1  1  0.39910000  0.89105000  0.24085000  1.0 0.9663959223
Co  Co2  1  0.89910000  0.10895000  0.25915000  1.0 0.9663959223
Co  Co3  1  0.10090000  0.60895000  0.74085000  1.0 0.9663959223
Co  Co4  1  0.60090000  0.39105000  0.75915000  1.0 0.9663959223
Co  Co5  1  0.60090000  0.10895000  0.75915000  1.0 0.9663959223
Co  Co6  1  0.10090000  0.89105000  0.74085000  1.0 0.9663959223
Co  Co7  1  0.89910000  0.39105000  0.25915000  1.0 0.9663959223
Co  Co8  1  0.39910000  0.60895000  0.24085000  1.0 0.9663959223
B  B1  1  0.40100000  0.25000000  0.26280000  1.0 0.8278751749
B  B2  1  0.90100000  0.75000000  0.23720000  1.0 0.8278751749
B  B3  1  0.09900000  0.25000000  0.76280000  1.0 0.8278751749
B  B4  1  0.59900000  0.75000000  0.73720000  1.0 0.8278751749
H  H1  1  0.26470000  0.82240000  0.05010000  1.0 0.1101520184
H  H2  1  0.76470000  0.17760000  0.44990000  1.0 0.1101520184
H  H3  1  0.23530000  0.67760000  0.55010000  1.0 0.1101520184
H  H4  1  0.73530000  0.32240000  0.94990000  1.0 0.1101520184
H  H5  1  0.73530000  0.17760000  0.94990000  1.0 0.1101520184
H  H6  1  0.23530000  0.82240000  0.55010000  1.0 0.1101520184
H  H7  1  0.76470000  0.32240000  0.44990000  1.0 0.1101520184
H  H8  1  0.26470000  0.67760000  0.05010000  1.0 0.1101520184
H  H9  1  0.35040000  0.00690000  0.00350000  1.0 0.0999621932
H  H10  1  0.85040000  0.99310000  0.49650000  1.0 0.0999621932
H  H11  1  0.14960000  0.49310000  0.50350000  1.0 0.0999621932
H  H12  1  0.64960000  0.50690000  0.99650000  1.0 0.0999621932
H  H13  1  0.64960000  0.99310000  0.99650000  1.0 0.0999621932
H  H14  1  0.14960000  0.00690000  0.50350000  1.0 0.0999621932
H  H15  1  0.85040000  0.50690000  0.49650000  1.0 0.0999621932
H  H16  1  0.35040000  0.49310000  0.00350000  1.0 0.0999621932
H  H17  1  0.47730000  0.99080000  0.06300000  1.0 0.0894086438
H  H18  1  0.97730000  0.00920000  0.43700000  1.0 0.0894086438
H  H19  1  0.02270000  0.50920000  0.56300000  1.0 0.0894086438
H  H20  1  0.52270000  0.49080000  0.93700000  1.0 0.0894086438
H  H21  1  0.52270000  0.00920000  0.93700000  1.0 0.0894086438
H  H22  1  0.02270000  0.99080000  0.56300000  1.0 0.0894086438
H  H23  1  0.97730000  0.49080000  0.43700000  1.0 0.0894086438
H  H24  1  0.47730000  0.50920000  0.06300000  1.0 0.0894086438
H  H25  1  0.52490000  0.98560000  0.15250000  1.0 0.1183060888
H  H26  1  0.02490000  0.01440000  0.34750000  1.0 0.1183060888
H  H27  1  0.97510000  0.51440000  0.65250000  1.0 0.1183060888
H  H28  1  0.47510000  0.48560000  0.84750000  1.0 0.1183060888
H  H29  1  0.47510000  0.01440000  0.84750000  1.0 0.1183060888
H  H30  1  0.97510000  0.98560000  0.65250000  1.0 0.1183060888
H  H31  1  0.02490000  0.48560000  0.34750000  1.0 0.1183060888
H  H32  1  0.52490000  0.51440000  0.15250000  1.0 0.1183060888
H  H33  1  0.27460000  0.87520000  0.12920000  1.0 0.1298503096
H  H34  1  0.77460000  0.12480000  0.37080000  1.0 0.1298503096
H  H35  1  0.22540000  0.62480000  0.62920000  1.0 0.1298503096
H  H36  1  0.72540000  0.37520000  0.87080000  1.0 0.1298503096
H  H37  1  0.72540000  0.12480000  0.87080000  1.0 0.1298503096
H  H38  1  0.22540000  0.87520000  0.62920000  1.0 0.1298503096
H  H39  1  0.77460000  0.37520000  0.37080000  1.0 0.1298503096
H  H40  1  0.27460000  0.62480000  0.12920000  1.0 0.1298503096
H  H41  1  0.16670000  0.81070000  0.97630000  1.0 0.0999621932
H  H42  1  0.66666667  0.18930000  0.52370000  1.0 0.0999621932
H  H43  1  0.33333333  0.68930000  0.47630000  1.0 0.0999621932
H  H44  1  0.83330000  0.31070000  0.02370000  1.0 0.0999621932
H  H45  1  0.83330000  0.18930000  0.02370000  1.0 0.0999621932
H  H46  1  0.33333333  0.81070000  0.47630000  1.0 0.0999621932
H  H47  1  0.66666667  0.31070000  0.52370000  1.0 0.0999621932
H  H48  1  0.16670000  0.68930000  0.97630000  1.0 0.0999621932
H  H49  1  0.25450000  0.98880000  0.92790000  1.0 0.1101520184
H  H50  1  0.75450000  0.01120000  0.57210000  1.0 0.1183060888
H  H51  1  0.24550000  0.51120000  0.42790000  1.0 0.1101520184
H  H52  1  0.74550000  0.48880000  0.07210000  1.0 0.1183060888
H  H53  1  0.74550000  0.01120000  0.07210000  1.0 0.1183060888
H  H54  1  0.24550000  0.98880000  0.42790000  1.0 0.1101520184
H  H55  1  0.75450000  0.48880000  0.57210000  1.0 0.1183060888
H  H56  1  0.25450000  0.51120000  0.92790000  1.0 0.1101520184
H  H57  1  0.23850000  0.92580000  0.84470000  1.0 0.1183060888
H  H58  1  0.73850000  0.07420000  0.65530000  1.0 0.1183060888
H  H59  1  0.26150000  0.57420000  0.34470000  1.0 0.1183060888
H  H60  1  0.76150000  0.42580000  0.15530000  1.0 0.1183060888
H  H61  1  0.76150000  0.07420000  0.15530000  1.0 0.1183060888
H  H62  1  0.26150000  0.92580000  0.34470000  1.0 0.1183060888
H  H63  1  0.73850000  0.42580000  0.65530000  1.0 0.1183060888
H  H64  1  0.23850000  0.57420000  0.84470000  1.0 0.1183060888
H  H65  1  0.02930000  0.82400000  0.92390000  1.0 0.0999621932
H  H66  1  0.52930000  0.17600000  0.57610000  1.0 0.0999621932
H  H67  1  0.47070000  0.67600000  0.42390000  1.0 0.0999621932
H  H68  1  0.97070000  0.32400000  0.07610000  1.0 0.0999621932
H  H69  1  0.97070000  0.17600000  0.07610000  1.0 0.0999621932
H  H70  1  0.47070000  0.82400000  0.42390000  1.0 0.0999621932
H  H71  1  0.52930000  0.32400000  0.57610000  1.0 0.0999621932
H  H72  1  0.02930000  0.67600000  0.92390000  1.0 0.0999621932
H  H73  1  0.98740000  0.82090000  0.83400000  1.0 0.1101520184
H  H74  1  0.48740000  0.17910000  0.66600000  1.0 0.1101520184
H  H75  1  0.51260000  0.67910000  0.33400000  1.0 0.1101520184
H  H76  1  0.01260000  0.32090000  0.16600000  1.0 0.1101520184
H  H77  1  0.01260000  0.17910000  0.16600000  1.0 0.1101520184
H  H78  1  0.51260000  0.82090000  0.33400000  1.0 0.1101520184
H  H79  1  0.48740000  0.32090000  0.66600000  1.0 0.1101520184
H  H80  1  0.98740000  0.67910000  0.83400000  1.0 0.1101520184
W  W1  1  0.25651000  0.25000000  0.15367000  1.0 2.3673575598
W  W2  1  0.75651000  0.75000000  0.34633000  1.0 2.3673575598
W  W3  1  0.24349000  0.25000000  0.65367000  1.0 2.3673575598
W  W4  1  0.74349000  0.75000000  0.84633000  1.0 2.3673575598
W  W5  1  0.47766000  0.16726000  0.15436000  1.0 2.3406426686
W  W6  1  0.97766000  0.83274000  0.34564000  1.0 2.3406426686
W  W7  1  0.02234000  0.33274000  0.65436000  1.0 2.3406426686
W  W8  1  0.52234000  0.66726000  0.84564000  1.0 2.3406426686
W  W9  1  0.52234000  0.83274000  0.84564000  1.0 2.3406426686
W  W10  1  0.02234000  0.16726000  0.65436000  1.0 2.3406426686
W  W11  1  0.97766000  0.66726000  0.34564000  1.0 2.3406426686
W  W12  1  0.47766000  0.33274000  0.15436000  1.0 2.3406426686
W  W13  1  0.56014000  0.25000000  0.36756000  1.0 2.2799745478
W  W14  1  0.06014000  0.75000000  0.13244000  1.0 2.2799745478
W  W15  1  0.93986000  0.25000000  0.86756000  1.0 2.2799745478
W  W16  1  0.43986000  0.75000000  0.63244000  1.0 2.2902054864
W  W17  1  0.39263000  0.07694000  0.26523000  1.0 2.3786668557
W  W18  1  0.89263000  0.92306000  0.23477000  1.0 2.3786668557
W  W19  1  0.10737000  0.42306000  0.76523000  1.0 2.3786668557
W  W20  1  0.60737000  0.57694000  0.73477000  1.0 2.3786668557
W  W21  1  0.60737000  0.92306000  0.73477000  1.0 2.3786668557
W  W22  1  0.10737000  0.07694000  0.76523000  1.0 2.3786668557
W  W23  1  0.89263000  0.57694000  0.23477000  1.0 2.3786668557
W  W24  1  0.39263000  0.42306000  0.26523000  1.0 2.3786668557
W  W25  1  0.63458000  0.16761000  0.26661000  1.0 2.3326885778
W  W26  1  0.13458000  0.83239000  0.23339000  1.0 2.3326885778
W  W27  1  0.86542000  0.33239000  0.76661000  1.0 2.3326885778
W  W28  1  0.36542000  0.66761000  0.73339000  1.0 2.3326885778
W  W29  1  0.36542000  0.83239000  0.73339000  1.0 2.3326885778
W  W30  1  0.86542000  0.16761000  0.76661000  1.0 2.3326885778
W  W31  1  0.13458000  0.66761000  0.23339000  1.0 2.3326885778
W  W32  1  0.63458000  0.33239000  0.26661000  1.0 2.3326885778
W  W33  1  0.17322000  0.15932000  0.26503000  1.0 2.3598593551
W  W34  1  0.67322000  0.84068000  0.23497000  1.0 2.3598593551
W  W35  1  0.32678000  0.34068000  0.76503000  1.0 2.3598593551
W  W36  1  0.82678000  0.65932000  0.73497000  1.0 2.3598593551
W  W37  1  0.82678000  0.84068000  0.73497000  1.0 2.3598593551
W  W38  1  0.32678000  0.15932000  0.76503000  1.0 2.3598593551
W  W39  1  0.67322000  0.65932000  0.23497000  1.0 2.3598593551
W  W40  1  0.17322000  0.34068000  0.26503000  1.0 2.3598593551
W  W41  1  0.31769000  0.15871000  0.36667000  1.0 2.4028418141
W  W42  1  0.81769000  0.84129000  0.13333000  1.0 2.4028418141
W  W43  1  0.18231000  0.34129000  0.86667000  1.0 2.4028418141
W  W44  1  0.68231000  0.65871000  0.63333000  1.0 2.4028418141
W  W45  1  0.68231000  0.84129000  0.63333000  1.0 2.4028418141
W  W46  1  0.18231000  0.15871000  0.86667000  1.0 2.4028418141
W  W47  1  0.81769000  0.65871000  0.13333000  1.0 2.4028418141
W  W48  1  0.31769000  0.34129000  0.36667000  1.0 2.4028418141
C  C1  1  0.31430000  0.91730000  0.03410000  1.0 0.1360214579
C  C2  1  0.81430000  0.08270000  0.46590000  1.0 0.1360214579
C  C3  1  0.18570000  0.58270000  0.53410000  1.0 0.1360214579
C  C4  1  0.68570000  0.41730000  0.96590000  1.0 0.1360214579
C  C5  1  0.68570000  0.08270000  0.96590000  1.0 0.1360214579
C  C6  1  0.18570000  0.91730000  0.53410000  1.0 0.1360214579
C  C7  1  0.81430000  0.41730000  0.46590000  1.0 0.1360214579
C  C8  1  0.31430000  0.58270000  0.03410000  1.0 0.1360214579
C  C9  1  0.26240000  0.85650000  0.02640000  1.0 -0.2012625111
C  C10  1  0.76240000  0.14350000  0.47360000  1.0 -0.2012625111
C  C11  1  0.23760000  0.64350000  0.52640000  1.0 -0.2012625111
C  C12  1  0.73760000  0.35650000  0.97360000  1.0 -0.2012625111
C  C13  1  0.73760000  0.14350000  0.97360000  1.0 -0.2012625111
C  C14  1  0.23760000  0.85650000  0.52640000  1.0 -0.2012625111
C  C15  1  0.76240000  0.35650000  0.47360000  1.0 -0.2012625111
C  C16  1  0.26240000  0.64350000  0.02640000  1.0 -0.2012625111
C  C17  1  0.31470000  0.96710000  0.99830000  1.0 -0.2103875947
C  C18  1  0.81470000  0.03290000  0.50170000  1.0 -0.2103875947
C  C19  1  0.18530000  0.53290000  0.49830000  1.0 -0.2103875947
C  C20  1  0.68530000  0.46710000  0.00170000  1.0 -0.2103875947
C  C21  1  0.68530000  0.03290000  0.00170000  1.0 -0.2103875947
C  C22  1  0.18530000  0.96710000  0.49830000  1.0 -0.2103875947
C  C23  1  0.81470000  0.46710000  0.50170000  1.0 -0.2103875947
C  C24  1  0.31470000  0.53290000  0.99830000  1.0 -0.2103875947
C  C25  1  0.44400000  0.96590000  0.08730000  1.0 -0.0677947837
C  C26  1  0.94400000  0.03410000  0.41270000  1.0 -0.0677947837
C  C27  1  0.05600000  0.53410000  0.58730000  1.0 -0.0677947837
C  C28  1  0.55600000  0.46590000  0.91270000  1.0 -0.0677947837
C  C29  1  0.55600000  0.03410000  0.91270000  1.0 -0.0677947837
C  C30  1  0.05600000  0.96590000  0.58730000  1.0 -0.0677947837
C  C31  1  0.94400000  0.46590000  0.41270000  1.0 -0.0677947837
C  C32  1  0.44400000  0.53410000  0.08730000  1.0 -0.0677947837
C  C33  1  0.47100000  0.96200000  0.13780000  1.0 -0.0409357819
C  C34  1  0.97100000  0.03800000  0.36220000  1.0 -0.0409357819
C  C35  1  0.02900000  0.53800000  0.63780000  1.0 -0.0409357819
C  C36  1  0.52900000  0.46200000  0.86220000  1.0 -0.0409357819
C  C37  1  0.52900000  0.03800000  0.86220000  1.0 -0.0409357819
C  C38  1  0.02900000  0.96200000  0.63780000  1.0 -0.0409357819
C  C39  1  0.97100000  0.46200000  0.36220000  1.0 -0.0409357819
C  C40  1  0.47100000  0.53800000  0.13780000  1.0 -0.0409357819
C  C41  1  0.33340000  0.90110000  0.12470000  1.0 0.0525654716
C  C42  1  0.83340000  0.09890000  0.37530000  1.0 0.0525654716
C  C43  1  0.16660000  0.59890000  0.62470000  1.0 0.0525654716
C  C44  1  0.66666667  0.40110000  0.87530000  1.0 0.0525654716
C  C45  1  0.66666667  0.09890000  0.87530000  1.0 0.0525654716
C  C46  1  0.16660000  0.90110000  0.62470000  1.0 0.0525654716
C  C47  1  0.83340000  0.40110000  0.37530000  1.0 0.0525654716
C  C48  1  0.33340000  0.59890000  0.12470000  1.0 0.0525654716
C  C49  1  0.20600000  0.84900000  0.98120000  1.0 -0.1801036698
C  C50  1  0.70600000  0.15100000  0.51880000  1.0 -0.1801036698
C  C51  1  0.29400000  0.65100000  0.48120000  1.0 -0.1801036698
C  C52  1  0.79400000  0.34900000  0.01880000  1.0 -0.1801036698
C  C53  1  0.79400000  0.15100000  0.01880000  1.0 -0.1801036698
C  C54  1  0.29400000  0.84900000  0.48120000  1.0 -0.1801036698
C  C55  1  0.70600000  0.34900000  0.51880000  1.0 -0.1801036698
C  C56  1  0.20600000  0.65100000  0.98120000  1.0 -0.1801036698
C  C57  1  0.25780000  0.95580000  0.95240000  1.0 -0.1852516156
C  C58  1  0.75780000  0.04420000  0.54760000  1.0 -0.1801036698
C  C59  1  0.24220000  0.54420000  0.45240000  1.0 -0.1852516156
C  C60  1  0.74220000  0.45580000  0.04760000  1.0 -0.1801036698
C  C61  1  0.74220000  0.04420000  0.04760000  1.0 -0.1801036698
C  C62  1  0.24220000  0.95580000  0.45240000  1.0 -0.1852516156
C  C63  1  0.75780000  0.45580000  0.54760000  1.0 -0.1801036698
C  C64  1  0.25780000  0.54420000  0.95240000  1.0 -0.1852516156
C  C65  1  0.20910000  0.89540000  0.94580000  1.0 0.1298503096
C  C66  1  0.70910000  0.10460000  0.55420000  1.0 0.1298503096
C  C67  1  0.29090000  0.60460000  0.44580000  1.0 0.1298503096
C  C68  1  0.79090000  0.39540000  0.05420000  1.0 0.1298503096
C  C69  1  0.79090000  0.10460000  0.05420000  1.0 0.1298503096
C  C70  1  0.29090000  0.89540000  0.44580000  1.0 0.1298503096
C  C71  1  0.70910000  0.39540000  0.55420000  1.0 0.1298503096
C  C72  1  0.20910000  0.60460000  0.94580000  1.0 0.1298503096
C  C73  1  0.18000000  0.90150000  0.85330000  1.0 0.0780824687
C  C74  1  0.68000000  0.09850000  0.64670000  1.0 0.0780824687
C  C75  1  0.32000000  0.59850000  0.35330000  1.0 0.0780824687
C  C76  1  0.82000000  0.40150000  0.14670000  1.0 0.0780824687
C  C77  1  0.82000000  0.09850000  0.14670000  1.0 0.0780824687
C  C78  1  0.32000000  0.90150000  0.35330000  1.0 0.0780824687
C  C79  1  0.68000000  0.40150000  0.64670000  1.0 0.0780824687
C  C80  1  0.18000000  0.59850000  0.85330000  1.0 0.0780824687
C  C81  1  0.06510000  0.84470000  0.89810000  1.0 -0.1801036698
C  C82  1  0.56510000  0.15530000  0.60190000  1.0 -0.1801036698
C  C83  1  0.43490000  0.65530000  0.39810000  1.0 -0.1801036698
C  C84  1  0.93490000  0.34470000  0.10190000  1.0 -0.1801036698
C  C85  1  0.93490000  0.15530000  0.10190000  1.0 -0.1801036698
C  C86  1  0.43490000  0.84470000  0.39810000  1.0 -0.1801036698
C  C87  1  0.56510000  0.34470000  0.60190000  1.0 -0.1801036698
C  C88  1  0.06510000  0.65530000  0.89810000  1.0 -0.1801036698
C  C89  1  0.04350000  0.84390000  0.84720000  1.0 0.0021910779
C  C90  1  0.54350000  0.15610000  0.65280000  1.0 0.0021910779
C  C91  1  0.45650000  0.65610000  0.34720000  1.0 0.0021910779
C  C92  1  0.95650000  0.34390000  0.15280000  1.0 0.0021910779
C  C93  1  0.95650000  0.15610000  0.15280000  1.0 0.0021910779
C  C94  1  0.45650000  0.84390000  0.34720000  1.0 0.0021910779
C  C95  1  0.54350000  0.34390000  0.65280000  1.0 0.0021910779
C  C96  1  0.04350000  0.65610000  0.84720000  1.0 0.0021910779
N  N1  1  0.10790000  0.87810000  0.81900000  1.0 -0.3054380339
N  N2  1  0.60790000  0.12190000  0.68100000  1.0 -0.3054380339
N  N3  1  0.39210000  0.62190000  0.31900000  1.0 -0.3048899394
N  N4  1  0.89210000  0.37810000  0.18100000  1.0 -0.3048899394
N  N5  1  0.89210000  0.12190000  0.18100000  1.0 -0.3048899394
N  N6  1  0.39210000  0.87810000  0.31900000  1.0 -0.3048899394
N  N7  1  0.60790000  0.37810000  0.68100000  1.0 -0.3054380339
N  N8  1  0.10790000  0.62190000  0.81900000  1.0 -0.3054380339
N  N9  1  0.15450000  0.88440000  0.90090000  1.0 -0.0116206162
N  N10  1  0.65450000  0.11560000  0.59910000  1.0 -0.0116206162
N  N11  1  0.34550000  0.61560000  0.40090000  1.0 -0.0116206162
N  N12  1  0.84550000  0.38440000  0.09910000  1.0 -0.0116206162
N  N13  1  0.84550000  0.11560000  0.09910000  1.0 -0.0116206162
N  N14  1  0.34550000  0.88440000  0.40090000  1.0 -0.0116206162
N  N15  1  0.65450000  0.38440000  0.59910000  1.0 -0.0116206162
N  N16  1  0.15450000  0.61560000  0.90090000  1.0 -0.0116206162
N  N17  1  0.40630000  0.91810000  0.16310000  1.0 -0.32882788
N  N18  1  0.90630000  0.08190000  0.33690000  1.0 -0.32882788
N  N19  1  0.09370000  0.58190000  0.66310000  1.0 -0.32882788
N  N20  1  0.59370000  0.41810000  0.83690000  1.0 -0.32882788
N  N21  1  0.59370000  0.08190000  0.83690000  1.0 -0.32882788
N  N22  1  0.09370000  0.91810000  0.66310000  1.0 -0.32882788
N  N23  1  0.90630000  0.41810000  0.33690000  1.0 -0.32882788
N  N24  1  0.40630000  0.58190000  0.16310000  1.0 -0.32882788
N  N25  1  0.36400000  0.92880000  0.08050000  1.0 0.0021910779
N  N26  1  0.86400000  0.07120000  0.41950000  1.0 0.0021910779
N  N27  1  0.13600000  0.57120000  0.58050000  1.0 0.0021910779
N  N28  1  0.63600000  0.42880000  0.91950000  1.0 0.0021910779
N  N29  1  0.63600000  0.07120000  0.91950000  1.0 0.0021910779
N  N30  1  0.13600000  0.92880000  0.58050000  1.0 0.0021910779
N  N31  1  0.86400000  0.42880000  0.41950000  1.0 0.0021910779
N  N32  1  0.36400000  0.57120000  0.08050000  1.0 0.0021910779
O  O1  1  0.52060000  0.25000000  0.12580000  1.0 -0.9376958382
O  O2  1  0.02060000  0.75000000  0.37420000  1.0 -0.9376958382
O  O3  1  0.97940000  0.25000000  0.62580000  1.0 -0.9376958382
O  O4  1  0.47940000  0.75000000  0.87420000  1.0 -0.9376958382
O  O5  1  0.41150000  0.10620000  0.19880000  1.0 -0.9133814086
O  O6  1  0.91150000  0.89380000  0.30120000  1.0 -0.9133814086
O  O7  1  0.08850000  0.39380000  0.69880000  1.0 -0.9133814086
O  O8  1  0.58850000  0.60620000  0.80120000  1.0 -0.9133814086
O  O9  1  0.58850000  0.89380000  0.80120000  1.0 -0.9133814086
O  O10  1  0.08850000  0.10620000  0.69880000  1.0 -0.9133814086
O  O11  1  0.91150000  0.60620000  0.30120000  1.0 -0.9133814086
O  O12  1  0.41150000  0.39380000  0.19880000  1.0 -0.9133814086
O  O13  1  0.45590000  0.18240000  0.37590000  1.0 -0.9536435527
O  O14  1  0.95590000  0.81760000  0.12410000  1.0 -0.9536435527
O  O15  1  0.04410000  0.31760000  0.87590000  1.0 -0.9536435527
O  O16  1  0.54410000  0.68240000  0.62410000  1.0 -0.9536435527
O  O17  1  0.54410000  0.81760000  0.62410000  1.0 -0.9536435527
O  O18  1  0.04410000  0.18240000  0.87590000  1.0 -0.9536435527
O  O19  1  0.95590000  0.68240000  0.12410000  1.0 -0.9536435527
O  O20  1  0.45590000  0.31760000  0.37590000  1.0 -0.9536435527
O  O21  1  0.70710000  0.25000000  0.25520000  1.0 -0.8879399222
O  O22  1  0.20710000  0.75000000  0.24480000  1.0 -0.8879399222
O  O23  1  0.79290000  0.25000000  0.75520000  1.0 -0.8879399222
O  O24  1  0.29290000  0.75000000  0.74480000  1.0 -0.8879399222
O  O25  1  0.23740000  0.88410000  0.23890000  1.0 -0.7397333143
O  O26  1  0.73740000  0.11590000  0.26110000  1.0 -0.7397333143
O  O27  1  0.26260000  0.61590000  0.73890000  1.0 -0.7397333143
O  O28  1  0.76260000  0.38410000  0.76110000  1.0 -0.7397333143
O  O29  1  0.76260000  0.11590000  0.76110000  1.0 -0.7397333143
O  O30  1  0.26260000  0.88410000  0.73890000  1.0 -0.7397333143
O  O31  1  0.73740000  0.38410000  0.26110000  1.0 -0.7397333143
O  O32  1  0.23740000  0.61590000  0.23890000  1.0 -0.7397333143
O  O33  1  0.55300000  0.87190000  0.24250000  1.0 -0.7397333143
O  O34  1  0.05300000  0.12810000  0.25750000  1.0 -0.7397333143
O  O35  1  0.94700000  0.62810000  0.74250000  1.0 -0.7347326797
O  O36  1  0.44700000  0.37190000  0.75750000  1.0 -0.7397333143
O  O37  1  0.44700000  0.12810000  0.75750000  1.0 -0.7397333143
O  O38  1  0.94700000  0.87190000  0.74250000  1.0 -0.7347326797
O  O39  1  0.05300000  0.37190000  0.25750000  1.0 -0.7397333143
O  O40  1  0.55300000  0.62810000  0.24250000  1.0 -0.7397333143
O  O41  1  0.58830000  0.16950000  0.20060000  1.0 -0.8980257434
O  O42  1  0.08830000  0.83050000  0.29940000  1.0 -0.8980257434
O  O43  1  0.91170000  0.33050000  0.70060000  1.0 -0.8980257434
O  O44  1  0.41170000  0.66950000  0.79940000  1.0 -0.8980257434
O  O45  1  0.41170000  0.83050000  0.79940000  1.0 -0.8980257434
O  O46  1  0.91170000  0.16950000  0.70060000  1.0 -0.8980257434
O  O47  1  0.08830000  0.66950000  0.29940000  1.0 -0.8980257434
O  O48  1  0.58830000  0.33050000  0.20060000  1.0 -0.8980257434
O  O49  1  0.64430000  0.18430000  0.33650000  1.0 -0.9183831734
O  O50  1  0.14430000  0.81570000  0.16350000  1.0 -0.9183831734
O  O51  1  0.85570000  0.31570000  0.83650000  1.0 -0.9183831734
O  O52  1  0.35570000  0.68430000  0.66350000  1.0 -0.9183831734
O  O53  1  0.35570000  0.81570000  0.66350000  1.0 -0.9183831734
O  O54  1  0.85570000  0.18430000  0.83650000  1.0 -0.9183831734
O  O55  1  0.14430000  0.68430000  0.16350000  1.0 -0.9183831734
O  O56  1  0.64430000  0.31570000  0.33650000  1.0 -0.9183831734
O  O57  1  0.36500000  0.07790000  0.33630000  1.0 -0.9279231798
O  O58  1  0.86500000  0.92210000  0.16370000  1.0 -0.9279231798
O  O59  1  0.13500000  0.42210000  0.83630000  1.0 -0.9279231798
O  O60  1  0.63500000  0.57790000  0.66370000  1.0 -0.9279231798
O  O61  1  0.63500000  0.92210000  0.66370000  1.0 -0.9279231798
O  O62  1  0.13500000  0.07790000  0.83630000  1.0 -0.9279231798
O  O63  1  0.86500000  0.57790000  0.16370000  1.0 -0.9279231798
O  O64  1  0.36500000  0.42210000  0.33630000  1.0 -0.9279231798
O  O65  1  0.20300000  0.18480000  0.19920000  1.0 -0.9183831734
O  O66  1  0.70300000  0.81520000  0.30080000  1.0 -0.9183831734
O  O67  1  0.29700000  0.31520000  0.69920000  1.0 -0.9183831734
O  O68  1  0.79700000  0.68480000  0.80080000  1.0 -0.9183831734
O  O69  1  0.79700000  0.81520000  0.80080000  1.0 -0.9183831734
O  O70  1  0.29700000  0.18480000  0.69920000  1.0 -0.9183831734
O  O71  1  0.70300000  0.68480000  0.30080000  1.0 -0.9183831734
O  O72  1  0.20300000  0.31520000  0.19920000  1.0 -0.9183831734
O  O73  1  0.34380000  0.18230000  0.12620000  1.0 -0.9830643258
O  O74  1  0.84380000  0.81770000  0.37380000  1.0 -0.9830643258
O  O75  1  0.15620000  0.31770000  0.62620000  1.0 -0.9893849415
O  O76  1  0.65620000  0.68230000  0.87380000  1.0 -0.9830643258
O  O77  1  0.65620000  0.81770000  0.87380000  1.0 -0.9830643258
O  O78  1  0.15620000  0.18230000  0.62620000  1.0 -0.9893849415
O  O79  1  0.84380000  0.68230000  0.37380000  1.0 -0.9830643258
O  O80  1  0.34380000  0.31770000  0.12620000  1.0 -0.9830643258
O  O81  1  0.18800000  0.14520000  0.33550000  1.0 -0.9133814086
O  O82  1  0.68800000  0.85480000  0.16450000  1.0 -0.9133814086
O  O83  1  0.31200000  0.35480000  0.83550000  1.0 -0.9133814086
O  O84  1  0.81200000  0.64520000  0.66450000  1.0 -0.9133814086
O  O85  1  0.81200000  0.85480000  0.66450000  1.0 -0.9133814086
O  O86  1  0.31200000  0.14520000  0.83550000  1.0 -0.9133814086
O  O87  1  0.68800000  0.64520000  0.16450000  1.0 -0.9133814086
O  O88  1  0.18800000  0.35480000  0.33550000  1.0 -0.9133814086
O  O89  1  0.52970000  0.10570000  0.27820000  1.0 -0.8706104579
O  O90  1  0.02970000  0.89430000  0.22180000  1.0 -0.8706104579
O  O91  1  0.97030000  0.39430000  0.77820000  1.0 -0.8706104579
O  O92  1  0.47030000  0.60570000  0.72180000  1.0 -0.8706104579
O  O93  1  0.47030000  0.89430000  0.72180000  1.0 -0.8706104579
O  O94  1  0.97030000  0.10570000  0.77820000  1.0 -0.8706104579
O  O95  1  0.02970000  0.60570000  0.22180000  1.0 -0.8706104579
O  O96  1  0.52970000  0.39430000  0.27820000  1.0 -0.8706104579
O  O97  1  0.24800000  0.07800000  0.25430000  1.0 -0.8533489031
O  O98  1  0.74800000  0.92200000  0.24570000  1.0 -0.8533489031
O  O99  1  0.25200000  0.42200000  0.75430000  1.0 -0.8533489031
O  O100  1  0.75200000  0.57800000  0.74570000  1.0 -0.8533489031
O  O101  1  0.75200000  0.92200000  0.74570000  1.0 -0.8533489031
O  O102  1  0.25200000  0.07800000  0.75430000  1.0 -0.8533489031
O  O103  1  0.74800000  0.57800000  0.24570000  1.0 -0.8533489031
O  O104  1  0.24800000  0.42200000  0.25430000  1.0 -0.8533489031
O  O105  1  0.51330000  0.25000000  0.28250000  1.0 -1.0331950111
O  O106  1  0.01330000  0.75000000  0.21750000  1.0 -1.0331950111
O  O107  1  0.98670000  0.25000000  0.78250000  1.0 -1.0331950111
O  O108  1  0.48670000  0.75000000  0.71750000  1.0 -1.0331950111
O  O109  1  0.40280000  0.25000000  0.20630000  1.0 -1.0441902202
O  O110  1  0.90280000  0.75000000  0.29370000  1.0 -1.0441902202
O  O111  1  0.09720000  0.25000000  0.70630000  1.0 -1.0441902202
O  O112  1  0.59720000  0.75000000  0.79370000  1.0 -1.0441902202
O  O113  1  0.28200000  0.25000000  0.37580000  1.0 -0.9893849415
O  O114  1  0.78200000  0.75000000  0.12420000  1.0 -0.9893849415
O  O115  1  0.21800000  0.25000000  0.87580000  1.0 -0.9893849415
O  O116  1  0.71800000  0.75000000  0.62420000  1.0 -0.9893849415
O  O117  1  0.14280000  0.25000000  0.27770000  1.0 -0.8706104579
O  O118  1  0.64280000  0.75000000  0.22230000  1.0 -0.8706104579
O  O119  1  0.35720000  0.25000000  0.77770000  1.0 -0.8706104579
O  O120  1  0.85720000  0.75000000  0.72230000  1.0 -0.8706104579
O  O121  1  0.34500000  0.18680000  0.28140000  1.0 -1.0511087698
O  O122  1  0.84500000  0.81320000  0.21860000  1.0 -1.0511087698
O  O123  1  0.15500000  0.31320000  0.78140000  1.0 -1.0511087698
O  O124  1  0.65500000  0.68680000  0.71860000  1.0 -1.0511087698
O  O125  1  0.65500000  0.81320000  0.71860000  1.0 -1.0511087698
O  O126  1  0.15500000  0.18680000  0.78140000  1.0 -1.0511087698
O  O127  1  0.84500000  0.68680000  0.21860000  1.0 -1.0511087698
O  O128  1  0.34500000  0.31320000  0.28140000  1.0 -1.0511087698
O  O129  1  0.41080000  0.99220000  0.25800000  1.0 -0.7397333143
O  O130  1  0.91080000  0.00780000  0.24200000  1.0 -0.7397333143
O  O131  1  0.08920000  0.50780000  0.75800000  1.0 -0.7397333143
O  O132  1  0.58920000  0.49220000  0.74200000  1.0 -0.7397333143
O  O133  1  0.58920000  0.00780000  0.74200000  1.0 -0.7397333143
O  O134  1  0.08920000  0.99220000  0.75800000  1.0 -0.7397333143
O  O135  1  0.91080000  0.49220000  0.24200000  1.0 -0.7397333143
O  O136  1  0.41080000  0.50780000  0.25800000  1.0 -0.7397333143
