# DDEC6 charges by PACMAN v1.1 (https://github.com/mtap-research/PACMAN-charge/)
data_OQUXIJ_FSR_pacman
_symmetry_space_group_name_H-M   'P 1'
_cell_length_a   12.96400000
_cell_length_b   20.07600000
_cell_length_c   26.54800000
_cell_angle_alpha   90.00000000
_cell_angle_beta   90.00000000
_cell_angle_gamma   90.00000000
_symmetry_Int_Tables_number   1
_chemical_formula_structural   CoH10W6C12(NO5)4
_chemical_formula_sum   'Co8 H80 W48 C96 N32 O160'
_cell_volume   6909.52222867
_cell_formula_units_Z   8
loop_
 _symmetry_equiv_pos_site_id
 _symmetry_equiv_pos_as_xyz
  1  'x, y, z'
loop_
 _atom_site_type_symbol
 _atom_site_label
 _atom_site_symmetry_multiplicity
 _atom_site_fract_x
 _atom_site_fract_y
 _atom_site_fract_z
 _atom_site_occupancy
 _atom_site_charge
Co  Co1  1  0.59660000  0.10694000  0.74075000  1.0 1.0366204739
Co  Co2  1  0.09660000  0.89306000  0.75925000  1.0 1.0366204739
Co  Co3  1  0.90340000  0.39306000  0.24075000  1.0 1.0366204739
Co  Co4  1  0.40340000  0.60694000  0.25925000  1.0 1.0366204739
Co  Co5  1  0.40340000  0.89306000  0.25925000  1.0 1.0366204739
Co  Co6  1  0.90340000  0.10694000  0.24075000  1.0 1.0366204739
Co  Co7  1  0.09660000  0.60694000  0.75925000  1.0 1.0366204739
Co  Co8  1  0.59660000  0.39306000  0.74075000  1.0 1.0366204739
H  H1  1  0.47070000  0.01200000  0.65460000  1.0 0.1500725412
H  H2  1  0.97070000  0.98800000  0.84540000  1.0 0.1500725412
H  H3  1  0.02930000  0.48800000  0.15460000  1.0 0.1500725412
H  H4  1  0.52930000  0.51200000  0.34540000  1.0 0.1500725412
H  H5  1  0.52930000  0.98800000  0.34540000  1.0 0.1500725412
H  H6  1  0.02930000  0.01200000  0.15460000  1.0 0.1500725412
H  H7  1  0.97070000  0.51200000  0.84540000  1.0 0.1500725412
H  H8  1  0.47070000  0.48800000  0.65460000  1.0 0.1500725412
H  H9  1  0.74030000  0.01190000  0.42790000  1.0 0.1587317758
H  H10  1  0.24030000  0.98810000  0.07210000  1.0 0.1587317758
H  H11  1  0.75970000  0.48810000  0.92790000  1.0 0.1587317758
H  H12  1  0.25970000  0.51190000  0.57210000  1.0 0.1587317758
H  H13  1  0.25970000  0.98810000  0.57210000  1.0 0.1587317758
H  H14  1  0.75970000  0.01190000  0.92790000  1.0 0.1587317758
H  H15  1  0.24030000  0.51190000  0.07210000  1.0 0.1587317758
H  H16  1  0.74030000  0.48810000  0.42790000  1.0 0.1587317758
H  H17  1  0.65300000  0.99250000  0.50380000  1.0 0.1500725412
H  H18  1  0.15300000  0.00750000  0.99620000  1.0 0.1500725412
H  H19  1  0.84700000  0.50750000  0.00380000  1.0 0.1500725412
H  H20  1  0.34700000  0.49250000  0.49620000  1.0 0.1500725412
H  H21  1  0.34700000  0.00750000  0.49620000  1.0 0.1500725412
H  H22  1  0.84700000  0.99250000  0.00380000  1.0 0.1500725412
H  H23  1  0.15300000  0.49250000  0.99620000  1.0 0.1500725412
H  H24  1  0.65300000  0.50750000  0.50380000  1.0 0.1500725412
H  H25  1  0.70860000  0.12830000  0.63130000  1.0 0.1587317758
H  H26  1  0.20860000  0.87170000  0.86870000  1.0 0.1587317758
H  H27  1  0.79140000  0.37170000  0.13130000  1.0 0.1587317758
H  H28  1  0.29140000  0.62830000  0.36870000  1.0 0.1587317758
H  H29  1  0.29140000  0.87170000  0.36870000  1.0 0.1587317758
H  H30  1  0.79140000  0.12830000  0.13130000  1.0 0.1587317758
H  H31  1  0.20860000  0.62830000  0.86870000  1.0 0.1587317758
H  H32  1  0.70860000  0.37170000  0.63130000  1.0 0.1587317758
H  H33  1  0.81520000  0.19290000  0.47410000  1.0 0.1406315514
H  H34  1  0.31520000  0.80710000  0.02590000  1.0 0.1406315514
H  H35  1  0.68480000  0.30710000  0.97410000  1.0 0.1406315514
H  H36  1  0.18480000  0.69290000  0.52590000  1.0 0.1406315514
H  H37  1  0.18480000  0.80710000  0.52590000  1.0 0.1406315514
H  H38  1  0.68480000  0.19290000  0.97410000  1.0 0.1406315514
H  H39  1  0.31520000  0.69290000  0.02590000  1.0 0.1406315514
H  H40  1  0.81520000  0.30710000  0.47410000  1.0 0.1406315514
H  H41  1  0.73180000  0.17420000  0.55220000  1.0 0.1500725412
H  H42  1  0.23180000  0.82580000  0.94780000  1.0 0.1500725412
H  H43  1  0.76820000  0.32580000  0.05220000  1.0 0.1500725412
H  H44  1  0.26820000  0.67420000  0.44780000  1.0 0.1500725412
H  H45  1  0.26820000  0.82580000  0.44780000  1.0 0.1500725412
H  H46  1  0.76820000  0.17420000  0.05220000  1.0 0.1500725412
H  H47  1  0.23180000  0.67420000  0.94780000  1.0 0.1500725412
H  H48  1  0.73180000  0.32580000  0.55220000  1.0 0.1500725412
H  H49  1  0.51450000  0.00260000  0.56650000  1.0 0.1406315514
H  H50  1  0.01450000  0.99740000  0.93350000  1.0 0.1406315514
H  H51  1  0.98550000  0.49740000  0.06650000  1.0 0.1406315514
H  H52  1  0.48550000  0.50260000  0.43350000  1.0 0.1406315514
H  H53  1  0.48550000  0.99740000  0.43350000  1.0 0.1406315514
H  H54  1  0.98550000  0.00260000  0.06650000  1.0 0.1406315514
H  H55  1  0.01450000  0.50260000  0.93350000  1.0 0.1406315514
H  H56  1  0.51450000  0.49740000  0.56650000  1.0 0.1406315514
H  H57  1  0.01990000  0.17860000  0.33550000  1.0 0.1406315514
H  H58  1  0.51990000  0.82140000  0.16450000  1.0 0.1406315514
H  H59  1  0.48010000  0.32140000  0.83550000  1.0 0.1406315514
H  H60  1  0.98010000  0.67860000  0.66450000  1.0 0.1406315514
H  H61  1  0.98010000  0.82140000  0.66450000  1.0 0.1406315514
H  H62  1  0.48010000  0.17860000  0.83550000  1.0 0.1406315514
H  H63  1  0.51990000  0.67860000  0.16450000  1.0 0.1406315514
H  H64  1  0.01990000  0.32140000  0.33550000  1.0 0.1406315514
H  H65  1  0.96810000  0.17860000  0.42450000  1.0 0.1500725412
H  H66  1  0.46810000  0.82140000  0.07550000  1.0 0.1500725412
H  H67  1  0.53190000  0.32140000  0.92450000  1.0 0.1500725412
H  H68  1  0.03190000  0.67860000  0.57550000  1.0 0.1500725412
H  H69  1  0.03190000  0.82140000  0.57550000  1.0 0.1500725412
H  H70  1  0.53190000  0.17860000  0.92450000  1.0 0.1500725412
H  H71  1  0.46810000  0.67860000  0.07550000  1.0 0.1500725412
H  H72  1  0.96810000  0.32140000  0.42450000  1.0 0.1500725412
H  H73  1  0.76670000  0.07340000  0.34390000  1.0 0.1500725412
H  H74  1  0.26670000  0.92660000  0.15610000  1.0 0.1500725412
H  H75  1  0.73330000  0.42660000  0.84390000  1.0 0.1500725412
H  H76  1  0.23330000  0.57340000  0.65610000  1.0 0.1500725412
H  H77  1  0.23330000  0.92660000  0.65610000  1.0 0.1500725412
H  H78  1  0.73330000  0.07340000  0.84390000  1.0 0.1500725412
H  H79  1  0.26670000  0.57340000  0.15610000  1.0 0.1500725412
H  H80  1  0.76670000  0.42660000  0.34390000  1.0 0.1500725412
W  W1  1  0.01567000  0.16718000  0.84708000  1.0 2.4317094148
W  W2  1  0.51567000  0.83282000  0.65292000  1.0 2.4317094148
W  W3  1  0.48433000  0.33282000  0.34708000  1.0 2.4317094148
W  W4  1  0.98433000  0.66718000  0.15292000  1.0 2.4317094148
W  W5  1  0.98433000  0.83282000  0.15292000  1.0 2.4317094148
W  W6  1  0.48433000  0.16718000  0.34708000  1.0 2.4317094148
W  W7  1  0.51567000  0.66718000  0.65292000  1.0 2.4317094148
W  W8  1  0.01567000  0.33282000  0.84708000  1.0 2.4317094148
W  W9  1  0.23956000  0.25000000  0.84766000  1.0 2.4110623394
W  W10  1  0.73956000  0.75000000  0.65234000  1.0 2.4110623394
W  W11  1  0.26044000  0.25000000  0.34766000  1.0 2.4110623394
W  W12  1  0.76044000  0.75000000  0.15234000  1.0 2.4110623394
W  W13  1  0.93449000  0.25000000  0.63104000  1.0 2.4157168415
W  W14  1  0.43449000  0.75000000  0.86896000  1.0 2.4157168415
W  W15  1  0.56551000  0.25000000  0.13104000  1.0 2.4157168415
W  W16  1  0.06551000  0.75000000  0.36896000  1.0 2.4157168415
W  W17  1  0.10493000  0.07704000  0.73305000  1.0 2.4456555904
W  W18  1  0.60493000  0.92296000  0.76695000  1.0 2.4387671174
W  W19  1  0.39507000  0.42296000  0.23305000  1.0 2.4456555904
W  W20  1  0.89507000  0.57704000  0.26695000  1.0 2.4387671174
W  W21  1  0.89507000  0.92296000  0.26695000  1.0 2.4387671174
W  W22  1  0.39507000  0.07704000  0.23305000  1.0 2.4456555904
W  W23  1  0.60493000  0.57704000  0.76695000  1.0 2.4387671174
W  W24  1  0.10493000  0.42296000  0.73305000  1.0 2.4456555904
W  W25  1  0.85936000  0.16945000  0.73107000  1.0 2.4387671174
W  W26  1  0.35936000  0.83055000  0.76893000  1.0 2.4387671174
W  W27  1  0.64064000  0.33055000  0.23107000  1.0 2.4387671174
W  W28  1  0.14064000  0.66945000  0.26893000  1.0 2.4387671174
W  W29  1  0.14064000  0.83055000  0.26893000  1.0 2.4387671174
W  W30  1  0.64064000  0.16945000  0.23107000  1.0 2.4387671174
W  W31  1  0.35936000  0.66945000  0.76893000  1.0 2.4387671174
W  W32  1  0.85936000  0.33055000  0.73107000  1.0 2.4387671174
W  W33  1  0.18144000  0.15782000  0.63182000  1.0 2.4157168415
W  W34  1  0.68144000  0.84218000  0.86818000  1.0 2.4110623394
W  W35  1  0.31856000  0.34218000  0.13182000  1.0 2.4110623394
W  W36  1  0.81856000  0.65782000  0.36818000  1.0 2.4110623394
W  W37  1  0.81856000  0.84218000  0.36818000  1.0 2.4110623394
W  W38  1  0.31856000  0.15782000  0.13182000  1.0 2.4157168415
W  W39  1  0.68144000  0.65782000  0.86818000  1.0 2.4110623394
W  W40  1  0.18144000  0.34218000  0.63182000  1.0 2.4157168415
W  W41  1  0.32371000  0.15814000  0.73380000  1.0 2.4387671174
W  W42  1  0.82371000  0.84186000  0.76620000  1.0 2.4387671174
W  W43  1  0.17629000  0.34186000  0.23380000  1.0 2.4387671174
W  W44  1  0.67629000  0.65814000  0.26620000  1.0 2.4387671174
W  W45  1  0.67629000  0.84186000  0.26620000  1.0 2.4387671174
W  W46  1  0.17629000  0.15814000  0.23380000  1.0 2.4387671174
W  W47  1  0.82371000  0.65814000  0.76620000  1.0 2.4387671174
W  W48  1  0.32371000  0.34186000  0.73380000  1.0 2.4387671174
C  C1  1  0.52310000  0.03550000  0.63850000  1.0 0.0094624959
C  C2  1  0.02310000  0.96450000  0.86150000  1.0 0.0094624959
C  C3  1  0.97690000  0.46450000  0.13850000  1.0 0.0094624959
C  C4  1  0.47690000  0.53550000  0.36150000  1.0 0.0094624959
C  C5  1  0.47690000  0.96450000  0.36150000  1.0 0.0094624959
C  C6  1  0.97690000  0.03550000  0.13850000  1.0 0.0094624959
C  C7  1  0.02310000  0.53550000  0.86150000  1.0 0.0094624959
C  C8  1  0.52310000  0.46450000  0.63850000  1.0 0.0094624959
C  C9  1  0.68190000  0.08340000  0.53420000  1.0 0.1746060891
C  C10  1  0.18190000  0.91660000  0.96580000  1.0 0.1746060891
C  C11  1  0.81810000  0.41660000  0.03420000  1.0 0.1746060891
C  C12  1  0.31810000  0.58340000  0.46580000  1.0 0.1746060891
C  C13  1  0.31810000  0.91660000  0.46580000  1.0 0.1746060891
C  C14  1  0.81810000  0.08340000  0.03420000  1.0 0.1746060891
C  C15  1  0.18190000  0.58340000  0.96580000  1.0 0.1746060891
C  C16  1  0.68190000  0.41660000  0.53420000  1.0 0.1746060891
C  C17  1  0.73830000  0.04440000  0.45280000  1.0 -0.1221844468
C  C18  1  0.23830000  0.95560000  0.04720000  1.0 -0.1221844468
C  C19  1  0.76170000  0.45560000  0.95280000  1.0 -0.1221844468
C  C20  1  0.26170000  0.54440000  0.54720000  1.0 -0.1221844468
C  C21  1  0.26170000  0.95560000  0.54720000  1.0 -0.1221844468
C  C22  1  0.76170000  0.04440000  0.95280000  1.0 -0.1221844468
C  C23  1  0.23830000  0.54440000  0.04720000  1.0 -0.1221844468
C  C24  1  0.73830000  0.45560000  0.45280000  1.0 -0.1221844468
C  C25  1  0.68540000  0.03310000  0.49800000  1.0 -0.1349056004
C  C26  1  0.18540000  0.96690000  0.00200000  1.0 -0.1349056004
C  C27  1  0.81460000  0.46690000  0.99800000  1.0 -0.1377843359
C  C28  1  0.31460000  0.53310000  0.50200000  1.0 -0.1377843359
C  C29  1  0.31460000  0.96690000  0.50200000  1.0 -0.1377843359
C  C30  1  0.81460000  0.03310000  0.99800000  1.0 -0.1377843359
C  C31  1  0.18540000  0.53310000  0.00200000  1.0 -0.1349056004
C  C32  1  0.68540000  0.46690000  0.49800000  1.0 -0.1349056004
C  C33  1  0.78710000  0.10410000  0.44590000  1.0 0.1587317758
C  C34  1  0.28710000  0.89590000  0.05410000  1.0 0.1587317758
C  C35  1  0.71290000  0.39590000  0.94590000  1.0 0.1587317758
C  C36  1  0.21290000  0.60410000  0.55410000  1.0 0.1587317758
C  C37  1  0.21290000  0.89590000  0.55410000  1.0 0.1587317758
C  C38  1  0.71290000  0.10410000  0.94590000  1.0 0.1587317758
C  C39  1  0.28710000  0.60410000  0.05410000  1.0 0.1587317758
C  C40  1  0.78710000  0.39590000  0.44590000  1.0 0.1587317758
C  C41  1  0.65300000  0.09990000  0.62590000  1.0 0.1077311463
C  C42  1  0.15300000  0.90010000  0.87410000  1.0 0.1077311463
C  C43  1  0.84700000  0.40010000  0.12590000  1.0 0.1077311463
C  C44  1  0.34700000  0.59990000  0.37410000  1.0 0.1077311463
C  C45  1  0.34700000  0.90010000  0.37410000  1.0 0.1077311463
C  C46  1  0.84700000  0.09990000  0.12590000  1.0 0.1077311463
C  C47  1  0.15300000  0.59990000  0.87410000  1.0 0.1077311463
C  C48  1  0.65300000  0.40010000  0.62590000  1.0 0.1077311463
C  C49  1  0.78400000  0.15220000  0.48050000  1.0 -0.1221844468
C  C50  1  0.28400000  0.84780000  0.01950000  1.0 -0.1221844468
C  C51  1  0.71600000  0.34780000  0.98050000  1.0 -0.1221844468
C  C52  1  0.21600000  0.65220000  0.51950000  1.0 -0.1221844468
C  C53  1  0.21600000  0.84780000  0.51950000  1.0 -0.1221844468
C  C54  1  0.71600000  0.15220000  0.98050000  1.0 -0.1221844468
C  C55  1  0.28400000  0.65220000  0.01950000  1.0 -0.1221844468
C  C56  1  0.78400000  0.34780000  0.48050000  1.0 -0.1221844468
C  C57  1  0.73100000  0.14170000  0.52730000  1.0 -0.1377843359
C  C58  1  0.23100000  0.85830000  0.97270000  1.0 -0.1377843359
C  C59  1  0.76900000  0.35830000  0.02730000  1.0 -0.1377843359
C  C60  1  0.26900000  0.64170000  0.47270000  1.0 -0.1377843359
C  C61  1  0.26900000  0.85830000  0.47270000  1.0 -0.1377843359
C  C62  1  0.76900000  0.14170000  0.02730000  1.0 -0.1377843359
C  C63  1  0.23100000  0.64170000  0.97270000  1.0 -0.1377843359
C  C64  1  0.73100000  0.35830000  0.52730000  1.0 -0.1377843359
C  C65  1  0.54700000  0.03010000  0.58990000  1.0 -0.1094640051
C  C66  1  0.04700000  0.96990000  0.91010000  1.0 -0.1094640051
C  C67  1  0.95300000  0.46990000  0.08990000  1.0 -0.1094640051
C  C68  1  0.45300000  0.53010000  0.41010000  1.0 -0.1094640051
C  C69  1  0.45300000  0.96990000  0.41010000  1.0 -0.1094640051
C  C70  1  0.95300000  0.03010000  0.08990000  1.0 -0.1094640051
C  C71  1  0.04700000  0.53010000  0.91010000  1.0 -0.1094640051
C  C72  1  0.54700000  0.46990000  0.58990000  1.0 -0.1094640051
C  C73  1  0.96220000  0.15680000  0.34820000  1.0 0.0094624959
C  C74  1  0.46220000  0.84320000  0.15180000  1.0 0.0094624959
C  C75  1  0.53780000  0.34320000  0.84820000  1.0 0.0094624959
C  C76  1  0.03780000  0.65680000  0.65180000  1.0 0.0094624959
C  C77  1  0.03780000  0.84320000  0.65180000  1.0 0.0094624959
C  C78  1  0.53780000  0.15680000  0.84820000  1.0 0.0094624959
C  C79  1  0.46220000  0.65680000  0.15180000  1.0 0.0094624959
C  C80  1  0.96220000  0.34320000  0.34820000  1.0 0.0094624959
C  C81  1  0.93440000  0.15720000  0.39820000  1.0 -0.1221844468
C  C82  1  0.43440000  0.84280000  0.10180000  1.0 -0.1221844468
C  C83  1  0.56560000  0.34280000  0.89820000  1.0 -0.1221844468
C  C84  1  0.06560000  0.65720000  0.60180000  1.0 -0.1221844468
C  C85  1  0.06560000  0.84280000  0.60180000  1.0 -0.1221844468
C  C86  1  0.56560000  0.15720000  0.89820000  1.0 -0.1221844468
C  C87  1  0.43440000  0.65720000  0.10180000  1.0 -0.1221844468
C  C88  1  0.93440000  0.34280000  0.39820000  1.0 -0.1221844468
C  C89  1  0.82360000  0.09890000  0.35300000  1.0 0.1228150562
C  C90  1  0.32360000  0.90110000  0.14700000  1.0 0.1228150562
C  C91  1  0.67640000  0.40110000  0.85300000  1.0 0.1228150562
C  C92  1  0.17640000  0.59890000  0.64700000  1.0 0.1228150562
C  C93  1  0.17640000  0.90110000  0.64700000  1.0 0.1228150562
C  C94  1  0.67640000  0.09890000  0.85300000  1.0 0.1228150562
C  C95  1  0.32360000  0.59890000  0.14700000  1.0 0.1228150562
C  C96  1  0.82360000  0.40110000  0.35300000  1.0 0.1228150562
N  N1  1  0.58760000  0.08110000  0.66160000  1.0 -0.274471344
N  N2  1  0.08760000  0.91890000  0.83840000  1.0 -0.274471344
N  N3  1  0.91240000  0.41890000  0.16160000  1.0 -0.274471344
N  N4  1  0.41240000  0.58110000  0.33840000  1.0 -0.274471344
N  N5  1  0.41240000  0.91890000  0.33840000  1.0 -0.274471344
N  N6  1  0.91240000  0.08110000  0.16160000  1.0 -0.274471344
N  N7  1  0.08760000  0.58110000  0.83840000  1.0 -0.274471344
N  N8  1  0.58760000  0.41890000  0.66160000  1.0 -0.274471344
N  N9  1  0.62860000  0.07240000  0.58030000  1.0 0.0094624959
N  N10  1  0.12860000  0.92760000  0.91970000  1.0 0.0094624959
N  N11  1  0.87140000  0.42760000  0.08030000  1.0 0.0094624959
N  N12  1  0.37140000  0.57240000  0.41970000  1.0 0.0094624959
N  N13  1  0.37140000  0.92760000  0.41970000  1.0 0.0094624959
N  N14  1  0.87140000  0.07240000  0.08030000  1.0 0.0094624959
N  N15  1  0.12860000  0.57240000  0.91970000  1.0 0.0094624959
N  N16  1  0.62860000  0.42760000  0.58030000  1.0 0.0094624959
N  N17  1  0.84450000  0.11860000  0.40110000  1.0 0.0094624959
N  N18  1  0.34450000  0.88140000  0.09890000  1.0 0.0094624959
N  N19  1  0.65550000  0.38140000  0.90110000  1.0 0.0094624959
N  N20  1  0.15550000  0.61860000  0.59890000  1.0 0.0094624959
N  N21  1  0.15550000  0.88140000  0.59890000  1.0 0.0094624959
N  N22  1  0.65550000  0.11860000  0.90110000  1.0 0.0094624959
N  N23  1  0.34450000  0.61860000  0.09890000  1.0 0.0094624959
N  N24  1  0.84450000  0.38140000  0.40110000  1.0 0.0094624959
N  N25  1  0.89570000  0.12080000  0.31980000  1.0 -0.284199798
N  N26  1  0.39570000  0.87920000  0.18020000  1.0 -0.284199798
N  N27  1  0.60430000  0.37920000  0.81980000  1.0 -0.284199798
N  N28  1  0.10430000  0.62080000  0.68020000  1.0 -0.284199798
N  N29  1  0.10430000  0.87920000  0.68020000  1.0 -0.284199798
N  N30  1  0.60430000  0.12080000  0.81980000  1.0 -0.284199798
N  N31  1  0.39570000  0.62080000  0.18020000  1.0 -0.284199798
N  N32  1  0.89570000  0.37920000  0.31980000  1.0 -0.284199798
O  O1  1  0.24830000  0.07490000  0.74570000  1.0 -0.8208014905
O  O2  1  0.74830000  0.92510000  0.75430000  1.0 -0.8208014905
O  O3  1  0.25170000  0.42510000  0.24570000  1.0 -0.8208014905
O  O4  1  0.75170000  0.57490000  0.25430000  1.0 -0.8208014905
O  O5  1  0.75170000  0.92510000  0.25430000  1.0 -0.8208014905
O  O6  1  0.25170000  0.07490000  0.24570000  1.0 -0.8208014905
O  O7  1  0.74830000  0.57490000  0.75430000  1.0 -0.8208014905
O  O8  1  0.24830000  0.42510000  0.74570000  1.0 -0.8208014905
O  O9  1  0.08420000  0.10750000  0.80020000  1.0 -0.8503264427
O  O10  1  0.58420000  0.89250000  0.69980000  1.0 -0.8503264427
O  O11  1  0.41580000  0.39250000  0.30020000  1.0 -0.8503264427
O  O12  1  0.91580000  0.60750000  0.19980000  1.0 -0.8503264427
O  O13  1  0.91580000  0.89250000  0.19980000  1.0 -0.8503264427
O  O14  1  0.41580000  0.10750000  0.30020000  1.0 -0.8503264427
O  O15  1  0.58420000  0.60750000  0.69980000  1.0 -0.8503264427
O  O16  1  0.08420000  0.39250000  0.80020000  1.0 -0.8503264427
O  O17  1  0.28900000  0.31530000  0.80050000  1.0 -0.8595049767
O  O18  1  0.78900000  0.68470000  0.69950000  1.0 -0.8595049767
O  O19  1  0.21100000  0.18470000  0.30050000  1.0 -0.8595049767
O  O20  1  0.71100000  0.81530000  0.19950000  1.0 -0.8595049767
O  O21  1  0.71100000  0.68470000  0.19950000  1.0 -0.8595049767
O  O22  1  0.21100000  0.31530000  0.30050000  1.0 -0.8595049767
O  O23  1  0.78900000  0.81530000  0.69950000  1.0 -0.8595049767
O  O24  1  0.28900000  0.18470000  0.80050000  1.0 -0.8595049767
O  O25  1  0.31450000  0.14150000  0.66240000  1.0 -0.8595049767
O  O26  1  0.81450000  0.85850000  0.83760000  1.0 -0.8595049767
O  O27  1  0.18550000  0.35850000  0.16240000  1.0 -0.8595049767
O  O28  1  0.68550000  0.64150000  0.33760000  1.0 -0.8595049767
O  O29  1  0.68550000  0.85850000  0.33760000  1.0 -0.8595049767
O  O30  1  0.18550000  0.14150000  0.16240000  1.0 -0.8595049767
O  O31  1  0.81450000  0.64150000  0.83760000  1.0 -0.8595049767
O  O32  1  0.31450000  0.35850000  0.66240000  1.0 -0.8595049767
O  O33  1  0.97310000  0.25000000  0.87730000  1.0 -0.8309499561
O  O34  1  0.47310000  0.75000000  0.62270000  1.0 -0.8309499561
O  O35  1  0.52690000  0.25000000  0.37730000  1.0 -0.8309499561
O  O36  1  0.02690000  0.75000000  0.12270000  1.0 -0.8309499561
O  O37  1  0.15110000  0.18260000  0.87610000  1.0 -0.8813461392
O  O38  1  0.65110000  0.81740000  0.62390000  1.0 -0.8813461392
O  O39  1  0.34890000  0.31740000  0.37610000  1.0 -0.8813461392
O  O40  1  0.84890000  0.68260000  0.12390000  1.0 -0.8813461392
O  O41  1  0.84890000  0.81740000  0.12390000  1.0 -0.8813461392
O  O42  1  0.34890000  0.18260000  0.37610000  1.0 -0.8813461392
O  O43  1  0.65110000  0.68260000  0.62390000  1.0 -0.8813461392
O  O44  1  0.15110000  0.31740000  0.87610000  1.0 -0.8813461392
O  O45  1  0.84590000  0.18210000  0.65920000  1.0 -0.8813461392
O  O46  1  0.34590000  0.81790000  0.84080000  1.0 -0.8813461392
O  O47  1  0.65410000  0.31790000  0.15920000  1.0 -0.8813461392
O  O48  1  0.15410000  0.68210000  0.34080000  1.0 -0.8813461392
O  O49  1  0.15410000  0.81790000  0.34080000  1.0 -0.8813461392
O  O50  1  0.65410000  0.18210000  0.15920000  1.0 -0.8813461392
O  O51  1  0.34590000  0.68210000  0.84080000  1.0 -0.8813461392
O  O52  1  0.84590000  0.31790000  0.65920000  1.0 -0.8813461392
O  O53  1  0.34930000  0.25000000  0.72140000  1.0 -0.8309499561
O  O54  1  0.84930000  0.75000000  0.77860000  1.0 -0.8309499561
O  O55  1  0.15070000  0.25000000  0.22140000  1.0 -0.8309499561
O  O56  1  0.65070000  0.75000000  0.27860000  1.0 -0.8309499561
O  O57  1  0.13290000  0.07520000  0.66170000  1.0 -0.8680543839
O  O58  1  0.63290000  0.92480000  0.83830000  1.0 -0.8680543839
O  O59  1  0.36710000  0.42480000  0.16170000  1.0 -0.8680543839
O  O60  1  0.86710000  0.57520000  0.33830000  1.0 -0.8680543839
O  O61  1  0.86710000  0.92480000  0.33830000  1.0 -0.8680543839
O  O62  1  0.36710000  0.07520000  0.16170000  1.0 -0.8680543839
O  O63  1  0.63290000  0.57520000  0.83830000  1.0 -0.8680543839
O  O64  1  0.13290000  0.42480000  0.66170000  1.0 -0.8680543839
O  O65  1  0.96690000  0.11290000  0.89010000  1.0 -0.6688009738
O  O66  1  0.46690000  0.88710000  0.60990000  1.0 -0.6688009738
O  O67  1  0.53310000  0.38710000  0.39010000  1.0 -0.6688009738
O  O68  1  0.03310000  0.61290000  0.10990000  1.0 -0.6688009738
O  O69  1  0.03310000  0.88710000  0.10990000  1.0 -0.6688009738
O  O70  1  0.53310000  0.11290000  0.39010000  1.0 -0.6688009738
O  O71  1  0.46690000  0.61290000  0.60990000  1.0 -0.6688009738
O  O72  1  0.96690000  0.38710000  0.89010000  1.0 -0.6688009738
O  O73  1  0.88560000  0.25000000  0.57070000  1.0 -0.6954487501
O  O74  1  0.38560000  0.75000000  0.92930000  1.0 -0.6954487501
O  O75  1  0.61440000  0.25000000  0.07070000  1.0 -0.6954487501
O  O76  1  0.11440000  0.75000000  0.42930000  1.0 -0.6954487501
O  O77  1  0.08910000  0.25000000  0.80170000  1.0 -0.958629743
O  O78  1  0.58910000  0.75000000  0.69830000  1.0 -0.958629743
O  O79  1  0.41090000  0.25000000  0.30170000  1.0 -0.958629743
O  O80  1  0.91090000  0.75000000  0.19830000  1.0 -0.958629743
O  O81  1  0.96480000  0.25000000  0.71380000  1.0 -0.958629743
O  O82  1  0.46480000  0.75000000  0.78620000  1.0 -0.958629743
O  O83  1  0.53520000  0.25000000  0.21380000  1.0 -0.958629743
O  O84  1  0.03520000  0.75000000  0.28620000  1.0 -0.958629743
O  O85  1  0.16100000  0.17830000  0.71420000  1.0 -0.958629743
O  O86  1  0.66100000  0.82170000  0.78580000  1.0 -0.9543997346
O  O87  1  0.33900000  0.32170000  0.21420000  1.0 -0.9543997346
O  O88  1  0.83900000  0.67830000  0.28580000  1.0 -0.9543997346
O  O89  1  0.83900000  0.82170000  0.28580000  1.0 -0.9543997346
O  O90  1  0.33900000  0.17830000  0.21420000  1.0 -0.958629743
O  O91  1  0.66100000  0.67830000  0.78580000  1.0 -0.9543997346
O  O92  1  0.16100000  0.32170000  0.71420000  1.0 -0.958629743
O  O93  1  0.90740000  0.17220000  0.79890000  1.0 -0.8503264427
O  O94  1  0.40740000  0.82780000  0.70110000  1.0 -0.8503264427
O  O95  1  0.59260000  0.32780000  0.29890000  1.0 -0.8503264427
O  O96  1  0.09260000  0.67220000  0.20110000  1.0 -0.8503264427
O  O97  1  0.09260000  0.82780000  0.20110000  1.0 -0.8503264427
O  O98  1  0.59260000  0.17220000  0.29890000  1.0 -0.8503264427
O  O99  1  0.40740000  0.67220000  0.70110000  1.0 -0.8503264427
O  O100  1  0.90740000  0.32780000  0.79890000  1.0 -0.8503264427
O  O101  1  0.44540000  0.12780000  0.74320000  1.0 -0.7282050489
O  O102  1  0.94540000  0.87220000  0.75680000  1.0 -0.7282050489
O  O103  1  0.05460000  0.37220000  0.24320000  1.0 -0.7282050489
O  O104  1  0.55460000  0.62780000  0.25680000  1.0 -0.7282050489
O  O105  1  0.55460000  0.87220000  0.25680000  1.0 -0.7282050489
O  O106  1  0.05460000  0.12780000  0.24320000  1.0 -0.7282050489
O  O107  1  0.94540000  0.62780000  0.75680000  1.0 -0.7282050489
O  O108  1  0.44540000  0.37220000  0.74320000  1.0 -0.7282050489
O  O109  1  0.96930000  0.10850000  0.71960000  1.0 -0.8421684294
O  O110  1  0.46930000  0.89150000  0.78040000  1.0 -0.8421684294
O  O111  1  0.53070000  0.39150000  0.21960000  1.0 -0.8421684294
O  O112  1  0.03070000  0.60850000  0.28040000  1.0 -0.8421684294
O  O113  1  0.03070000  0.89150000  0.28040000  1.0 -0.8421684294
O  O114  1  0.53070000  0.10850000  0.21960000  1.0 -0.8421684294
O  O115  1  0.46930000  0.60850000  0.78040000  1.0 -0.8421684294
O  O116  1  0.96930000  0.39150000  0.71960000  1.0 -0.8421684294
O  O117  1  0.77910000  0.25000000  0.74370000  1.0 -0.8680543839
O  O118  1  0.27910000  0.75000000  0.75630000  1.0 -0.8680543839
O  O119  1  0.72090000  0.25000000  0.24370000  1.0 -0.8680543839
O  O120  1  0.22090000  0.75000000  0.25630000  1.0 -0.8680543839
O  O121  1  0.20890000  0.12850000  0.57280000  1.0 -0.6454086243
O  O122  1  0.70890000  0.87150000  0.92720000  1.0 -0.6448870837
O  O123  1  0.29110000  0.37150000  0.07280000  1.0 -0.6454086243
O  O124  1  0.79110000  0.62850000  0.42720000  1.0 -0.6448870837
O  O125  1  0.79110000  0.87150000  0.42720000  1.0 -0.6448870837
O  O126  1  0.29110000  0.12850000  0.07280000  1.0 -0.6454086243
O  O127  1  0.70890000  0.62850000  0.92720000  1.0 -0.6448870837
O  O128  1  0.20890000  0.37150000  0.57280000  1.0 -0.6448870837
O  O129  1  0.21390000  0.25000000  0.62510000  1.0 -0.8813461392
O  O130  1  0.71390000  0.75000000  0.87490000  1.0 -0.8813461392
O  O131  1  0.28610000  0.25000000  0.12510000  1.0 -0.8813461392
O  O132  1  0.78610000  0.75000000  0.37490000  1.0 -0.8813461392
O  O133  1  0.33840000  0.25000000  0.89110000  1.0 -0.6688009738
O  O134  1  0.83840000  0.75000000  0.60890000  1.0 -0.6688009738
O  O135  1  0.16160000  0.25000000  0.39110000  1.0 -0.6688009738
O  O136  1  0.66160000  0.75000000  0.10890000  1.0 -0.6688009738
O  O137  1  0.04090000  0.18480000  0.62390000  1.0 -0.8595049767
O  O138  1  0.54090000  0.81520000  0.87610000  1.0 -0.8595049767
O  O139  1  0.45910000  0.31520000  0.12390000  1.0 -0.8595049767
O  O140  1  0.95910000  0.68480000  0.37610000  1.0 -0.8595049767
O  O141  1  0.95910000  0.81520000  0.37610000  1.0 -0.8595049767
O  O142  1  0.45910000  0.18480000  0.12390000  1.0 -0.8595049767
O  O143  1  0.54090000  0.68480000  0.87610000  1.0 -0.8595049767
O  O144  1  0.04090000  0.31520000  0.62390000  1.0 -0.8595049767
O  O145  1  0.08450000  0.99290000  0.74150000  1.0 -0.7154089227
O  O146  1  0.58450000  0.00710000  0.75850000  1.0 -0.7154089227
O  O147  1  0.41550000  0.50710000  0.24150000  1.0 -0.7154089227
O  O148  1  0.91550000  0.49290000  0.25850000  1.0 -0.7154089227
O  O149  1  0.91550000  0.00710000  0.25850000  1.0 -0.7154089227
O  O150  1  0.41550000  0.99290000  0.24150000  1.0 -0.7154089227
O  O151  1  0.58450000  0.49290000  0.75850000  1.0 -0.7154089227
O  O152  1  0.08450000  0.50710000  0.74150000  1.0 -0.7154089227
O  O153  1  0.75580000  0.11480000  0.73720000  1.0 -0.7641372024
O  O154  1  0.25580000  0.88520000  0.76280000  1.0 -0.7641372024
O  O155  1  0.74420000  0.38520000  0.23720000  1.0 -0.7641372024
O  O156  1  0.24420000  0.61480000  0.26280000  1.0 -0.7641372024
O  O157  1  0.24420000  0.88520000  0.26280000  1.0 -0.7641372024
O  O158  1  0.74420000  0.11480000  0.23720000  1.0 -0.7641372024
O  O159  1  0.25580000  0.61480000  0.76280000  1.0 -0.7641372024
O  O160  1  0.75580000  0.38520000  0.73720000  1.0 -0.7641372024
