# DDEC6 charges by PACMAN v1.1 (https://github.com/mtap-research/PACMAN-charge/)
data_ORAGOF_ASR_pacman
_symmetry_space_group_name_H-M   'P 1'
_cell_length_a   15.87690000
_cell_length_b   23.51030000
_cell_length_c   23.15770000
_cell_angle_alpha   90.00000000
_cell_angle_beta   101.22600000
_cell_angle_gamma   90.00000000
_symmetry_Int_Tables_number   1
_chemical_formula_structural   Ho2P3H24C43N3O19
_chemical_formula_sum   'Ho8 P12 H96 C172 N12 O76'
_cell_volume   8478.70234428
_cell_formula_units_Z   4
loop_
 _symmetry_equiv_pos_site_id
 _symmetry_equiv_pos_as_xyz
  1  'x, y, z'
loop_
 _atom_site_type_symbol
 _atom_site_label
 _atom_site_symmetry_multiplicity
 _atom_site_fract_x
 _atom_site_fract_y
 _atom_site_fract_z
 _atom_site_occupancy
 _atom_site_charge
Ho  Ho1  1  0.61019000  0.13629000  0.69894000  1.0 2.0531866236
Ho  Ho2  1  0.38981000  0.63629000  0.30106000  1.0 2.0531866236
Ho  Ho3  1  0.12824000  0.64060000  0.23009000  1.0 2.1078210755
Ho  Ho4  1  0.87176000  0.14060000  0.76991000  1.0 2.1078210755
Ho  Ho5  1  0.89371000  0.69240000  0.21973000  1.0 2.1030666514
Ho  Ho6  1  0.10629000  0.19240000  0.78027000  1.0 2.1030666514
Ho  Ho7  1  0.39013000  0.21240000  0.70028000  1.0 2.0737024231
Ho  Ho8  1  0.60987000  0.71240000  0.29972000  1.0 2.0737024231
P  P1  1  0.61515000  0.46995000  0.99118000  1.0 1.3108320518
P  P2  1  0.38485000  0.96995000  0.00882000  1.0 1.3108320518
P  P3  1  0.75396000  0.44707000  0.93860000  1.0 1.2996321602
P  P4  1  0.24604000  0.94707000  0.06140000  1.0 1.2996321602
P  P5  1  0.72670000  0.38220000  0.03275000  1.0 1.2996321602
P  P6  1  0.27330000  0.88220000  0.96725000  1.0 1.2996321602
P  P7  1  0.80657000  0.46103000  0.59438000  1.0 1.2996321602
P  P8  1  0.19343000  0.96103000  0.40562000  1.0 1.2996321602
P  P9  1  0.86820000  0.41816000  0.50030000  1.0 1.2996321602
P  P10  1  0.13180000  0.91816000  0.49970000  1.0 1.2996321602
P  P11  1  0.96190000  0.49732000  0.57333000  1.0 1.3108320518
P  P12  1  0.03810000  0.99732000  0.42667000  1.0 1.3108320518
H  H1  1  0.87430000  0.63170000  0.48270000  1.0 0.1395376577
H  H2  1  0.12570000  0.13170000  0.51730000  1.0 0.1395376577
H  H3  1  0.90160000  0.66800000  0.39720000  1.0 0.1306257019
H  H4  1  0.09840000  0.16800000  0.60280000  1.0 0.1306257019
H  H5  1  0.12370000  0.57720000  0.41890000  1.0 0.1306257019
H  H6  1  0.87630000  0.07720000  0.58110000  1.0 0.1306257019
H  H7  1  0.09730000  0.54050000  0.50660000  1.0 0.1395376577
H  H8  1  0.90270000  0.04050000  0.49340000  1.0 0.1395376577
H  H9  1  0.70660000  0.48590000  0.41720000  1.0 0.1395376577
H  H10  1  0.29340000  0.98590000  0.58280000  1.0 0.1395376577
H  H11  1  0.67900000  0.56480000  0.35850000  1.0 0.1223876311
H  H12  1  0.32100000  0.06480000  0.64150000  1.0 0.1223876311
H  H13  1  0.90040000  0.54270000  0.30150000  1.0 0.1223876311
H  H14  1  0.09960000  0.04270000  0.69850000  1.0 0.1223876311
H  H15  1  0.93250000  0.46590000  0.36690000  1.0 0.1395376577
H  H16  1  0.06750000  0.96590000  0.63310000  1.0 0.1395376577
H  H17  1  0.57730000  0.48670000  0.53580000  1.0 0.1395376577
H  H18  1  0.42270000  0.98670000  0.46420000  1.0 0.1395376577
H  H19  1  0.50710000  0.54670000  0.46080000  1.0 0.1306257019
H  H20  1  0.49290000  0.04670000  0.53920000  1.0 0.1306257019
H  H21  1  0.71980000  0.64550000  0.47770000  1.0 0.1223876311
H  H22  1  0.28020000  0.14550000  0.52230000  1.0 0.1223876311
H  H23  1  0.78550000  0.59220000  0.55740000  1.0 0.1395376577
H  H24  1  0.21450000  0.09220000  0.44260000  1.0 0.1395376577
H  H25  1  0.77550000  0.35630000  0.72670000  1.0 0.1306257019
H  H26  1  0.22450000  0.85630000  0.27330000  1.0 0.1306257019
H  H27  1  0.66320000  0.29370000  0.73530000  1.0 0.1306257019
H  H28  1  0.33680000  0.79370000  0.26470000  1.0 0.1306257019
H  H29  1  0.54210000  0.34020000  0.57260000  1.0 0.1306257019
H  H30  1  0.45790000  0.84020000  0.42740000  1.0 0.1306257019
H  H31  1  0.65580000  0.39970000  0.56220000  1.0 0.1306257019
H  H32  1  0.34420000  0.89970000  0.43780000  1.0 0.1306257019
H  H33  1  0.95660000  0.32000000  0.61220000  1.0 0.1395376577
H  H34  1  0.04340000  0.82000000  0.38780000  1.0 0.1395376577
H  H35  1  0.89340000  0.25980000  0.67540000  1.0 0.1306257019
H  H36  1  0.10660000  0.75980000  0.32460000  1.0 0.1306257019
H  H37  1  0.69020000  0.23580000  0.54370000  1.0 0.1306257019
H  H38  1  0.30980000  0.73580000  0.45630000  1.0 0.1306257019
H  H39  1  0.75540000  0.29400000  0.48140000  1.0 0.1395376577
H  H40  1  0.24460000  0.79400000  0.51860000  1.0 0.1395376577
H  H41  1  0.02440000  0.43030000  0.69640000  1.0 0.1395376577
H  H42  1  0.97560000  0.93030000  0.30360000  1.0 0.1395376577
H  H43  1  0.08200000  0.34020000  0.72410000  1.0 0.1306257019
H  H44  1  0.91800000  0.84020000  0.27590000  1.0 0.1306257019
H  H45  1  0.23430000  0.34720000  0.60610000  1.0 0.1306257019
H  H46  1  0.76570000  0.84720000  0.39390000  1.0 0.1306257019
H  H47  1  0.17890000  0.43690000  0.57720000  1.0 0.1395376577
H  H48  1  0.82110000  0.93690000  0.42280000  1.0 0.1395376577
H  H49  1  0.42530000  0.37320000  0.97360000  1.0 0.1395376577
H  H50  1  0.57470000  0.87320000  0.02640000  1.0 0.1395376577
H  H51  1  0.37990000  0.30340000  0.90400000  1.0 0.1306257019
H  H52  1  0.62010000  0.80340000  0.09600000  1.0 0.1306257019
H  H53  1  0.50020000  0.38440000  0.78950000  1.0 0.1306257019
H  H54  1  0.49980000  0.88440000  0.21050000  1.0 0.1306257019
H  H55  1  0.54020000  0.45610000  0.85790000  1.0 0.1395376577
H  H56  1  0.45980000  0.95610000  0.14210000  1.0 0.1395376577
H  H57  1  0.72490000  0.31790000  0.85090000  1.0 0.1306257019
H  H58  1  0.27510000  0.81790000  0.14910000  1.0 0.1306257019
H  H59  1  0.82240000  0.25450000  0.82030000  1.0 0.1048201306
H  H60  1  0.17760000  0.75450000  0.17970000  1.0 0.1050610675
H  H61  1  0.98820000  0.38450000  0.81930000  1.0 0.1223876311
H  H62  1  0.01180000  0.88450000  0.18070000  1.0 0.1223876311
H  H63  1  0.89600000  0.44640000  0.85320000  1.0 0.1395376577
H  H64  1  0.10400000  0.94640000  0.14680000  1.0 0.1395376577
H  H65  1  0.57790000  0.29390000  0.94720000  1.0 0.1306257019
H  H66  1  0.42210000  0.79390000  0.05280000  1.0 0.1306257019
H  H67  1  0.57590000  0.23700000  0.86210000  1.0 0.1223876311
H  H68  1  0.42410000  0.73700000  0.13790000  1.0 0.1223876311
H  H69  1  0.82310000  0.19190000  0.92830000  1.0 0.1306257019
H  H70  1  0.17690000  0.69190000  0.07170000  1.0 0.1306257019
H  H71  1  0.82510000  0.25510000  0.00760000  1.0 0.1395376577
H  H72  1  0.17490000  0.75510000  0.99240000  1.0 0.1395376577
H  H73  1  0.50080000  0.47550000  0.07510000  1.0 0.1395376577
H  H74  1  0.49920000  0.97550000  0.92490000  1.0 0.1395376577
H  H75  1  0.45420000  0.50420000  0.15910000  1.0 0.1306257019
H  H76  1  0.54580000  0.00420000  0.84090000  1.0 0.1306257019
H  H77  1  0.61290000  0.64050000  0.17330000  1.0 0.1306257019
H  H78  1  0.38710000  0.14050000  0.82670000  1.0 0.1306257019
H  H79  1  0.66420000  0.60860000  0.09210000  1.0 0.1395376577
H  H80  1  0.33580000  0.10860000  0.90790000  1.0 0.1395376577
H  H81  1  0.74210000  0.48280000  0.12240000  1.0 0.1395376577
H  H82  1  0.25790000  0.98280000  0.87760000  1.0 0.1395376577
H  H83  1  0.83230000  0.55530000  0.16710000  1.0 0.1223876311
H  H84  1  0.16770000  0.05530000  0.83290000  1.0 0.1223876311
H  H85  1  0.03330000  0.44950000  0.17630000  1.0 0.1223876311
H  H86  1  0.96670000  0.94950000  0.82370000  1.0 0.1223876311
H  H87  1  0.94490000  0.37690000  0.13100000  1.0 0.1306257019
H  H88  1  0.05510000  0.87690000  0.86900000  1.0 0.1306257019
H  H89  1  0.75980000  0.57810000  0.97150000  1.0 0.1454626901
H  H90  1  0.24020000  0.07810000  0.02850000  1.0 0.1454626901
H  H91  1  0.81670000  0.64280000  0.04430000  1.0 0.1223876311
H  H92  1  0.18330000  0.14280000  0.95570000  1.0 0.1223876311
H  H93  1  0.04420000  0.56140000  0.06320000  1.0 0.1306257019
H  H94  1  0.95580000  0.06140000  0.93680000  1.0 0.1306257019
H  H95  1  0.98440000  0.49370000  0.99170000  1.0 0.1395376577
H  H96  1  0.01560000  0.99370000  0.00830000  1.0 0.1395376577
C  C1  1  0.98320000  0.58370000  0.50470000  1.0 0.3330898269
C  C2  1  0.01680000  0.08370000  0.49530000  1.0 0.3330898269
C  C3  1  0.92550000  0.62120000  0.47000000  1.0 -0.20919275
C  C4  1  0.07450000  0.12120000  0.53000000  1.0 -0.20919275
C  C5  1  0.94110000  0.64220000  0.41950000  1.0 -0.0690234652
C  C6  1  0.05890000  0.14220000  0.58050000  1.0 -0.0690234652
C  C7  1  0.01570000  0.62640000  0.39950000  1.0 -0.0614942859
C  C8  1  0.98430000  0.12640000  0.60050000  1.0 -0.0614942859
C  C9  1  0.07350000  0.58820000  0.43260000  1.0 -0.0614942859
C  C10  1  0.92650000  0.08820000  0.56740000  1.0 -0.0614942859
C  C11  1  0.05820000  0.56660000  0.48440000  1.0 -0.1995128875
C  C12  1  0.94180000  0.06660000  0.51560000  1.0 -0.1995128875
C  C13  1  0.02710000  0.64620000  0.34120000  1.0 0.6320675595
C  C14  1  0.97290000  0.14620000  0.65880000  1.0 0.6320675595
C  C15  1  0.82060000  0.46820000  0.39690000  1.0 0.2911162136
C  C16  1  0.17940000  0.96820000  0.60310000  1.0 0.2911162136
C  C17  1  0.74690000  0.49760000  0.39410000  1.0 -0.1995128875
C  C18  1  0.25310000  0.99760000  0.60590000  1.0 -0.1995128875
C  C19  1  0.73010000  0.54380000  0.35850000  1.0 -0.0614942859
C  C20  1  0.26990000  0.04380000  0.64150000  1.0 -0.0614942859
C  C21  1  0.78500000  0.56110000  0.32230000  1.0 -0.0690234652
C  C22  1  0.21500000  0.06110000  0.67770000  1.0 -0.0690234652
C  C23  1  0.86090000  0.53160000  0.32540000  1.0 -0.0690234652
C  C24  1  0.13910000  0.03160000  0.67460000  1.0 -0.0690234652
C  C25  1  0.87940000  0.48550000  0.36370000  1.0 -0.1995128875
C  C26  1  0.12060000  0.98550000  0.63630000  1.0 -0.1995128875
C  C27  1  0.76470000  0.61140000  0.28390000  1.0 0.6596859379
C  C28  1  0.23530000  0.11140000  0.71610000  1.0 0.6596859379
C  C29  1  0.68790000  0.53420000  0.55330000  1.0 0.3175255342
C  C30  1  0.31210000  0.03420000  0.44670000  1.0 0.3175255342
C  C31  1  0.60530000  0.51940000  0.52450000  1.0 -0.2184696512
C  C32  1  0.39470000  0.01940000  0.47550000  1.0 -0.2184696512
C  C33  1  0.56530000  0.55400000  0.47860000  1.0 -0.0499465218
C  C34  1  0.43470000  0.05400000  0.52140000  1.0 -0.0499465218
C  C35  1  0.60910000  0.59970000  0.45750000  1.0 -0.0972853096
C  C36  1  0.39090000  0.09970000  0.54250000  1.0 -0.0972853096
C  C37  1  0.69080000  0.61340000  0.48930000  1.0 -0.0614942859
C  C38  1  0.30920000  0.11340000  0.51070000  1.0 -0.0614942859
C  C39  1  0.73010000  0.58190000  0.53630000  1.0 -0.20919275
C  C40  1  0.26990000  0.08190000  0.46370000  1.0 -0.20919275
C  C41  1  0.57010000  0.62970000  0.40470000  1.0 0.6320675595
C  C42  1  0.42990000  0.12970000  0.59530000  1.0 0.6320675595
C  C43  1  0.72550000  0.38250000  0.64520000  1.0 0.2994402928
C  C44  1  0.27450000  0.88250000  0.35480000  1.0 0.2994402928
C  C45  1  0.72800000  0.35220000  0.69500000  1.0 -0.1995128875
C  C46  1  0.27200000  0.85220000  0.30500000  1.0 -0.1995128875
C  C47  1  0.66170000  0.31510000  0.70030000  1.0 -0.0690234652
C  C48  1  0.33830000  0.81510000  0.29970000  1.0 -0.0690234652
C  C49  1  0.59280000  0.31010000  0.65260000  1.0 -0.0159674881
C  C50  1  0.40720000  0.81010000  0.34740000  1.0 -0.0159674881
C  C51  1  0.59080000  0.34250000  0.60360000  1.0 -0.0784350383
C  C52  1  0.40920000  0.84250000  0.39640000  1.0 -0.0784350383
C  C53  1  0.65680000  0.37860000  0.59730000  1.0 -0.1995128875
C  C54  1  0.34320000  0.87860000  0.40270000  1.0 -0.1995128875
C  C55  1  0.52030000  0.27040000  0.65690000  1.0 0.6122069044
C  C56  1  0.47970000  0.77040000  0.34310000  1.0 0.6122069044
C  C57  1  0.85730000  0.31540000  0.54430000  1.0 0.2733143999
C  C58  1  0.14270000  0.81540000  0.45570000  1.0 0.2733143999
C  C59  1  0.90150000  0.30380000  0.59880000  1.0 -0.1995128875
C  C60  1  0.09850000  0.80380000  0.40120000  1.0 -0.1995128875
C  C61  1  0.86450000  0.26700000  0.63620000  1.0 -0.0690234652
C  C62  1  0.13550000  0.76700000  0.36380000  1.0 -0.0690234652
C  C63  1  0.78830000  0.24270000  0.61500000  1.0 -0.0319665138
C  C64  1  0.21170000  0.74270000  0.38500000  1.0 -0.0319665138
C  C65  1  0.74460000  0.25280000  0.55780000  1.0 -0.0690234652
C  C66  1  0.25540000  0.75280000  0.44220000  1.0 -0.0690234652
C  C67  1  0.78210000  0.28860000  0.52150000  1.0 -0.1898833372
C  C68  1  0.21790000  0.78860000  0.47850000  1.0 -0.1898833372
C  C69  1  0.74540000  0.20480000  0.65370000  1.0 0.6178460204
C  C70  1  0.25460000  0.70480000  0.34630000  1.0 0.6178460204
C  C71  1  0.09100000  0.43840000  0.62930000  1.0 0.2788233045
C  C72  1  0.90900000  0.93840000  0.37070000  1.0 0.2788233045
C  C73  1  0.06500000  0.41300000  0.67670000  1.0 -0.1995128875
C  C74  1  0.93500000  0.91300000  0.32330000  1.0 -0.1995128875
C  C75  1  0.10200000  0.36040000  0.69390000  1.0 -0.0784350383
C  C76  1  0.89800000  0.86040000  0.30610000  1.0 -0.0784350383
C  C77  1  0.16510000  0.33630000  0.66990000  1.0 -0.0499465218
C  C78  1  0.83490000  0.83630000  0.33010000  1.0 -0.0499465218
C  C79  1  0.19200000  0.36380000  0.62460000  1.0 -0.0784350383
C  C80  1  0.80800000  0.86380000  0.37540000  1.0 -0.0784350383
C  C81  1  0.15690000  0.41610000  0.60630000  1.0 -0.1898833372
C  C82  1  0.84310000  0.91610000  0.39370000  1.0 -0.1898833372
C  C83  1  0.20570000  0.27970000  0.68980000  1.0 0.6696546061
C  C84  1  0.79430000  0.77970000  0.31020000  1.0 0.6696546061
C  C85  1  0.48910000  0.42240000  0.92240000  1.0 0.2911162136
C  C86  1  0.51090000  0.92240000  0.07760000  1.0 0.2911162136
C  C87  1  0.44020000  0.37570000  0.93590000  1.0 -0.1805308329
C  C88  1  0.55980000  0.87570000  0.06410000  1.0 -0.1805308329
C  C89  1  0.41400000  0.33400000  0.89480000  1.0 -0.0872607117
C  C90  1  0.58600000  0.83400000  0.10520000  1.0 -0.0872607117
C  C91  1  0.43710000  0.33620000  0.84010000  1.0 -0.0430571547
C  C92  1  0.56290000  0.83620000  0.15990000  1.0 -0.0430571547
C  C93  1  0.48440000  0.38210000  0.82690000  1.0 -0.0690234652
C  C94  1  0.51560000  0.88210000  0.17310000  1.0 -0.0690234652
C  C95  1  0.50880000  0.42450000  0.86800000  1.0 -0.1898833372
C  C96  1  0.49120000  0.92450000  0.13200000  1.0 -0.1898833372
C  C97  1  0.41660000  0.28940000  0.79640000  1.0 0.5577644689
C  C98  1  0.58340000  0.78940000  0.20360000  1.0 0.5577644689
C  C99  1  0.80200000  0.38640000  0.85600000  1.0 0.3101067229
C  C100  1  0.19800000  0.88640000  0.14400000  1.0 0.3101067229
C  C101  1  0.77950000  0.33110000  0.84570000  1.0 -0.20919275
C  C102  1  0.22050000  0.83110000  0.15430000  1.0 -0.20919275
C  C103  1  0.83780000  0.29330000  0.82720000  1.0 -0.0614942859
C  C104  1  0.16220000  0.79330000  0.17280000  1.0 -0.0614942859
C  C105  1  0.91700000  0.31200000  0.81890000  1.0 -0.0784350383
C  C106  1  0.08300000  0.81200000  0.18110000  1.0 -0.0784350383
C  C107  1  0.93560000  0.37040000  0.82730000  1.0 -0.0690234652
C  C108  1  0.06440000  0.87040000  0.17270000  1.0 -0.0690234652
C  C109  1  0.88110000  0.40750000  0.84650000  1.0 -0.1995128875
C  C110  1  0.11890000  0.90750000  0.15350000  1.0 -0.1995128875
C  C111  1  0.97650000  0.27350000  0.79900000  1.0 0.6178460204
C  C112  1  0.02350000  0.77350000  0.20100000  1.0 0.6178460204
C  C113  1  0.70120000  0.28080000  0.98060000  1.0 0.2788233045
C  C114  1  0.29880000  0.78080000  0.01940000  1.0 0.2788233045
C  C115  1  0.62830000  0.27470000  0.94160000  1.0 -0.20919275
C  C116  1  0.37170000  0.77470000  0.05840000  1.0 -0.20919275
C  C117  1  0.62610000  0.23970000  0.89200000  1.0 -0.0499465218
C  C118  1  0.37390000  0.73970000  0.10800000  1.0 -0.0499465218
C  C119  1  0.70140000  0.20840000  0.88800000  1.0 -0.0872607117
C  C120  1  0.29860000  0.70840000  0.11200000  1.0 -0.0872607117
C  C121  1  0.77350000  0.21360000  0.93080000  1.0 -0.0690234652
C  C122  1  0.22650000  0.71360000  0.06920000  1.0 -0.0690234652
C  C123  1  0.77490000  0.25070000  0.97810000  1.0 -0.1898833372
C  C124  1  0.22510000  0.75070000  0.02190000  1.0 -0.1898833372
C  C125  1  0.70560000  0.17660000  0.83440000  1.0 0.6391035004
C  C126  1  0.29440000  0.67660000  0.16560000  1.0 0.6391035004
C  C127  1  0.58580000  0.53970000  0.07660000  1.0 0.2788233045
C  C128  1  0.41420000  0.03970000  0.92340000  1.0 0.2788233045
C  C129  1  0.52440000  0.50850000  0.09590000  1.0 -0.1898833372
C  C130  1  0.47560000  0.00850000  0.90410000  1.0 -0.1898833372
C  C131  1  0.49740000  0.52550000  0.14540000  1.0 -0.0784350383
C  C132  1  0.50260000  0.02550000  0.85460000  1.0 -0.0784350383
C  C133  1  0.53150000  0.57300000  0.17620000  1.0 -0.0117902511
C  C134  1  0.46850000  0.07300000  0.82380000  1.0 -0.0117902511
C  C135  1  0.59210000  0.60600000  0.15440000  1.0 -0.0614942859
C  C136  1  0.40790000  0.10600000  0.84560000  1.0 -0.0614942859
C  C137  1  0.62050000  0.58800000  0.10590000  1.0 -0.1898833372
C  C138  1  0.37950000  0.08800000  0.89410000  1.0 -0.1898833372
C  C139  1  0.49620000  0.59080000  0.22950000  1.0 0.6178460204
C  C140  1  0.50380000  0.09080000  0.77050000  1.0 0.6178460204
C  C141  1  0.83370000  0.42420000  0.12170000  1.0 0.2994402928
C  C142  1  0.16630000  0.92420000  0.87830000  1.0 0.2994402928
C  C143  1  0.80210000  0.47600000  0.13320000  1.0 -0.20919275
C  C144  1  0.19790000  0.97600000  0.86680000  1.0 -0.20919275
C  C145  1  0.85560000  0.51930000  0.16040000  1.0 -0.0690234652
C  C146  1  0.14440000  0.01930000  0.83960000  1.0 -0.0690234652
C  C147  1  0.94160000  0.50970000  0.17720000  1.0 -0.0499465218
C  C148  1  0.05840000  0.00970000  0.82280000  1.0 -0.0499465218
C  C149  1  0.97330000  0.45620000  0.16520000  1.0 -0.0690234652
C  C150  1  0.02670000  0.95620000  0.83480000  1.0 -0.0690234652
C  C151  1  0.92170000  0.41290000  0.13810000  1.0 -0.1898833372
C  C152  1  0.07830000  0.91290000  0.86190000  1.0 -0.1898833372
C  C153  1  0.00260000  0.55490000  0.20330000  1.0 0.6012056751
C  C154  1  0.99740000  0.05490000  0.79670000  1.0 0.6012056751
C  C155  1  0.86470000  0.52970000  0.97990000  1.0 0.2733143999
C  C156  1  0.13530000  0.02970000  0.02010000  1.0 0.2733143999
C  C157  1  0.81730000  0.57410000  0.99210000  1.0 -0.1898833372
C  C158  1  0.18270000  0.07410000  0.00790000  1.0 -0.1898833372
C  C159  1  0.85100000  0.61300000  0.03350000  1.0 -0.0690234652
C  C160  1  0.14900000  0.11300000  0.96650000  1.0 -0.0690234652
C  C161  1  0.93820000  0.60780000  0.05980000  1.0 -0.0499465218
C  C162  1  0.06180000  0.10780000  0.94020000  1.0 -0.0499465218
C  C163  1  0.98550000  0.56420000  0.04480000  1.0 -0.0784350383
C  C164  1  0.01450000  0.06420000  0.95520000  1.0 -0.0784350383
C  C165  1  0.95090000  0.52360000  0.00320000  1.0 -0.1898833372
C  C166  1  0.04910000  0.02360000  0.99680000  1.0 -0.1898833372
C  C167  1  0.97340000  0.64760000  0.10840000  1.0 0.6391035004
C  C168  1  0.02660000  0.14760000  0.89160000  1.0 0.6391035004
C  C169  1  0.72770000  0.04760000  0.68610000  1.0 0.6925164147
C  C170  1  0.27230000  0.54760000  0.31390000  1.0 0.6925164147
C  C171  1  0.79140000  0.00200000  0.67980000  1.0 -0.2274905087
C  C172  1  0.20860000  0.50200000  0.32020000  1.0 -0.2274905087
N  N1  1  0.64200000  0.41990000  0.03420000  1.0 -0.8110840337
N  N2  1  0.35800000  0.91990000  0.96580000  1.0 -0.8110840337
N  N3  1  0.66970000  0.48190000  0.94280000  1.0 -0.8197655396
N  N4  1  0.33030000  0.98190000  0.05720000  1.0 -0.8197655396
N  N5  1  0.78500000  0.39990000  0.98890000  1.0 -0.7899850922
N  N6  1  0.21500000  0.89990000  0.01110000  1.0 -0.7899850922
N  N7  1  0.89450000  0.49200000  0.61700000  1.0 -0.8110840337
N  N8  1  0.10550000  0.99200000  0.38300000  1.0 -0.8110840337
N  N9  1  0.79030000  0.43250000  0.53220000  1.0 -0.8110840337
N  N10  1  0.20970000  0.93250000  0.46780000  1.0 -0.8110840337
N  N11  1  0.95210000  0.45720000  0.51860000  1.0 -0.8009707646
N  N12  1  0.04790000  0.95720000  0.48140000  1.0 -0.8009707646
O  O1  1  0.09400000  0.63050000  0.32280000  1.0 -0.6551795023
O  O2  1  0.90600000  0.13050000  0.67720000  1.0 -0.6551795023
O  O3  1  0.96970000  0.67830000  0.31350000  1.0 -0.6790270524
O  O4  1  0.03030000  0.17830000  0.68650000  1.0 -0.6790270524
O  O5  1  0.70240000  0.64130000  0.28920000  1.0 -0.6532869058
O  O6  1  0.29760000  0.14130000  0.71080000  1.0 -0.6532869058
O  O7  1  0.81150000  0.62120000  0.24560000  1.0 -0.7103976028
O  O8  1  0.18850000  0.12120000  0.75440000  1.0 -0.7103976028
O  O9  1  0.61690000  0.66580000  0.38560000  1.0 -0.6715175824
O  O10  1  0.38310000  0.16580000  0.61440000  1.0 -0.6715175824
O  O11  1  0.49460000  0.61700000  0.38140000  1.0 -0.6375681923
O  O12  1  0.50540000  0.11700000  0.61860000  1.0 -0.6375681923
O  O13  1  0.96280000  0.56270000  0.55550000  1.0 -0.3927162306
O  O14  1  0.03720000  0.06270000  0.44450000  1.0 -0.3927162306
O  O15  1  0.83810000  0.41840000  0.43150000  1.0 -0.4002887623
O  O16  1  0.16190000  0.91840000  0.56850000  1.0 -0.4002887623
O  O17  1  0.72760000  0.50030000  0.59950000  1.0 -0.3927162306
O  O18  1  0.27240000  0.00030000  0.40050000  1.0 -0.3927162306
O  O19  1  0.05590000  0.49310000  0.60970000  1.0 -0.4198843034
O  O20  1  0.94410000  0.99310000  0.39030000  1.0 -0.4198843034
O  O21  1  0.89180000  0.35240000  0.50580000  1.0 -0.4089655445
O  O22  1  0.10820000  0.85240000  0.49420000  1.0 -0.4089655445
O  O23  1  0.79690000  0.41660000  0.64490000  1.0 -0.4089655445
O  O24  1  0.20310000  0.91660000  0.35510000  1.0 -0.4089655445
O  O25  1  0.26990000  0.26420000  0.66960000  1.0 -0.6532869058
O  O26  1  0.73010000  0.76420000  0.33040000  1.0 -0.6532869058
O  O27  1  0.17540000  0.25250000  0.72730000  1.0 -0.6715175824
O  O28  1  0.82460000  0.75250000  0.27270000  1.0 -0.6715175824
O  O29  1  0.77700000  0.20250000  0.70870000  1.0 -0.7103976028
O  O30  1  0.22300000  0.70250000  0.29130000  1.0 -0.7103976028
O  O31  1  0.67770000  0.17920000  0.62910000  1.0 -0.6189274307
O  O32  1  0.32230000  0.67920000  0.37090000  1.0 -0.6189274307
O  O33  1  0.53890000  0.22430000  0.68880000  1.0 -0.7804016189
O  O34  1  0.46110000  0.72430000  0.31120000  1.0 -0.7804016189
O  O35  1  0.44660000  0.27990000  0.63390000  1.0 -0.5164897756
O  O36  1  0.55340000  0.77990000  0.36610000  1.0 -0.5164897756
O  O37  1  0.77760000  0.15350000  0.82960000  1.0 -0.6960192637
O  O38  1  0.22240000  0.65350000  0.17040000  1.0 -0.6960192637
O  O39  1  0.64110000  0.17440000  0.79290000  1.0 -0.6375681923
O  O40  1  0.35890000  0.67440000  0.20710000  1.0 -0.6375681923
O  O41  1  0.95170000  0.22360000  0.77950000  1.0 -0.7723733501
O  O42  1  0.04830000  0.72360000  0.22050000  1.0 -0.7723733501
O  O43  1  0.05450000  0.28710000  0.80310000  1.0 -0.609634863
O  O44  1  0.94550000  0.78710000  0.19690000  1.0 -0.609634863
O  O45  1  0.44000000  0.29640000  0.74740000  1.0 -0.6189274307
O  O46  1  0.56000000  0.79640000  0.25260000  1.0 -0.6189274307
O  O47  1  0.37670000  0.24440000  0.80230000  1.0 -0.609634863
O  O48  1  0.62330000  0.74440000  0.19770000  1.0 -0.609634863
O  O49  1  0.51720000  0.46480000  0.96410000  1.0 -0.4198843034
O  O50  1  0.48280000  0.96480000  0.03590000  1.0 -0.4198843034
O  O51  1  0.70200000  0.31670000  0.03050000  1.0 -0.4089655445
O  O52  1  0.29800000  0.81670000  0.96950000  1.0 -0.4089655445
O  O53  1  0.74210000  0.42170000  0.87490000  1.0 -0.4002887623
O  O54  1  0.25790000  0.92170000  0.12510000  1.0 -0.4002887623
O  O55  1  0.61510000  0.52900000  0.02430000  1.0 -0.4089655445
O  O56  1  0.38490000  0.02900000  0.97570000  1.0 -0.4089655445
O  O57  1  0.78520000  0.37920000  0.09610000  1.0 -0.3696120696
O  O58  1  0.21480000  0.87920000  0.90390000  1.0 -0.3696120696
O  O59  1  0.83140000  0.48900000  0.93520000  1.0 -0.4371911453
O  O60  1  0.16860000  0.98900000  0.06480000  1.0 -0.4371911453
O  O61  1  0.52260000  0.63730000  0.25500000  1.0 -0.7328024225
O  O62  1  0.47740000  0.13730000  0.74500000  1.0 -0.7328024225
O  O63  1  0.43910000  0.56270000  0.24520000  1.0 -0.5724280195
O  O64  1  0.56090000  0.06270000  0.75480000  1.0 -0.5724280195
O  O65  1  0.08200000  0.54540000  0.21210000  1.0 -0.5916773395
O  O66  1  0.91800000  0.04540000  0.78790000  1.0 -0.5916773395
O  O67  1  0.97340000  0.60330000  0.21700000  1.0 -0.7565227763
O  O68  1  0.02660000  0.10330000  0.78300000  1.0 -0.7565227763
O  O69  1  0.05180000  0.64570000  0.12920000  1.0 -0.6189274307
O  O70  1  0.94820000  0.14570000  0.87080000  1.0 -0.6189274307
O  O71  1  0.92100000  0.68000000  0.12750000  1.0 -0.6924615817
O  O72  1  0.07900000  0.18000000  0.87250000  1.0 -0.6924615817
O  O73  1  0.74970000  0.08770000  0.72620000  1.0 -0.8009707646
O  O74  1  0.25030000  0.58770000  0.27380000  1.0 -0.8009707646
O  O75  1  0.65450000  0.05000000  0.65540000  1.0 -0.5754640417
O  O76  1  0.34550000  0.55000000  0.34460000  1.0 -0.5754640417
