# DDEC6 charges by PACMAN v1.1 (https://github.com/mtap-research/PACMAN-charge/)
data_ORAJOH_FSR_pacman
_symmetry_space_group_name_H-M   'P 1'
_cell_length_a   12.87100000
_cell_length_b   12.87100000
_cell_length_c   20.63200000
_cell_angle_alpha   90.00000000
_cell_angle_beta   90.00000000
_cell_angle_gamma   111.93600000
_symmetry_Int_Tables_number   1
_chemical_formula_structural   KLuRe4C12S4(N2O)6
_chemical_formula_sum   'K4 Lu4 Re16 C48 S16 N48 O24'
_cell_volume   3170.49777656
_cell_formula_units_Z   4
loop_
 _symmetry_equiv_pos_site_id
 _symmetry_equiv_pos_as_xyz
  1  'x, y, z'
loop_
 _atom_site_type_symbol
 _atom_site_label
 _atom_site_symmetry_multiplicity
 _atom_site_fract_x
 _atom_site_fract_y
 _atom_site_fract_z
 _atom_site_occupancy
 _atom_site_charge
K  K1  1  0.08758000  0.08758000  0.50000000  1.0 0.8171687961
K  K2  1  0.91242000  0.91242000  0.00000000  1.0 0.8142848551
K  K3  1  0.91242000  0.91242000  0.50000000  1.0 0.8142848551
K  K4  1  0.08758000  0.08758000  0.00000000  1.0 0.8171687961
Lu  Lu1  1  0.40531000  0.11991000  0.25000000  1.0 1.5834753156
Lu  Lu2  1  0.59469000  0.88009000  0.75000000  1.0 1.5896756291
Lu  Lu3  1  0.11991000  0.40531000  0.75000000  1.0 1.5896756291
Lu  Lu4  1  0.88009000  0.59469000  0.25000000  1.0 1.5834753156
Re  Re1  1  0.26539000  0.54303000  0.44122000  1.0 0.2872360289
Re  Re2  1  0.73461000  0.45697000  0.94122000  1.0 0.2872360289
Re  Re3  1  0.54303000  0.26539000  0.55878000  1.0 0.2872360289
Re  Re4  1  0.45697000  0.73461000  0.05878000  1.0 0.2840533793
Re  Re5  1  0.73461000  0.45697000  0.55878000  1.0 0.2872360289
Re  Re6  1  0.26539000  0.54303000  0.05878000  1.0 0.2872360289
Re  Re7  1  0.45697000  0.73461000  0.44122000  1.0 0.2840533793
Re  Re8  1  0.54303000  0.26539000  0.94122000  1.0 0.2872360289
Re  Re9  1  0.25107000  0.74893000  0.42061000  1.0 0.2309767097
Re  Re10  1  0.74893000  0.25107000  0.92061000  1.0 0.2309767097
Re  Re11  1  0.74893000  0.25107000  0.57939000  1.0 0.2309767097
Re  Re12  1  0.25107000  0.74893000  0.07939000  1.0 0.2309767097
Re  Re13  1  0.30598000  0.69402000  0.54139000  1.0 0.2599338233
Re  Re14  1  0.69402000  0.30598000  0.04139000  1.0 0.2599338233
Re  Re15  1  0.69402000  0.30598000  0.45861000  1.0 0.2599338233
Re  Re16  1  0.30598000  0.69402000  0.95861000  1.0 0.2599338233
C  C1  1  0.30960000  0.88260000  0.35470000  1.0 0.1779344395
C  C2  1  0.69040000  0.11740000  0.85470000  1.0 0.1779344395
C  C3  1  0.88260000  0.30960000  0.64530000  1.0 0.1779344395
C  C4  1  0.11740000  0.69040000  0.14530000  1.0 0.1779344395
C  C5  1  0.69040000  0.11740000  0.64530000  1.0 0.1779344395
C  C6  1  0.30960000  0.88260000  0.14530000  1.0 0.1779344395
C  C7  1  0.11740000  0.69040000  0.35470000  1.0 0.1779344395
C  C8  1  0.88260000  0.30960000  0.85470000  1.0 0.1779344395
C  C9  1  0.15790000  0.84210000  0.45160000  1.0 0.2204080314
C  C10  1  0.84210000  0.15790000  0.95160000  1.0 0.2204080314
C  C11  1  0.84210000  0.15790000  0.54840000  1.0 0.2204080314
C  C12  1  0.15790000  0.84210000  0.04840000  1.0 0.2204080314
C  C13  1  0.22200000  0.77800000  0.59510000  1.0 0.0199659528
C  C14  1  0.77800000  0.22200000  0.09510000  1.0 0.0199659528
C  C15  1  0.77800000  0.22200000  0.40490000  1.0 0.0199659528
C  C16  1  0.22200000  0.77800000  0.90490000  1.0 0.0199659528
C  C17  1  0.42620000  0.76480000  0.61420000  1.0 0.2133132607
C  C18  1  0.57380000  0.23520000  0.11420000  1.0 0.2133132607
C  C19  1  0.76480000  0.42620000  0.38580000  1.0 0.2133132607
C  C20  1  0.23520000  0.57380000  0.88580000  1.0 0.2133132607
C  C21  1  0.57380000  0.23520000  0.38580000  1.0 0.2133132607
C  C22  1  0.42620000  0.76480000  0.88580000  1.0 0.2133132607
C  C23  1  0.23520000  0.57380000  0.61420000  1.0 0.2133132607
C  C24  1  0.76480000  0.42620000  0.11420000  1.0 0.2133132607
C  C25  1  0.33670000  0.43950000  0.39400000  1.0 0.0535223862
C  C26  1  0.66330000  0.56050000  0.89400000  1.0 0.0535223862
C  C27  1  0.43950000  0.33670000  0.60600000  1.0 0.0535223862
C  C28  1  0.56050000  0.66330000  0.10600000  1.0 0.0535223862
C  C29  1  0.66330000  0.56050000  0.60600000  1.0 0.0535223862
C  C30  1  0.33670000  0.43950000  0.10600000  1.0 0.0535223862
C  C31  1  0.56050000  0.66330000  0.39400000  1.0 0.0535223862
C  C32  1  0.43950000  0.33670000  0.89400000  1.0 0.0535223862
C  C33  1  0.18980000  0.39880000  0.49880000  1.0 0.1096912824
C  C34  1  0.81020000  0.60120000  0.99880000  1.0 0.1096912824
C  C35  1  0.39880000  0.18980000  0.50120000  1.0 0.1096912824
C  C36  1  0.60120000  0.81020000  0.00120000  1.0 0.1096912824
C  C37  1  0.81020000  0.60120000  0.50120000  1.0 0.1096912824
C  C38  1  0.18980000  0.39880000  0.00120000  1.0 0.1096912824
C  C39  1  0.60120000  0.81020000  0.49880000  1.0 0.1096912824
C  C40  1  0.39880000  0.18980000  0.99880000  1.0 0.1096912824
C  C41  1  0.13270000  0.45110000  0.37940000  1.0 0.0686356254
C  C42  1  0.86730000  0.54890000  0.87940000  1.0 0.0686356254
C  C43  1  0.45110000  0.13270000  0.62060000  1.0 0.0686356254
C  C44  1  0.54890000  0.86730000  0.12060000  1.0 0.0686356254
C  C45  1  0.86730000  0.54890000  0.62060000  1.0 0.0686356254
C  C46  1  0.13270000  0.45110000  0.12060000  1.0 0.0686356254
C  C47  1  0.54890000  0.86730000  0.37940000  1.0 0.0686356254
C  C48  1  0.45110000  0.13270000  0.87940000  1.0 0.0686356254
S  S1  1  0.33877000  0.66123000  0.35119000  1.0 -0.0559604004
S  S2  1  0.66123000  0.33877000  0.85119000  1.0 -0.0559604004
S  S3  1  0.66123000  0.33877000  0.64881000  1.0 -0.0559604004
S  S4  1  0.33877000  0.66123000  0.14881000  1.0 -0.0559604004
S  S5  1  0.41604000  0.58396000  0.51719000  1.0 -0.027042221
S  S6  1  0.58396000  0.41604000  0.01719000  1.0 -0.027042221
S  S7  1  0.58396000  0.41604000  0.48281000  1.0 -0.027042221
S  S8  1  0.41604000  0.58396000  0.98281000  1.0 -0.027042221
S  S9  1  0.13239000  0.60689000  0.48888000  1.0 -0.0215133684
S  S10  1  0.86761000  0.39311000  0.98888000  1.0 -0.0215133684
S  S11  1  0.60689000  0.13239000  0.51112000  1.0 -0.027042221
S  S12  1  0.39311000  0.86761000  0.01112000  1.0 -0.027042221
S  S13  1  0.86761000  0.39311000  0.51112000  1.0 -0.0215133684
S  S14  1  0.13239000  0.60689000  0.01112000  1.0 -0.0215133684
S  S15  1  0.39311000  0.86761000  0.48888000  1.0 -0.027042221
S  S16  1  0.60689000  0.13239000  0.98888000  1.0 -0.027042221
N  N1  1  0.33960000  0.95740000  0.31950000  1.0 -0.4003393337
N  N2  1  0.66040000  0.04260000  0.81950000  1.0 -0.4003393337
N  N3  1  0.95740000  0.33960000  0.68050000  1.0 -0.4003393337
N  N4  1  0.04260000  0.66040000  0.18050000  1.0 -0.4003393337
N  N5  1  0.66040000  0.04260000  0.68050000  1.0 -0.4003393337
N  N6  1  0.33960000  0.95740000  0.18050000  1.0 -0.4003393337
N  N7  1  0.04260000  0.66040000  0.31950000  1.0 -0.4003393337
N  N8  1  0.95740000  0.33960000  0.81950000  1.0 -0.4003393337
N  N9  1  0.51070000  0.19350000  0.15350000  1.0 -0.3798662707
N  N10  1  0.48930000  0.80650000  0.65350000  1.0 -0.3798662707
N  N11  1  0.19350000  0.51070000  0.84650000  1.0 -0.3798662707
N  N12  1  0.80650000  0.48930000  0.34650000  1.0 -0.3798662707
N  N13  1  0.48930000  0.80650000  0.84650000  1.0 -0.3798662707
N  N14  1  0.51070000  0.19350000  0.34650000  1.0 -0.3798662707
N  N15  1  0.80650000  0.48930000  0.15350000  1.0 -0.3798662707
N  N16  1  0.19350000  0.51070000  0.65350000  1.0 -0.3798662707
N  N17  1  0.17700000  0.82300000  0.62510000  1.0 -0.0723143149
N  N18  1  0.82300000  0.17700000  0.12510000  1.0 -0.0723143149
N  N19  1  0.82300000  0.17700000  0.37490000  1.0 -0.0723143149
N  N20  1  0.17700000  0.82300000  0.87490000  1.0 -0.0723143149
N  N21  1  0.37480000  0.38720000  0.36510000  1.0 -0.0805906695
N  N22  1  0.62520000  0.61280000  0.86510000  1.0 -0.0805906695
N  N23  1  0.38720000  0.37480000  0.63490000  1.0 -0.0805906695
N  N24  1  0.61280000  0.62520000  0.13490000  1.0 -0.0805906695
N  N25  1  0.62520000  0.61280000  0.63490000  1.0 -0.0805906695
N  N26  1  0.37480000  0.38720000  0.13490000  1.0 -0.0805906695
N  N27  1  0.61280000  0.62520000  0.36510000  1.0 -0.0805906695
N  N28  1  0.38720000  0.37480000  0.86510000  1.0 -0.0805906695
N  N29  1  0.15050000  0.31990000  0.52930000  1.0 -0.3219578077
N  N30  1  0.84950000  0.68010000  0.02930000  1.0 -0.3219578077
N  N31  1  0.31990000  0.15050000  0.47070000  1.0 -0.3219578077
N  N32  1  0.68010000  0.84950000  0.97070000  1.0 -0.3219578077
N  N33  1  0.84950000  0.68010000  0.47070000  1.0 -0.3219578077
N  N34  1  0.15050000  0.31990000  0.97070000  1.0 -0.3219578077
N  N35  1  0.68010000  0.84950000  0.52930000  1.0 -0.3219578077
N  N36  1  0.31990000  0.15050000  0.02930000  1.0 -0.3219578077
N  N37  1  0.06070000  0.40150000  0.34590000  1.0 -0.1108052269
N  N38  1  0.93930000  0.59850000  0.84590000  1.0 -0.1193184977
N  N39  1  0.40150000  0.06070000  0.65410000  1.0 -0.1193184977
N  N40  1  0.59850000  0.93930000  0.15410000  1.0 -0.1193184977
N  N41  1  0.93930000  0.59850000  0.65410000  1.0 -0.1193184977
N  N42  1  0.06070000  0.40150000  0.15410000  1.0 -0.1108052269
N  N43  1  0.59850000  0.93930000  0.34590000  1.0 -0.1193184977
N  N44  1  0.40150000  0.06070000  0.84590000  1.0 -0.1193184977
N  N45  1  0.10540000  0.89460000  0.46510000  1.0 -0.4585557193
N  N46  1  0.89460000  0.10540000  0.96510000  1.0 -0.4585557193
N  N47  1  0.89460000  0.10540000  0.53490000  1.0 -0.4585557193
N  N48  1  0.10540000  0.89460000  0.03490000  1.0 -0.4585557193
O  O1  1  0.44650000  0.31010000  0.25000000  1.0 -0.3274681032
O  O2  1  0.55350000  0.68990000  0.75000000  1.0 -0.3274681032
O  O3  1  0.31010000  0.44650000  0.75000000  1.0 -0.3366688847
O  O4  1  0.68990000  0.55350000  0.25000000  1.0 -0.3274681032
O  O5  1  0.56080000  0.07320000  0.25000000  1.0 -0.492493397
O  O6  1  0.43920000  0.92680000  0.75000000  1.0 -0.4828801612
O  O7  1  0.07320000  0.56080000  0.75000000  1.0 -0.4828801612
O  O8  1  0.92680000  0.43920000  0.25000000  1.0 -0.4828801612
O  O9  1  0.26810000  0.13510000  0.31930000  1.0 -0.3274681032
O  O10  1  0.73190000  0.86490000  0.81930000  1.0 -0.3219578077
O  O11  1  0.13510000  0.26810000  0.68070000  1.0 -0.3274681032
O  O12  1  0.86490000  0.73190000  0.18070000  1.0 -0.3219578077
O  O13  1  0.73190000  0.86490000  0.68070000  1.0 -0.3219578077
O  O14  1  0.26810000  0.13510000  0.18070000  1.0 -0.3274681032
O  O15  1  0.86490000  0.73190000  0.31930000  1.0 -0.3219578077
O  O16  1  0.13510000  0.26810000  0.81930000  1.0 -0.3274681032
O  O17  1  0.14020000  0.04580000  0.60960000  1.0 -0.1193184977
O  O18  1  0.85980000  0.95420000  0.10960000  1.0 -0.1108052269
O  O19  1  0.04580000  0.14020000  0.39040000  1.0 -0.1108052269
O  O20  1  0.95420000  0.85980000  0.89040000  1.0 -0.1108052269
O  O21  1  0.85980000  0.95420000  0.39040000  1.0 -0.1108052269
O  O22  1  0.14020000  0.04580000  0.89040000  1.0 -0.1193184977
O  O23  1  0.95420000  0.85980000  0.60960000  1.0 -0.1108052269
O  O24  1  0.04580000  0.14020000  0.10960000  1.0 -0.1108052269
