# DDEC6 charges by PACMAN v1.1 (https://github.com/mtap-research/PACMAN-charge/)
data_ORAKUO_ASR_pacman
_symmetry_space_group_name_H-M   'P 1'
_cell_length_a   12.89940000
_cell_length_b   12.89940000
_cell_length_c   20.61140000
_cell_angle_alpha   90.00000000
_cell_angle_beta   90.00000000
_cell_angle_gamma   111.74000000
_symmetry_Int_Tables_number   1
_chemical_formula_structural   KYbRe4C12(SN3)4
_chemical_formula_sum   'K4 Yb4 Re16 C48 S16 N48'
_cell_volume   3185.68931031
_cell_formula_units_Z   4
loop_
 _symmetry_equiv_pos_site_id
 _symmetry_equiv_pos_as_xyz
  1  'x, y, z'
loop_
 _atom_site_type_symbol
 _atom_site_label
 _atom_site_symmetry_multiplicity
 _atom_site_fract_x
 _atom_site_fract_y
 _atom_site_fract_z
 _atom_site_occupancy
 _atom_site_charge
K  K1  1  0.09370000  0.09370000  0.50000000  1.0 0.7229609497
K  K2  1  0.90630000  0.90630000  0.00000000  1.0 0.7229609497
K  K3  1  0.90630000  0.90630000  0.50000000  1.0 0.7229609497
K  K4  1  0.09370000  0.09370000  0.00000000  1.0 0.7229609497
Yb  Yb1  1  0.11995000  0.40497000  0.75000000  1.0 1.7933008678
Yb  Yb2  1  0.88005000  0.59503000  0.25000000  1.0 1.7933008678
Yb  Yb3  1  0.40497000  0.11995000  0.25000000  1.0 1.7933008678
Yb  Yb4  1  0.59503000  0.88005000  0.75000000  1.0 1.7933008678
Re  Re1  1  0.30557000  0.69443000  0.54158000  1.0 0.2137766711
Re  Re2  1  0.69443000  0.30557000  0.04158000  1.0 0.2137766711
Re  Re3  1  0.69443000  0.30557000  0.45842000  1.0 0.2137766711
Re  Re4  1  0.30557000  0.69443000  0.95842000  1.0 0.2137766711
Re  Re5  1  0.26529000  0.54409000  0.44130000  1.0 0.2969247557
Re  Re6  1  0.73471000  0.45591000  0.94130000  1.0 0.2969247557
Re  Re7  1  0.54409000  0.26529000  0.55870000  1.0 0.2969247557
Re  Re8  1  0.45591000  0.73471000  0.05870000  1.0 0.2969247557
Re  Re9  1  0.73471000  0.45591000  0.55870000  1.0 0.2969247557
Re  Re10  1  0.26529000  0.54409000  0.05870000  1.0 0.2969247557
Re  Re11  1  0.45591000  0.73471000  0.44130000  1.0 0.2969247557
Re  Re12  1  0.54409000  0.26529000  0.94130000  1.0 0.2969247557
Re  Re13  1  0.25067000  0.74933000  0.42075000  1.0 0.1826292333
Re  Re14  1  0.74933000  0.25067000  0.92075000  1.0 0.1932598261
Re  Re15  1  0.74933000  0.25067000  0.57925000  1.0 0.1826292333
Re  Re16  1  0.25067000  0.74933000  0.07925000  1.0 0.1826292333
C  C1  1  0.23370000  0.57430000  0.61430000  1.0 0.2369859189
C  C2  1  0.76630000  0.42570000  0.11430000  1.0 0.2369859189
C  C3  1  0.57430000  0.23370000  0.38570000  1.0 0.2369859189
C  C4  1  0.42570000  0.76630000  0.88570000  1.0 0.2369859189
C  C5  1  0.76630000  0.42570000  0.38570000  1.0 0.2369859189
C  C6  1  0.23370000  0.57430000  0.88570000  1.0 0.2369859189
C  C7  1  0.42570000  0.76630000  0.61430000  1.0 0.2369859189
C  C8  1  0.57430000  0.23370000  0.11430000  1.0 0.2369859189
C  C9  1  0.22110000  0.77890000  0.59570000  1.0 -0.0168202371
C  C10  1  0.77890000  0.22110000  0.09570000  1.0 -0.0168202371
C  C11  1  0.77890000  0.22110000  0.40430000  1.0 -0.0168202371
C  C12  1  0.22110000  0.77890000  0.90430000  1.0 -0.0168202371
C  C13  1  0.19080000  0.39980000  0.49910000  1.0 0.0870579293
C  C14  1  0.80920000  0.60020000  0.99910000  1.0 0.0870579293
C  C15  1  0.39980000  0.19080000  0.50090000  1.0 0.0870579293
C  C16  1  0.60020000  0.80920000  0.00090000  1.0 0.0870579293
C  C17  1  0.80920000  0.60020000  0.50090000  1.0 0.0870579293
C  C18  1  0.19080000  0.39980000  0.00090000  1.0 0.0870579293
C  C19  1  0.60020000  0.80920000  0.49910000  1.0 0.0870579293
C  C20  1  0.39980000  0.19080000  0.99910000  1.0 0.0870579293
C  C21  1  0.33580000  0.43980000  0.39400000  1.0 0.0443204127
C  C22  1  0.66420000  0.56020000  0.89400000  1.0 0.0443204127
C  C23  1  0.43980000  0.33580000  0.60600000  1.0 0.0443204127
C  C24  1  0.56020000  0.66420000  0.10600000  1.0 0.0443204127
C  C25  1  0.66420000  0.56020000  0.60600000  1.0 0.0443204127
C  C26  1  0.33580000  0.43980000  0.10600000  1.0 0.0443204127
C  C27  1  0.56020000  0.66420000  0.39400000  1.0 0.0443204127
C  C28  1  0.43980000  0.33580000  0.89400000  1.0 0.0443204127
C  C29  1  0.13420000  0.45260000  0.37980000  1.0 0.0162623706
C  C30  1  0.86580000  0.54740000  0.87980000  1.0 0.0162623706
C  C31  1  0.45260000  0.13420000  0.62020000  1.0 0.0145512827
C  C32  1  0.54740000  0.86580000  0.12020000  1.0 0.0162623706
C  C33  1  0.86580000  0.54740000  0.62020000  1.0 0.0145512827
C  C34  1  0.13420000  0.45260000  0.12020000  1.0 0.0162623706
C  C35  1  0.54740000  0.86580000  0.37980000  1.0 0.0162623706
C  C36  1  0.45260000  0.13420000  0.87980000  1.0 0.0162623706
C  C37  1  0.11680000  0.69220000  0.35470000  1.0 0.1932598261
C  C38  1  0.88320000  0.30780000  0.85470000  1.0 0.1932598261
C  C39  1  0.69220000  0.11680000  0.64530000  1.0 0.1932598261
C  C40  1  0.30780000  0.88320000  0.14530000  1.0 0.1969235497
C  C41  1  0.88320000  0.30780000  0.64530000  1.0 0.1932598261
C  C42  1  0.11680000  0.69220000  0.14530000  1.0 0.1969235497
C  C43  1  0.30780000  0.88320000  0.35470000  1.0 0.1932598261
C  C44  1  0.69220000  0.11680000  0.85470000  1.0 0.1969235497
C  C45  1  0.15650000  0.84350000  0.45150000  1.0 0.169065804
C  C46  1  0.84350000  0.15650000  0.95150000  1.0 0.169065804
C  C47  1  0.84350000  0.15650000  0.54850000  1.0 0.169065804
C  C48  1  0.15650000  0.84350000  0.04850000  1.0 0.169065804
S  S1  1  0.13179000  0.60759000  0.48913000  1.0 -0.1464008086
S  S2  1  0.86821000  0.39241000  0.98913000  1.0 -0.1403819557
S  S3  1  0.60759000  0.13179000  0.51087000  1.0 -0.1403819557
S  S4  1  0.39241000  0.86821000  0.01087000  1.0 -0.1464008086
S  S5  1  0.86821000  0.39241000  0.51087000  1.0 -0.1403819557
S  S6  1  0.13179000  0.60759000  0.01087000  1.0 -0.1464008086
S  S7  1  0.39241000  0.86821000  0.48913000  1.0 -0.1464008086
S  S8  1  0.60759000  0.13179000  0.98913000  1.0 -0.1403819557
S  S9  1  0.41523000  0.58477000  0.51731000  1.0 -0.1709376814
S  S10  1  0.58477000  0.41523000  0.01731000  1.0 -0.1709376814
S  S11  1  0.58477000  0.41523000  0.48269000  1.0 -0.1709376814
S  S12  1  0.41523000  0.58477000  0.98269000  1.0 -0.1625560068
S  S13  1  0.33832000  0.66168000  0.35081000  1.0 -0.1403819557
S  S14  1  0.66168000  0.33832000  0.85081000  1.0 -0.1403819557
S  S15  1  0.66168000  0.33832000  0.64919000  1.0 -0.1403819557
S  S16  1  0.33832000  0.66168000  0.14919000  1.0 -0.1403819557
N  N1  1  0.19380000  0.51060000  0.65390000  1.0 -0.5307914437
N  N2  1  0.80620000  0.48940000  0.15390000  1.0 -0.5307914437
N  N3  1  0.51060000  0.19380000  0.34610000  1.0 -0.5307914437
N  N4  1  0.48940000  0.80620000  0.84610000  1.0 -0.5307914437
N  N5  1  0.80620000  0.48940000  0.34610000  1.0 -0.5307914437
N  N6  1  0.19380000  0.51060000  0.84610000  1.0 -0.5307914437
N  N7  1  0.48940000  0.80620000  0.65390000  1.0 -0.5307914437
N  N8  1  0.51060000  0.19380000  0.15390000  1.0 -0.5378691547
N  N9  1  0.17820000  0.82180000  0.62670000  1.0 -0.1087426126
N  N10  1  0.82180000  0.17820000  0.12670000  1.0 -0.1087426126
N  N11  1  0.82180000  0.17820000  0.37330000  1.0 -0.1087426126
N  N12  1  0.17820000  0.82180000  0.87330000  1.0 -0.1087426126
N  N13  1  0.15110000  0.32330000  0.53100000  1.0 -0.338649682
N  N14  1  0.84890000  0.67670000  0.03100000  1.0 -0.338649682
N  N15  1  0.32330000  0.15110000  0.46900000  1.0 -0.338649682
N  N16  1  0.67670000  0.84890000  0.96900000  1.0 -0.338649682
N  N17  1  0.84890000  0.67670000  0.46900000  1.0 -0.338649682
N  N18  1  0.15110000  0.32330000  0.96900000  1.0 -0.338649682
N  N19  1  0.67670000  0.84890000  0.53100000  1.0 -0.338649682
N  N20  1  0.32330000  0.15110000  0.03100000  1.0 -0.338649682
N  N21  1  0.37400000  0.38880000  0.36520000  1.0 -0.2169793028
N  N22  1  0.62600000  0.61120000  0.86520000  1.0 -0.2169793028
N  N23  1  0.38880000  0.37400000  0.63480000  1.0 -0.2169793028
N  N24  1  0.61120000  0.62600000  0.13480000  1.0 -0.2142283239
N  N25  1  0.62600000  0.61120000  0.63480000  1.0 -0.2169793028
N  N26  1  0.37400000  0.38880000  0.13480000  1.0 -0.2142283239
N  N27  1  0.61120000  0.62600000  0.36520000  1.0 -0.2169793028
N  N28  1  0.38880000  0.37400000  0.86520000  1.0 -0.2169793028
N  N29  1  0.06180000  0.40240000  0.34590000  1.0 -0.2272187677
N  N30  1  0.93820000  0.59760000  0.84590000  1.0 -0.2272187677
N  N31  1  0.40240000  0.06180000  0.65410000  1.0 -0.2272187677
N  N32  1  0.59760000  0.93820000  0.15410000  1.0 -0.2272187677
N  N33  1  0.93820000  0.59760000  0.65410000  1.0 -0.2272187677
N  N34  1  0.06180000  0.40240000  0.15410000  1.0 -0.2272187677
N  N35  1  0.59760000  0.93820000  0.34590000  1.0 -0.2272187677
N  N36  1  0.40240000  0.06180000  0.84590000  1.0 -0.2169793028
N  N37  1  0.04170000  0.66010000  0.32020000  1.0 -0.5039272103
N  N38  1  0.95830000  0.33990000  0.82020000  1.0 -0.5059743814
N  N39  1  0.66010000  0.04170000  0.67980000  1.0 -0.5039272103
N  N40  1  0.33990000  0.95830000  0.17980000  1.0 -0.5039272103
N  N41  1  0.95830000  0.33990000  0.67980000  1.0 -0.5059743814
N  N42  1  0.04170000  0.66010000  0.17980000  1.0 -0.5039272103
N  N43  1  0.33990000  0.95830000  0.32020000  1.0 -0.5039272103
N  N44  1  0.66010000  0.04170000  0.82020000  1.0 -0.5039272103
N  N45  1  0.10550000  0.89450000  0.46540000  1.0 -0.4803455465
N  N46  1  0.89450000  0.10550000  0.96540000  1.0 -0.4803455465
N  N47  1  0.89450000  0.10550000  0.53460000  1.0 -0.4803455465
N  N48  1  0.10550000  0.89450000  0.03460000  1.0 -0.4803455465
