# DDEC6 charges by PACMAN v1.1 (https://github.com/mtap-research/PACMAN-charge/)
data_ORAWAH_ASR_pacman
_symmetry_space_group_name_H-M   'P 1'
_cell_length_a   25.62550000
_cell_length_b   25.62550000
_cell_length_c   25.62550000
_cell_angle_alpha   60.00000000
_cell_angle_beta   60.00000000
_cell_angle_gamma   60.00000000
_symmetry_Int_Tables_number   1
_chemical_formula_structural   Cu4H24C40O17
_chemical_formula_sum   'Cu24 H144 C240 O102'
_cell_volume   11898.76935386
_cell_formula_units_Z   6
loop_
 _symmetry_equiv_pos_site_id
 _symmetry_equiv_pos_as_xyz
  1  'x, y, z'
loop_
 _atom_site_type_symbol
 _atom_site_label
 _atom_site_symmetry_multiplicity
 _atom_site_fract_x
 _atom_site_fract_y
 _atom_site_fract_z
 _atom_site_occupancy
 _atom_site_charge
Cu  Cu1  1  0.00000000  0.41256000  0.00000000  1.0 0.7223989874
Cu  Cu2  1  0.41256000  0.00000000  0.58744000  1.0 0.7223989874
Cu  Cu3  1  0.58744000  0.00000000  0.41256000  1.0 0.7223989874
Cu  Cu4  1  0.00000000  0.58744000  0.00000000  1.0 0.7223989874
Cu  Cu5  1  0.00000000  0.00000000  0.41256000  1.0 0.7223989874
Cu  Cu6  1  0.41256000  0.00000000  0.00000000  1.0 0.7223989874
Cu  Cu7  1  0.00000000  0.00000000  0.58744000  1.0 0.7223989874
Cu  Cu8  1  0.00000000  0.58744000  0.41256000  1.0 0.7223989874
Cu  Cu9  1  0.58744000  0.41256000  0.00000000  1.0 0.7223989874
Cu  Cu10  1  0.00000000  0.41256000  0.58744000  1.0 0.7223989874
Cu  Cu11  1  0.41256000  0.58744000  0.00000000  1.0 0.7223989874
Cu  Cu12  1  0.58744000  0.00000000  0.00000000  1.0 0.7223989874
Cu  Cu13  1  0.00000000  0.31010000  0.00000000  1.0 0.8662886719
Cu  Cu14  1  0.31010000  0.00000000  0.68990000  1.0 0.8662886719
Cu  Cu15  1  0.68990000  0.00000000  0.31010000  1.0 0.8662886719
Cu  Cu16  1  0.00000000  0.68990000  0.00000000  1.0 0.8662886719
Cu  Cu17  1  0.00000000  0.00000000  0.31010000  1.0 0.8644456426
Cu  Cu18  1  0.31010000  0.00000000  0.00000000  1.0 0.8662886719
Cu  Cu19  1  0.00000000  0.00000000  0.68990000  1.0 0.8662886719
Cu  Cu20  1  0.00000000  0.68990000  0.31010000  1.0 0.8662886719
Cu  Cu21  1  0.68990000  0.31010000  0.00000000  1.0 0.8662886719
Cu  Cu22  1  0.00000000  0.31010000  0.68990000  1.0 0.8662886719
Cu  Cu23  1  0.31010000  0.68990000  0.00000000  1.0 0.8644456426
Cu  Cu24  1  0.68990000  0.00000000  0.00000000  1.0 0.8662886719
H  H1  1  0.80440000  0.37120000  0.02000000  1.0 0.1377950196
H  H2  1  0.37120000  0.80440000  0.80440000  1.0 0.1377950196
H  H3  1  0.80440000  0.02000000  0.37120000  1.0 0.1377950196
H  H4  1  0.02000000  0.80440000  0.80440000  1.0 0.1377950196
H  H5  1  0.02000000  0.80440000  0.37120000  1.0 0.1377950196
H  H6  1  0.37120000  0.02000000  0.80440000  1.0 0.1377950196
H  H7  1  0.80440000  0.02000000  0.80440000  1.0 0.1377950196
H  H8  1  0.80440000  0.80440000  0.37120000  1.0 0.1377950196
H  H9  1  0.80440000  0.37120000  0.80440000  1.0 0.1377950196
H  H10  1  0.02000000  0.37120000  0.80440000  1.0 0.1377950196
H  H11  1  0.37120000  0.80440000  0.02000000  1.0 0.1377950196
H  H12  1  0.80440000  0.80440000  0.02000000  1.0 0.1377950196
H  H13  1  0.62880000  0.19560000  0.98000000  1.0 0.1377950196
H  H14  1  0.19560000  0.62880000  0.19560000  1.0 0.1377950196
H  H15  1  0.98000000  0.19560000  0.62880000  1.0 0.1377950196
H  H16  1  0.19560000  0.98000000  0.19560000  1.0 0.1377950196
H  H17  1  0.19560000  0.98000000  0.62880000  1.0 0.1377950196
H  H18  1  0.98000000  0.62880000  0.19560000  1.0 0.1377950196
H  H19  1  0.98000000  0.19560000  0.19560000  1.0 0.1377950196
H  H20  1  0.19560000  0.19560000  0.62880000  1.0 0.1377950196
H  H21  1  0.62880000  0.19560000  0.19560000  1.0 0.1377950196
H  H22  1  0.62880000  0.98000000  0.19560000  1.0 0.1377950196
H  H23  1  0.19560000  0.62880000  0.98000000  1.0 0.1377950196
H  H24  1  0.19560000  0.19560000  0.98000000  1.0 0.1377950196
H  H25  1  0.79890000  0.51710000  0.04350000  1.0 0.1377950196
H  H26  1  0.51710000  0.79890000  0.64050000  1.0 0.1377950196
H  H27  1  0.64050000  0.04350000  0.51710000  1.0 0.1377950196
H  H28  1  0.04350000  0.64050000  0.79890000  1.0 0.1377950196
H  H29  1  0.04350000  0.79890000  0.51710000  1.0 0.1377950196
H  H30  1  0.51710000  0.04350000  0.79890000  1.0 0.1377950196
H  H31  1  0.79890000  0.04350000  0.64050000  1.0 0.1377950196
H  H32  1  0.79890000  0.64050000  0.51710000  1.0 0.1377950196
H  H33  1  0.64050000  0.51710000  0.79890000  1.0 0.1377950196
H  H34  1  0.04350000  0.51710000  0.64050000  1.0 0.1377950196
H  H35  1  0.51710000  0.64050000  0.04350000  1.0 0.1377950196
H  H36  1  0.64050000  0.79890000  0.04350000  1.0 0.1377950196
H  H37  1  0.48290000  0.20110000  0.95650000  1.0 0.1377950196
H  H38  1  0.20110000  0.48290000  0.35950000  1.0 0.1377950196
H  H39  1  0.95650000  0.35950000  0.48290000  1.0 0.1377950196
H  H40  1  0.35950000  0.95650000  0.20110000  1.0 0.1377950196
H  H41  1  0.20110000  0.95650000  0.48290000  1.0 0.1377950196
H  H42  1  0.95650000  0.48290000  0.20110000  1.0 0.1377950196
H  H43  1  0.95650000  0.20110000  0.35950000  1.0 0.1377950196
H  H44  1  0.35950000  0.20110000  0.48290000  1.0 0.1377950196
H  H45  1  0.48290000  0.35950000  0.20110000  1.0 0.1377950196
H  H46  1  0.48290000  0.95650000  0.35950000  1.0 0.1377950196
H  H47  1  0.35950000  0.48290000  0.95650000  1.0 0.1377950196
H  H48  1  0.20110000  0.35950000  0.95650000  1.0 0.1377950196
H  H49  1  0.20110000  0.48290000  0.95650000  1.0 0.1377950196
H  H50  1  0.48290000  0.20110000  0.35950000  1.0 0.1377950196
H  H51  1  0.35950000  0.95650000  0.48290000  1.0 0.1377950196
H  H52  1  0.95650000  0.35950000  0.20110000  1.0 0.1377950196
H  H53  1  0.95650000  0.20110000  0.48290000  1.0 0.1377950196
H  H54  1  0.48290000  0.95650000  0.20110000  1.0 0.1377950196
H  H55  1  0.20110000  0.95650000  0.35950000  1.0 0.1377950196
H  H56  1  0.20110000  0.35950000  0.48290000  1.0 0.1377950196
H  H57  1  0.35950000  0.48290000  0.20110000  1.0 0.1377950196
H  H58  1  0.95650000  0.48290000  0.35950000  1.0 0.1377950196
H  H59  1  0.48290000  0.35950000  0.95650000  1.0 0.1377950196
H  H60  1  0.35950000  0.20110000  0.95650000  1.0 0.1377950196
H  H61  1  0.51710000  0.79890000  0.04350000  1.0 0.1377950196
H  H62  1  0.79890000  0.51710000  0.64050000  1.0 0.1377950196
H  H63  1  0.04350000  0.64050000  0.51710000  1.0 0.1377950196
H  H64  1  0.64050000  0.04350000  0.79890000  1.0 0.1377950196
H  H65  1  0.79890000  0.04350000  0.51710000  1.0 0.1377950196
H  H66  1  0.04350000  0.51710000  0.79890000  1.0 0.1377950196
H  H67  1  0.04350000  0.79890000  0.64050000  1.0 0.1377950196
H  H68  1  0.64050000  0.79890000  0.51710000  1.0 0.1377950196
H  H69  1  0.51710000  0.64050000  0.79890000  1.0 0.1377950196
H  H70  1  0.51710000  0.04350000  0.64050000  1.0 0.1377950196
H  H71  1  0.64050000  0.51710000  0.04350000  1.0 0.1377950196
H  H72  1  0.79890000  0.64050000  0.04350000  1.0 0.1377950196
H  H73  1  0.74340000  0.59140000  0.07380000  1.0 0.1176244971
H  H74  1  0.59140000  0.74340000  0.59140000  1.0 0.1176244971
H  H75  1  0.59140000  0.07380000  0.59140000  1.0 0.1176244971
H  H76  1  0.07380000  0.59140000  0.74340000  1.0 0.1176244971
H  H77  1  0.07380000  0.74340000  0.59140000  1.0 0.1176244971
H  H78  1  0.59140000  0.07380000  0.74340000  1.0 0.1176244971
H  H79  1  0.74340000  0.07380000  0.59140000  1.0 0.1176244971
H  H80  1  0.74340000  0.59140000  0.59140000  1.0 0.1176244971
H  H81  1  0.59140000  0.59140000  0.74340000  1.0 0.1176244971
H  H82  1  0.07380000  0.59140000  0.59140000  1.0 0.1176244971
H  H83  1  0.59140000  0.59140000  0.07380000  1.0 0.1176244971
H  H84  1  0.59140000  0.74340000  0.07380000  1.0 0.1176244971
H  H85  1  0.40860000  0.25660000  0.92620000  1.0 0.1176244971
H  H86  1  0.25660000  0.40860000  0.40860000  1.0 0.1176244971
H  H87  1  0.92620000  0.40860000  0.40860000  1.0 0.1176244971
H  H88  1  0.40860000  0.92620000  0.25660000  1.0 0.1176244971
H  H89  1  0.25660000  0.92620000  0.40860000  1.0 0.1176244971
H  H90  1  0.92620000  0.40860000  0.25660000  1.0 0.1176244971
H  H91  1  0.92620000  0.25660000  0.40860000  1.0 0.1176244971
H  H92  1  0.40860000  0.25660000  0.40860000  1.0 0.1176244971
H  H93  1  0.40860000  0.40860000  0.25660000  1.0 0.1176244971
H  H94  1  0.40860000  0.92620000  0.40860000  1.0 0.1176244971
H  H95  1  0.40860000  0.40860000  0.92620000  1.0 0.1176244971
H  H96  1  0.25660000  0.40860000  0.92620000  1.0 0.1176244971
H  H97  1  0.01000000  0.52200000  0.96000000  1.0 0.0520531959
H  H98  1  0.52200000  0.01000000  0.50800000  1.0 0.0520531959
H  H99  1  0.50800000  0.96000000  0.52200000  1.0 0.0520531959
H  H100  1  0.96000000  0.50800000  0.01000000  1.0 0.0520531959
H  H101  1  0.96000000  0.01000000  0.52200000  1.0 0.0520531959
H  H102  1  0.52200000  0.96000000  0.01000000  1.0 0.0520531959
H  H103  1  0.01000000  0.96000000  0.50800000  1.0 0.0520531959
H  H104  1  0.01000000  0.50800000  0.52200000  1.0 0.0520531959
H  H105  1  0.50800000  0.52200000  0.01000000  1.0 0.0520531959
H  H106  1  0.96000000  0.52200000  0.50800000  1.0 0.0520531959
H  H107  1  0.52200000  0.50800000  0.96000000  1.0 0.0520531959
H  H108  1  0.50800000  0.01000000  0.96000000  1.0 0.0520531959
H  H109  1  0.47800000  0.99000000  0.04000000  1.0 0.0520531959
H  H110  1  0.99000000  0.47800000  0.49200000  1.0 0.0520531959
H  H111  1  0.04000000  0.49200000  0.47800000  1.0 0.0520531959
H  H112  1  0.49200000  0.04000000  0.99000000  1.0 0.0520531959
H  H113  1  0.99000000  0.04000000  0.47800000  1.0 0.0520531959
H  H114  1  0.04000000  0.47800000  0.99000000  1.0 0.0520531959
H  H115  1  0.04000000  0.99000000  0.49200000  1.0 0.0520531959
H  H116  1  0.49200000  0.99000000  0.47800000  1.0 0.0520531959
H  H117  1  0.47800000  0.49200000  0.99000000  1.0 0.0520531959
H  H118  1  0.47800000  0.04000000  0.49200000  1.0 0.0520531959
H  H119  1  0.49200000  0.47800000  0.04000000  1.0 0.0520531959
H  H120  1  0.99000000  0.49200000  0.04000000  1.0 0.0520531959
H  H121  1  0.99000000  0.47800000  0.04000000  1.0 0.0520531959
H  H122  1  0.47800000  0.99000000  0.49200000  1.0 0.0520531959
H  H123  1  0.49200000  0.04000000  0.47800000  1.0 0.0520531959
H  H124  1  0.04000000  0.49200000  0.99000000  1.0 0.0520531959
H  H125  1  0.04000000  0.99000000  0.47800000  1.0 0.0520531959
H  H126  1  0.47800000  0.04000000  0.99000000  1.0 0.0520531959
H  H127  1  0.99000000  0.04000000  0.49200000  1.0 0.0520531959
H  H128  1  0.99000000  0.49200000  0.47800000  1.0 0.0520531959
H  H129  1  0.49200000  0.47800000  0.99000000  1.0 0.0520531959
H  H130  1  0.04000000  0.47800000  0.49200000  1.0 0.0520531959
H  H131  1  0.47800000  0.49200000  0.04000000  1.0 0.0520531959
H  H132  1  0.49200000  0.99000000  0.04000000  1.0 0.0520531959
H  H133  1  0.52200000  0.01000000  0.96000000  1.0 0.0520531959
H  H134  1  0.01000000  0.52200000  0.50800000  1.0 0.0520531959
H  H135  1  0.96000000  0.50800000  0.52200000  1.0 0.0520531959
H  H136  1  0.50800000  0.96000000  0.01000000  1.0 0.0520531959
H  H137  1  0.01000000  0.96000000  0.52200000  1.0 0.0520531959
H  H138  1  0.96000000  0.52200000  0.01000000  1.0 0.0520531959
H  H139  1  0.96000000  0.01000000  0.50800000  1.0 0.0520531959
H  H140  1  0.50800000  0.01000000  0.52200000  1.0 0.0520531959
H  H141  1  0.52200000  0.50800000  0.01000000  1.0 0.0520531959
H  H142  1  0.52200000  0.96000000  0.50800000  1.0 0.0520531959
H  H143  1  0.50800000  0.52200000  0.96000000  1.0 0.0520531959
H  H144  1  0.01000000  0.50800000  0.96000000  1.0 0.0520531959
C  C1  1  0.88342000  0.41140000  0.01752000  1.0 0.5658150735
C  C2  1  0.41140000  0.88342000  0.68766000  1.0 0.5658150735
C  C3  1  0.68766000  0.01752000  0.41140000  1.0 0.5658150735
C  C4  1  0.01752000  0.68766000  0.88342000  1.0 0.5658150735
C  C5  1  0.01752000  0.88342000  0.41140000  1.0 0.5658150735
C  C6  1  0.41140000  0.01752000  0.88342000  1.0 0.5658150735
C  C7  1  0.88342000  0.01752000  0.68766000  1.0 0.5658150735
C  C8  1  0.88342000  0.68766000  0.41140000  1.0 0.5658150735
C  C9  1  0.68766000  0.41140000  0.88342000  1.0 0.5658150735
C  C10  1  0.01752000  0.41140000  0.68766000  1.0 0.5658150735
C  C11  1  0.41140000  0.68766000  0.01752000  1.0 0.5658150735
C  C12  1  0.68766000  0.88342000  0.01752000  1.0 0.5658150735
C  C13  1  0.58860000  0.11658000  0.98248000  1.0 0.5658150735
C  C14  1  0.11658000  0.58860000  0.31234000  1.0 0.5658150735
C  C15  1  0.98248000  0.31234000  0.58860000  1.0 0.5658150735
C  C16  1  0.31234000  0.98248000  0.11658000  1.0 0.5658150735
C  C17  1  0.11658000  0.98248000  0.58860000  1.0 0.5658150735
C  C18  1  0.98248000  0.58860000  0.11658000  1.0 0.5658150735
C  C19  1  0.98248000  0.11658000  0.31234000  1.0 0.5658150735
C  C20  1  0.31234000  0.11658000  0.58860000  1.0 0.5658150735
C  C21  1  0.58860000  0.31234000  0.11658000  1.0 0.5658150735
C  C22  1  0.58860000  0.98248000  0.31234000  1.0 0.5658150735
C  C23  1  0.31234000  0.58860000  0.98248000  1.0 0.5658150735
C  C24  1  0.11658000  0.31234000  0.98248000  1.0 0.5658150735
C  C25  1  0.11658000  0.58860000  0.98248000  1.0 0.5658150735
C  C26  1  0.58860000  0.11658000  0.31234000  1.0 0.5658150735
C  C27  1  0.31234000  0.98248000  0.58860000  1.0 0.5658150735
C  C28  1  0.98248000  0.31234000  0.11658000  1.0 0.5658150735
C  C29  1  0.98248000  0.11658000  0.58860000  1.0 0.5658150735
C  C30  1  0.58860000  0.98248000  0.11658000  1.0 0.5658150735
C  C31  1  0.11658000  0.98248000  0.31234000  1.0 0.5658150735
C  C32  1  0.11658000  0.31234000  0.58860000  1.0 0.5658150735
C  C33  1  0.31234000  0.58860000  0.11658000  1.0 0.5658150735
C  C34  1  0.98248000  0.58860000  0.31234000  1.0 0.5658150735
C  C35  1  0.58860000  0.31234000  0.98248000  1.0 0.5658150735
C  C36  1  0.31234000  0.11658000  0.98248000  1.0 0.5658150735
C  C37  1  0.41140000  0.88342000  0.01752000  1.0 0.5658150735
C  C38  1  0.88342000  0.41140000  0.68766000  1.0 0.5658150735
C  C39  1  0.01752000  0.68766000  0.41140000  1.0 0.5658150735
C  C40  1  0.68766000  0.01752000  0.88342000  1.0 0.5658150735
C  C41  1  0.88342000  0.01752000  0.41140000  1.0 0.5658150735
C  C42  1  0.01752000  0.41140000  0.88342000  1.0 0.5658150735
C  C43  1  0.01752000  0.88342000  0.68766000  1.0 0.5658150735
C  C44  1  0.68766000  0.88342000  0.41140000  1.0 0.5658150735
C  C45  1  0.41140000  0.68766000  0.88342000  1.0 0.5658150735
C  C46  1  0.41140000  0.01752000  0.68766000  1.0 0.5658150735
C  C47  1  0.68766000  0.41140000  0.01752000  1.0 0.5658150735
C  C48  1  0.88342000  0.68766000  0.01752000  1.0 0.5658150735
C  C49  1  0.81178000  0.44178000  0.02832000  1.0 0.0058456472
C  C50  1  0.44178000  0.81178000  0.71812000  1.0 0.0058456472
C  C51  1  0.71812000  0.02832000  0.44178000  1.0 0.0058456472
C  C52  1  0.02832000  0.71812000  0.81178000  1.0 0.0058456472
C  C53  1  0.02832000  0.81178000  0.44178000  1.0 0.0058456472
C  C54  1  0.44178000  0.02832000  0.81178000  1.0 0.0058456472
C  C55  1  0.81178000  0.02832000  0.71812000  1.0 0.0058456472
C  C56  1  0.81178000  0.71812000  0.44178000  1.0 0.0058456472
C  C57  1  0.71812000  0.44178000  0.81178000  1.0 0.0058456472
C  C58  1  0.02832000  0.44178000  0.71812000  1.0 0.0058456472
C  C59  1  0.44178000  0.71812000  0.02832000  1.0 0.0058456472
C  C60  1  0.71812000  0.81178000  0.02832000  1.0 0.0058456472
C  C61  1  0.55822000  0.18822000  0.97168000  1.0 0.0058456472
C  C62  1  0.18822000  0.55822000  0.28188000  1.0 0.0058456472
C  C63  1  0.97168000  0.28188000  0.55822000  1.0 0.0058456472
C  C64  1  0.28188000  0.97168000  0.18822000  1.0 0.0058456472
C  C65  1  0.18822000  0.97168000  0.55822000  1.0 0.0058456472
C  C66  1  0.97168000  0.55822000  0.18822000  1.0 0.0058456472
C  C67  1  0.97168000  0.18822000  0.28188000  1.0 0.0058456472
C  C68  1  0.28188000  0.18822000  0.55822000  1.0 0.0058456472
C  C69  1  0.55822000  0.28188000  0.18822000  1.0 0.0058456472
C  C70  1  0.55822000  0.97168000  0.28188000  1.0 0.0058456472
C  C71  1  0.28188000  0.55822000  0.97168000  1.0 0.0058456472
C  C72  1  0.18822000  0.28188000  0.97168000  1.0 0.0058456472
C  C73  1  0.18822000  0.55822000  0.97168000  1.0 0.0058456472
C  C74  1  0.55822000  0.18822000  0.28188000  1.0 0.0058456472
C  C75  1  0.28188000  0.97168000  0.55822000  1.0 0.0058456472
C  C76  1  0.97168000  0.28188000  0.18822000  1.0 0.0058456472
C  C77  1  0.97168000  0.18822000  0.55822000  1.0 0.0058456472
C  C78  1  0.55822000  0.97168000  0.18822000  1.0 0.0058456472
C  C79  1  0.18822000  0.97168000  0.28188000  1.0 0.0058456472
C  C80  1  0.18822000  0.28188000  0.55822000  1.0 0.0058456472
C  C81  1  0.28188000  0.55822000  0.18822000  1.0 0.0058456472
C  C82  1  0.97168000  0.55822000  0.28188000  1.0 0.0058456472
C  C83  1  0.55822000  0.28188000  0.97168000  1.0 0.0058456472
C  C84  1  0.28188000  0.18822000  0.97168000  1.0 0.0058456472
C  C85  1  0.44178000  0.81178000  0.02832000  1.0 0.0058456472
C  C86  1  0.81178000  0.44178000  0.71812000  1.0 0.0058456472
C  C87  1  0.02832000  0.71812000  0.44178000  1.0 0.0058456472
C  C88  1  0.71812000  0.02832000  0.81178000  1.0 0.0058456472
C  C89  1  0.81178000  0.02832000  0.44178000  1.0 0.0058456472
C  C90  1  0.02832000  0.44178000  0.81178000  1.0 0.0058456472
C  C91  1  0.02832000  0.81178000  0.71812000  1.0 0.0058456472
C  C92  1  0.71812000  0.81178000  0.44178000  1.0 0.0058456472
C  C93  1  0.44178000  0.71812000  0.81178000  1.0 0.0058456472
C  C94  1  0.44178000  0.02832000  0.71812000  1.0 0.0058456472
C  C95  1  0.71812000  0.44178000  0.02832000  1.0 0.0058456472
C  C96  1  0.81178000  0.71812000  0.02832000  1.0 0.0058456472
C  C97  1  0.78150000  0.41216000  0.02484000  1.0 -0.1325250401
C  C98  1  0.41216000  0.78150000  0.78150000  1.0 -0.1325250401
C  C99  1  0.78150000  0.02484000  0.41216000  1.0 -0.1325250401
C  C100  1  0.02484000  0.78150000  0.78150000  1.0 -0.1325250401
C  C101  1  0.02484000  0.78150000  0.41216000  1.0 -0.1325250401
C  C102  1  0.41216000  0.02484000  0.78150000  1.0 -0.1325250401
C  C103  1  0.78150000  0.02484000  0.78150000  1.0 -0.1325250401
C  C104  1  0.78150000  0.78150000  0.41216000  1.0 -0.1325250401
C  C105  1  0.78150000  0.41216000  0.78150000  1.0 -0.1325250401
C  C106  1  0.02484000  0.41216000  0.78150000  1.0 -0.1325250401
C  C107  1  0.41216000  0.78150000  0.02484000  1.0 -0.1325250401
C  C108  1  0.78150000  0.78150000  0.02484000  1.0 -0.1325250401
C  C109  1  0.58784000  0.21850000  0.97516000  1.0 -0.1325250401
C  C110  1  0.21850000  0.58784000  0.21850000  1.0 -0.1325250401
C  C111  1  0.97516000  0.21850000  0.58784000  1.0 -0.1325250401
C  C112  1  0.21850000  0.97516000  0.21850000  1.0 -0.1325250401
C  C113  1  0.21850000  0.97516000  0.58784000  1.0 -0.1325250401
C  C114  1  0.97516000  0.58784000  0.21850000  1.0 -0.1325250401
C  C115  1  0.97516000  0.21850000  0.21850000  1.0 -0.1325250401
C  C116  1  0.21850000  0.21850000  0.58784000  1.0 -0.1325250401
C  C117  1  0.58784000  0.21850000  0.21850000  1.0 -0.1325250401
C  C118  1  0.58784000  0.97516000  0.21850000  1.0 -0.1325250401
C  C119  1  0.21850000  0.58784000  0.97516000  1.0 -0.1325250401
C  C120  1  0.21850000  0.21850000  0.97516000  1.0 -0.1325250401
C  C121  1  0.77758000  0.49722000  0.04118000  1.0 -0.1467863566
C  C122  1  0.49722000  0.77758000  0.68402000  1.0 -0.1467863566
C  C123  1  0.68402000  0.04118000  0.49722000  1.0 -0.1467863566
C  C124  1  0.04118000  0.68402000  0.77758000  1.0 -0.1467863566
C  C125  1  0.04118000  0.77758000  0.49722000  1.0 -0.1467863566
C  C126  1  0.49722000  0.04118000  0.77758000  1.0 -0.1467863566
C  C127  1  0.77758000  0.04118000  0.68402000  1.0 -0.1467863566
C  C128  1  0.77758000  0.68402000  0.49722000  1.0 -0.1467863566
C  C129  1  0.68402000  0.49722000  0.77758000  1.0 -0.1467863566
C  C130  1  0.04118000  0.49722000  0.68402000  1.0 -0.1467863566
C  C131  1  0.49722000  0.68402000  0.04118000  1.0 -0.1467863566
C  C132  1  0.68402000  0.77758000  0.04118000  1.0 -0.1467863566
C  C133  1  0.50278000  0.22242000  0.95882000  1.0 -0.1467863566
C  C134  1  0.22242000  0.50278000  0.31598000  1.0 -0.1467863566
C  C135  1  0.95882000  0.31598000  0.50278000  1.0 -0.1467863566
C  C136  1  0.31598000  0.95882000  0.22242000  1.0 -0.1467863566
C  C137  1  0.22242000  0.95882000  0.50278000  1.0 -0.1467863566
C  C138  1  0.95882000  0.50278000  0.22242000  1.0 -0.1467863566
C  C139  1  0.95882000  0.22242000  0.31598000  1.0 -0.1467863566
C  C140  1  0.31598000  0.22242000  0.50278000  1.0 -0.1467863566
C  C141  1  0.50278000  0.31598000  0.22242000  1.0 -0.1467863566
C  C142  1  0.50278000  0.95882000  0.31598000  1.0 -0.1467863566
C  C143  1  0.31598000  0.50278000  0.95882000  1.0 -0.1467863566
C  C144  1  0.22242000  0.31598000  0.95882000  1.0 -0.1467863566
C  C145  1  0.22242000  0.50278000  0.95882000  1.0 -0.1467863566
C  C146  1  0.50278000  0.22242000  0.31598000  1.0 -0.1467863566
C  C147  1  0.31598000  0.95882000  0.50278000  1.0 -0.1467863566
C  C148  1  0.95882000  0.31598000  0.22242000  1.0 -0.1467863566
C  C149  1  0.95882000  0.22242000  0.50278000  1.0 -0.1467863566
C  C150  1  0.50278000  0.95882000  0.22242000  1.0 -0.1467863566
C  C151  1  0.22242000  0.95882000  0.31598000  1.0 -0.1467863566
C  C152  1  0.22242000  0.31598000  0.50278000  1.0 -0.1467863566
C  C153  1  0.31598000  0.50278000  0.22242000  1.0 -0.1467863566
C  C154  1  0.95882000  0.50278000  0.31598000  1.0 -0.1467863566
C  C155  1  0.50278000  0.31598000  0.95882000  1.0 -0.1467863566
C  C156  1  0.31598000  0.22242000  0.95882000  1.0 -0.1467863566
C  C157  1  0.49722000  0.77758000  0.04118000  1.0 -0.1467863566
C  C158  1  0.77758000  0.49722000  0.68402000  1.0 -0.1467863566
C  C159  1  0.04118000  0.68402000  0.49722000  1.0 -0.1467863566
C  C160  1  0.68402000  0.04118000  0.77758000  1.0 -0.1467863566
C  C161  1  0.77758000  0.04118000  0.49722000  1.0 -0.1467863566
C  C162  1  0.04118000  0.49722000  0.77758000  1.0 -0.1467863566
C  C163  1  0.04118000  0.77758000  0.68402000  1.0 -0.1467863566
C  C164  1  0.68402000  0.77758000  0.49722000  1.0 -0.1467863566
C  C165  1  0.49722000  0.68402000  0.77758000  1.0 -0.1467863566
C  C166  1  0.49722000  0.04118000  0.68402000  1.0 -0.1467863566
C  C167  1  0.68402000  0.49722000  0.04118000  1.0 -0.1467863566
C  C168  1  0.77758000  0.68402000  0.04118000  1.0 -0.1467863566
C  C169  1  0.71060000  0.52714000  0.05166000  1.0 0.0755653673
C  C170  1  0.52714000  0.71060000  0.71060000  1.0 0.0755653673
C  C171  1  0.71060000  0.05166000  0.52714000  1.0 0.0755653673
C  C172  1  0.05166000  0.71060000  0.71060000  1.0 0.0755653673
C  C173  1  0.05166000  0.71060000  0.52714000  1.0 0.0755653673
C  C174  1  0.52714000  0.05166000  0.71060000  1.0 0.0686947099
C  C175  1  0.71060000  0.05166000  0.71060000  1.0 0.0755653673
C  C176  1  0.71060000  0.71060000  0.52714000  1.0 0.0755653673
C  C177  1  0.71060000  0.52714000  0.71060000  1.0 0.0686947099
C  C178  1  0.05166000  0.52714000  0.71060000  1.0 0.0686947099
C  C179  1  0.52714000  0.71060000  0.05166000  1.0 0.0755653673
C  C180  1  0.71060000  0.71060000  0.05166000  1.0 0.0686947099
C  C181  1  0.47286000  0.28940000  0.94834000  1.0 0.0755653673
C  C182  1  0.28940000  0.47286000  0.28940000  1.0 0.0755653673
C  C183  1  0.94834000  0.28940000  0.47286000  1.0 0.0755653673
C  C184  1  0.28940000  0.94834000  0.28940000  1.0 0.0755653673
C  C185  1  0.28940000  0.94834000  0.47286000  1.0 0.0755653673
C  C186  1  0.94834000  0.47286000  0.28940000  1.0 0.0755653673
C  C187  1  0.94834000  0.28940000  0.28940000  1.0 0.0755653673
C  C188  1  0.28940000  0.28940000  0.47286000  1.0 0.0755653673
C  C189  1  0.47286000  0.28940000  0.28940000  1.0 0.0755653673
C  C190  1  0.47286000  0.94834000  0.28940000  1.0 0.0686947099
C  C191  1  0.28940000  0.47286000  0.94834000  1.0 0.0755653673
C  C192  1  0.28940000  0.28940000  0.94834000  1.0 0.0755653673
C  C193  1  0.67450000  0.58570000  0.06530000  1.0 0.0686947099
C  C194  1  0.58570000  0.67450000  0.67450000  1.0 0.0686947099
C  C195  1  0.67450000  0.06530000  0.58570000  1.0 0.0686947099
C  C196  1  0.06530000  0.67450000  0.67450000  1.0 0.0686947099
C  C197  1  0.06530000  0.67450000  0.58570000  1.0 0.0686947099
C  C198  1  0.58570000  0.06530000  0.67450000  1.0 0.0686947099
C  C199  1  0.67450000  0.06530000  0.67450000  1.0 0.0686947099
C  C200  1  0.67450000  0.67450000  0.58570000  1.0 0.0686947099
C  C201  1  0.67450000  0.58570000  0.67450000  1.0 0.0686947099
C  C202  1  0.06530000  0.58570000  0.67450000  1.0 0.0686947099
C  C203  1  0.58570000  0.67450000  0.06530000  1.0 0.0686947099
C  C204  1  0.67450000  0.67450000  0.06530000  1.0 0.0686947099
C  C205  1  0.41430000  0.32550000  0.93470000  1.0 0.0686947099
C  C206  1  0.32550000  0.41430000  0.32550000  1.0 0.0686947099
C  C207  1  0.93470000  0.32550000  0.41430000  1.0 0.0686947099
C  C208  1  0.32550000  0.93470000  0.32550000  1.0 0.0686947099
C  C209  1  0.32550000  0.93470000  0.41430000  1.0 0.0686947099
C  C210  1  0.93470000  0.41430000  0.32550000  1.0 0.0686947099
C  C211  1  0.93470000  0.32550000  0.32550000  1.0 0.0686947099
C  C212  1  0.32550000  0.32550000  0.41430000  1.0 0.0686947099
C  C213  1  0.41430000  0.32550000  0.32550000  1.0 0.0686947099
C  C214  1  0.41430000  0.93470000  0.32550000  1.0 0.0686947099
C  C215  1  0.32550000  0.41430000  0.93470000  1.0 0.0686947099
C  C216  1  0.32550000  0.32550000  0.93470000  1.0 0.0686947099
C  C217  1  0.70240000  0.61440000  0.06880000  1.0 -0.2073761364
C  C218  1  0.61440000  0.70240000  0.61440000  1.0 -0.2073761364
C  C219  1  0.61440000  0.06880000  0.61440000  1.0 -0.2073761364
C  C220  1  0.06880000  0.61440000  0.70240000  1.0 -0.2073761364
C  C221  1  0.06880000  0.70240000  0.61440000  1.0 -0.2073761364
C  C222  1  0.61440000  0.06880000  0.70240000  1.0 -0.2073761364
C  C223  1  0.70240000  0.06880000  0.61440000  1.0 -0.2073761364
C  C224  1  0.70240000  0.61440000  0.61440000  1.0 -0.2073761364
C  C225  1  0.61440000  0.61440000  0.70240000  1.0 -0.2073761364
C  C226  1  0.06880000  0.61440000  0.61440000  1.0 -0.2073761364
C  C227  1  0.61440000  0.61440000  0.06880000  1.0 -0.2073761364
C  C228  1  0.61440000  0.70240000  0.06880000  1.0 -0.2073761364
C  C229  1  0.38560000  0.29760000  0.93120000  1.0 -0.2073761364
C  C230  1  0.29760000  0.38560000  0.38560000  1.0 -0.2073761364
C  C231  1  0.93120000  0.38560000  0.38560000  1.0 -0.2073761364
C  C232  1  0.38560000  0.93120000  0.29760000  1.0 -0.2073761364
C  C233  1  0.29760000  0.93120000  0.38560000  1.0 -0.2073761364
C  C234  1  0.93120000  0.38560000  0.29760000  1.0 -0.2073761364
C  C235  1  0.93120000  0.29760000  0.38560000  1.0 -0.2073761364
C  C236  1  0.38560000  0.29760000  0.38560000  1.0 -0.2073761364
C  C237  1  0.38560000  0.38560000  0.29760000  1.0 -0.2073761364
C  C238  1  0.38560000  0.93120000  0.38560000  1.0 -0.2073761364
C  C239  1  0.38560000  0.38560000  0.93120000  1.0 -0.2073761364
C  C240  1  0.29760000  0.38560000  0.93120000  1.0 -0.2073761364
O  O1  1  0.90785000  0.44397000  0.01575000  1.0 -0.4995808282
O  O2  1  0.44397000  0.90785000  0.63243000  1.0 -0.505674601
O  O3  1  0.63243000  0.01575000  0.44397000  1.0 -0.4995808282
O  O4  1  0.01575000  0.63243000  0.90785000  1.0 -0.505674601
O  O5  1  0.01575000  0.90785000  0.44397000  1.0 -0.505674601
O  O6  1  0.44397000  0.01575000  0.90785000  1.0 -0.505674601
O  O7  1  0.90785000  0.01575000  0.63243000  1.0 -0.4995808282
O  O8  1  0.90785000  0.63243000  0.44397000  1.0 -0.505674601
O  O9  1  0.63243000  0.44397000  0.90785000  1.0 -0.505674601
O  O10  1  0.01575000  0.44397000  0.63243000  1.0 -0.505674601
O  O11  1  0.44397000  0.63243000  0.01575000  1.0 -0.4995808282
O  O12  1  0.63243000  0.90785000  0.01575000  1.0 -0.4995808282
O  O13  1  0.55603000  0.09215000  0.98425000  1.0 -0.505674601
O  O14  1  0.09215000  0.55603000  0.36757000  1.0 -0.4995808282
O  O15  1  0.98425000  0.36757000  0.55603000  1.0 -0.4995808282
O  O16  1  0.36757000  0.98425000  0.09215000  1.0 -0.4995808282
O  O17  1  0.09215000  0.98425000  0.55603000  1.0 -0.505674601
O  O18  1  0.98425000  0.55603000  0.09215000  1.0 -0.4995808282
O  O19  1  0.98425000  0.09215000  0.36757000  1.0 -0.4995808282
O  O20  1  0.36757000  0.09215000  0.55603000  1.0 -0.4995808282
O  O21  1  0.55603000  0.36757000  0.09215000  1.0 -0.4995808282
O  O22  1  0.55603000  0.98425000  0.36757000  1.0 -0.4995808282
O  O23  1  0.36757000  0.55603000  0.98425000  1.0 -0.505674601
O  O24  1  0.09215000  0.36757000  0.98425000  1.0 -0.505674601
O  O25  1  0.09215000  0.55603000  0.98425000  1.0 -0.505674601
O  O26  1  0.55603000  0.09215000  0.36757000  1.0 -0.4995808282
O  O27  1  0.36757000  0.98425000  0.55603000  1.0 -0.505674601
O  O28  1  0.98425000  0.36757000  0.09215000  1.0 -0.4995808282
O  O29  1  0.98425000  0.09215000  0.55603000  1.0 -0.4995808282
O  O30  1  0.55603000  0.98425000  0.09215000  1.0 -0.4995808282
O  O31  1  0.09215000  0.98425000  0.36757000  1.0 -0.4995808282
O  O32  1  0.09215000  0.36757000  0.55603000  1.0 -0.505674601
O  O33  1  0.36757000  0.55603000  0.09215000  1.0 -0.505674601
O  O34  1  0.98425000  0.55603000  0.36757000  1.0 -0.505674601
O  O35  1  0.55603000  0.36757000  0.98425000  1.0 -0.505674601
O  O36  1  0.36757000  0.09215000  0.98425000  1.0 -0.505674601
O  O37  1  0.44397000  0.90785000  0.01575000  1.0 -0.4995808282
O  O38  1  0.90785000  0.44397000  0.63243000  1.0 -0.505674601
O  O39  1  0.01575000  0.63243000  0.44397000  1.0 -0.505674601
O  O40  1  0.63243000  0.01575000  0.90785000  1.0 -0.4995808282
O  O41  1  0.90785000  0.01575000  0.44397000  1.0 -0.4995808282
O  O42  1  0.01575000  0.44397000  0.90785000  1.0 -0.4995808282
O  O43  1  0.01575000  0.90785000  0.63243000  1.0 -0.505674601
O  O44  1  0.63243000  0.90785000  0.44397000  1.0 -0.4995808282
O  O45  1  0.44397000  0.63243000  0.90785000  1.0 -0.505674601
O  O46  1  0.44397000  0.01575000  0.63243000  1.0 -0.4995808282
O  O47  1  0.63243000  0.44397000  0.01575000  1.0 -0.4995808282
O  O48  1  0.90785000  0.63243000  0.01575000  1.0 -0.4995808282
O  O49  1  0.90915000  0.35621000  0.01531000  1.0 -0.4995808282
O  O50  1  0.35621000  0.90915000  0.71933000  1.0 -0.4995808282
O  O51  1  0.71933000  0.01531000  0.35621000  1.0 -0.4995808282
O  O52  1  0.01531000  0.71933000  0.90915000  1.0 -0.4995808282
O  O53  1  0.01531000  0.90915000  0.35621000  1.0 -0.4995808282
O  O54  1  0.35621000  0.01531000  0.90915000  1.0 -0.4995808282
O  O55  1  0.90915000  0.01531000  0.71933000  1.0 -0.4995808282
O  O56  1  0.90915000  0.71933000  0.35621000  1.0 -0.4995808282
O  O57  1  0.71933000  0.35621000  0.90915000  1.0 -0.4995808282
O  O58  1  0.01531000  0.35621000  0.71933000  1.0 -0.4995808282
O  O59  1  0.35621000  0.71933000  0.01531000  1.0 -0.4995808282
O  O60  1  0.71933000  0.90915000  0.01531000  1.0 -0.4995808282
O  O61  1  0.64379000  0.09085000  0.98469000  1.0 -0.4995808282
O  O62  1  0.09085000  0.64379000  0.28067000  1.0 -0.4995808282
O  O63  1  0.98469000  0.28067000  0.64379000  1.0 -0.4995808282
O  O64  1  0.28067000  0.98469000  0.09085000  1.0 -0.4995808282
O  O65  1  0.09085000  0.98469000  0.64379000  1.0 -0.4995808282
O  O66  1  0.98469000  0.64379000  0.09085000  1.0 -0.4995808282
O  O67  1  0.98469000  0.09085000  0.28067000  1.0 -0.4995808282
O  O68  1  0.28067000  0.09085000  0.64379000  1.0 -0.4995808282
O  O69  1  0.64379000  0.28067000  0.09085000  1.0 -0.4995808282
O  O70  1  0.64379000  0.98469000  0.28067000  1.0 -0.4995808282
O  O71  1  0.28067000  0.64379000  0.98469000  1.0 -0.4995808282
O  O72  1  0.09085000  0.28067000  0.98469000  1.0 -0.4995808282
O  O73  1  0.09085000  0.64379000  0.98469000  1.0 -0.4995808282
O  O74  1  0.64379000  0.09085000  0.28067000  1.0 -0.4995808282
O  O75  1  0.28067000  0.98469000  0.64379000  1.0 -0.4995808282
O  O76  1  0.98469000  0.28067000  0.09085000  1.0 -0.4995808282
O  O77  1  0.98469000  0.09085000  0.64379000  1.0 -0.4995808282
O  O78  1  0.64379000  0.98469000  0.09085000  1.0 -0.4995808282
O  O79  1  0.09085000  0.98469000  0.28067000  1.0 -0.4995808282
O  O80  1  0.09085000  0.28067000  0.64379000  1.0 -0.4995808282
O  O81  1  0.28067000  0.64379000  0.09085000  1.0 -0.4995808282
O  O82  1  0.98469000  0.64379000  0.28067000  1.0 -0.4995808282
O  O83  1  0.64379000  0.28067000  0.98469000  1.0 -0.4995808282
O  O84  1  0.28067000  0.09085000  0.98469000  1.0 -0.4995808282
O  O85  1  0.35621000  0.90915000  0.01531000  1.0 -0.4995808282
O  O86  1  0.90915000  0.35621000  0.71933000  1.0 -0.4995808282
O  O87  1  0.01531000  0.71933000  0.35621000  1.0 -0.4995808282
O  O88  1  0.71933000  0.01531000  0.90915000  1.0 -0.4995808282
O  O89  1  0.90915000  0.01531000  0.35621000  1.0 -0.4995808282
O  O90  1  0.01531000  0.35621000  0.90915000  1.0 -0.4995808282
O  O91  1  0.01531000  0.90915000  0.71933000  1.0 -0.4995808282
O  O92  1  0.71933000  0.90915000  0.35621000  1.0 -0.4995808282
O  O93  1  0.35621000  0.71933000  0.90915000  1.0 -0.4995808282
O  O94  1  0.35621000  0.01531000  0.71933000  1.0 -0.4995808282
O  O95  1  0.71933000  0.35621000  0.01531000  1.0 -0.4995808282
O  O96  1  0.90915000  0.71933000  0.01531000  1.0 -0.4995808282
O  O97  1  0.00000000  0.50000000  0.00000000  1.0 -0.3122926494
O  O98  1  0.50000000  0.00000000  0.50000000  1.0 -0.3122926494
O  O99  1  0.00000000  0.00000000  0.50000000  1.0 -0.3122926494
O  O100  1  0.50000000  0.00000000  0.00000000  1.0 -0.3122926494
O  O101  1  0.00000000  0.50000000  0.50000000  1.0 -0.3122926494
O  O102  1  0.50000000  0.50000000  0.00000000  1.0 -0.3122926494
