# DDEC6 charges by PACMAN v1.1 (https://github.com/mtap-research/PACMAN-charge/)
data_OREZES_FSR_pacman
_symmetry_space_group_name_H-M   'P 1'
_cell_length_a   17.85000000
_cell_length_b   17.85000000
_cell_length_c   13.06400000
_cell_angle_alpha   90.00000000
_cell_angle_beta   90.00000000
_cell_angle_gamma   120.00000000
_symmetry_Int_Tables_number   1
_chemical_formula_structural   CaCu6H48Au6C36S6N6(Cl2O7)3
_chemical_formula_sum   'Ca2 Cu12 H96 Au12 C72 S12 N12 Cl12 O42'
_cell_volume   3604.81718129
_cell_formula_units_Z   2
loop_
 _symmetry_equiv_pos_site_id
 _symmetry_equiv_pos_as_xyz
  1  'x, y, z'
loop_
 _atom_site_type_symbol
 _atom_site_label
 _atom_site_symmetry_multiplicity
 _atom_site_fract_x
 _atom_site_fract_y
 _atom_site_fract_z
 _atom_site_occupancy
 _atom_site_charge
Ca  Ca1  1  0.66666667  0.33333333  0.25410000  1.0 1.4302112314
Ca  Ca2  1  0.33333333  0.66666667  0.75410000  1.0 1.4302112314
Cu  Cu1  1  0.58090000  0.44520000  0.13214000  1.0 0.9259298894
Cu  Cu2  1  0.55480000  0.13570000  0.13214000  1.0 0.9235851619
Cu  Cu3  1  0.86430000  0.41910000  0.13214000  1.0 0.9235851619
Cu  Cu4  1  0.41910000  0.55480000  0.63214000  1.0 0.9235851619
Cu  Cu5  1  0.44520000  0.86430000  0.63214000  1.0 0.9235851619
Cu  Cu6  1  0.13570000  0.58090000  0.63214000  1.0 0.9259298894
Cu  Cu7  1  0.57940000  0.44410000  0.38840000  1.0 0.9510740988
Cu  Cu8  1  0.55590000  0.13530000  0.38840000  1.0 0.9510740988
Cu  Cu9  1  0.86470000  0.42060000  0.38840000  1.0 0.9510740988
Cu  Cu10  1  0.42060000  0.55590000  0.88840000  1.0 0.9510740988
Cu  Cu11  1  0.44410000  0.86470000  0.88840000  1.0 0.9510740988
Cu  Cu12  1  0.13530000  0.57940000  0.88840000  1.0 0.9510740988
H  H1  1  0.58110000  0.72650000  0.05920000  1.0 0.1386715636
H  H2  1  0.27350000  0.85460000  0.05920000  1.0 0.1386715636
H  H3  1  0.14540000  0.41890000  0.05920000  1.0 0.1386715636
H  H4  1  0.41890000  0.27350000  0.55920000  1.0 0.1386715636
H  H5  1  0.72650000  0.14540000  0.55920000  1.0 0.1386715636
H  H6  1  0.85460000  0.58110000  0.55920000  1.0 0.1386715636
H  H7  1  0.44290000  0.70360000  0.10840000  1.0 0.0446027912
H  H8  1  0.29640000  0.73930000  0.10840000  1.0 0.0446027912
H  H9  1  0.26070000  0.55710000  0.10840000  1.0 0.0465313586
H  H10  1  0.55710000  0.29640000  0.60840000  1.0 0.0465313586
H  H11  1  0.70360000  0.26070000  0.60840000  1.0 0.0446027912
H  H12  1  0.73930000  0.44290000  0.60840000  1.0 0.0446027912
H  H13  1  0.49560000  0.67530000  0.17630000  1.0 0.1134980399
H  H14  1  0.32470000  0.82030000  0.17630000  1.0 0.1134980399
H  H15  1  0.17970000  0.50440000  0.17630000  1.0 0.1134980399
H  H16  1  0.50440000  0.32470000  0.67630000  1.0 0.1134980399
H  H17  1  0.67530000  0.17970000  0.67630000  1.0 0.1134980399
H  H18  1  0.82030000  0.49560000  0.67630000  1.0 0.1134980399
H  H19  1  0.32530000  0.59190000  0.14950000  1.0 0.0465313586
H  H20  1  0.40810000  0.73340000  0.14950000  1.0 0.0465313586
H  H21  1  0.26660000  0.67470000  0.14950000  1.0 0.0465313586
H  H22  1  0.67470000  0.40810000  0.64950000  1.0 0.0465313586
H  H23  1  0.59190000  0.26660000  0.64950000  1.0 0.0465313586
H  H24  1  0.73340000  0.32530000  0.64950000  1.0 0.0465313586
H  H25  1  0.38100000  0.65770000  0.23640000  1.0 0.069678758
H  H26  1  0.34230000  0.72330000  0.23640000  1.0 0.069678758
H  H27  1  0.27670000  0.61900000  0.23640000  1.0 0.069678758
H  H28  1  0.61900000  0.34230000  0.73640000  1.0 0.069678758
H  H29  1  0.65770000  0.27670000  0.73640000  1.0 0.069678758
H  H30  1  0.72330000  0.38100000  0.73640000  1.0 0.069678758
H  H31  1  0.30540000  0.42320000  0.14390000  1.0 0.1586661255
H  H32  1  0.57680000  0.88220000  0.14390000  1.0 0.1586661255
H  H33  1  0.11780000  0.69460000  0.14390000  1.0 0.1586661255
H  H34  1  0.69460000  0.57680000  0.64390000  1.0 0.1586661255
H  H35  1  0.42320000  0.11780000  0.64390000  1.0 0.1586661255
H  H36  1  0.88220000  0.30540000  0.64390000  1.0 0.1586661255
H  H37  1  0.22180000  0.39990000  0.21160000  1.0 0.1464174542
H  H38  1  0.60010000  0.82190000  0.21160000  1.0 0.1464174542
H  H39  1  0.17810000  0.77820000  0.21160000  1.0 0.1464174542
H  H40  1  0.77820000  0.60010000  0.71160000  1.0 0.1464174542
H  H41  1  0.39990000  0.17810000  0.71160000  1.0 0.1464174542
H  H42  1  0.82190000  0.22180000  0.71160000  1.0 0.1464174542
H  H43  1  0.28860000  0.37030000  0.24840000  1.0 0.1386715636
H  H44  1  0.62970000  0.91830000  0.24840000  1.0 0.1386715636
H  H45  1  0.08170000  0.71140000  0.24840000  1.0 0.1386715636
H  H46  1  0.71140000  0.62970000  0.74840000  1.0 0.1386715636
H  H47  1  0.37030000  0.08170000  0.74840000  1.0 0.1386715636
H  H48  1  0.91830000  0.28860000  0.74840000  1.0 0.1386715636
H  H49  1  0.46560000  0.30330000  0.93000000  1.0 0.1283122943
H  H50  1  0.69670000  0.16230000  0.93000000  1.0 0.1386715636
H  H51  1  0.83770000  0.53440000  0.93000000  1.0 0.1283122943
H  H52  1  0.53440000  0.69670000  0.43000000  1.0 0.1283122943
H  H53  1  0.30330000  0.83770000  0.43000000  1.0 0.1283122943
H  H54  1  0.16230000  0.46560000  0.43000000  1.0 0.1283122943
H  H55  1  0.35340000  0.22550000  0.93510000  1.0 0.1283122943
H  H56  1  0.77450000  0.12790000  0.93510000  1.0 0.1283122943
H  H57  1  0.87210000  0.64660000  0.93510000  1.0 0.1283122943
H  H58  1  0.64660000  0.77450000  0.43510000  1.0 0.1283122943
H  H59  1  0.22550000  0.87210000  0.43510000  1.0 0.1283122943
H  H60  1  0.12790000  0.35340000  0.43510000  1.0 0.1283122943
H  H61  1  0.33600000  0.28210000  0.01190000  1.0 0.1199983976
H  H62  1  0.71790000  0.05390000  0.01190000  1.0 0.1199983976
H  H63  1  0.94610000  0.66400000  0.01190000  1.0 0.1199983976
H  H64  1  0.66400000  0.71790000  0.51190000  1.0 0.1199983976
H  H65  1  0.28210000  0.94610000  0.51190000  1.0 0.1199983976
H  H66  1  0.05390000  0.33600000  0.51190000  1.0 0.1199983976
H  H67  1  0.29260000  0.11170000  0.03270000  1.0 0.1283122943
H  H68  1  0.88830000  0.18090000  0.03270000  1.0 0.1283122943
H  H69  1  0.81910000  0.70740000  0.03270000  1.0 0.1283122943
H  H70  1  0.70740000  0.88830000  0.53270000  1.0 0.1283122943
H  H71  1  0.11170000  0.81910000  0.53270000  1.0 0.1283122943
H  H72  1  0.18090000  0.29260000  0.53270000  1.0 0.1283122943
H  H73  1  0.23420000  0.15680000  0.04490000  1.0 0.069678758
H  H74  1  0.84320000  0.07740000  0.04490000  1.0 0.069678758
H  H75  1  0.92260000  0.76580000  0.04490000  1.0 0.069678758
H  H76  1  0.76580000  0.84320000  0.54490000  1.0 0.069678758
H  H77  1  0.15680000  0.92260000  0.54490000  1.0 0.069678758
H  H78  1  0.07740000  0.23420000  0.54490000  1.0 0.069678758
H  H79  1  0.26840000  0.27980000  0.15440000  1.0 0.1283122943
H  H80  1  0.72020000  0.98860000  0.15440000  1.0 0.1283122943
H  H81  1  0.01140000  0.73160000  0.15440000  1.0 0.1283122943
H  H82  1  0.73160000  0.72020000  0.65440000  1.0 0.1283122943
H  H83  1  0.27980000  0.01140000  0.65440000  1.0 0.1283122943
H  H84  1  0.98860000  0.26840000  0.65440000  1.0 0.1283122943
H  H85  1  0.20450000  0.21190000  0.23740000  1.0 0.1586661255
H  H86  1  0.78810000  0.99260000  0.23740000  1.0 0.1586661255
H  H87  1  0.00740000  0.79550000  0.23740000  1.0 0.1586661255
H  H88  1  0.79550000  0.78810000  0.73740000  1.0 0.1586661255
H  H89  1  0.21190000  0.00740000  0.73740000  1.0 0.1586661255
H  H90  1  0.99260000  0.20450000  0.73740000  1.0 0.1586661255
H  H91  1  0.19840000  0.18380000  0.12000000  1.0 0.1199983976
H  H92  1  0.81620000  0.01460000  0.12000000  1.0 0.1199983976
H  H93  1  0.98540000  0.80160000  0.12000000  1.0 0.1199983976
H  H94  1  0.80160000  0.81620000  0.62000000  1.0 0.1199983976
H  H95  1  0.18380000  0.98540000  0.62000000  1.0 0.1199983976
H  H96  1  0.01460000  0.19840000  0.62000000  1.0 0.1199983976
Au  Au1  1  0.39540000  0.35400000  0.26810000  1.0 -0.1243873831
Au  Au2  1  0.64600000  0.04140000  0.26810000  1.0 -0.1243873831
Au  Au3  1  0.95860000  0.60460000  0.26810000  1.0 -0.1243873831
Au  Au4  1  0.60460000  0.64600000  0.76810000  1.0 -0.1265006099
Au  Au5  1  0.35400000  0.95860000  0.76810000  1.0 -0.1243873831
Au  Au6  1  0.04140000  0.39540000  0.76810000  1.0 -0.1265006099
Au  Au7  1  0.31410000  0.02370000  0.21650000  1.0 0.0616620255
Au  Au8  1  0.97630000  0.29040000  0.21650000  1.0 0.0616620255
Au  Au9  1  0.70960000  0.68590000  0.21650000  1.0 0.0616620255
Au  Au10  1  0.68590000  0.97630000  0.71650000  1.0 0.0616620255
Au  Au11  1  0.02370000  0.70960000  0.71650000  1.0 0.0616620255
Au  Au12  1  0.29040000  0.31410000  0.71650000  1.0 0.0616620255
C  C1  1  0.50230000  0.27080000  0.06100000  1.0 0.5974413706
C  C2  1  0.72920000  0.23150000  0.06100000  1.0 0.5974413706
C  C3  1  0.76850000  0.49770000  0.06100000  1.0 0.5974413706
C  C4  1  0.49770000  0.72920000  0.56100000  1.0 0.5974413706
C  C5  1  0.27080000  0.76850000  0.56100000  1.0 0.5974413706
C  C6  1  0.23150000  0.50230000  0.56100000  1.0 0.5974413706
C  C7  1  0.48900000  0.45800000  0.99100000  1.0 0.3044563237
C  C8  1  0.54200000  0.03100000  0.99100000  1.0 0.3051765713
C  C9  1  0.96900000  0.51100000  0.99100000  1.0 0.3044563237
C  C10  1  0.51100000  0.54200000  0.49100000  1.0 0.3051765713
C  C11  1  0.45800000  0.96900000  0.49100000  1.0 0.3044563237
C  C12  1  0.03100000  0.48900000  0.49100000  1.0 0.3044563237
C  C13  1  0.52770000  0.54510000  0.03960000  1.0 0.3981000536
C  C14  1  0.45490000  0.98260000  0.03960000  1.0 0.3981000536
C  C15  1  0.01740000  0.47230000  0.03960000  1.0 0.3981000536
C  C16  1  0.47230000  0.45490000  0.53960000  1.0 0.3981000536
C  C17  1  0.54510000  0.01740000  0.53960000  1.0 0.3981000536
C  C18  1  0.98260000  0.52770000  0.53960000  1.0 0.3981000536
C  C19  1  0.47800000  0.71400000  0.96700000  1.0 0.5238787982
C  C20  1  0.28600000  0.76400000  0.96700000  1.0 0.5238787982
C  C21  1  0.23600000  0.52200000  0.96700000  1.0 0.5238787982
C  C22  1  0.52200000  0.28600000  0.46700000  1.0 0.5238787982
C  C23  1  0.71400000  0.23600000  0.46700000  1.0 0.5238787982
C  C24  1  0.76400000  0.47800000  0.46700000  1.0 0.5238787982
C  C25  1  0.52080000  0.68300000  0.03800000  1.0 -0.026939891
C  C26  1  0.31700000  0.83780000  0.03800000  1.0 -0.026939891
C  C27  1  0.16220000  0.47920000  0.03800000  1.0 -0.026939891
C  C28  1  0.47920000  0.31700000  0.53800000  1.0 -0.026939891
C  C29  1  0.68300000  0.16220000  0.53800000  1.0 -0.026939891
C  C30  1  0.83780000  0.52080000  0.53800000  1.0 -0.026939891
C  C31  1  0.45250000  0.65420000  0.12030000  1.0 -0.1265006099
C  C32  1  0.34580000  0.79830000  0.12030000  1.0 -0.1265006099
C  C33  1  0.20170000  0.54750000  0.12030000  1.0 -0.1265006099
C  C34  1  0.54750000  0.34580000  0.62030000  1.0 -0.1265006099
C  C35  1  0.65420000  0.20170000  0.62030000  1.0 -0.1265006099
C  C36  1  0.79830000  0.45250000  0.62030000  1.0 -0.1265006099
C  C37  1  0.37700000  0.61000000  0.19300000  1.0 -0.1485938129
C  C38  1  0.39000000  0.76700000  0.19300000  1.0 -0.1485938129
C  C39  1  0.23300000  0.62300000  0.19300000  1.0 -0.1485938129
C  C40  1  0.62300000  0.39000000  0.69300000  1.0 -0.1485938129
C  C41  1  0.61000000  0.23300000  0.69300000  1.0 -0.1485938129
C  C42  1  0.76700000  0.37700000  0.69300000  1.0 -0.1485938129
C  C43  1  0.28300000  0.41600000  0.21400000  1.0 -0.3985520176
C  C44  1  0.58400000  0.86700000  0.21400000  1.0 -0.3985520176
C  C45  1  0.13300000  0.71700000  0.21400000  1.0 -0.3985520176
C  C46  1  0.71700000  0.58400000  0.71400000  1.0 -0.3985520176
C  C47  1  0.41600000  0.13300000  0.71400000  1.0 -0.3985520176
C  C48  1  0.86700000  0.28300000  0.71400000  1.0 -0.3985520176
C  C49  1  0.45250000  0.31110000  0.00200000  1.0 -0.0436939637
C  C50  1  0.68890000  0.14140000  0.00200000  1.0 -0.0436939637
C  C51  1  0.85860000  0.54750000  0.00200000  1.0 -0.0436939637
C  C52  1  0.54750000  0.68890000  0.50200000  1.0 -0.0436939637
C  C53  1  0.31110000  0.85860000  0.50200000  1.0 -0.0436939637
C  C54  1  0.14140000  0.45250000  0.50200000  1.0 -0.0436939637
C  C55  1  0.36300000  0.24500000  0.00700000  1.0 -0.1633500652
C  C56  1  0.75500000  0.11800000  0.00700000  1.0 -0.1633500652
C  C57  1  0.88200000  0.63700000  0.00700000  1.0 -0.1633500652
C  C58  1  0.63700000  0.75500000  0.50700000  1.0 -0.1633500652
C  C59  1  0.24500000  0.88200000  0.50700000  1.0 -0.1633500652
C  C60  1  0.11800000  0.36300000  0.50700000  1.0 -0.1633500652
C  C61  1  0.29190000  0.16370000  0.05800000  1.0 -0.1678019983
C  C62  1  0.83630000  0.12820000  0.05800000  1.0 -0.1678019983
C  C63  1  0.87180000  0.70810000  0.05800000  1.0 -0.1678019983
C  C64  1  0.70810000  0.83630000  0.55800000  1.0 -0.1678019983
C  C65  1  0.16370000  0.87180000  0.55800000  1.0 -0.1678019983
C  C66  1  0.12820000  0.29190000  0.55800000  1.0 -0.1678019983
C  C67  1  0.23800000  0.21900000  0.17500000  1.0 -0.3985520176
C  C68  1  0.78100000  0.01900000  0.17500000  1.0 -0.3985520176
C  C69  1  0.98100000  0.76200000  0.17500000  1.0 -0.3985520176
C  C70  1  0.76200000  0.78100000  0.67500000  1.0 -0.3985520176
C  C71  1  0.21900000  0.98100000  0.67500000  1.0 -0.3985520176
C  C72  1  0.01900000  0.23800000  0.67500000  1.0 -0.3985520176
S  S1  1  0.32000000  0.18170000  0.20000000  1.0 0.2114603411
S  S2  1  0.81830000  0.13830000  0.20000000  1.0 0.2114603411
S  S3  1  0.86170000  0.68000000  0.20000000  1.0 0.2114603411
S  S4  1  0.68000000  0.81830000  0.70000000  1.0 0.2114603411
S  S5  1  0.18170000  0.86170000  0.70000000  1.0 0.2027155313
S  S6  1  0.13830000  0.32000000  0.70000000  1.0 0.2027155313
S  S7  1  0.34470000  0.51790000  0.28420000  1.0 0.0616620255
S  S8  1  0.48210000  0.82680000  0.28420000  1.0 0.0616620255
S  S9  1  0.17320000  0.65530000  0.28420000  1.0 0.0616620255
S  S10  1  0.65530000  0.48210000  0.78420000  1.0 0.0616620255
S  S11  1  0.51790000  0.17320000  0.78420000  1.0 0.0616620255
S  S12  1  0.82680000  0.34470000  0.78420000  1.0 0.0616620255
N  N1  1  0.50450000  0.40470000  0.01050000  1.0 -0.2454891351
N  N2  1  0.59530000  0.09980000  0.01050000  1.0 -0.2454891351
N  N3  1  0.90020000  0.49550000  0.01050000  1.0 -0.2454891351
N  N4  1  0.49550000  0.59530000  0.51050000  1.0 -0.2454891351
N  N5  1  0.40470000  0.90020000  0.51050000  1.0 -0.2454891351
N  N6  1  0.09980000  0.50450000  0.51050000  1.0 -0.2447086718
N  N7  1  0.50940000  0.60200000  0.98860000  1.0 -0.4180954046
N  N8  1  0.39800000  0.90740000  0.98860000  1.0 -0.4180954046
N  N9  1  0.09260000  0.49060000  0.98860000  1.0 -0.4180954046
N  N10  1  0.49060000  0.39800000  0.48860000  1.0 -0.4180954046
N  N11  1  0.60200000  0.09260000  0.48860000  1.0 -0.4180954046
N  N12  1  0.90740000  0.50940000  0.48860000  1.0 -0.4180954046
Cl  Cl1  1  0.32570000  0.39120000  0.38620000  1.0 -0.0478896427
Cl  Cl2  1  0.60880000  0.93450000  0.38620000  1.0 -0.0478896427
Cl  Cl3  1  0.06550000  0.67430000  0.38620000  1.0 -0.0478896427
Cl  Cl4  1  0.67430000  0.60880000  0.88620000  1.0 -0.0478896427
Cl  Cl5  1  0.39120000  0.06550000  0.88620000  1.0 -0.0478896427
Cl  Cl6  1  0.93450000  0.32570000  0.88620000  1.0 -0.0478896427
Cl  Cl7  1  0.25410000  0.01820000  0.35790000  1.0 -0.2689660685
Cl  Cl8  1  0.98180000  0.23590000  0.35790000  1.0 -0.2689660685
Cl  Cl9  1  0.76410000  0.74590000  0.35790000  1.0 -0.2689660685
Cl  Cl10  1  0.74590000  0.98180000  0.85790000  1.0 -0.2689660685
Cl  Cl11  1  0.01820000  0.76410000  0.85790000  1.0 -0.2689660685
Cl  Cl12  1  0.23590000  0.25410000  0.85790000  1.0 -0.2689660685
O  O1  1  0.64180000  0.46610000  0.25340000  1.0 -0.7256767299
O  O2  1  0.53390000  0.17570000  0.25340000  1.0 -0.7256767299
O  O3  1  0.82430000  0.35820000  0.25340000  1.0 -0.7256767299
O  O4  1  0.35820000  0.53390000  0.75340000  1.0 -0.7213490354
O  O5  1  0.46610000  0.82430000  0.75340000  1.0 -0.7213490354
O  O6  1  0.17570000  0.64180000  0.75340000  1.0 -0.7213490354
O  O7  1  0.55640000  0.32170000  0.13730000  1.0 -0.605899726
O  O8  1  0.67830000  0.23470000  0.13730000  1.0 -0.6037296203
O  O9  1  0.76530000  0.44360000  0.13730000  1.0 -0.6037296203
O  O10  1  0.44360000  0.67830000  0.63730000  1.0 -0.605899726
O  O11  1  0.32170000  0.76530000  0.63730000  1.0 -0.6037296203
O  O12  1  0.23470000  0.55640000  0.63730000  1.0 -0.605899726
O  O13  1  0.49470000  0.20000000  0.03050000  1.0 -0.5402066356
O  O14  1  0.80000000  0.29470000  0.03050000  1.0 -0.5402066356
O  O15  1  0.70530000  0.50530000  0.03050000  1.0 -0.5402066356
O  O16  1  0.50530000  0.80000000  0.53050000  1.0 -0.5402066356
O  O17  1  0.20000000  0.70530000  0.53050000  1.0 -0.5402066356
O  O18  1  0.29470000  0.49470000  0.53050000  1.0 -0.5402066356
O  O19  1  0.43680000  0.67460000  0.89240000  1.0 -0.5093079057
O  O20  1  0.32540000  0.76220000  0.89240000  1.0 -0.5093079057
O  O21  1  0.23780000  0.56320000  0.89240000  1.0 -0.5093079057
O  O22  1  0.56320000  0.32540000  0.39240000  1.0 -0.5093079057
O  O23  1  0.67460000  0.23780000  0.39240000  1.0 -0.5093079057
O  O24  1  0.76220000  0.43680000  0.39240000  1.0 -0.5093079057
O  O25  1  0.51490000  0.80500000  0.96600000  1.0 -0.5402066356
O  O26  1  0.19500000  0.70990000  0.96600000  1.0 -0.5402066356
O  O27  1  0.29010000  0.48510000  0.96600000  1.0 -0.5402066356
O  O28  1  0.48510000  0.19500000  0.46600000  1.0 -0.5402066356
O  O29  1  0.80500000  0.29010000  0.46600000  1.0 -0.5402066356
O  O30  1  0.70990000  0.51490000  0.46600000  1.0 -0.5402066356
O  O31  1  0.42400000  0.44620000  0.90500000  1.0 -0.4729262289
O  O32  1  0.55380000  0.97780000  0.90500000  1.0 -0.4729262289
O  O33  1  0.02220000  0.57600000  0.90500000  1.0 -0.4729262289
O  O34  1  0.57600000  0.55380000  0.40500000  1.0 -0.4729262289
O  O35  1  0.44620000  0.02220000  0.40500000  1.0 -0.4729262289
O  O36  1  0.97780000  0.42400000  0.40500000  1.0 -0.4729262289
O  O37  1  0.57160000  0.55600000  0.11310000  1.0 -0.3785006053
O  O38  1  0.44400000  0.01560000  0.11310000  1.0 -0.3785006053
O  O39  1  0.98440000  0.42840000  0.11310000  1.0 -0.3785006053
O  O40  1  0.42840000  0.44400000  0.61310000  1.0 -0.3785006053
O  O41  1  0.55600000  0.98440000  0.61310000  1.0 -0.3785006053
O  O42  1  0.01560000  0.57160000  0.61310000  1.0 -0.3785006053
