# DDEC6 charges by PACMAN v1.1 (https://github.com/mtap-research/PACMAN-charge/)
data_ORIVOC_FSR_pacman
_symmetry_space_group_name_H-M   'P 1'
_cell_length_a   15.27620000
_cell_length_b   15.27620000
_cell_length_c   15.27620000
_cell_angle_alpha   117.93000000
_cell_angle_beta   117.93000000
_cell_angle_gamma   117.93000000
_symmetry_Int_Tables_number   1
_chemical_formula_structural   ZnH(CO)4
_chemical_formula_sum   'Zn6 H6 C24 O24'
_cell_volume   1316.12854953
_cell_formula_units_Z   6
loop_
 _symmetry_equiv_pos_site_id
 _symmetry_equiv_pos_as_xyz
  1  'x, y, z'
loop_
 _atom_site_type_symbol
 _atom_site_label
 _atom_site_symmetry_multiplicity
 _atom_site_fract_x
 _atom_site_fract_y
 _atom_site_fract_z
 _atom_site_occupancy
 _atom_site_charge
Zn  Zn1  1  0.11489000  0.54001000  0.80143000  1.0 0.9971812556
Zn  Zn2  1  0.54001000  0.80143000  0.11489000  1.0 0.9971812556
Zn  Zn3  1  0.80143000  0.11489000  0.54001000  1.0 0.9971812556
Zn  Zn4  1  0.88511000  0.45999000  0.19857000  1.0 0.9971812556
Zn  Zn5  1  0.45999000  0.19857000  0.88511000  1.0 0.9971812556
Zn  Zn6  1  0.19857000  0.88511000  0.45999000  1.0 0.9971812556
H  H1  1  0.64533000  0.18706000  0.62212000  1.0 0.1518008848
H  H2  1  0.18706000  0.62212000  0.64533000  1.0 0.1518008848
H  H3  1  0.62212000  0.64533000  0.18706000  1.0 0.1518008848
H  H4  1  0.35467000  0.81294000  0.37788000  1.0 0.1518008848
H  H5  1  0.81294000  0.37788000  0.35467000  1.0 0.1518008848
H  H6  1  0.37788000  0.35467000  0.81294000  1.0 0.1518008848
C  C1  1  0.16875000  0.61069000  0.08393000  1.0 -0.1206503371
C  C2  1  0.61069000  0.08393000  0.16875000  1.0 -0.1206503371
C  C3  1  0.08393000  0.16875000  0.61069000  1.0 -0.1206503371
C  C4  1  0.83125000  0.38931000  0.91607000  1.0 -0.1206503371
C  C5  1  0.38931000  0.91607000  0.83125000  1.0 -0.1206503371
C  C6  1  0.91607000  0.83125000  0.38931000  1.0 -0.1206503371
C  C7  1  0.96913000  0.43455000  0.87124000  1.0 0.2934627523
C  C8  1  0.43455000  0.87124000  0.96913000  1.0 0.2934627523
C  C9  1  0.87124000  0.96913000  0.43455000  1.0 0.2934627523
C  C10  1  0.03087000  0.56545000  0.12876000  1.0 0.2934627523
C  C11  1  0.56545000  0.12876000  0.03087000  1.0 0.2934627523
C  C12  1  0.12876000  0.03087000  0.56545000  1.0 0.2934627523
C  C13  1  0.80037000  0.32387000  0.78732000  1.0 -0.1921875189
C  C14  1  0.32387000  0.78732000  0.80037000  1.0 -0.1921875189
C  C15  1  0.78732000  0.80037000  0.32387000  1.0 -0.1921875189
C  C16  1  0.19963000  0.67613000  0.21268000  1.0 -0.1921875189
C  C17  1  0.67613000  0.21268000  0.19963000  1.0 -0.1921875189
C  C18  1  0.21268000  0.19963000  0.67613000  1.0 -0.1921875189
C  C19  1  0.35023000  0.72973000  0.17419000  1.0 0.6293295215
C  C20  1  0.72973000  0.17419000  0.35023000  1.0 0.6293295215
C  C21  1  0.17419000  0.35023000  0.72973000  1.0 0.6293295215
C  C22  1  0.64977000  0.27027000  0.82581000  1.0 0.6293295215
C  C23  1  0.27027000  0.82581000  0.64977000  1.0 0.6293295215
C  C24  1  0.82581000  0.64977000  0.27027000  1.0 0.6293295215
O  O1  1  0.32238000  0.67072000  0.05810000  1.0 -0.5425552537
O  O2  1  0.67072000  0.05810000  0.32238000  1.0 -0.5425552537
O  O3  1  0.05810000  0.32238000  0.67072000  1.0 -0.5425552537
O  O4  1  0.67762000  0.32928000  0.94190000  1.0 -0.5425552537
O  O5  1  0.32928000  0.94190000  0.67762000  1.0 -0.5425552537
O  O6  1  0.94190000  0.67762000  0.32928000  1.0 -0.5425552537
O  O7  1  0.53021000  0.88854000  0.36595000  1.0 -0.4961789459
O  O8  1  0.88854000  0.36595000  0.53021000  1.0 -0.4961789459
O  O9  1  0.36595000  0.53021000  0.88854000  1.0 -0.4961789459
O  O10  1  0.46979000  0.11146000  0.63405000  1.0 -0.4961789459
O  O11  1  0.11146000  0.63405000  0.46979000  1.0 -0.4961789459
O  O12  1  0.63405000  0.46979000  0.11146000  1.0 -0.4961789459
O  O13  1  0.93923000  0.37120000  0.74657000  1.0 -0.5543317408
O  O14  1  0.37120000  0.74657000  0.93923000  1.0 -0.5543317408
O  O15  1  0.74657000  0.93923000  0.37120000  1.0 -0.5543317408
O  O16  1  0.06077000  0.62880000  0.25343000  1.0 -0.5543317408
O  O17  1  0.62880000  0.25343000  0.06077000  1.0 -0.5543317408
O  O18  1  0.25343000  0.06077000  0.62880000  1.0 -0.5543317408
O  O19  1  0.18951000  0.75489000  0.96070000  1.0 -0.1685422371
O  O20  1  0.75489000  0.96070000  0.18951000  1.0 -0.1631989986
O  O21  1  0.96070000  0.18951000  0.75489000  1.0 -0.1631989986
O  O22  1  0.81049000  0.24511000  0.03930000  1.0 -0.1631989986
O  O23  1  0.24511000  0.03930000  0.81049000  1.0 -0.1685422371
O  O24  1  0.03930000  0.81049000  0.24511000  1.0 -0.1685422371
