# DDEC6 charges by PACMAN v1.1 (https://github.com/mtap-research/PACMAN-charge/)
data_OROLUD_FSR_pacman
_symmetry_space_group_name_H-M   'P 1'
_cell_length_a   9.63800000
_cell_length_b   20.59790000
_cell_length_c   10.42070000
_cell_angle_alpha   90.00000000
_cell_angle_beta   95.03400000
_cell_angle_gamma   90.00000000
_symmetry_Int_Tables_number   1
_chemical_formula_structural   Zn3P4(HO3)4
_chemical_formula_sum   'Zn12 P16 H16 O48'
_cell_volume   2060.76449066
_cell_formula_units_Z   4
loop_
 _symmetry_equiv_pos_site_id
 _symmetry_equiv_pos_as_xyz
  1  'x, y, z'
loop_
 _atom_site_type_symbol
 _atom_site_label
 _atom_site_symmetry_multiplicity
 _atom_site_fract_x
 _atom_site_fract_y
 _atom_site_fract_z
 _atom_site_occupancy
 _atom_site_charge
Zn  Zn1  1  0.82993000  0.69260000  0.63986000  1.0 1.1525515739
Zn  Zn2  1  0.17007000  0.19260000  0.86014000  1.0 1.1525515739
Zn  Zn3  1  0.17007000  0.30740000  0.36014000  1.0 1.1525515739
Zn  Zn4  1  0.82993000  0.80740000  0.13986000  1.0 1.1525515739
Zn  Zn5  1  0.30621000  0.54296000  0.40877000  1.0 1.0999837641
Zn  Zn6  1  0.69379000  0.04296000  0.09123000  1.0 1.0999837641
Zn  Zn7  1  0.69379000  0.45704000  0.59123000  1.0 1.0999837641
Zn  Zn8  1  0.30621000  0.95704000  0.90877000  1.0 1.0999837641
Zn  Zn9  1  0.07578000  0.57036000  0.87994000  1.0 1.1223326747
Zn  Zn10  1  0.92422000  0.07036000  0.62006000  1.0 1.1223326747
Zn  Zn11  1  0.92422000  0.42964000  0.12006000  1.0 1.1223326747
Zn  Zn12  1  0.07578000  0.92964000  0.37994000  1.0 1.1223326747
P  P1  1  0.93888000  0.70759000  0.94033000  1.0 1.2302625898
P  P2  1  0.06112000  0.20759000  0.55967000  1.0 1.2302625898
P  P3  1  0.06112000  0.29241000  0.05967000  1.0 1.2302625898
P  P4  1  0.93888000  0.79241000  0.44033000  1.0 1.2302625898
P  P5  1  0.56852000  0.60004000  0.56332000  1.0 1.1860654378
P  P6  1  0.43148000  0.10004000  0.93668000  1.0 1.1860654378
P  P7  1  0.43148000  0.39996000  0.43668000  1.0 1.1860654378
P  P8  1  0.56852000  0.89996000  0.06332000  1.0 1.1832169517
P  P9  1  0.21122000  0.50136000  0.12825000  1.0 1.1832169517
P  P10  1  0.78878000  0.00136000  0.37175000  1.0 1.1832169517
P  P11  1  0.78878000  0.49864000  0.87175000  1.0 1.1832169517
P  P12  1  0.21122000  0.99864000  0.62825000  1.0 1.1832169517
P  P13  1  0.11486000  0.61213000  0.59607000  1.0 1.1832169517
P  P14  1  0.88514000  0.11213000  0.90393000  1.0 1.1860654378
P  P15  1  0.88514000  0.38787000  0.40393000  1.0 1.1860654378
P  P16  1  0.11486000  0.88787000  0.09607000  1.0 1.1860654378
H  H1  1  0.02900000  0.75630000  0.92000000  1.0 -0.1205112245
H  H2  1  0.97100000  0.25630000  0.58000000  1.0 -0.1205112245
H  H3  1  0.97100000  0.24370000  0.08000000  1.0 -0.1205112245
H  H4  1  0.02900000  0.74370000  0.42000000  1.0 -0.1205112245
H  H5  1  0.52500000  0.58290000  0.67400000  1.0 -0.1547689166
H  H6  1  0.47500000  0.08290000  0.82600000  1.0 -0.1618143942
H  H7  1  0.47500000  0.41710000  0.32600000  1.0 -0.1618143942
H  H8  1  0.52500000  0.91710000  0.17400000  1.0 -0.1618143942
H  H9  1  0.26800000  0.44260000  0.13200000  1.0 -0.1281589395
H  H10  1  0.73200000  0.94260000  0.36800000  1.0 -0.1205112245
H  H11  1  0.73200000  0.55740000  0.86800000  1.0 -0.1281589395
H  H12  1  0.26800000  0.05740000  0.63200000  1.0 -0.1281589395
H  H13  1  0.19000000  0.66450000  0.58500000  1.0 -0.1708466883
H  H14  1  0.81000000  0.16450000  0.91500000  1.0 -0.1750573989
H  H15  1  0.81000000  0.33550000  0.41500000  1.0 -0.1708466883
H  H16  1  0.19000000  0.83550000  0.08500000  1.0 -0.1750573989
O  O1  1  0.02240000  0.64674000  0.96350000  1.0 -0.6501412268
O  O2  1  0.97760000  0.14674000  0.53650000  1.0 -0.6501412268
O  O3  1  0.97760000  0.35326000  0.03650000  1.0 -0.6501412268
O  O4  1  0.02240000  0.85326000  0.46350000  1.0 -0.6501412268
O  O5  1  0.84030000  0.70572000  0.82170000  1.0 -0.6620356913
O  O6  1  0.15970000  0.20572000  0.67830000  1.0 -0.6620356913
O  O7  1  0.15970000  0.29428000  0.17830000  1.0 -0.6620356913
O  O8  1  0.84030000  0.79428000  0.32170000  1.0 -0.6620356913
O  O9  1  0.86660000  0.72569000  0.05811000  1.0 -0.6305381711
O  O10  1  0.13340000  0.22569000  0.44189000  1.0 -0.6305381711
O  O11  1  0.13340000  0.27431000  0.94189000  1.0 -0.6305381711
O  O12  1  0.86660000  0.77431000  0.55811000  1.0 -0.6305381711
O  O13  1  0.64420000  0.66365000  0.58110000  1.0 -0.6099886473
O  O14  1  0.35580000  0.16365000  0.91890000  1.0 -0.6099886473
O  O15  1  0.35580000  0.33635000  0.41890000  1.0 -0.6099886473
O  O16  1  0.64420000  0.83635000  0.08110000  1.0 -0.6099886473
O  O17  1  0.66210000  0.54454000  0.52780000  1.0 -0.6370936977
O  O18  1  0.33790000  0.04454000  0.97220000  1.0 -0.6370936977
O  O19  1  0.33790000  0.45546000  0.47220000  1.0 -0.6370936977
O  O20  1  0.66210000  0.95546000  0.02780000  1.0 -0.6370936977
O  O21  1  0.44260000  0.60745000  0.46700000  1.0 -0.6370936977
O  O22  1  0.55740000  0.10745000  0.03300000  1.0 -0.6305381711
O  O23  1  0.55740000  0.39255000  0.53300000  1.0 -0.6370936977
O  O24  1  0.44260000  0.89255000  0.96700000  1.0 -0.6370936977
O  O25  1  0.30110000  0.54412000  0.22174000  1.0 -0.5992840405
O  O26  1  0.69890000  0.04412000  0.27826000  1.0 -0.5992840405
O  O27  1  0.69890000  0.45588000  0.77826000  1.0 -0.5992840405
O  O28  1  0.30110000  0.95588000  0.72174000  1.0 -0.5992840405
O  O29  1  0.21680000  0.52528000  0.99215000  1.0 -0.6099886473
O  O30  1  0.78320000  0.02528000  0.50785000  1.0 -0.6099886473
O  O31  1  0.78320000  0.47472000  0.00785000  1.0 -0.6099886473
O  O32  1  0.21680000  0.97472000  0.49215000  1.0 -0.6099886473
O  O33  1  0.06590000  0.49395000  0.17036000  1.0 -0.6794028606
O  O34  1  0.93410000  0.99395000  0.32964000  1.0 -0.6794028606
O  O35  1  0.93410000  0.50605000  0.82964000  1.0 -0.6794028606
O  O36  1  0.06590000  0.00605000  0.67036000  1.0 -0.6794028606
O  O37  1  0.13620000  0.56825000  0.48150000  1.0 -0.5713263925
O  O38  1  0.86380000  0.06825000  0.01850000  1.0 -0.5713263925
O  O39  1  0.86380000  0.43175000  0.51850000  1.0 -0.5713263925
O  O40  1  0.13620000  0.93175000  0.98150000  1.0 -0.5713263925
O  O41  1  0.96400000  0.63074000  0.58870000  1.0 -0.6794028606
O  O42  1  0.03600000  0.13074000  0.91130000  1.0 -0.6794028606
O  O43  1  0.03600000  0.36926000  0.41130000  1.0 -0.6794028606
O  O44  1  0.96400000  0.86926000  0.08870000  1.0 -0.6794028606
O  O45  1  0.16970000  0.58195000  0.72230000  1.0 -0.6161822256
O  O46  1  0.83030000  0.08195000  0.77770000  1.0 -0.6161822256
O  O47  1  0.83030000  0.41805000  0.27770000  1.0 -0.6161822256
O  O48  1  0.16970000  0.91805000  0.22230000  1.0 -0.6099886473
