# DDEC6 charges by PACMAN v1.1 (https://github.com/mtap-research/PACMAN-charge/)
data_OSIKUX_ASR_pacman
_symmetry_space_group_name_H-M   'P 1'
_cell_length_a   13.76630000
_cell_length_b   26.20410000
_cell_length_c   43.60390000
_cell_angle_alpha   90.00000000
_cell_angle_beta   90.00000000
_cell_angle_gamma   90.00000000
_symmetry_Int_Tables_number   1
_chemical_formula_structural   ZnC12(BrN2)2
_chemical_formula_sum   'Zn24 C288 Br48 N96'
_cell_volume   15729.38754045
_cell_formula_units_Z   24
loop_
 _symmetry_equiv_pos_site_id
 _symmetry_equiv_pos_as_xyz
  1  'x, y, z'
loop_
 _atom_site_type_symbol
 _atom_site_label
 _atom_site_symmetry_multiplicity
 _atom_site_fract_x
 _atom_site_fract_y
 _atom_site_fract_z
 _atom_site_occupancy
 _atom_site_charge
Zn  Zn1  1  0.21970000  0.76433000  0.15296000  1.0 0.6290915704
Zn  Zn2  1  0.71970000  0.23567000  0.34704000  1.0 0.6290915704
Zn  Zn3  1  0.28030000  0.26433000  0.84704000  1.0 0.6290915704
Zn  Zn4  1  0.78030000  0.73567000  0.65296000  1.0 0.6290915704
Zn  Zn5  1  0.90340000  0.01235000  0.40836000  1.0 0.6093693471
Zn  Zn6  1  0.40340000  0.98765000  0.09164000  1.0 0.6093693471
Zn  Zn7  1  0.59660000  0.51235000  0.59164000  1.0 0.6093693471
Zn  Zn8  1  0.09660000  0.48765000  0.90836000  1.0 0.6093693471
Zn  Zn9  1  0.86160000  0.51920000  0.38556000  1.0 0.6000332928
Zn  Zn10  1  0.36160000  0.48080000  0.11444000  1.0 0.6000332928
Zn  Zn11  1  0.63840000  0.01920000  0.61444000  1.0 0.6000332928
Zn  Zn12  1  0.13840000  0.98080000  0.88556000  1.0 0.6000332928
Zn  Zn13  1  0.78030000  0.23567000  0.84704000  1.0 0.6290915704
Zn  Zn14  1  0.28030000  0.76433000  0.65296000  1.0 0.6290915704
Zn  Zn15  1  0.71970000  0.73567000  0.15296000  1.0 0.6290915704
Zn  Zn16  1  0.21970000  0.26433000  0.34704000  1.0 0.6290915704
Zn  Zn17  1  0.09660000  0.98765000  0.59164000  1.0 0.6093693471
Zn  Zn18  1  0.59660000  0.01235000  0.90836000  1.0 0.6093693471
Zn  Zn19  1  0.40340000  0.48765000  0.40836000  1.0 0.6093693471
Zn  Zn20  1  0.90340000  0.51235000  0.09164000  1.0 0.6093693471
Zn  Zn21  1  0.13840000  0.48080000  0.61444000  1.0 0.6000332928
Zn  Zn22  1  0.63840000  0.51920000  0.88556000  1.0 0.6000332928
Zn  Zn23  1  0.36160000  0.98080000  0.38556000  1.0 0.6000332928
Zn  Zn24  1  0.86160000  0.01920000  0.11444000  1.0 0.6000332928
C  C1  1  0.02100000  0.77390000  0.28650000  1.0 0.411652268
C  C2  1  0.52100000  0.22610000  0.21350000  1.0 0.411652268
C  C3  1  0.47900000  0.27390000  0.71350000  1.0 0.411652268
C  C4  1  0.97900000  0.72610000  0.78650000  1.0 0.411652268
C  C5  1  0.06400000  0.77820000  0.25370000  1.0 0.1048099569
C  C6  1  0.56400000  0.22180000  0.24630000  1.0 0.1048099569
C  C7  1  0.43600000  0.27820000  0.74630000  1.0 0.1048099569
C  C8  1  0.93600000  0.72180000  0.75370000  1.0 0.1103393104
C  C9  1  0.10700000  0.82200000  0.24420000  1.0 -0.1071811222
C  C10  1  0.60700000  0.17800000  0.25580000  1.0 -0.1071811222
C  C11  1  0.39300000  0.32200000  0.75580000  1.0 -0.0972392811
C  C12  1  0.89300000  0.67800000  0.74420000  1.0 -0.1071811222
C  C13  1  0.07200000  0.73190000  0.23480000  1.0 -0.0590816588
C  C14  1  0.57200000  0.26810000  0.26520000  1.0 -0.0590816588
C  C15  1  0.42800000  0.23190000  0.76520000  1.0 -0.0590816588
C  C16  1  0.92800000  0.76810000  0.73480000  1.0 -0.0590816588
C  C17  1  0.98900000  0.81310000  0.33260000  1.0 0.4025929931
C  C18  1  0.48900000  0.18690000  0.16740000  1.0 0.4025929931
C  C19  1  0.51100000  0.31310000  0.66740000  1.0 0.4025929931
C  C20  1  0.01100000  0.68690000  0.83260000  1.0 0.4025929931
C  C21  1  0.99500000  0.72640000  0.32970000  1.0 0.3893365045
C  C22  1  0.49500000  0.27360000  0.17030000  1.0 0.3893365045
C  C23  1  0.50500000  0.22640000  0.67030000  1.0 0.3893365045
C  C24  1  0.00500000  0.77360000  0.82970000  1.0 0.3893365045
C  C25  1  0.13600000  0.82460000  0.21300000  1.0 0.2377597606
C  C26  1  0.63600000  0.17540000  0.28700000  1.0 0.2377597606
C  C27  1  0.36400000  0.32460000  0.78700000  1.0 0.2286924784
C  C28  1  0.86400000  0.67540000  0.71300000  1.0 0.2377597606
C  C29  1  0.12000000  0.73710000  0.20650000  1.0 0.2226112133
C  C30  1  0.62000000  0.26290000  0.29350000  1.0 0.2226112133
C  C31  1  0.38000000  0.23710000  0.79350000  1.0 0.2226112133
C  C32  1  0.88000000  0.76290000  0.70650000  1.0 0.2226112133
C  C33  1  0.98600000  0.86150000  0.35100000  1.0 0.1229782592
C  C34  1  0.48600000  0.13850000  0.14900000  1.0 0.1229782592
C  C35  1  0.51400000  0.36150000  0.64900000  1.0 0.1229782592
C  C36  1  0.01400000  0.63850000  0.85100000  1.0 0.1229782592
C  C37  1  0.97700000  0.67620000  0.34280000  1.0 0.0865270641
C  C38  1  0.47700000  0.32380000  0.15720000  1.0 0.0865270641
C  C39  1  0.52300000  0.17620000  0.65720000  1.0 0.0865270641
C  C40  1  0.02300000  0.82380000  0.84280000  1.0 0.080819545
C  C41  1  0.97400000  0.86080000  0.38140000  1.0 -0.1071811222
C  C42  1  0.47400000  0.13920000  0.11860000  1.0 -0.1188533146
C  C43  1  0.52600000  0.36080000  0.61860000  1.0 -0.1188533146
C  C44  1  0.02600000  0.63920000  0.88140000  1.0 -0.1188533146
C  C45  1  0.99000000  0.90670000  0.33640000  1.0 -0.1188533146
C  C46  1  0.49000000  0.09330000  0.16360000  1.0 -0.1188533146
C  C47  1  0.51000000  0.40670000  0.66360000  1.0 -0.1188533146
C  C48  1  0.01000000  0.59330000  0.83640000  1.0 -0.1188533146
C  C49  1  0.97800000  0.63390000  0.32280000  1.0 -0.0897369238
C  C50  1  0.47800000  0.36610000  0.17720000  1.0 -0.0972392811
C  C51  1  0.52200000  0.13390000  0.67720000  1.0 -0.0972392811
C  C52  1  0.02200000  0.86610000  0.82280000  1.0 -0.0897369238
C  C53  1  0.95200000  0.66850000  0.37370000  1.0 -0.0897369238
C  C54  1  0.45200000  0.33150000  0.12630000  1.0 -0.0897369238
C  C55  1  0.54800000  0.16850000  0.62630000  1.0 -0.0897369238
C  C56  1  0.04800000  0.83150000  0.87370000  1.0 -0.0897369238
C  C57  1  0.94100000  0.90420000  0.39490000  1.0 0.1949630475
C  C58  1  0.44100000  0.09580000  0.10510000  1.0 0.1990370651
C  C59  1  0.55900000  0.40420000  0.60510000  1.0 0.1990370651
C  C60  1  0.05900000  0.59580000  0.89490000  1.0 0.1990370651
C  C61  1  0.96300000  0.95020000  0.35210000  1.0 0.2226112133
C  C62  1  0.46300000  0.04980000  0.14790000  1.0 0.2286924784
C  C63  1  0.53700000  0.45020000  0.64790000  1.0 0.2286924784
C  C64  1  0.03700000  0.54980000  0.85210000  1.0 0.2286924784
C  C65  1  0.97100000  0.58650000  0.33490000  1.0 0.2226112133
C  C66  1  0.47100000  0.41350000  0.16510000  1.0 0.2226112133
C  C67  1  0.52900000  0.08650000  0.66510000  1.0 0.2286924784
C  C68  1  0.02900000  0.91350000  0.83490000  1.0 0.2226112133
C  C69  1  0.93000000  0.61950000  0.38220000  1.0 0.170158597
C  C70  1  0.43000000  0.38050000  0.11780000  1.0 0.170158597
C  C71  1  0.57000000  0.11950000  0.61780000  1.0 0.170158597
C  C72  1  0.07000000  0.88050000  0.88220000  1.0 0.1585995119
C  C73  1  0.18020000  0.83750000  0.09940000  1.0 0.2516232191
C  C74  1  0.68020000  0.16250000  0.40060000  1.0 0.2516232191
C  C75  1  0.31980000  0.33750000  0.90060000  1.0 0.2516232191
C  C76  1  0.81980000  0.66250000  0.59940000  1.0 0.2516232191
C  C77  1  0.04400000  0.81710000  0.12880000  1.0 0.1990370651
C  C78  1  0.54400000  0.18290000  0.37120000  1.0 0.1990370651
C  C79  1  0.45600000  0.31710000  0.87120000  1.0 0.1990370651
C  C80  1  0.95600000  0.68290000  0.62880000  1.0 0.205640944
C  C81  1  0.12300000  0.86350000  0.07820000  1.0 -0.0897369238
C  C82  1  0.62300000  0.13650000  0.42180000  1.0 -0.0897369238
C  C83  1  0.37700000  0.36350000  0.92180000  1.0 -0.0897369238
C  C84  1  0.87700000  0.63650000  0.57820000  1.0 -0.0897369238
C  C85  1  0.98000000  0.83540000  0.10420000  1.0 0.0147848355
C  C86  1  0.48000000  0.16460000  0.39580000  1.0 0.0173261516
C  C87  1  0.52000000  0.33540000  0.89580000  1.0 0.0173261516
C  C88  1  0.02000000  0.66460000  0.60420000  1.0 0.0173261516
C  C89  1  0.02500000  0.86310000  0.08150000  1.0 0.0739662827
C  C90  1  0.52500000  0.13690000  0.41850000  1.0 0.0739662827
C  C91  1  0.47500000  0.36310000  0.91850000  1.0 0.0739662827
C  C92  1  0.97500000  0.63690000  0.58150000  1.0 0.0739662827
C  C93  1  0.96200000  0.87970000  0.05660000  1.0 0.3572992083
C  C94  1  0.46200000  0.12030000  0.44340000  1.0 0.3572992083
C  C95  1  0.53800000  0.37970000  0.94340000  1.0 0.3572992083
C  C96  1  0.03800000  0.62030000  0.55660000  1.0 0.3538768983
C  C97  1  0.82300000  0.91600000  0.04400000  1.0 0.3893365045
C  C98  1  0.32300000  0.08400000  0.45600000  1.0 0.3893365045
C  C99  1  0.67700000  0.41600000  0.95600000  1.0 0.3893365045
C  C100  1  0.17700000  0.58400000  0.54400000  1.0 0.3893365045
C  C101  1  0.95200000  0.92810000  0.01400000  1.0 0.3893365045
C  C102  1  0.45200000  0.07190000  0.48600000  1.0 0.3846520976
C  C103  1  0.54800000  0.42810000  0.98600000  1.0 0.3846520976
C  C104  1  0.04800000  0.57190000  0.51400000  1.0 0.3846520976
C  C105  1  0.72200000  0.93150000  0.05320000  1.0 0.080819545
C  C106  1  0.22200000  0.06850000  0.44680000  1.0 0.080819545
C  C107  1  0.77800000  0.43150000  0.94680000  1.0 0.080819545
C  C108  1  0.27800000  0.56850000  0.55320000  1.0 0.080819545
C  C109  1  0.99300000  0.94320000  0.98200000  1.0 0.080819545
C  C110  1  0.49300000  0.05680000  0.51800000  1.0 0.0865270641
C  C111  1  0.50700000  0.44320000  0.01800000  1.0 0.0865270641
C  C112  1  0.00700000  0.55680000  0.48200000  1.0 0.0865270641
C  C113  1  0.67700000  0.97230000  0.03780000  1.0 -0.0799592845
C  C114  1  0.17700000  0.02770000  0.46220000  1.0 -0.0799592845
C  C115  1  0.82300000  0.47230000  0.96220000  1.0 -0.0799592845
C  C116  1  0.32300000  0.52770000  0.53780000  1.0 -0.0799592845
C  C117  1  0.67900000  0.91520000  0.07980000  1.0 -0.0496064912
C  C118  1  0.17900000  0.08480000  0.42020000  1.0 -0.0410938305
C  C119  1  0.82100000  0.41520000  0.92020000  1.0 -0.0410938305
C  C120  1  0.32100000  0.58480000  0.57980000  1.0 -0.0410938305
C  C121  1  0.93000000  0.96900000  0.96080000  1.0 -0.0590816588
C  C122  1  0.43000000  0.03100000  0.53920000  1.0 -0.0590816588
C  C123  1  0.57000000  0.46900000  0.03920000  1.0 -0.0590816588
C  C124  1  0.07000000  0.53100000  0.46080000  1.0 -0.0590816588
C  C125  1  0.09000000  0.94040000  0.97690000  1.0 -0.0410938305
C  C126  1  0.59000000  0.05960000  0.52310000  1.0 -0.0410938305
C  C127  1  0.41000000  0.44040000  0.02310000  1.0 -0.0410938305
C  C128  1  0.91000000  0.55960000  0.47690000  1.0 -0.0410938305
C  C129  1  0.58600000  0.98590000  0.04650000  1.0 0.2377597606
C  C130  1  0.08600000  0.01410000  0.45350000  1.0 0.2377597606
C  C131  1  0.91400000  0.48590000  0.95350000  1.0 0.2377597606
C  C132  1  0.41400000  0.51410000  0.54650000  1.0 0.2377597606
C  C133  1  0.59200000  0.93410000  0.08810000  1.0 0.1585995119
C  C134  1  0.09200000  0.06590000  0.41190000  1.0 0.1544928597
C  C135  1  0.90800000  0.43410000  0.91190000  1.0 0.1585995119
C  C136  1  0.40800000  0.56590000  0.58810000  1.0 0.1585995119
C  C137  1  0.97200000  0.98630000  0.93340000  1.0 0.2286924784
C  C138  1  0.47200000  0.01370000  0.56660000  1.0 0.2286924784
C  C139  1  0.52800000  0.48630000  0.06660000  1.0 0.2286924784
C  C140  1  0.02800000  0.51370000  0.43340000  1.0 0.2286924784
C  C141  1  0.13000000  0.95510000  0.94870000  1.0 0.1103393104
C  C142  1  0.63000000  0.04490000  0.55130000  1.0 0.1103393104
C  C143  1  0.37000000  0.45510000  0.05130000  1.0 0.1103393104
C  C144  1  0.87000000  0.54490000  0.44870000  1.0 0.1103393104
C  C145  1  0.97900000  0.22610000  0.71350000  1.0 0.4025929931
C  C146  1  0.47900000  0.77390000  0.78650000  1.0 0.411652268
C  C147  1  0.52100000  0.72610000  0.28650000  1.0 0.411652268
C  C148  1  0.02100000  0.27390000  0.21350000  1.0 0.411652268
C  C149  1  0.93600000  0.22180000  0.74630000  1.0 0.1048099569
C  C150  1  0.43600000  0.77820000  0.75370000  1.0 0.1103393104
C  C151  1  0.56400000  0.72180000  0.25370000  1.0 0.1103393104
C  C152  1  0.06400000  0.27820000  0.24630000  1.0 0.1048099569
C  C153  1  0.89300000  0.17800000  0.75580000  1.0 -0.0972392811
C  C154  1  0.39300000  0.82200000  0.74420000  1.0 -0.1071811222
C  C155  1  0.60700000  0.67800000  0.24420000  1.0 -0.1071811222
C  C156  1  0.10700000  0.32200000  0.25580000  1.0 -0.1071811222
C  C157  1  0.92800000  0.26810000  0.76520000  1.0 -0.0590816588
C  C158  1  0.42800000  0.73190000  0.73480000  1.0 -0.0590816588
C  C159  1  0.57200000  0.76810000  0.23480000  1.0 -0.0590816588
C  C160  1  0.07200000  0.23190000  0.26520000  1.0 -0.0496064912
C  C161  1  0.01100000  0.18690000  0.66740000  1.0 0.4025929931
C  C162  1  0.51100000  0.81310000  0.83260000  1.0 0.4025929931
C  C163  1  0.48900000  0.68690000  0.33260000  1.0 0.4025929931
C  C164  1  0.98900000  0.31310000  0.16740000  1.0 0.4025929931
C  C165  1  0.00500000  0.27360000  0.67030000  1.0 0.3893365045
C  C166  1  0.50500000  0.72640000  0.82970000  1.0 0.3893365045
C  C167  1  0.49500000  0.77360000  0.32970000  1.0 0.3893365045
C  C168  1  0.99500000  0.22640000  0.17030000  1.0 0.3893365045
C  C169  1  0.86400000  0.17540000  0.78700000  1.0 0.2377597606
C  C170  1  0.36400000  0.82460000  0.71300000  1.0 0.2377597606
C  C171  1  0.63600000  0.67540000  0.21300000  1.0 0.2377597606
C  C172  1  0.13600000  0.32460000  0.28700000  1.0 0.2377597606
C  C173  1  0.88000000  0.26290000  0.79350000  1.0 0.2226112133
C  C174  1  0.38000000  0.73710000  0.70650000  1.0 0.2226112133
C  C175  1  0.62000000  0.76290000  0.20650000  1.0 0.2226112133
C  C176  1  0.12000000  0.23710000  0.29350000  1.0 0.2226112133
C  C177  1  0.01400000  0.13850000  0.64900000  1.0 0.1229782592
C  C178  1  0.51400000  0.86150000  0.85100000  1.0 0.1229782592
C  C179  1  0.48600000  0.63850000  0.35100000  1.0 0.1229782592
C  C180  1  0.98600000  0.36150000  0.14900000  1.0 0.1229782592
C  C181  1  0.02300000  0.32380000  0.65720000  1.0 0.0865270641
C  C182  1  0.52300000  0.67620000  0.84280000  1.0 0.080819545
C  C183  1  0.47700000  0.82380000  0.34280000  1.0 0.080819545
C  C184  1  0.97700000  0.17620000  0.15720000  1.0 0.0865270641
C  C185  1  0.02600000  0.13920000  0.61860000  1.0 -0.1188533146
C  C186  1  0.52600000  0.86080000  0.88140000  1.0 -0.1188533146
C  C187  1  0.47400000  0.63920000  0.38140000  1.0 -0.1188533146
C  C188  1  0.97400000  0.36080000  0.11860000  1.0 -0.1188533146
C  C189  1  0.01000000  0.09330000  0.66360000  1.0 -0.1188533146
C  C190  1  0.51000000  0.90670000  0.83640000  1.0 -0.1188533146
C  C191  1  0.49000000  0.59330000  0.33640000  1.0 -0.1188533146
C  C192  1  0.99000000  0.40670000  0.16360000  1.0 -0.1188533146
C  C193  1  0.02200000  0.36610000  0.67720000  1.0 -0.0972392811
C  C194  1  0.52200000  0.63390000  0.82280000  1.0 -0.0897369238
C  C195  1  0.47800000  0.86610000  0.32280000  1.0 -0.0897369238
C  C196  1  0.97800000  0.13390000  0.17720000  1.0 -0.0972392811
C  C197  1  0.04800000  0.33150000  0.62630000  1.0 -0.0897369238
C  C198  1  0.54800000  0.66850000  0.87370000  1.0 -0.0897369238
C  C199  1  0.45200000  0.83150000  0.37370000  1.0 -0.0897369238
C  C200  1  0.95200000  0.16850000  0.12630000  1.0 -0.0799592845
C  C201  1  0.05900000  0.09580000  0.60510000  1.0 0.1990370651
C  C202  1  0.55900000  0.90420000  0.89490000  1.0 0.1990370651
C  C203  1  0.44100000  0.59580000  0.39490000  1.0 0.1990370651
C  C204  1  0.94100000  0.40420000  0.10510000  1.0 0.1990370651
C  C205  1  0.03700000  0.04980000  0.64790000  1.0 0.2286924784
C  C206  1  0.53700000  0.95020000  0.85210000  1.0 0.2286924784
C  C207  1  0.46300000  0.54980000  0.35210000  1.0 0.2286924784
C  C208  1  0.96300000  0.45020000  0.14790000  1.0 0.2286924784
C  C209  1  0.02900000  0.41350000  0.66510000  1.0 0.2286924784
C  C210  1  0.52900000  0.58650000  0.83490000  1.0 0.2226112133
C  C211  1  0.47100000  0.91350000  0.33490000  1.0 0.2226112133
C  C212  1  0.97100000  0.08650000  0.16510000  1.0 0.2286924784
C  C213  1  0.07000000  0.38050000  0.61780000  1.0 0.170158597
C  C214  1  0.57000000  0.61950000  0.88220000  1.0 0.1585995119
C  C215  1  0.43000000  0.88050000  0.38220000  1.0 0.170158597
C  C216  1  0.93000000  0.11950000  0.11780000  1.0 0.170158597
C  C217  1  0.81980000  0.16250000  0.90060000  1.0 0.2516232191
C  C218  1  0.31980000  0.83750000  0.59940000  1.0 0.2516232191
C  C219  1  0.68020000  0.66250000  0.09940000  1.0 0.2516232191
C  C220  1  0.18020000  0.33750000  0.40060000  1.0 0.2516232191
C  C221  1  0.95600000  0.18290000  0.87120000  1.0 0.1990370651
C  C222  1  0.45600000  0.81710000  0.62880000  1.0 0.205640944
C  C223  1  0.54400000  0.68290000  0.12880000  1.0 0.1990370651
C  C224  1  0.04400000  0.31710000  0.37120000  1.0 0.1990370651
C  C225  1  0.87700000  0.13650000  0.92180000  1.0 -0.0897369238
C  C226  1  0.37700000  0.86350000  0.57820000  1.0 -0.0897369238
C  C227  1  0.62300000  0.63650000  0.07820000  1.0 -0.0897369238
C  C228  1  0.12300000  0.36350000  0.42180000  1.0 -0.0897369238
C  C229  1  0.02000000  0.16460000  0.89580000  1.0 0.0173261516
C  C230  1  0.52000000  0.83540000  0.60420000  1.0 0.0173261516
C  C231  1  0.48000000  0.66460000  0.10420000  1.0 0.0147848355
C  C232  1  0.98000000  0.33540000  0.39580000  1.0 0.0173261516
C  C233  1  0.97500000  0.13690000  0.91850000  1.0 0.0739662827
C  C234  1  0.47500000  0.86310000  0.58150000  1.0 0.0739662827
C  C235  1  0.52500000  0.63690000  0.08150000  1.0 0.0739662827
C  C236  1  0.02500000  0.36310000  0.41850000  1.0 0.0739662827
C  C237  1  0.03800000  0.12030000  0.94340000  1.0 0.3572992083
C  C238  1  0.53800000  0.87970000  0.55660000  1.0 0.3538768983
C  C239  1  0.46200000  0.62030000  0.05660000  1.0 0.3572992083
C  C240  1  0.96200000  0.37970000  0.44340000  1.0 0.3572992083
C  C241  1  0.17700000  0.08400000  0.95600000  1.0 0.3893365045
C  C242  1  0.67700000  0.91600000  0.54400000  1.0 0.3893365045
C  C243  1  0.32300000  0.58400000  0.04400000  1.0 0.3893365045
C  C244  1  0.82300000  0.41600000  0.45600000  1.0 0.3893365045
C  C245  1  0.04800000  0.07190000  0.98600000  1.0 0.3846520976
C  C246  1  0.54800000  0.92810000  0.51400000  1.0 0.3846520976
C  C247  1  0.45200000  0.57190000  0.01400000  1.0 0.3846520976
C  C248  1  0.95200000  0.42810000  0.48600000  1.0 0.3893365045
C  C249  1  0.27800000  0.06850000  0.94680000  1.0 0.080819545
C  C250  1  0.77800000  0.93150000  0.55320000  1.0 0.080819545
C  C251  1  0.22200000  0.56850000  0.05320000  1.0 0.080819545
C  C252  1  0.72200000  0.43150000  0.44680000  1.0 0.080819545
C  C253  1  0.00700000  0.05680000  0.01800000  1.0 0.0865270641
C  C254  1  0.50700000  0.94320000  0.48200000  1.0 0.0865270641
C  C255  1  0.49300000  0.55680000  0.98200000  1.0 0.0865270641
C  C256  1  0.99300000  0.44320000  0.51800000  1.0 0.0865270641
C  C257  1  0.32300000  0.02770000  0.96220000  1.0 -0.0799592845
C  C258  1  0.82300000  0.97230000  0.53780000  1.0 -0.0799592845
C  C259  1  0.17700000  0.52770000  0.03780000  1.0 -0.0799592845
C  C260  1  0.67700000  0.47230000  0.46220000  1.0 -0.0799592845
C  C261  1  0.32100000  0.08480000  0.92020000  1.0 -0.0410938305
C  C262  1  0.82100000  0.91520000  0.57980000  1.0 -0.0410938305
C  C263  1  0.17900000  0.58480000  0.07980000  1.0 -0.0496064912
C  C264  1  0.67900000  0.41520000  0.42020000  1.0 -0.0410938305
C  C265  1  0.07000000  0.03100000  0.03920000  1.0 -0.0590816588
C  C266  1  0.57000000  0.96900000  0.46080000  1.0 -0.0590816588
C  C267  1  0.43000000  0.53100000  0.96080000  1.0 -0.0590816588
C  C268  1  0.93000000  0.46900000  0.53920000  1.0 -0.0590816588
C  C269  1  0.91000000  0.05960000  0.02310000  1.0 -0.0410938305
C  C270  1  0.41000000  0.94040000  0.47690000  1.0 -0.0410938305
C  C271  1  0.59000000  0.55960000  0.97690000  1.0 -0.0410938305
C  C272  1  0.09000000  0.44040000  0.52310000  1.0 -0.0410938305
C  C273  1  0.41400000  0.01410000  0.95350000  1.0 0.2377597606
C  C274  1  0.91400000  0.98590000  0.54650000  1.0 0.2377597606
C  C275  1  0.08600000  0.51410000  0.04650000  1.0 0.2377597606
C  C276  1  0.58600000  0.48590000  0.45350000  1.0 0.2377597606
C  C277  1  0.40800000  0.06590000  0.91190000  1.0 0.1544928597
C  C278  1  0.90800000  0.93410000  0.58810000  1.0 0.1585995119
C  C279  1  0.09200000  0.56590000  0.08810000  1.0 0.1585995119
C  C280  1  0.59200000  0.43410000  0.41190000  1.0 0.1544928597
C  C281  1  0.02800000  0.01370000  0.06660000  1.0 0.2286924784
C  C282  1  0.52800000  0.98630000  0.43340000  1.0 0.2286924784
C  C283  1  0.47200000  0.51370000  0.93340000  1.0 0.2286924784
C  C284  1  0.97200000  0.48630000  0.56660000  1.0 0.2286924784
C  C285  1  0.87000000  0.04490000  0.05130000  1.0 0.1103393104
C  C286  1  0.37000000  0.95510000  0.44870000  1.0 0.1103393104
C  C287  1  0.63000000  0.54490000  0.94870000  1.0 0.1103393104
C  C288  1  0.13000000  0.45510000  0.55130000  1.0 0.1103393104
Br  Br1  1  0.38600000  0.80109000  0.16567000  1.0 -0.4989173354
Br  Br2  1  0.88600000  0.19891000  0.33433000  1.0 -0.4989173354
Br  Br3  1  0.11400000  0.30109000  0.83433000  1.0 -0.4989173354
Br  Br4  1  0.61400000  0.69891000  0.66567000  1.0 -0.4989173354
Br  Br5  1  0.22030000  0.67998000  0.13800000  1.0 -0.4394373202
Br  Br6  1  0.72030000  0.32002000  0.36200000  1.0 -0.4394373202
Br  Br7  1  0.27970000  0.17998000  0.86200000  1.0 -0.4394373202
Br  Br8  1  0.77970000  0.82002000  0.63800000  1.0 -0.4325075948
Br  Br9  1  0.84520000  0.07409000  0.37640000  1.0 -0.4087973085
Br  Br10  1  0.34520000  0.92591000  0.12360000  1.0 -0.4087973085
Br  Br11  1  0.65480000  0.57409000  0.62360000  1.0 -0.4087973085
Br  Br12  1  0.15480000  0.42591000  0.87640000  1.0 -0.4087973085
Br  Br13  1  0.82940000  0.97641000  0.45049000  1.0 -0.4800952167
Br  Br14  1  0.32940000  0.02359000  0.04951000  1.0 -0.4800952167
Br  Br15  1  0.67060000  0.47641000  0.54951000  1.0 -0.4800952167
Br  Br16  1  0.17060000  0.52359000  0.95049000  1.0 -0.4800952167
Br  Br17  1  0.92850000  0.45474000  0.35920000  1.0 -0.4087973085
Br  Br18  1  0.42850000  0.54526000  0.14080000  1.0 -0.4087973085
Br  Br19  1  0.57150000  0.95474000  0.64080000  1.0 -0.4087973085
Br  Br20  1  0.07150000  0.04526000  0.85920000  1.0 -0.4087973085
Br  Br21  1  0.70140000  0.54940000  0.39098000  1.0 -0.4687999317
Br  Br22  1  0.20140000  0.45060000  0.10902000  1.0 -0.4687999317
Br  Br23  1  0.79860000  0.04940000  0.60902000  1.0 -0.4687999317
Br  Br24  1  0.29860000  0.95060000  0.89098000  1.0 -0.4687999317
Br  Br25  1  0.61400000  0.19891000  0.83433000  1.0 -0.4989173354
Br  Br26  1  0.11400000  0.80109000  0.66567000  1.0 -0.4989173354
Br  Br27  1  0.88600000  0.69891000  0.16567000  1.0 -0.4989173354
Br  Br28  1  0.38600000  0.30109000  0.33433000  1.0 -0.4989173354
Br  Br29  1  0.77970000  0.32002000  0.86200000  1.0 -0.4394373202
Br  Br30  1  0.27970000  0.67998000  0.63800000  1.0 -0.4325075948
Br  Br31  1  0.72030000  0.82002000  0.13800000  1.0 -0.4394373202
Br  Br32  1  0.22030000  0.17998000  0.36200000  1.0 -0.4394373202
Br  Br33  1  0.15480000  0.92591000  0.62360000  1.0 -0.4087973085
Br  Br34  1  0.65480000  0.07409000  0.87640000  1.0 -0.4087973085
Br  Br35  1  0.34520000  0.42591000  0.37640000  1.0 -0.4087973085
Br  Br36  1  0.84520000  0.57409000  0.12360000  1.0 -0.4087973085
Br  Br37  1  0.17060000  0.02359000  0.54951000  1.0 -0.4800952167
Br  Br38  1  0.67060000  0.97641000  0.95049000  1.0 -0.4800952167
Br  Br39  1  0.32940000  0.52359000  0.45049000  1.0 -0.4800952167
Br  Br40  1  0.82940000  0.47641000  0.04951000  1.0 -0.4800952167
Br  Br41  1  0.07150000  0.54526000  0.64080000  1.0 -0.4087973085
Br  Br42  1  0.57150000  0.45474000  0.85920000  1.0 -0.4087973085
Br  Br43  1  0.42850000  0.04526000  0.35920000  1.0 -0.4087973085
Br  Br44  1  0.92850000  0.95474000  0.14080000  1.0 -0.4087973085
Br  Br45  1  0.29860000  0.45060000  0.60902000  1.0 -0.4687999317
Br  Br46  1  0.79860000  0.54940000  0.89098000  1.0 -0.4687999317
Br  Br47  1  0.20140000  0.95060000  0.39098000  1.0 -0.4687999317
Br  Br48  1  0.70140000  0.04940000  0.10902000  1.0 -0.4687999317
N  N1  1  0.01000000  0.81790000  0.30220000  1.0 -0.3705486647
N  N2  1  0.51000000  0.18210000  0.19780000  1.0 -0.3705486647
N  N3  1  0.49000000  0.31790000  0.69780000  1.0 -0.3764545386
N  N4  1  0.99000000  0.68210000  0.80220000  1.0 -0.3705486647
N  N5  1  0.00800000  0.72660000  0.29850000  1.0 -0.3921251737
N  N6  1  0.50800000  0.27340000  0.20150000  1.0 -0.3764545386
N  N7  1  0.49200000  0.22660000  0.70150000  1.0 -0.3764545386
N  N8  1  0.99200000  0.77340000  0.79850000  1.0 -0.3764545386
N  N9  1  0.99010000  0.76800000  0.34840000  1.0 -0.3705486647
N  N10  1  0.49010000  0.23200000  0.15160000  1.0 -0.3705486647
N  N11  1  0.50990000  0.26800000  0.65160000  1.0 -0.3705486647
N  N12  1  0.00990000  0.73200000  0.84840000  1.0 -0.3705486647
N  N13  1  0.15300000  0.78100000  0.19640000  1.0 -0.2577329331
N  N14  1  0.65300000  0.21900000  0.30360000  1.0 -0.2577329331
N  N15  1  0.34700000  0.28100000  0.80360000  1.0 -0.2577329331
N  N16  1  0.84700000  0.71900000  0.69640000  1.0 -0.2577329331
N  N17  1  0.15000000  0.81820000  0.12600000  1.0 -0.2393928853
N  N18  1  0.65000000  0.18180000  0.37400000  1.0 -0.2393928853
N  N19  1  0.35000000  0.31820000  0.87400000  1.0 -0.2393928853
N  N20  1  0.85000000  0.68180000  0.62600000  1.0 -0.2393928853
N  N21  1  0.94000000  0.94760000  0.38100000  1.0 -0.2393928853
N  N22  1  0.44000000  0.05240000  0.11900000  1.0 -0.2492774391
N  N23  1  0.56000000  0.44760000  0.61900000  1.0 -0.2492774391
N  N24  1  0.06000000  0.55240000  0.88100000  1.0 -0.2492774391
N  N25  1  0.92860000  0.57950000  0.36270000  1.0 -0.2492774391
N  N26  1  0.42860000  0.42050000  0.13730000  1.0 -0.2492774391
N  N27  1  0.57140000  0.07950000  0.63730000  1.0 -0.2492774391
N  N28  1  0.07140000  0.92050000  0.86270000  1.0 -0.2492774391
N  N29  1  0.86800000  0.88570000  0.06180000  1.0 -0.3537543395
N  N30  1  0.36800000  0.11430000  0.43820000  1.0 -0.3552370497
N  N31  1  0.63200000  0.38570000  0.93820000  1.0 -0.3552370497
N  N32  1  0.13200000  0.61430000  0.56180000  1.0 -0.3537543395
N  N33  1  0.00970000  0.90220000  0.03250000  1.0 -0.3921251737
N  N34  1  0.50970000  0.09780000  0.46750000  1.0 -0.3921251737
N  N35  1  0.49030000  0.40220000  0.96750000  1.0 -0.3921251737
N  N36  1  0.99030000  0.59780000  0.53250000  1.0 -0.3921251737
N  N37  1  0.86200000  0.94300000  0.02270000  1.0 -0.3705486647
N  N38  1  0.36200000  0.05700000  0.47730000  1.0 -0.3764545386
N  N39  1  0.63800000  0.44300000  0.97730000  1.0 -0.3764545386
N  N40  1  0.13800000  0.55700000  0.52270000  1.0 -0.3764545386
N  N41  1  0.53880000  0.96330000  0.06840000  1.0 -0.2080130655
N  N42  1  0.03880000  0.03670000  0.43160000  1.0 -0.2039578461
N  N43  1  0.96120000  0.46330000  0.93160000  1.0 -0.2080130655
N  N44  1  0.46120000  0.53670000  0.56840000  1.0 -0.2080130655
N  N45  1  0.06000000  0.97090000  0.92610000  1.0 -0.1663189633
N  N46  1  0.56000000  0.02910000  0.57390000  1.0 -0.1663189633
N  N47  1  0.44000000  0.47090000  0.07390000  1.0 -0.1663189633
N  N48  1  0.94000000  0.52910000  0.42610000  1.0 -0.1642673218
N  N49  1  0.99000000  0.18210000  0.69780000  1.0 -0.3764545386
N  N50  1  0.49000000  0.81790000  0.80220000  1.0 -0.3705486647
N  N51  1  0.51000000  0.68210000  0.30220000  1.0 -0.3705486647
N  N52  1  0.01000000  0.31790000  0.19780000  1.0 -0.3705486647
N  N53  1  0.99200000  0.27340000  0.70150000  1.0 -0.3764545386
N  N54  1  0.49200000  0.72660000  0.79850000  1.0 -0.3764545386
N  N55  1  0.50800000  0.77340000  0.29850000  1.0 -0.3921251737
N  N56  1  0.00800000  0.22660000  0.20150000  1.0 -0.3764545386
N  N57  1  0.00990000  0.23200000  0.65160000  1.0 -0.3705486647
N  N58  1  0.50990000  0.76800000  0.84840000  1.0 -0.3705486647
N  N59  1  0.49010000  0.73200000  0.34840000  1.0 -0.3705486647
N  N60  1  0.99010000  0.26800000  0.15160000  1.0 -0.3705486647
N  N61  1  0.84700000  0.21900000  0.80360000  1.0 -0.2577329331
N  N62  1  0.34700000  0.78100000  0.69640000  1.0 -0.2577329331
N  N63  1  0.65300000  0.71900000  0.19640000  1.0 -0.2577329331
N  N64  1  0.15300000  0.28100000  0.30360000  1.0 -0.2577329331
N  N65  1  0.85000000  0.18180000  0.87400000  1.0 -0.2393928853
N  N66  1  0.35000000  0.81820000  0.62600000  1.0 -0.2393928853
N  N67  1  0.65000000  0.68180000  0.12600000  1.0 -0.2393928853
N  N68  1  0.15000000  0.31820000  0.37400000  1.0 -0.2393928853
N  N69  1  0.06000000  0.05240000  0.61900000  1.0 -0.2492774391
N  N70  1  0.56000000  0.94760000  0.88100000  1.0 -0.2492774391
N  N71  1  0.44000000  0.55240000  0.38100000  1.0 -0.2492774391
N  N72  1  0.94000000  0.44760000  0.11900000  1.0 -0.2492774391
N  N73  1  0.07140000  0.42050000  0.63730000  1.0 -0.2492774391
N  N74  1  0.57140000  0.57950000  0.86270000  1.0 -0.2492774391
N  N75  1  0.42860000  0.92050000  0.36270000  1.0 -0.2492774391
N  N76  1  0.92860000  0.07950000  0.13730000  1.0 -0.2492774391
N  N77  1  0.13200000  0.11430000  0.93820000  1.0 -0.3552370497
N  N78  1  0.63200000  0.88570000  0.56180000  1.0 -0.3537543395
N  N79  1  0.36800000  0.61430000  0.06180000  1.0 -0.3552370497
N  N80  1  0.86800000  0.38570000  0.43820000  1.0 -0.3537543395
N  N81  1  0.99030000  0.09780000  0.96750000  1.0 -0.3921251737
N  N82  1  0.49030000  0.90220000  0.53250000  1.0 -0.3921251737
N  N83  1  0.50970000  0.59780000  0.03250000  1.0 -0.3921251737
N  N84  1  0.00970000  0.40220000  0.46750000  1.0 -0.3921251737
N  N85  1  0.13800000  0.05700000  0.97730000  1.0 -0.3764545386
N  N86  1  0.63800000  0.94300000  0.52270000  1.0 -0.3764545386
N  N87  1  0.36200000  0.55700000  0.02270000  1.0 -0.3705486647
N  N88  1  0.86200000  0.44300000  0.47730000  1.0 -0.3705486647
N  N89  1  0.46120000  0.03670000  0.93160000  1.0 -0.2080130655
N  N90  1  0.96120000  0.96330000  0.56840000  1.0 -0.2080130655
N  N91  1  0.03880000  0.53670000  0.06840000  1.0 -0.2080130655
N  N92  1  0.53880000  0.46330000  0.43160000  1.0 -0.2039578461
N  N93  1  0.94000000  0.02910000  0.07390000  1.0 -0.1663189633
N  N94  1  0.44000000  0.97090000  0.42610000  1.0 -0.1642673218
N  N95  1  0.56000000  0.52910000  0.92610000  1.0 -0.1663189633
N  N96  1  0.06000000  0.47090000  0.57390000  1.0 -0.1663189633
