# DDEC6 charges by PACMAN v1.1 (https://github.com/mtap-research/PACMAN-charge/)
data_OSOTUN_FSR_pacman
_symmetry_space_group_name_H-M   'P 1'
_cell_length_a   23.68750000
_cell_length_b   23.68750000
_cell_length_c   23.68750000
_cell_angle_alpha   94.20260000
_cell_angle_beta   94.20260000
_cell_angle_gamma   94.20260000
_symmetry_Int_Tables_number   1
_chemical_formula_structural   Zn7H54C102N12O13
_chemical_formula_sum   'Zn28 H216 C408 N48 O52'
_cell_volume   13178.22309665
_cell_formula_units_Z   4
loop_
 _symmetry_equiv_pos_site_id
 _symmetry_equiv_pos_as_xyz
  1  'x, y, z'
loop_
 _atom_site_type_symbol
 _atom_site_label
 _atom_site_symmetry_multiplicity
 _atom_site_fract_x
 _atom_site_fract_y
 _atom_site_fract_z
 _atom_site_occupancy
 _atom_site_charge
Zn  Zn1  1  0.89210000  0.80024000  0.89280000  1.0 0.9428521633
Zn  Zn2  1  0.80024000  0.89280000  0.89210000  1.0 0.9428521633
Zn  Zn3  1  0.89280000  0.89210000  0.80024000  1.0 0.9428521633
Zn  Zn4  1  0.60790000  0.60720000  0.69976000  1.0 0.9428521633
Zn  Zn5  1  0.69976000  0.60790000  0.60720000  1.0 0.9428521633
Zn  Zn6  1  0.60720000  0.69976000  0.60790000  1.0 0.9428521633
Zn  Zn7  1  0.10790000  0.19976000  0.10720000  1.0 0.9428521633
Zn  Zn8  1  0.19976000  0.10720000  0.10790000  1.0 0.9428521633
Zn  Zn9  1  0.10720000  0.10790000  0.19976000  1.0 0.9428521633
Zn  Zn10  1  0.39210000  0.39280000  0.30024000  1.0 0.9428521633
Zn  Zn11  1  0.30024000  0.39210000  0.39280000  1.0 0.9428521633
Zn  Zn12  1  0.39280000  0.30024000  0.39210000  1.0 0.9428521633
Zn  Zn13  1  0.92807000  0.92807000  0.92807000  1.0 0.9273605188
Zn  Zn14  1  0.57193000  0.57193000  0.57193000  1.0 0.9273605188
Zn  Zn15  1  0.07193000  0.07193000  0.07193000  1.0 0.9273605188
Zn  Zn16  1  0.42807000  0.42807000  0.42807000  1.0 0.9273605188
Zn  Zn17  1  0.00000000  0.50000000  0.50000000  1.0 0.6405499319
Zn  Zn18  1  0.50000000  0.50000000  0.00000000  1.0 0.6405499319
Zn  Zn19  1  0.50000000  0.00000000  0.50000000  1.0 0.6405499319
Zn  Zn20  1  0.50000000  0.00000000  0.00000000  1.0 0.6405499319
Zn  Zn21  1  0.00000000  0.50000000  0.00000000  1.0 0.6405499319
Zn  Zn22  1  0.00000000  0.00000000  0.50000000  1.0 0.6405499319
Zn  Zn23  1  0.28267000  0.75000000  0.21733000  1.0 0.6405499319
Zn  Zn24  1  0.75000000  0.21733000  0.28267000  1.0 0.6405499319
Zn  Zn25  1  0.21733000  0.28267000  0.75000000  1.0 0.6405499319
Zn  Zn26  1  0.71733000  0.25000000  0.78267000  1.0 0.6405499319
Zn  Zn27  1  0.25000000  0.78267000  0.71733000  1.0 0.6405499319
Zn  Zn28  1  0.78267000  0.71733000  0.25000000  1.0 0.6405499319
H  H1  1  0.93590000  0.77820000  0.66620000  1.0 0.1112192263
H  H2  1  0.77820000  0.66620000  0.93590000  1.0 0.1112192263
H  H3  1  0.66620000  0.93590000  0.77820000  1.0 0.1112192263
H  H4  1  0.56410000  0.83380000  0.72180000  1.0 0.1112192263
H  H5  1  0.72180000  0.56410000  0.83380000  1.0 0.1112192263
H  H6  1  0.83380000  0.72180000  0.56410000  1.0 0.1112192263
H  H7  1  0.06410000  0.22180000  0.33380000  1.0 0.1112192263
H  H8  1  0.22180000  0.33380000  0.06410000  1.0 0.1112192263
H  H9  1  0.33380000  0.06410000  0.22180000  1.0 0.1112192263
H  H10  1  0.43590000  0.16620000  0.27820000  1.0 0.1112192263
H  H11  1  0.27820000  0.43590000  0.16620000  1.0 0.1112192263
H  H12  1  0.16620000  0.27820000  0.43590000  1.0 0.1112192263
H  H13  1  0.93590000  0.66470000  0.78330000  1.0 0.1213514153
H  H14  1  0.66470000  0.78330000  0.93590000  1.0 0.1213514153
H  H15  1  0.78330000  0.93590000  0.66470000  1.0 0.1213514153
H  H16  1  0.56410000  0.71670000  0.83530000  1.0 0.1213514153
H  H17  1  0.83530000  0.56410000  0.71670000  1.0 0.1213514153
H  H18  1  0.71670000  0.83530000  0.56410000  1.0 0.1213514153
H  H19  1  0.06410000  0.33530000  0.21670000  1.0 0.1213514153
H  H20  1  0.33530000  0.21670000  0.06410000  1.0 0.1213514153
H  H21  1  0.21670000  0.06410000  0.33530000  1.0 0.1213514153
H  H22  1  0.43590000  0.28330000  0.16470000  1.0 0.1213514153
H  H23  1  0.16470000  0.43590000  0.28330000  1.0 0.1213514153
H  H24  1  0.28330000  0.16470000  0.43590000  1.0 0.1213514153
H  H25  1  0.04230000  0.74230000  0.98090000  1.0 0.1213514153
H  H26  1  0.74230000  0.98090000  0.04230000  1.0 0.1213514153
H  H27  1  0.98090000  0.04230000  0.74230000  1.0 0.1213514153
H  H28  1  0.45770000  0.51910000  0.75770000  1.0 0.1213514153
H  H29  1  0.75770000  0.45770000  0.51910000  1.0 0.1213514153
H  H30  1  0.51910000  0.75770000  0.45770000  1.0 0.1213514153
H  H31  1  0.95770000  0.25770000  0.01910000  1.0 0.1213514153
H  H32  1  0.25770000  0.01910000  0.95770000  1.0 0.1213514153
H  H33  1  0.01910000  0.95770000  0.25770000  1.0 0.1213514153
H  H34  1  0.54230000  0.48090000  0.24230000  1.0 0.1213514153
H  H35  1  0.24230000  0.54230000  0.48090000  1.0 0.1213514153
H  H36  1  0.48090000  0.24230000  0.54230000  1.0 0.1213514153
H  H37  1  0.06850000  0.90360000  0.03190000  1.0 0.13011906
H  H38  1  0.90360000  0.03190000  0.06850000  1.0 0.13011906
H  H39  1  0.03190000  0.06850000  0.90360000  1.0 0.13011906
H  H40  1  0.43150000  0.46810000  0.59640000  1.0 0.13011906
H  H41  1  0.59640000  0.43150000  0.46810000  1.0 0.13011906
H  H42  1  0.46810000  0.59640000  0.43150000  1.0 0.13011906
H  H43  1  0.93150000  0.09640000  0.96810000  1.0 0.13011906
H  H44  1  0.09640000  0.96810000  0.93150000  1.0 0.13011906
H  H45  1  0.96810000  0.93150000  0.09640000  1.0 0.13011906
H  H46  1  0.56850000  0.53190000  0.40360000  1.0 0.13011906
H  H47  1  0.40360000  0.56850000  0.53190000  1.0 0.13011906
H  H48  1  0.53190000  0.40360000  0.56850000  1.0 0.13011906
H  H49  1  0.96000000  0.70810000  0.59880000  1.0 0.1213514153
H  H50  1  0.70810000  0.59880000  0.96000000  1.0 0.1213514153
H  H51  1  0.59880000  0.96000000  0.70810000  1.0 0.1213514153
H  H52  1  0.54000000  0.90120000  0.79190000  1.0 0.1213514153
H  H53  1  0.79190000  0.54000000  0.90120000  1.0 0.1213514153
H  H54  1  0.90120000  0.79190000  0.54000000  1.0 0.1213514153
H  H55  1  0.04000000  0.29190000  0.40120000  1.0 0.1213514153
H  H56  1  0.29190000  0.40120000  0.04000000  1.0 0.1213514153
H  H57  1  0.40120000  0.04000000  0.29190000  1.0 0.1213514153
H  H58  1  0.46000000  0.09880000  0.20810000  1.0 0.1213514153
H  H59  1  0.20810000  0.46000000  0.09880000  1.0 0.1213514153
H  H60  1  0.09880000  0.20810000  0.46000000  1.0 0.1213514153
H  H61  1  0.95770000  0.59890000  0.71540000  1.0 0.1213514153
H  H62  1  0.59890000  0.71540000  0.95770000  1.0 0.1213514153
H  H63  1  0.71540000  0.95770000  0.59890000  1.0 0.1213514153
H  H64  1  0.54230000  0.78460000  0.90110000  1.0 0.1213514153
H  H65  1  0.90110000  0.54230000  0.78460000  1.0 0.1213514153
H  H66  1  0.78460000  0.90110000  0.54230000  1.0 0.1213514153
H  H67  1  0.04230000  0.40110000  0.28460000  1.0 0.1213514153
H  H68  1  0.40110000  0.28460000  0.04230000  1.0 0.1213514153
H  H69  1  0.28460000  0.04230000  0.40110000  1.0 0.1213514153
H  H70  1  0.45770000  0.21540000  0.09890000  1.0 0.1213514153
H  H71  1  0.09890000  0.45770000  0.21540000  1.0 0.1213514153
H  H72  1  0.21540000  0.09890000  0.45770000  1.0 0.1213514153
H  H73  1  0.11390000  0.72320000  0.04450000  1.0 0.1213514153
H  H74  1  0.72320000  0.04450000  0.11390000  1.0 0.1213514153
H  H75  1  0.04450000  0.11390000  0.72320000  1.0 0.1213514153
H  H76  1  0.38610000  0.45550000  0.77680000  1.0 0.1213514153
H  H77  1  0.77680000  0.38610000  0.45550000  1.0 0.1213514153
H  H78  1  0.45550000  0.77680000  0.38610000  1.0 0.1213514153
H  H79  1  0.88610000  0.27680000  0.95550000  1.0 0.1213514153
H  H80  1  0.27680000  0.95550000  0.88610000  1.0 0.1213514153
H  H81  1  0.95550000  0.88610000  0.27680000  1.0 0.1213514153
H  H82  1  0.61390000  0.54450000  0.22320000  1.0 0.1213514153
H  H83  1  0.22320000  0.61390000  0.54450000  1.0 0.1213514153
H  H84  1  0.54450000  0.22320000  0.61390000  1.0 0.1213514153
H  H85  1  0.14590000  0.88380000  0.08890000  1.0 0.13011906
H  H86  1  0.88380000  0.08890000  0.14590000  1.0 0.13011906
H  H87  1  0.08890000  0.14590000  0.88380000  1.0 0.13011906
H  H88  1  0.35410000  0.41110000  0.61620000  1.0 0.13011906
H  H89  1  0.61620000  0.35410000  0.41110000  1.0 0.13011906
H  H90  1  0.41110000  0.61620000  0.35410000  1.0 0.13011906
H  H91  1  0.85410000  0.11620000  0.91110000  1.0 0.13011906
H  H92  1  0.11620000  0.91110000  0.85410000  1.0 0.13011906
H  H93  1  0.91110000  0.85410000  0.11620000  1.0 0.13011906
H  H94  1  0.64590000  0.58890000  0.38380000  1.0 0.13011906
H  H95  1  0.38380000  0.64590000  0.58890000  1.0 0.13011906
H  H96  1  0.58890000  0.38380000  0.64590000  1.0 0.13011906
H  H97  1  0.07490000  0.63360000  0.67510000  1.0 0.13011906
H  H98  1  0.63360000  0.67510000  0.07490000  1.0 0.13011906
H  H99  1  0.67510000  0.07490000  0.63360000  1.0 0.13011906
H  H100  1  0.42510000  0.82490000  0.86640000  1.0 0.13011906
H  H101  1  0.86640000  0.42510000  0.82490000  1.0 0.13011906
H  H102  1  0.82490000  0.86640000  0.42510000  1.0 0.13011906
H  H103  1  0.92510000  0.36640000  0.32490000  1.0 0.13011906
H  H104  1  0.36640000  0.32490000  0.92510000  1.0 0.13011906
H  H105  1  0.32490000  0.92510000  0.36640000  1.0 0.13011906
H  H106  1  0.57490000  0.17510000  0.13360000  1.0 0.13011906
H  H107  1  0.13360000  0.57490000  0.17510000  1.0 0.13011906
H  H108  1  0.17510000  0.13360000  0.57490000  1.0 0.13011906
H  H109  1  0.86020000  0.62320000  0.59270000  1.0 0.13011906
H  H110  1  0.62320000  0.59270000  0.86020000  1.0 0.13011906
H  H111  1  0.59270000  0.86020000  0.62320000  1.0 0.13011906
H  H112  1  0.63980000  0.90730000  0.87680000  1.0 0.13011906
H  H113  1  0.87680000  0.63980000  0.90730000  1.0 0.13011906
H  H114  1  0.90730000  0.87680000  0.63980000  1.0 0.13011906
H  H115  1  0.13980000  0.37680000  0.40730000  1.0 0.13011906
H  H116  1  0.37680000  0.40730000  0.13980000  1.0 0.13011906
H  H117  1  0.40730000  0.13980000  0.37680000  1.0 0.13011906
H  H118  1  0.36020000  0.09270000  0.12320000  1.0 0.13011906
H  H119  1  0.12320000  0.36020000  0.09270000  1.0 0.13011906
H  H120  1  0.09270000  0.12320000  0.36020000  1.0 0.13011906
H  H121  1  0.23470000  0.80640000  0.01300000  1.0 0.1213514153
H  H122  1  0.80640000  0.01300000  0.23470000  1.0 0.1213514153
H  H123  1  0.01300000  0.23470000  0.80640000  1.0 0.1213514153
H  H124  1  0.26530000  0.48700000  0.69360000  1.0 0.1213514153
H  H125  1  0.69360000  0.26530000  0.48700000  1.0 0.1213514153
H  H126  1  0.48700000  0.69360000  0.26530000  1.0 0.1213514153
H  H127  1  0.76530000  0.19360000  0.98700000  1.0 0.1213514153
H  H128  1  0.19360000  0.98700000  0.76530000  1.0 0.1213514153
H  H129  1  0.98700000  0.76530000  0.19360000  1.0 0.1213514153
H  H130  1  0.73470000  0.51300000  0.30640000  1.0 0.1213514153
H  H131  1  0.30640000  0.73470000  0.51300000  1.0 0.1213514153
H  H132  1  0.51300000  0.30640000  0.73470000  1.0 0.1213514153
H  H133  1  0.07600000  0.79050000  0.16960000  1.0 0.13011906
H  H134  1  0.79050000  0.16960000  0.07600000  1.0 0.13011906
H  H135  1  0.16960000  0.07600000  0.79050000  1.0 0.13011906
H  H136  1  0.42400000  0.33040000  0.70950000  1.0 0.13011906
H  H137  1  0.70950000  0.42400000  0.33040000  1.0 0.13011906
H  H138  1  0.33040000  0.70950000  0.42400000  1.0 0.13011906
H  H139  1  0.92400000  0.20950000  0.83040000  1.0 0.13011906
H  H140  1  0.20950000  0.83040000  0.92400000  1.0 0.13011906
H  H141  1  0.83040000  0.92400000  0.20950000  1.0 0.13011906
H  H142  1  0.57600000  0.66960000  0.29050000  1.0 0.13011906
H  H143  1  0.29050000  0.57600000  0.66960000  1.0 0.13011906
H  H144  1  0.66960000  0.29050000  0.57600000  1.0 0.13011906
H  H145  1  0.15830000  0.58330000  0.64710000  1.0 0.1213514153
H  H146  1  0.58330000  0.64710000  0.15830000  1.0 0.1213514153
H  H147  1  0.64710000  0.15830000  0.58330000  1.0 0.1213514153
H  H148  1  0.34170000  0.85290000  0.91670000  1.0 0.1213514153
H  H149  1  0.91670000  0.34170000  0.85290000  1.0 0.1213514153
H  H150  1  0.85290000  0.91670000  0.34170000  1.0 0.1213514153
H  H151  1  0.84170000  0.41670000  0.35290000  1.0 0.1213514153
H  H152  1  0.41670000  0.35290000  0.84170000  1.0 0.1213514153
H  H153  1  0.35290000  0.84170000  0.41670000  1.0 0.1213514153
H  H154  1  0.65830000  0.14710000  0.08330000  1.0 0.1213514153
H  H155  1  0.08330000  0.65830000  0.14710000  1.0 0.1213514153
H  H156  1  0.14710000  0.08330000  0.65830000  1.0 0.1213514153
H  H157  1  0.80430000  0.57240000  0.51130000  1.0 0.135730802
H  H158  1  0.57240000  0.51130000  0.80430000  1.0 0.13011906
H  H159  1  0.51130000  0.80430000  0.57240000  1.0 0.135730802
H  H160  1  0.69570000  0.98870000  0.92760000  1.0 0.13011906
H  H161  1  0.92760000  0.69570000  0.98870000  1.0 0.13011906
H  H162  1  0.98870000  0.92760000  0.69570000  1.0 0.13011906
H  H163  1  0.19570000  0.42760000  0.48870000  1.0 0.13011906
H  H164  1  0.42760000  0.48870000  0.19570000  1.0 0.135730802
H  H165  1  0.48870000  0.19570000  0.42760000  1.0 0.13011906
H  H166  1  0.30430000  0.01130000  0.07240000  1.0 0.13011906
H  H167  1  0.07240000  0.30430000  0.01130000  1.0 0.135730802
H  H168  1  0.01130000  0.07240000  0.30430000  1.0 0.13011906
H  H169  1  0.33030000  0.77660000  0.01050000  1.0 0.135730802
H  H170  1  0.77660000  0.01050000  0.33030000  1.0 0.135730802
H  H171  1  0.01050000  0.33030000  0.77660000  1.0 0.135730802
H  H172  1  0.16970000  0.48950000  0.72340000  1.0 0.135730802
H  H173  1  0.72340000  0.16970000  0.48950000  1.0 0.13011906
H  H174  1  0.48950000  0.72340000  0.16970000  1.0 0.135730802
H  H175  1  0.66970000  0.22340000  0.98950000  1.0 0.135730802
H  H176  1  0.22340000  0.98950000  0.66970000  1.0 0.135730802
H  H177  1  0.98950000  0.66970000  0.22340000  1.0 0.135730802
H  H178  1  0.83030000  0.51050000  0.27660000  1.0 0.135730802
H  H179  1  0.27660000  0.83030000  0.51050000  1.0 0.135730802
H  H180  1  0.51050000  0.27660000  0.83030000  1.0 0.135730802
H  H181  1  0.07900000  0.77400000  0.26830000  1.0 0.1213514153
H  H182  1  0.77400000  0.26830000  0.07900000  1.0 0.1213514153
H  H183  1  0.26830000  0.07900000  0.77400000  1.0 0.1213514153
H  H184  1  0.42100000  0.23170000  0.72600000  1.0 0.1213514153
H  H185  1  0.72600000  0.42100000  0.23170000  1.0 0.1213514153
H  H186  1  0.23170000  0.72600000  0.42100000  1.0 0.1213514153
H  H187  1  0.92100000  0.22600000  0.73170000  1.0 0.1213514153
H  H188  1  0.22600000  0.73170000  0.92100000  1.0 0.1213514153
H  H189  1  0.73170000  0.92100000  0.22600000  1.0 0.1213514153
H  H190  1  0.57900000  0.76830000  0.27400000  1.0 0.1213514153
H  H191  1  0.27400000  0.57900000  0.76830000  1.0 0.1213514153
H  H192  1  0.76830000  0.27400000  0.57900000  1.0 0.1213514153
H  H193  1  0.17260000  0.50450000  0.56850000  1.0 0.1213514153
H  H194  1  0.50450000  0.56850000  0.17260000  1.0 0.1213514153
H  H195  1  0.56850000  0.17260000  0.50450000  1.0 0.1213514153
H  H196  1  0.32740000  0.93150000  0.99550000  1.0 0.1213514153
H  H197  1  0.99550000  0.32740000  0.93150000  1.0 0.1213514153
H  H198  1  0.93150000  0.99550000  0.32740000  1.0 0.1213514153
H  H199  1  0.82740000  0.49550000  0.43150000  1.0 0.1213514153
H  H200  1  0.49550000  0.43150000  0.82740000  1.0 0.1213514153
H  H201  1  0.43150000  0.82740000  0.49550000  1.0 0.1213514153
H  H202  1  0.67260000  0.06850000  0.00450000  1.0 0.1213514153
H  H203  1  0.00450000  0.67260000  0.06850000  1.0 0.1213514153
H  H204  1  0.06850000  0.00450000  0.67260000  1.0 0.1213514153
H  H205  1  0.40820000  0.75000000  0.09180000  1.0 0.1498561119
H  H206  1  0.75000000  0.09180000  0.40820000  1.0 0.1498561119
H  H207  1  0.09180000  0.40820000  0.75000000  1.0 0.1498561119
H  H208  1  0.59180000  0.25000000  0.90820000  1.0 0.1498561119
H  H209  1  0.25000000  0.90820000  0.59180000  1.0 0.1498561119
H  H210  1  0.90820000  0.59180000  0.25000000  1.0 0.1498561119
H  H211  1  0.16040000  0.75000000  0.33960000  1.0 0.1213514153
H  H212  1  0.75000000  0.33960000  0.16040000  1.0 0.1213514153
H  H213  1  0.33960000  0.16040000  0.75000000  1.0 0.1213514153
H  H214  1  0.83960000  0.25000000  0.66040000  1.0 0.1213514153
H  H215  1  0.25000000  0.66040000  0.83960000  1.0 0.1213514153
H  H216  1  0.66040000  0.83960000  0.25000000  1.0 0.1213514153
C  C1  1  0.91960000  0.77660000  0.77410000  1.0 0.5901077231
C  C2  1  0.77660000  0.77410000  0.91960000  1.0 0.5901077231
C  C3  1  0.77410000  0.91960000  0.77660000  1.0 0.5901077231
C  C4  1  0.58040000  0.72590000  0.72340000  1.0 0.5901077231
C  C5  1  0.72340000  0.58040000  0.72590000  1.0 0.5901077231
C  C6  1  0.72590000  0.72340000  0.58040000  1.0 0.5901077231
C  C7  1  0.08040000  0.22340000  0.22590000  1.0 0.5901077231
C  C8  1  0.22340000  0.22590000  0.08040000  1.0 0.5901077231
C  C9  1  0.22590000  0.08040000  0.22340000  1.0 0.5901077231
C  C10  1  0.41960000  0.27410000  0.27660000  1.0 0.5901077231
C  C11  1  0.27660000  0.41960000  0.27410000  1.0 0.5901077231
C  C12  1  0.27410000  0.27660000  0.41960000  1.0 0.5901077231
C  C13  1  0.99370000  0.83850000  0.96870000  1.0 0.5901077231
C  C14  1  0.83850000  0.96870000  0.99370000  1.0 0.5901077231
C  C15  1  0.96870000  0.99370000  0.83850000  1.0 0.5901077231
C  C16  1  0.50630000  0.53130000  0.66150000  1.0 0.5901077231
C  C17  1  0.66150000  0.50630000  0.53130000  1.0 0.5901077231
C  C18  1  0.53130000  0.66150000  0.50630000  1.0 0.5901077231
C  C19  1  0.00630000  0.16150000  0.03130000  1.0 0.5901077231
C  C20  1  0.16150000  0.03130000  0.00630000  1.0 0.5901077231
C  C21  1  0.03130000  0.00630000  0.16150000  1.0 0.5901077231
C  C22  1  0.49370000  0.46870000  0.33850000  1.0 0.5901077231
C  C23  1  0.33850000  0.49370000  0.46870000  1.0 0.5901077231
C  C24  1  0.46870000  0.33850000  0.49370000  1.0 0.5901077231
C  C25  1  0.93400000  0.72860000  0.73240000  1.0 -0.0320414724
C  C26  1  0.72860000  0.73240000  0.93400000  1.0 -0.0320414724
C  C27  1  0.73240000  0.93400000  0.72860000  1.0 -0.0320414724
C  C28  1  0.56600000  0.76760000  0.77140000  1.0 -0.0320414724
C  C29  1  0.77140000  0.56600000  0.76760000  1.0 -0.0320414724
C  C30  1  0.76760000  0.77140000  0.56600000  1.0 -0.0320414724
C  C31  1  0.06600000  0.27140000  0.26760000  1.0 -0.0320414724
C  C32  1  0.27140000  0.26760000  0.06600000  1.0 -0.0320414724
C  C33  1  0.26760000  0.06600000  0.27140000  1.0 -0.0320414724
C  C34  1  0.43400000  0.23240000  0.22860000  1.0 -0.0320414724
C  C35  1  0.22860000  0.43400000  0.23240000  1.0 -0.0320414724
C  C36  1  0.23240000  0.22860000  0.43400000  1.0 -0.0320414724
C  C37  1  0.04450000  0.82620000  0.00250000  1.0 -0.0506604668
C  C38  1  0.82620000  0.00250000  0.04450000  1.0 -0.0506604668
C  C39  1  0.00250000  0.04450000  0.82620000  1.0 -0.0506604668
C  C40  1  0.45550000  0.49750000  0.67380000  1.0 -0.0506604668
C  C41  1  0.67380000  0.45550000  0.49750000  1.0 -0.0506604668
C  C42  1  0.49750000  0.67380000  0.45550000  1.0 -0.0506604668
C  C43  1  0.95550000  0.17380000  0.99750000  1.0 -0.0506604668
C  C44  1  0.17380000  0.99750000  0.95550000  1.0 -0.0506604668
C  C45  1  0.99750000  0.95550000  0.17380000  1.0 -0.0506604668
C  C46  1  0.54450000  0.50250000  0.32620000  1.0 -0.0506604668
C  C47  1  0.32620000  0.54450000  0.50250000  1.0 -0.0506604668
C  C48  1  0.50250000  0.32620000  0.54450000  1.0 -0.0506604668
C  C49  1  0.94080000  0.74160000  0.67660000  1.0 -0.0896317968
C  C50  1  0.74160000  0.67660000  0.94080000  1.0 -0.0896317968
C  C51  1  0.67660000  0.94080000  0.74160000  1.0 -0.0896317968
C  C52  1  0.55920000  0.82340000  0.75840000  1.0 -0.0896317968
C  C53  1  0.75840000  0.55920000  0.82340000  1.0 -0.0896317968
C  C54  1  0.82340000  0.75840000  0.55920000  1.0 -0.0896317968
C  C55  1  0.05920000  0.25840000  0.32340000  1.0 -0.0896317968
C  C56  1  0.25840000  0.32340000  0.05920000  1.0 -0.0896317968
C  C57  1  0.32340000  0.05920000  0.25840000  1.0 -0.0896317968
C  C58  1  0.44080000  0.17660000  0.24160000  1.0 -0.0896317968
C  C59  1  0.24160000  0.44080000  0.17660000  1.0 -0.0896317968
C  C60  1  0.17660000  0.24160000  0.44080000  1.0 -0.0896317968
C  C61  1  0.94040000  0.67470000  0.74660000  1.0 -0.0831951782
C  C62  1  0.67470000  0.74660000  0.94040000  1.0 -0.0831951782
C  C63  1  0.74660000  0.94040000  0.67470000  1.0 -0.0831951782
C  C64  1  0.55960000  0.75340000  0.82530000  1.0 -0.0831951782
C  C65  1  0.82530000  0.55960000  0.75340000  1.0 -0.0831951782
C  C66  1  0.75340000  0.82530000  0.55960000  1.0 -0.0831951782
C  C67  1  0.05960000  0.32530000  0.25340000  1.0 -0.0831951782
C  C68  1  0.32530000  0.25340000  0.05960000  1.0 -0.0831951782
C  C69  1  0.25340000  0.05960000  0.32530000  1.0 -0.0831951782
C  C70  1  0.44040000  0.24660000  0.17470000  1.0 -0.0831951782
C  C71  1  0.17470000  0.44040000  0.24660000  1.0 -0.0831951782
C  C72  1  0.24660000  0.17470000  0.44040000  1.0 -0.0831951782
C  C73  1  0.06130000  0.77190000  0.00460000  1.0 -0.1021112772
C  C74  1  0.77190000  0.00460000  0.06130000  1.0 -0.1021112772
C  C75  1  0.00460000  0.06130000  0.77190000  1.0 -0.1021112772
C  C76  1  0.43870000  0.49540000  0.72810000  1.0 -0.1021112772
C  C77  1  0.72810000  0.43870000  0.49540000  1.0 -0.1021112772
C  C78  1  0.49540000  0.72810000  0.43870000  1.0 -0.1021112772
C  C79  1  0.93870000  0.22810000  0.99540000  1.0 -0.1021112772
C  C80  1  0.22810000  0.99540000  0.93870000  1.0 -0.1021112772
C  C81  1  0.99540000  0.93870000  0.22810000  1.0 -0.1021112772
C  C82  1  0.56130000  0.50460000  0.27190000  1.0 -0.1021112772
C  C83  1  0.27190000  0.56130000  0.50460000  1.0 -0.1021112772
C  C84  1  0.50460000  0.27190000  0.56130000  1.0 -0.1021112772
C  C85  1  0.07700000  0.86600000  0.03340000  1.0 -0.0831951782
C  C86  1  0.86600000  0.03340000  0.07700000  1.0 -0.0831951782
C  C87  1  0.03340000  0.07700000  0.86600000  1.0 -0.0831951782
C  C88  1  0.42300000  0.46660000  0.63400000  1.0 -0.0831951782
C  C89  1  0.63400000  0.42300000  0.46660000  1.0 -0.0831951782
C  C90  1  0.46660000  0.63400000  0.42300000  1.0 -0.0831951782
C  C91  1  0.92300000  0.13400000  0.96660000  1.0 -0.0831951782
C  C92  1  0.13400000  0.96660000  0.92300000  1.0 -0.0831951782
C  C93  1  0.96660000  0.92300000  0.13400000  1.0 -0.0831951782
C  C94  1  0.57700000  0.53340000  0.36600000  1.0 -0.0831951782
C  C95  1  0.36600000  0.57700000  0.53340000  1.0 -0.0831951782
C  C96  1  0.53340000  0.36600000  0.57700000  1.0 -0.0831951782
C  C97  1  0.95470000  0.69900000  0.63570000  1.0 -0.160068087
C  C98  1  0.69900000  0.63570000  0.95470000  1.0 -0.160068087
C  C99  1  0.63570000  0.95470000  0.69900000  1.0 -0.160068087
C  C100  1  0.54530000  0.86430000  0.80100000  1.0 -0.160068087
C  C101  1  0.80100000  0.54530000  0.86430000  1.0 -0.160068087
C  C102  1  0.86430000  0.80100000  0.54530000  1.0 -0.160068087
C  C103  1  0.04530000  0.30100000  0.36430000  1.0 -0.160068087
C  C104  1  0.30100000  0.36430000  0.04530000  1.0 -0.160068087
C  C105  1  0.36430000  0.04530000  0.30100000  1.0 -0.160068087
C  C106  1  0.45470000  0.13570000  0.19900000  1.0 -0.160068087
C  C107  1  0.19900000  0.45470000  0.13570000  1.0 -0.160068087
C  C108  1  0.13570000  0.19900000  0.45470000  1.0 -0.160068087
C  C109  1  0.95340000  0.63560000  0.70520000  1.0 -0.1696605242
C  C110  1  0.63560000  0.70520000  0.95340000  1.0 -0.1696605242
C  C111  1  0.70520000  0.95340000  0.63560000  1.0 -0.1696605242
C  C112  1  0.54660000  0.79480000  0.86440000  1.0 -0.1696605242
C  C113  1  0.86440000  0.54660000  0.79480000  1.0 -0.1696605242
C  C114  1  0.79480000  0.86440000  0.54660000  1.0 -0.1696605242
C  C115  1  0.04660000  0.36440000  0.29480000  1.0 -0.1696605242
C  C116  1  0.36440000  0.29480000  0.04660000  1.0 -0.1696605242
C  C117  1  0.29480000  0.04660000  0.36440000  1.0 -0.1696605242
C  C118  1  0.45340000  0.20520000  0.13560000  1.0 -0.1696605242
C  C119  1  0.13560000  0.45340000  0.20520000  1.0 -0.1696605242
C  C120  1  0.20520000  0.13560000  0.45340000  1.0 -0.1696605242
C  C121  1  0.10610000  0.76080000  0.04170000  1.0 -0.1544116224
C  C122  1  0.76080000  0.04170000  0.10610000  1.0 -0.1544116224
C  C123  1  0.04170000  0.10610000  0.76080000  1.0 -0.1544116224
C  C124  1  0.39390000  0.45830000  0.73920000  1.0 -0.1544116224
C  C125  1  0.73920000  0.39390000  0.45830000  1.0 -0.1544116224
C  C126  1  0.45830000  0.73920000  0.39390000  1.0 -0.1544116224
C  C127  1  0.89390000  0.23920000  0.95830000  1.0 -0.1544116224
C  C128  1  0.23920000  0.95830000  0.89390000  1.0 -0.1544116224
C  C129  1  0.95830000  0.89390000  0.23920000  1.0 -0.1544116224
C  C130  1  0.60610000  0.54170000  0.26080000  1.0 -0.1544116224
C  C131  1  0.26080000  0.60610000  0.54170000  1.0 -0.1544116224
C  C132  1  0.54170000  0.26080000  0.60610000  1.0 -0.1544116224
C  C133  1  0.12390000  0.85410000  0.06830000  1.0 -0.1696605242
C  C134  1  0.85410000  0.06830000  0.12390000  1.0 -0.1696605242
C  C135  1  0.06830000  0.12390000  0.85410000  1.0 -0.1696605242
C  C136  1  0.37610000  0.43170000  0.64590000  1.0 -0.1696605242
C  C137  1  0.64590000  0.37610000  0.43170000  1.0 -0.1696605242
C  C138  1  0.43170000  0.64590000  0.37610000  1.0 -0.1696605242
C  C139  1  0.87610000  0.14590000  0.93170000  1.0 -0.1696605242
C  C140  1  0.14590000  0.93170000  0.87610000  1.0 -0.1696605242
C  C141  1  0.93170000  0.87610000  0.14590000  1.0 -0.1696605242
C  C142  1  0.62390000  0.56830000  0.35410000  1.0 -0.1696605242
C  C143  1  0.35410000  0.62390000  0.56830000  1.0 -0.1696605242
C  C144  1  0.56830000  0.35410000  0.62390000  1.0 -0.1696605242
C  C145  1  0.96050000  0.64590000  0.65000000  1.0 0.0916467771
C  C146  1  0.64590000  0.65000000  0.96050000  1.0 0.0916467771
C  C147  1  0.65000000  0.96050000  0.64590000  1.0 0.0916467771
C  C148  1  0.53950000  0.85000000  0.85410000  1.0 0.0916467771
C  C149  1  0.85410000  0.53950000  0.85000000  1.0 0.0916467771
C  C150  1  0.85000000  0.85410000  0.53950000  1.0 0.0916467771
C  C151  1  0.03950000  0.35410000  0.35000000  1.0 0.0916467771
C  C152  1  0.35410000  0.35000000  0.03950000  1.0 0.0916467771
C  C153  1  0.35000000  0.03950000  0.35410000  1.0 0.0916467771
C  C154  1  0.46050000  0.15000000  0.14590000  1.0 0.0916467771
C  C155  1  0.14590000  0.46050000  0.15000000  1.0 0.0916467771
C  C156  1  0.15000000  0.14590000  0.46050000  1.0 0.0916467771
C  C157  1  0.13820000  0.79960000  0.07310000  1.0 0.0916467771
C  C158  1  0.79960000  0.07310000  0.13820000  1.0 0.0916467771
C  C159  1  0.07310000  0.13820000  0.79960000  1.0 0.0916467771
C  C160  1  0.36180000  0.42690000  0.70040000  1.0 0.0916467771
C  C161  1  0.70040000  0.36180000  0.42690000  1.0 0.0916467771
C  C162  1  0.42690000  0.70040000  0.36180000  1.0 0.0916467771
C  C163  1  0.86180000  0.20040000  0.92690000  1.0 0.0916467771
C  C164  1  0.20040000  0.92690000  0.86180000  1.0 0.0916467771
C  C165  1  0.92690000  0.86180000  0.20040000  1.0 0.0916467771
C  C166  1  0.63820000  0.57310000  0.29960000  1.0 0.0916467771
C  C167  1  0.29960000  0.63820000  0.57310000  1.0 0.0916467771
C  C168  1  0.57310000  0.29960000  0.63820000  1.0 0.0916467771
C  C169  1  0.97180000  0.60240000  0.60360000  1.0 -0.0831951782
C  C170  1  0.60240000  0.60360000  0.97180000  1.0 -0.0831951782
C  C171  1  0.60360000  0.97180000  0.60240000  1.0 -0.0831951782
C  C172  1  0.52820000  0.89640000  0.89760000  1.0 -0.0831951782
C  C173  1  0.89760000  0.52820000  0.89640000  1.0 -0.0831951782
C  C174  1  0.89640000  0.89760000  0.52820000  1.0 -0.0831951782
C  C175  1  0.02820000  0.39760000  0.39640000  1.0 -0.0831951782
C  C176  1  0.39760000  0.39640000  0.02820000  1.0 -0.0831951782
C  C177  1  0.39640000  0.02820000  0.39760000  1.0 -0.0831951782
C  C178  1  0.47180000  0.10360000  0.10240000  1.0 -0.0831951782
C  C179  1  0.10240000  0.47180000  0.10360000  1.0 -0.0831951782
C  C180  1  0.10360000  0.10240000  0.47180000  1.0 -0.0831951782
C  C181  1  0.18220000  0.78400000  0.11340000  1.0 -0.0896317968
C  C182  1  0.78400000  0.11340000  0.18220000  1.0 -0.0896317968
C  C183  1  0.11340000  0.18220000  0.78400000  1.0 -0.0896317968
C  C184  1  0.31780000  0.38660000  0.71600000  1.0 -0.0896317968
C  C185  1  0.71600000  0.31780000  0.38660000  1.0 -0.0896317968
C  C186  1  0.38660000  0.71600000  0.31780000  1.0 -0.0896317968
C  C187  1  0.81780000  0.21600000  0.88660000  1.0 -0.0896317968
C  C188  1  0.21600000  0.88660000  0.81780000  1.0 -0.0896317968
C  C189  1  0.88660000  0.81780000  0.21600000  1.0 -0.0896317968
C  C190  1  0.68220000  0.61340000  0.28400000  1.0 -0.0896317968
C  C191  1  0.28400000  0.68220000  0.61340000  1.0 -0.0896317968
C  C192  1  0.61340000  0.28400000  0.68220000  1.0 -0.0896317968
C  C193  1  0.02680000  0.58580000  0.60330000  1.0 0.175792374
C  C194  1  0.58580000  0.60330000  0.02680000  1.0 0.175792374
C  C195  1  0.60330000  0.02680000  0.58580000  1.0 0.175792374
C  C196  1  0.47320000  0.89670000  0.91420000  1.0 0.175792374
C  C197  1  0.91420000  0.47320000  0.89670000  1.0 0.175792374
C  C198  1  0.89670000  0.91420000  0.47320000  1.0 0.175792374
C  C199  1  0.97320000  0.41420000  0.39670000  1.0 0.175792374
C  C200  1  0.41420000  0.39670000  0.97320000  1.0 0.175792374
C  C201  1  0.39670000  0.97320000  0.41420000  1.0 0.175792374
C  C202  1  0.52680000  0.10330000  0.08580000  1.0 0.175792374
C  C203  1  0.08580000  0.52680000  0.10330000  1.0 0.175792374
C  C204  1  0.10330000  0.08580000  0.52680000  1.0 0.175792374
C  C205  1  0.92830000  0.58130000  0.56500000  1.0 0.1938619475
C  C206  1  0.58130000  0.56500000  0.92830000  1.0 0.1938619475
C  C207  1  0.56500000  0.92830000  0.58130000  1.0 0.1938619475
C  C208  1  0.57170000  0.93500000  0.91870000  1.0 0.1938619475
C  C209  1  0.91870000  0.57170000  0.93500000  1.0 0.1938619475
C  C210  1  0.93500000  0.91870000  0.57170000  1.0 0.1938619475
C  C211  1  0.07170000  0.41870000  0.43500000  1.0 0.1938619475
C  C212  1  0.41870000  0.43500000  0.07170000  1.0 0.1938619475
C  C213  1  0.43500000  0.07170000  0.41870000  1.0 0.1938619475
C  C214  1  0.42830000  0.06500000  0.08130000  1.0 0.1938619475
C  C215  1  0.08130000  0.42830000  0.06500000  1.0 0.1938619475
C  C216  1  0.06500000  0.08130000  0.42830000  1.0 0.1938619475
C  C217  1  0.23710000  0.77990000  0.10010000  1.0 0.2001830393
C  C218  1  0.77990000  0.10010000  0.23710000  1.0 0.2001830393
C  C219  1  0.10010000  0.23710000  0.77990000  1.0 0.2001830393
C  C220  1  0.26290000  0.39990000  0.72010000  1.0 0.2001830393
C  C221  1  0.72010000  0.26290000  0.39990000  1.0 0.2001830393
C  C222  1  0.39990000  0.72010000  0.26290000  1.0 0.2001830393
C  C223  1  0.76290000  0.22010000  0.89990000  1.0 0.2001830393
C  C224  1  0.22010000  0.89990000  0.76290000  1.0 0.2001830393
C  C225  1  0.89990000  0.76290000  0.22010000  1.0 0.2001830393
C  C226  1  0.73710000  0.60010000  0.27990000  1.0 0.2001830393
C  C227  1  0.27990000  0.73710000  0.60010000  1.0 0.2001830393
C  C228  1  0.60010000  0.27990000  0.73710000  1.0 0.2001830393
C  C229  1  0.16590000  0.77820000  0.16820000  1.0 0.1938619475
C  C230  1  0.77820000  0.16820000  0.16590000  1.0 0.2001830393
C  C231  1  0.16820000  0.16590000  0.77820000  1.0 0.1938619475
C  C232  1  0.33410000  0.33180000  0.72180000  1.0 0.1938619475
C  C233  1  0.72180000  0.33410000  0.33180000  1.0 0.1938619475
C  C234  1  0.33180000  0.72180000  0.33410000  1.0 0.2001830393
C  C235  1  0.83410000  0.22180000  0.83180000  1.0 0.1938619475
C  C236  1  0.22180000  0.83180000  0.83410000  1.0 0.1938619475
C  C237  1  0.83180000  0.83410000  0.22180000  1.0 0.1938619475
C  C238  1  0.66590000  0.66820000  0.27820000  1.0 0.1938619475
C  C239  1  0.27820000  0.66590000  0.66820000  1.0 0.1938619475
C  C240  1  0.66820000  0.27820000  0.66590000  1.0 0.1938619475
C  C241  1  0.07560000  0.60650000  0.64480000  1.0 -0.1800594748
C  C242  1  0.60650000  0.64480000  0.07560000  1.0 -0.1800594748
C  C243  1  0.64480000  0.07560000  0.60650000  1.0 -0.1869293067
C  C244  1  0.42440000  0.85520000  0.89350000  1.0 -0.1869293067
C  C245  1  0.89350000  0.42440000  0.85520000  1.0 -0.1869293067
C  C246  1  0.85520000  0.89350000  0.42440000  1.0 -0.1869293067
C  C247  1  0.92440000  0.39350000  0.35520000  1.0 -0.1800594748
C  C248  1  0.39350000  0.35520000  0.92440000  1.0 -0.1869293067
C  C249  1  0.35520000  0.92440000  0.39350000  1.0 -0.1869293067
C  C250  1  0.57560000  0.14480000  0.10650000  1.0 -0.1800594748
C  C251  1  0.10650000  0.57560000  0.14480000  1.0 -0.1800594748
C  C252  1  0.14480000  0.10650000  0.57560000  1.0 -0.1869293067
C  C253  1  0.87340000  0.59750000  0.56620000  1.0 -0.2076362083
C  C254  1  0.59750000  0.56620000  0.87340000  1.0 -0.2076362083
C  C255  1  0.56620000  0.87340000  0.59750000  1.0 -0.2076362083
C  C256  1  0.62660000  0.93380000  0.90250000  1.0 -0.2076362083
C  C257  1  0.90250000  0.62660000  0.93380000  1.0 -0.2076362083
C  C258  1  0.93380000  0.90250000  0.62660000  1.0 -0.2076362083
C  C259  1  0.12660000  0.40250000  0.43380000  1.0 -0.2076362083
C  C260  1  0.40250000  0.43380000  0.12660000  1.0 -0.2076362083
C  C261  1  0.43380000  0.12660000  0.40250000  1.0 -0.2076362083
C  C262  1  0.37340000  0.06620000  0.09750000  1.0 -0.2076362083
C  C263  1  0.09750000  0.37340000  0.06620000  1.0 -0.2076362083
C  C264  1  0.06620000  0.09750000  0.37340000  1.0 -0.2076362083
C  C265  1  0.25610000  0.79200000  0.04230000  1.0 -0.1444614986
C  C266  1  0.79200000  0.04230000  0.25610000  1.0 -0.1444614986
C  C267  1  0.04230000  0.25610000  0.79200000  1.0 -0.1444614986
C  C268  1  0.24390000  0.45770000  0.70800000  1.0 -0.1444614986
C  C269  1  0.70800000  0.24390000  0.45770000  1.0 -0.1444614986
C  C270  1  0.45770000  0.70800000  0.24390000  1.0 -0.1444614986
C  C271  1  0.74390000  0.20800000  0.95770000  1.0 -0.1444614986
C  C272  1  0.20800000  0.95770000  0.74390000  1.0 -0.1444614986
C  C273  1  0.95770000  0.74390000  0.20800000  1.0 -0.1444614986
C  C274  1  0.75610000  0.54230000  0.29200000  1.0 -0.1444614986
C  C275  1  0.29200000  0.75610000  0.54230000  1.0 -0.1444614986
C  C276  1  0.54230000  0.29200000  0.75610000  1.0 -0.1444614986
C  C277  1  0.10830000  0.78240000  0.19130000  1.0 -0.1869293067
C  C278  1  0.78240000  0.19130000  0.10830000  1.0 -0.1869293067
C  C279  1  0.19130000  0.10830000  0.78240000  1.0 -0.1869293067
C  C280  1  0.39170000  0.30870000  0.71760000  1.0 -0.1869293067
C  C281  1  0.71760000  0.39170000  0.30870000  1.0 -0.1869293067
C  C282  1  0.30870000  0.71760000  0.39170000  1.0 -0.1869293067
C  C283  1  0.89170000  0.21760000  0.80870000  1.0 -0.1869293067
C  C284  1  0.21760000  0.80870000  0.89170000  1.0 -0.1869293067
C  C285  1  0.80870000  0.89170000  0.21760000  1.0 -0.1869293067
C  C286  1  0.60830000  0.69130000  0.28240000  1.0 -0.1869293067
C  C287  1  0.28240000  0.60830000  0.69130000  1.0 -0.1869293067
C  C288  1  0.69130000  0.28240000  0.60830000  1.0 -0.1869293067
C  C289  1  0.09900000  0.53870000  0.58180000  1.0 0.2606084436
C  C290  1  0.53870000  0.58180000  0.09900000  1.0 0.2606084436
C  C291  1  0.58180000  0.09900000  0.53870000  1.0 0.2606084436
C  C292  1  0.40100000  0.91820000  0.96130000  1.0 0.2606084436
C  C293  1  0.96130000  0.40100000  0.91820000  1.0 0.2606084436
C  C294  1  0.91820000  0.96130000  0.40100000  1.0 0.2606084436
C  C295  1  0.90100000  0.46130000  0.41820000  1.0 0.2606084436
C  C296  1  0.46130000  0.41820000  0.90100000  1.0 0.2606084436
C  C297  1  0.41820000  0.90100000  0.46130000  1.0 0.2606084436
C  C298  1  0.59900000  0.08180000  0.03870000  1.0 0.2606084436
C  C299  1  0.03870000  0.59900000  0.08180000  1.0 0.2606084436
C  C300  1  0.08180000  0.03870000  0.59900000  1.0 0.2606084436
C  C301  1  0.12130000  0.57840000  0.63020000  1.0 -0.1869293067
C  C302  1  0.57840000  0.63020000  0.12130000  1.0 -0.1869293067
C  C303  1  0.63020000  0.12130000  0.57840000  1.0 -0.1869293067
C  C304  1  0.37870000  0.86980000  0.92160000  1.0 -0.1869293067
C  C305  1  0.92160000  0.37870000  0.86980000  1.0 -0.1869293067
C  C306  1  0.86980000  0.92160000  0.37870000  1.0 -0.1869293067
C  C307  1  0.87870000  0.42160000  0.36980000  1.0 -0.1869293067
C  C308  1  0.42160000  0.36980000  0.87870000  1.0 -0.1869293067
C  C309  1  0.36980000  0.87870000  0.42160000  1.0 -0.1869293067
C  C310  1  0.62130000  0.13020000  0.07840000  1.0 -0.1869293067
C  C311  1  0.07840000  0.62130000  0.13020000  1.0 -0.1869293067
C  C312  1  0.13020000  0.07840000  0.62130000  1.0 -0.1869293067
C  C313  1  0.87730000  0.53250000  0.49320000  1.0 0.2148717185
C  C314  1  0.53250000  0.49320000  0.87730000  1.0 0.2148717185
C  C315  1  0.49320000  0.87730000  0.53250000  1.0 0.2148717185
C  C316  1  0.62270000  0.00680000  0.96750000  1.0 0.2157654454
C  C317  1  0.96750000  0.62270000  0.00680000  1.0 0.2148717185
C  C318  1  0.00680000  0.96750000  0.62270000  1.0 0.2148717185
C  C319  1  0.12270000  0.46750000  0.50680000  1.0 0.2157654454
C  C320  1  0.46750000  0.50680000  0.12270000  1.0 0.2157654454
C  C321  1  0.50680000  0.12270000  0.46750000  1.0 0.2157654454
C  C322  1  0.37730000  0.99320000  0.03250000  1.0 0.2148717185
C  C323  1  0.03250000  0.37730000  0.99320000  1.0 0.2157654454
C  C324  1  0.99320000  0.03250000  0.37730000  1.0 0.2148717185
C  C325  1  0.84240000  0.56870000  0.52160000  1.0 -0.1696605242
C  C326  1  0.56870000  0.52160000  0.84240000  1.0 -0.1696605242
C  C327  1  0.52160000  0.84240000  0.56870000  1.0 -0.1696605242
C  C328  1  0.65760000  0.97840000  0.93130000  1.0 -0.1696605242
C  C329  1  0.93130000  0.65760000  0.97840000  1.0 -0.1696605242
C  C330  1  0.97840000  0.93130000  0.65760000  1.0 -0.1696605242
C  C331  1  0.15760000  0.43130000  0.47840000  1.0 -0.1800594748
C  C332  1  0.43130000  0.47840000  0.15760000  1.0 -0.1696605242
C  C333  1  0.47840000  0.15760000  0.43130000  1.0 -0.1696605242
C  C334  1  0.34240000  0.02160000  0.06870000  1.0 -0.1800594748
C  C335  1  0.06870000  0.34240000  0.02160000  1.0 -0.1696605242
C  C336  1  0.02160000  0.06870000  0.34240000  1.0 -0.1696605242
C  C337  1  0.30890000  0.77830000  0.04190000  1.0 -0.1800594748
C  C338  1  0.77830000  0.04190000  0.30890000  1.0 -0.1800594748
C  C339  1  0.04190000  0.30890000  0.77830000  1.0 -0.1800594748
C  C340  1  0.19110000  0.45810000  0.72170000  1.0 -0.1800594748
C  C341  1  0.72170000  0.19110000  0.45810000  1.0 -0.1800594748
C  C342  1  0.45810000  0.72170000  0.19110000  1.0 -0.1800594748
C  C343  1  0.69110000  0.22170000  0.95810000  1.0 -0.1800594748
C  C344  1  0.22170000  0.95810000  0.69110000  1.0 -0.1800594748
C  C345  1  0.95810000  0.69110000  0.22170000  1.0 -0.1800594748
C  C346  1  0.80890000  0.54190000  0.27830000  1.0 -0.1800594748
C  C347  1  0.27830000  0.80890000  0.54190000  1.0 -0.1800594748
C  C348  1  0.54190000  0.27830000  0.80890000  1.0 -0.1800594748
C  C349  1  0.32870000  0.76600000  0.10160000  1.0 0.2713606596
C  C350  1  0.76600000  0.10160000  0.32870000  1.0 0.2713606596
C  C351  1  0.10160000  0.32870000  0.76600000  1.0 0.2713606596
C  C352  1  0.17130000  0.39840000  0.73400000  1.0 0.2713606596
C  C353  1  0.73400000  0.17130000  0.39840000  1.0 0.2713606596
C  C354  1  0.39840000  0.73400000  0.17130000  1.0 0.2713606596
C  C355  1  0.67130000  0.23400000  0.89840000  1.0 0.2713606596
C  C356  1  0.23400000  0.89840000  0.67130000  1.0 0.2713606596
C  C357  1  0.89840000  0.67130000  0.23400000  1.0 0.2713606596
C  C358  1  0.82870000  0.60160000  0.26600000  1.0 0.2713606596
C  C359  1  0.26600000  0.82870000  0.60160000  1.0 0.2713606596
C  C360  1  0.60160000  0.26600000  0.82870000  1.0 0.2713606596
C  C361  1  0.16540000  0.76360000  0.25980000  1.0 0.2419724715
C  C362  1  0.76360000  0.25980000  0.16540000  1.0 0.2419724715
C  C363  1  0.25980000  0.16540000  0.76360000  1.0 0.2419724715
C  C364  1  0.33460000  0.24020000  0.73640000  1.0 0.2419724715
C  C365  1  0.73640000  0.33460000  0.24020000  1.0 0.2419724715
C  C366  1  0.24020000  0.73640000  0.33460000  1.0 0.2419724715
C  C367  1  0.83460000  0.23640000  0.74020000  1.0 0.2419724715
C  C368  1  0.23640000  0.74020000  0.83460000  1.0 0.2419724715
C  C369  1  0.74020000  0.83460000  0.23640000  1.0 0.2419724715
C  C370  1  0.66540000  0.75980000  0.26360000  1.0 0.2419724715
C  C371  1  0.26360000  0.66540000  0.75980000  1.0 0.2419724715
C  C372  1  0.75980000  0.26360000  0.66540000  1.0 0.2419724715
C  C373  1  0.10910000  0.77360000  0.24520000  1.0 -0.1696605242
C  C374  1  0.77360000  0.24520000  0.10910000  1.0 -0.1696605242
C  C375  1  0.24520000  0.10910000  0.77360000  1.0 -0.1696605242
C  C376  1  0.39090000  0.25480000  0.72640000  1.0 -0.1696605242
C  C377  1  0.72640000  0.39090000  0.25480000  1.0 -0.1696605242
C  C378  1  0.25480000  0.72640000  0.39090000  1.0 -0.1696605242
C  C379  1  0.89090000  0.22640000  0.75480000  1.0 -0.1696605242
C  C380  1  0.22640000  0.75480000  0.89090000  1.0 -0.1696605242
C  C381  1  0.75480000  0.89090000  0.22640000  1.0 -0.1696605242
C  C382  1  0.60910000  0.74520000  0.27360000  1.0 -0.1696605242
C  C383  1  0.27360000  0.60910000  0.74520000  1.0 -0.1696605242
C  C384  1  0.74520000  0.27360000  0.60910000  1.0 -0.1696605242
C  C385  1  0.13530000  0.50300000  0.55300000  1.0 -0.2994379411
C  C386  1  0.50300000  0.55300000  0.13530000  1.0 -0.2994379411
C  C387  1  0.55300000  0.13530000  0.50300000  1.0 -0.2994379411
C  C388  1  0.36470000  0.94700000  0.99700000  1.0 -0.2994379411
C  C389  1  0.99700000  0.36470000  0.94700000  1.0 -0.2994379411
C  C390  1  0.94700000  0.99700000  0.36470000  1.0 -0.2994379411
C  C391  1  0.86470000  0.49700000  0.44700000  1.0 -0.2994379411
C  C392  1  0.49700000  0.44700000  0.86470000  1.0 -0.2994379411
C  C393  1  0.44700000  0.86470000  0.49700000  1.0 -0.2994379411
C  C394  1  0.63530000  0.05300000  0.00300000  1.0 -0.2994379411
C  C395  1  0.00300000  0.63530000  0.05300000  1.0 -0.2994379411
C  C396  1  0.05300000  0.00300000  0.63530000  1.0 -0.2994379411
C  C397  1  0.38140000  0.75000000  0.11860000  1.0 -0.317391183
C  C398  1  0.75000000  0.11860000  0.38140000  1.0 -0.317391183
C  C399  1  0.11860000  0.38140000  0.75000000  1.0 -0.317391183
C  C400  1  0.61860000  0.25000000  0.88140000  1.0 -0.317391183
C  C401  1  0.25000000  0.88140000  0.61860000  1.0 -0.317391183
C  C402  1  0.88140000  0.61860000  0.25000000  1.0 -0.317391183
C  C403  1  0.18720000  0.75000000  0.31280000  1.0 -0.3092827757
C  C404  1  0.75000000  0.31280000  0.18720000  1.0 -0.3092827757
C  C405  1  0.31280000  0.18720000  0.75000000  1.0 -0.3092827757
C  C406  1  0.81280000  0.25000000  0.68720000  1.0 -0.3092827757
C  C407  1  0.25000000  0.68720000  0.81280000  1.0 -0.3092827757
C  C408  1  0.68720000  0.81280000  0.25000000  1.0 -0.3092827757
N  N1  1  0.04510000  0.54430000  0.56500000  1.0 -0.3450240354
N  N2  1  0.54430000  0.56500000  0.04510000  1.0 -0.3450240354
N  N3  1  0.56500000  0.04510000  0.54430000  1.0 -0.3450240354
N  N4  1  0.45490000  0.93500000  0.95570000  1.0 -0.3439415911
N  N5  1  0.95570000  0.45490000  0.93500000  1.0 -0.3450240354
N  N6  1  0.93500000  0.95570000  0.45490000  1.0 -0.3439415911
N  N7  1  0.95490000  0.45570000  0.43500000  1.0 -0.3450240354
N  N8  1  0.45570000  0.43500000  0.95490000  1.0 -0.3439415911
N  N9  1  0.43500000  0.95490000  0.45570000  1.0 -0.3439415911
N  N10  1  0.54510000  0.06500000  0.04430000  1.0 -0.3439415911
N  N11  1  0.04430000  0.54510000  0.06500000  1.0 -0.3450240354
N  N12  1  0.06500000  0.04430000  0.54510000  1.0 -0.3450240354
N  N13  1  0.93210000  0.54270000  0.52180000  1.0 -0.3634137908
N  N14  1  0.54270000  0.52180000  0.93210000  1.0 -0.3651521302
N  N15  1  0.52180000  0.93210000  0.54270000  1.0 -0.3651521302
N  N16  1  0.56790000  0.97820000  0.95730000  1.0 -0.3651521302
N  N17  1  0.95730000  0.56790000  0.97820000  1.0 -0.3634137908
N  N18  1  0.97820000  0.95730000  0.56790000  1.0 -0.3634137908
N  N19  1  0.06790000  0.45730000  0.47820000  1.0 -0.3651521302
N  N20  1  0.45730000  0.47820000  0.06790000  1.0 -0.3651521302
N  N21  1  0.47820000  0.06790000  0.45730000  1.0 -0.3651521302
N  N22  1  0.43210000  0.02180000  0.04270000  1.0 -0.3651521302
N  N23  1  0.04270000  0.43210000  0.02180000  1.0 -0.3651521302
N  N24  1  0.02180000  0.04270000  0.43210000  1.0 -0.3651521302
N  N25  1  0.28300000  0.76750000  0.13320000  1.0 -0.3651521302
N  N26  1  0.76750000  0.13320000  0.28300000  1.0 -0.3651521302
N  N27  1  0.13320000  0.28300000  0.76750000  1.0 -0.3651521302
N  N28  1  0.21700000  0.36680000  0.73250000  1.0 -0.3651521302
N  N29  1  0.73250000  0.21700000  0.36680000  1.0 -0.3651521302
N  N30  1  0.36680000  0.73250000  0.21700000  1.0 -0.3651521302
N  N31  1  0.71700000  0.23250000  0.86680000  1.0 -0.3634137908
N  N32  1  0.23250000  0.86680000  0.71700000  1.0 -0.3651521302
N  N33  1  0.86680000  0.71700000  0.23250000  1.0 -0.3634137908
N  N34  1  0.78300000  0.63320000  0.26750000  1.0 -0.3651521302
N  N35  1  0.26750000  0.78300000  0.63320000  1.0 -0.3651521302
N  N36  1  0.63320000  0.26750000  0.78300000  1.0 -0.3651521302
N  N37  1  0.20000000  0.76300000  0.21650000  1.0 -0.3882693931
N  N38  1  0.76300000  0.21650000  0.20000000  1.0 -0.3882693931
N  N39  1  0.21650000  0.20000000  0.76300000  1.0 -0.3882693931
N  N40  1  0.30000000  0.28350000  0.73700000  1.0 -0.3882693931
N  N41  1  0.73700000  0.30000000  0.28350000  1.0 -0.3882693931
N  N42  1  0.28350000  0.73700000  0.30000000  1.0 -0.3882693931
N  N43  1  0.80000000  0.23700000  0.78350000  1.0 -0.3882693931
N  N44  1  0.23700000  0.78350000  0.80000000  1.0 -0.3882693931
N  N45  1  0.78350000  0.80000000  0.23700000  1.0 -0.3882693931
N  N46  1  0.70000000  0.71650000  0.26300000  1.0 -0.3882693931
N  N47  1  0.26300000  0.70000000  0.71650000  1.0 -0.3882693931
N  N48  1  0.71650000  0.26300000  0.70000000  1.0 -0.3882693931
O  O1  1  0.87723000  0.87723000  0.87723000  1.0 -1.02370976
O  O2  1  0.62277000  0.62277000  0.62277000  1.0 -1.02370976
O  O3  1  0.12277000  0.12277000  0.12277000  1.0 -1.02370976
O  O4  1  0.37723000  0.37723000  0.37723000  1.0 -1.02370976
O  O5  1  0.91228000  0.75898000  0.82268000  1.0 -0.5481659482
O  O6  1  0.75898000  0.82268000  0.91228000  1.0 -0.5481659482
O  O7  1  0.82268000  0.91228000  0.75898000  1.0 -0.5481659482
O  O8  1  0.58772000  0.67732000  0.74102000  1.0 -0.5481659482
O  O9  1  0.74102000  0.58772000  0.67732000  1.0 -0.5481659482
O  O10  1  0.67732000  0.74102000  0.58772000  1.0 -0.5481659482
O  O11  1  0.08772000  0.24102000  0.17732000  1.0 -0.5481659482
O  O12  1  0.24102000  0.17732000  0.08772000  1.0 -0.5481659482
O  O13  1  0.17732000  0.08772000  0.24102000  1.0 -0.5481659482
O  O14  1  0.41228000  0.32268000  0.25898000  1.0 -0.5481659482
O  O15  1  0.25898000  0.41228000  0.32268000  1.0 -0.5481659482
O  O16  1  0.32268000  0.25898000  0.41228000  1.0 -0.5481659482
O  O17  1  0.91479000  0.82419000  0.75889000  1.0 -0.5228516121
O  O18  1  0.82419000  0.75889000  0.91479000  1.0 -0.5228516121
O  O19  1  0.75889000  0.91479000  0.82419000  1.0 -0.5228516121
O  O20  1  0.58521000  0.74111000  0.67581000  1.0 -0.5228516121
O  O21  1  0.67581000  0.58521000  0.74111000  1.0 -0.5228516121
O  O22  1  0.74111000  0.67581000  0.58521000  1.0 -0.5228516121
O  O23  1  0.08521000  0.17581000  0.24111000  1.0 -0.5228516121
O  O24  1  0.17581000  0.24111000  0.08521000  1.0 -0.5228516121
O  O25  1  0.24111000  0.08521000  0.17581000  1.0 -0.5228516121
O  O26  1  0.41479000  0.25889000  0.32419000  1.0 -0.5228516121
O  O27  1  0.32419000  0.41479000  0.25889000  1.0 -0.5228516121
O  O28  1  0.25889000  0.32419000  0.41479000  1.0 -0.5228516121
O  O29  1  0.96019000  0.79729000  0.94499000  1.0 -0.5481659482
O  O30  1  0.79729000  0.94499000  0.96019000  1.0 -0.5481659482
O  O31  1  0.94499000  0.96019000  0.79729000  1.0 -0.5481659482
O  O32  1  0.53981000  0.55501000  0.70271000  1.0 -0.5481659482
O  O33  1  0.70271000  0.53981000  0.55501000  1.0 -0.5481659482
O  O34  1  0.55501000  0.70271000  0.53981000  1.0 -0.5481659482
O  O35  1  0.03981000  0.20271000  0.05501000  1.0 -0.5481659482
O  O36  1  0.20271000  0.05501000  0.03981000  1.0 -0.5481659482
O  O37  1  0.05501000  0.03981000  0.20271000  1.0 -0.5481659482
O  O38  1  0.46019000  0.44499000  0.29729000  1.0 -0.5481659482
O  O39  1  0.29729000  0.46019000  0.44499000  1.0 -0.5481659482
O  O40  1  0.44499000  0.29729000  0.46019000  1.0 -0.5481659482
O  O41  1  0.98591000  0.89041000  0.96661000  1.0 -0.5325862377
O  O42  1  0.89041000  0.96661000  0.98591000  1.0 -0.5325862377
O  O43  1  0.96661000  0.98591000  0.89041000  1.0 -0.5325862377
O  O44  1  0.51409000  0.53339000  0.60959000  1.0 -0.5325862377
O  O45  1  0.60959000  0.51409000  0.53339000  1.0 -0.5325862377
O  O46  1  0.53339000  0.60959000  0.51409000  1.0 -0.5325862377
O  O47  1  0.01409000  0.10959000  0.03339000  1.0 -0.5325862377
O  O48  1  0.10959000  0.03339000  0.01409000  1.0 -0.5325862377
O  O49  1  0.03339000  0.01409000  0.10959000  1.0 -0.5325862377
O  O50  1  0.48591000  0.46661000  0.39041000  1.0 -0.5325862377
O  O51  1  0.39041000  0.48591000  0.46661000  1.0 -0.5325862377
O  O52  1  0.46661000  0.39041000  0.48591000  1.0 -0.5325862377
