# DDEC6 charges by PACMAN v1.1 (https://github.com/mtap-research/PACMAN-charge/)
data_OSOYED_ASR_pacman
_symmetry_space_group_name_H-M   'P 1'
_cell_length_a   18.69700000
_cell_length_b   18.69700000
_cell_length_c   22.57800000
_cell_angle_alpha   90.00000000
_cell_angle_beta   90.00000000
_cell_angle_gamma   120.00000000
_symmetry_Int_Tables_number   1
_chemical_formula_structural   CuH12(C8O3)2
_chemical_formula_sum   'Cu12 H144 C192 O72'
_cell_volume   6835.33739638
_cell_formula_units_Z   12
loop_
 _symmetry_equiv_pos_site_id
 _symmetry_equiv_pos_as_xyz
  1  'x, y, z'
loop_
 _atom_site_type_symbol
 _atom_site_label
 _atom_site_symmetry_multiplicity
 _atom_site_fract_x
 _atom_site_fract_y
 _atom_site_fract_z
 _atom_site_occupancy
 _atom_site_charge
Cu  Cu1  1  0.95414000  0.47652000  0.45169000  1.0 0.7326926699
Cu  Cu2  1  0.52238000  0.04586000  0.45169000  1.0 0.7326926699
Cu  Cu3  1  0.52348000  0.47762000  0.45169000  1.0 0.7326926699
Cu  Cu4  1  0.04586000  0.52348000  0.95169000  1.0 0.7326926699
Cu  Cu5  1  0.47762000  0.95414000  0.95169000  1.0 0.7326926699
Cu  Cu6  1  0.47652000  0.52238000  0.95169000  1.0 0.7326926699
Cu  Cu7  1  0.47762000  0.52348000  0.54831000  1.0 0.7326926699
Cu  Cu8  1  0.47652000  0.95414000  0.54831000  1.0 0.7326926699
Cu  Cu9  1  0.04586000  0.52238000  0.54831000  1.0 0.7326926699
Cu  Cu10  1  0.52238000  0.47652000  0.04831000  1.0 0.7363110533
Cu  Cu11  1  0.52348000  0.04586000  0.04831000  1.0 0.7363110533
Cu  Cu12  1  0.95414000  0.47762000  0.04831000  1.0 0.7326926699
H  H1  1  0.90060000  0.25420000  0.75030000  1.0 0.108745313
H  H2  1  0.95530000  0.23230000  0.71100000  1.0 0.1309849649
H  H3  1  0.93790000  0.12780000  0.77540000  1.0 0.0633207063
H  H4  1  0.96010000  0.20430000  0.81490000  1.0 0.0885921952
H  H5  1  0.92440000  0.28370000  0.64350000  1.0 0.0970722512
H  H6  1  0.76150000  0.23910000  0.50960000  1.0 0.1309849649
H  H7  1  0.69950000  0.07400000  0.64450000  1.0 0.0885921952
H  H8  1  0.70700000  0.05930000  0.87550000  1.0 0.0885921952
H  H9  1  0.67090000  0.11850000  0.95340000  1.0 0.1309849649
H  H10  1  0.76630000  0.25130000  0.98780000  1.0 0.1309849649
H  H11  1  0.89780000  0.32500000  0.94420000  1.0 0.1309849649
H  H12  1  0.93390000  0.26580000  0.86630000  1.0 0.0885921952
H  H13  1  0.35360000  0.09940000  0.75030000  1.0 0.108745313
H  H14  1  0.27700000  0.04470000  0.71100000  1.0 0.1309849649
H  H15  1  0.18990000  0.06210000  0.77540000  1.0 0.0633207063
H  H16  1  0.24420000  0.03990000  0.81490000  1.0 0.0885921952
H  H17  1  0.35930000  0.07560000  0.64350000  1.0 0.0970722512
H  H18  1  0.47760000  0.23850000  0.50960000  1.0 0.1309849649
H  H19  1  0.37450000  0.30050000  0.64450000  1.0 0.0885921952
H  H20  1  0.35230000  0.29300000  0.87550000  1.0 0.0885921952
H  H21  1  0.44760000  0.32910000  0.95340000  1.0 0.1309849649
H  H22  1  0.48500000  0.23370000  0.98780000  1.0 0.1309849649
H  H23  1  0.42720000  0.10220000  0.94420000  1.0 0.1309849649
H  H24  1  0.33190000  0.06610000  0.86630000  1.0 0.0885921952
H  H25  1  0.74580000  0.64640000  0.75030000  1.0 0.108745313
H  H26  1  0.76770000  0.72300000  0.71100000  1.0 0.1309849649
H  H27  1  0.87220000  0.81010000  0.77540000  1.0 0.0633207063
H  H28  1  0.79570000  0.75580000  0.81490000  1.0 0.0885921952
H  H29  1  0.71630000  0.64070000  0.64350000  1.0 0.0970722512
H  H30  1  0.76090000  0.52240000  0.50960000  1.0 0.1309849649
H  H31  1  0.92600000  0.62550000  0.64450000  1.0 0.0885921952
H  H32  1  0.94070000  0.64770000  0.87550000  1.0 0.0885921952
H  H33  1  0.88150000  0.55240000  0.95340000  1.0 0.1368313631
H  H34  1  0.74870000  0.51500000  0.98780000  1.0 0.1309849649
H  H35  1  0.67500000  0.57280000  0.94420000  1.0 0.1309849649
H  H36  1  0.73420000  0.66810000  0.86630000  1.0 0.0885921952
H  H37  1  0.09940000  0.74580000  0.25030000  1.0 0.108745313
H  H38  1  0.04470000  0.76770000  0.21100000  1.0 0.1309849649
H  H39  1  0.06210000  0.87220000  0.27540000  1.0 0.0633207063
H  H40  1  0.03990000  0.79570000  0.31490000  1.0 0.0885921952
H  H41  1  0.07560000  0.71630000  0.14350000  1.0 0.0970722512
H  H42  1  0.23850000  0.76090000  0.00960000  1.0 0.1309849649
H  H43  1  0.30050000  0.92600000  0.14450000  1.0 0.0885921952
H  H44  1  0.29300000  0.94070000  0.37550000  1.0 0.0885921952
H  H45  1  0.32910000  0.88150000  0.45340000  1.0 0.1309849649
H  H46  1  0.23370000  0.74870000  0.48780000  1.0 0.1309849649
H  H47  1  0.10220000  0.67500000  0.44420000  1.0 0.1309849649
H  H48  1  0.06610000  0.73420000  0.36630000  1.0 0.0885921952
H  H49  1  0.64640000  0.90060000  0.25030000  1.0 0.108745313
H  H50  1  0.72300000  0.95530000  0.21100000  1.0 0.1309849649
H  H51  1  0.81010000  0.93790000  0.27540000  1.0 0.0633207063
H  H52  1  0.75580000  0.96010000  0.31490000  1.0 0.0885921952
H  H53  1  0.64070000  0.92440000  0.14350000  1.0 0.0970722512
H  H54  1  0.52240000  0.76150000  0.00960000  1.0 0.1309849649
H  H55  1  0.62550000  0.69950000  0.14450000  1.0 0.0885921952
H  H56  1  0.64770000  0.70700000  0.37550000  1.0 0.0885921952
H  H57  1  0.55240000  0.67090000  0.45340000  1.0 0.1368313631
H  H58  1  0.51500000  0.76630000  0.48780000  1.0 0.1309849649
H  H59  1  0.57280000  0.89780000  0.44420000  1.0 0.1309849649
H  H60  1  0.66810000  0.93390000  0.36630000  1.0 0.0885921952
H  H61  1  0.25420000  0.35360000  0.25030000  1.0 0.108745313
H  H62  1  0.23230000  0.27700000  0.21100000  1.0 0.1309849649
H  H63  1  0.12780000  0.18990000  0.27540000  1.0 0.0633207063
H  H64  1  0.20430000  0.24420000  0.31490000  1.0 0.0885921952
H  H65  1  0.28370000  0.35930000  0.14350000  1.0 0.0970722512
H  H66  1  0.23910000  0.47760000  0.00960000  1.0 0.1309849649
H  H67  1  0.07400000  0.37450000  0.14450000  1.0 0.0885921952
H  H68  1  0.05930000  0.35230000  0.37550000  1.0 0.0885921952
H  H69  1  0.11850000  0.44760000  0.45340000  1.0 0.1309849649
H  H70  1  0.25130000  0.48500000  0.48780000  1.0 0.1309849649
H  H71  1  0.32500000  0.42720000  0.44420000  1.0 0.1309849649
H  H72  1  0.26580000  0.33190000  0.36630000  1.0 0.0885921952
H  H73  1  0.64640000  0.74580000  0.24970000  1.0 0.108745313
H  H74  1  0.72300000  0.76770000  0.28900000  1.0 0.1309849649
H  H75  1  0.81010000  0.87220000  0.22460000  1.0 0.0633207063
H  H76  1  0.75580000  0.79570000  0.18510000  1.0 0.0885921952
H  H77  1  0.64070000  0.71630000  0.35650000  1.0 0.0970722512
H  H78  1  0.52240000  0.76090000  0.49040000  1.0 0.1309849649
H  H79  1  0.62550000  0.92600000  0.35550000  1.0 0.0885921952
H  H80  1  0.64770000  0.94070000  0.12450000  1.0 0.0885921952
H  H81  1  0.55240000  0.88150000  0.04660000  1.0 0.1309849649
H  H82  1  0.51500000  0.74870000  0.01220000  1.0 0.1309849649
H  H83  1  0.57280000  0.67500000  0.05580000  1.0 0.1309849649
H  H84  1  0.66810000  0.73420000  0.13370000  1.0 0.0885921952
H  H85  1  0.25420000  0.90060000  0.24970000  1.0 0.108745313
H  H86  1  0.23230000  0.95530000  0.28900000  1.0 0.1309849649
H  H87  1  0.12780000  0.93790000  0.22460000  1.0 0.0633207063
H  H88  1  0.20430000  0.96010000  0.18510000  1.0 0.0885921952
H  H89  1  0.28370000  0.92440000  0.35650000  1.0 0.0970722512
H  H90  1  0.23910000  0.76150000  0.49040000  1.0 0.1309849649
H  H91  1  0.07400000  0.69950000  0.35550000  1.0 0.0885921952
H  H92  1  0.05930000  0.70700000  0.12450000  1.0 0.0885921952
H  H93  1  0.11850000  0.67090000  0.04660000  1.0 0.1309849649
H  H94  1  0.25130000  0.76630000  0.01220000  1.0 0.1309849649
H  H95  1  0.32500000  0.89780000  0.05580000  1.0 0.1309849649
H  H96  1  0.26580000  0.93390000  0.13370000  1.0 0.0885921952
H  H97  1  0.09940000  0.35360000  0.24970000  1.0 0.108745313
H  H98  1  0.04470000  0.27700000  0.28900000  1.0 0.1309849649
H  H99  1  0.06210000  0.18990000  0.22460000  1.0 0.0633207063
H  H100  1  0.03990000  0.24420000  0.18510000  1.0 0.0885921952
H  H101  1  0.07560000  0.35930000  0.35650000  1.0 0.0970722512
H  H102  1  0.23850000  0.47760000  0.49040000  1.0 0.1309849649
H  H103  1  0.30050000  0.37450000  0.35550000  1.0 0.0885921952
H  H104  1  0.29300000  0.35230000  0.12450000  1.0 0.0885921952
H  H105  1  0.32910000  0.44760000  0.04660000  1.0 0.1309849649
H  H106  1  0.23370000  0.48500000  0.01220000  1.0 0.1309849649
H  H107  1  0.10220000  0.42720000  0.05580000  1.0 0.1309849649
H  H108  1  0.06610000  0.33190000  0.13370000  1.0 0.0885921952
H  H109  1  0.35360000  0.25420000  0.74970000  1.0 0.108745313
H  H110  1  0.27700000  0.23230000  0.78900000  1.0 0.1309849649
H  H111  1  0.18990000  0.12780000  0.72460000  1.0 0.0633207063
H  H112  1  0.24420000  0.20430000  0.68510000  1.0 0.0885921952
H  H113  1  0.35930000  0.28370000  0.85650000  1.0 0.0970722512
H  H114  1  0.47760000  0.23910000  0.99040000  1.0 0.1309849649
H  H115  1  0.37450000  0.07400000  0.85550000  1.0 0.0885921952
H  H116  1  0.35230000  0.05930000  0.62450000  1.0 0.0885921952
H  H117  1  0.44760000  0.11850000  0.54660000  1.0 0.1309849649
H  H118  1  0.48500000  0.25130000  0.51220000  1.0 0.1309849649
H  H119  1  0.42720000  0.32500000  0.55580000  1.0 0.1309849649
H  H120  1  0.33190000  0.26580000  0.63370000  1.0 0.0885921952
H  H121  1  0.74580000  0.09940000  0.74970000  1.0 0.108745313
H  H122  1  0.76770000  0.04470000  0.78900000  1.0 0.1309849649
H  H123  1  0.87220000  0.06210000  0.72460000  1.0 0.0633207063
H  H124  1  0.79570000  0.03990000  0.68510000  1.0 0.0885921952
H  H125  1  0.71630000  0.07560000  0.85650000  1.0 0.0970722512
H  H126  1  0.76090000  0.23850000  0.99040000  1.0 0.1309849649
H  H127  1  0.92600000  0.30050000  0.85550000  1.0 0.0885921952
H  H128  1  0.94070000  0.29300000  0.62450000  1.0 0.0885921952
H  H129  1  0.88150000  0.32910000  0.54660000  1.0 0.1368313631
H  H130  1  0.74870000  0.23370000  0.51220000  1.0 0.1309849649
H  H131  1  0.67500000  0.10220000  0.55580000  1.0 0.1309849649
H  H132  1  0.73420000  0.06610000  0.63370000  1.0 0.0885921952
H  H133  1  0.90060000  0.64640000  0.74970000  1.0 0.108745313
H  H134  1  0.95530000  0.72300000  0.78900000  1.0 0.1309849649
H  H135  1  0.93790000  0.81010000  0.72460000  1.0 0.0633207063
H  H136  1  0.96010000  0.75580000  0.68510000  1.0 0.0885921952
H  H137  1  0.92440000  0.64070000  0.85650000  1.0 0.0970722512
H  H138  1  0.76150000  0.52240000  0.99040000  1.0 0.1309849649
H  H139  1  0.69950000  0.62550000  0.85550000  1.0 0.0885921952
H  H140  1  0.70700000  0.64770000  0.62450000  1.0 0.0885921952
H  H141  1  0.67090000  0.55240000  0.54660000  1.0 0.1368313631
H  H142  1  0.76630000  0.51500000  0.51220000  1.0 0.1309849649
H  H143  1  0.89780000  0.57280000  0.55580000  1.0 0.1309849649
H  H144  1  0.93390000  0.66810000  0.63370000  1.0 0.0885921952
C  C1  1  0.90790000  0.20960000  0.73660000  1.0 -0.0435916157
C  C2  1  0.91900000  0.16420000  0.78890000  1.0 -0.0493868648
C  C3  1  0.81510000  0.17530000  0.65220000  1.0 0.0676499106
C  C4  1  0.87160000  0.24910000  0.62540000  1.0 -0.1287087046
C  C5  1  0.85170000  0.27280000  0.57240000  1.0 -0.0616561843
C  C6  1  0.77520000  0.22260000  0.54620000  1.0 -0.1480611867
C  C7  1  0.71870000  0.14880000  0.57300000  1.0 -0.0435916157
C  C8  1  0.73860000  0.12510000  0.62600000  1.0 -0.085480661
C  C9  1  0.90581000  0.35921000  0.54228000  1.0 0.3204534898
C  C10  1  0.63830000  0.08810000  0.54560000  1.0 0.289096887
C  C11  1  0.82370000  0.15710000  0.86375000  1.0 0.0676499106
C  C12  1  0.74600000  0.11360000  0.88950000  1.0 -0.1287087046
C  C13  1  0.72460000  0.14850000  0.93560000  1.0 -0.0616561843
C  C14  1  0.78100000  0.22710000  0.95600000  1.0 -0.1480611867
C  C15  1  0.85880000  0.27070000  0.93020000  1.0 -0.0493868648
C  C16  1  0.88020000  0.23570000  0.88410000  1.0 -0.0744221831
C  C17  1  0.30170000  0.09210000  0.73660000  1.0 -0.0493868648
C  C18  1  0.24520000  0.08100000  0.78890000  1.0 -0.0493868648
C  C19  1  0.36020000  0.18490000  0.65220000  1.0 0.0676499106
C  C20  1  0.37750000  0.12840000  0.62540000  1.0 -0.1287087046
C  C21  1  0.42110000  0.14830000  0.57240000  1.0 -0.0616561843
C  C22  1  0.44740000  0.22480000  0.54620000  1.0 -0.1480611867
C  C23  1  0.43010000  0.28130000  0.57300000  1.0 -0.0435916157
C  C24  1  0.38650000  0.26140000  0.62600000  1.0 -0.085480661
C  C25  1  0.45340000  0.09419000  0.54228000  1.0 0.3204534898
C  C26  1  0.44980000  0.36170000  0.54560000  1.0 0.289096887
C  C27  1  0.33340000  0.17630000  0.86375000  1.0 0.0676499106
C  C28  1  0.36760000  0.25400000  0.88950000  1.0 -0.1287087046
C  C29  1  0.42390000  0.27540000  0.93560000  1.0 -0.0616561843
C  C30  1  0.44610000  0.21900000  0.95600000  1.0 -0.1480611867
C  C31  1  0.41190000  0.14120000  0.93020000  1.0 -0.0493868648
C  C32  1  0.35550000  0.11980000  0.88410000  1.0 -0.0744221831
C  C33  1  0.79040000  0.69830000  0.73660000  1.0 -0.0493868648
C  C34  1  0.83580000  0.75480000  0.78890000  1.0 -0.0493868648
C  C35  1  0.82470000  0.63980000  0.65220000  1.0 0.0676499106
C  C36  1  0.75090000  0.62250000  0.62540000  1.0 -0.1287087046
C  C37  1  0.72720000  0.57890000  0.57240000  1.0 -0.0616561843
C  C38  1  0.77740000  0.55260000  0.54620000  1.0 -0.1480611867
C  C39  1  0.85120000  0.56990000  0.57300000  1.0 -0.0435916157
C  C40  1  0.87490000  0.61350000  0.62600000  1.0 -0.085480661
C  C41  1  0.64079000  0.54660000  0.54228000  1.0 0.3204534898
C  C42  1  0.91190000  0.55020000  0.54560000  1.0 0.289096887
C  C43  1  0.84290000  0.66666667  0.86375000  1.0 0.0676499106
C  C44  1  0.88640000  0.63240000  0.88950000  1.0 -0.1287087046
C  C45  1  0.85150000  0.57610000  0.93560000  1.0 -0.0616561843
C  C46  1  0.77290000  0.55390000  0.95600000  1.0 -0.1480611867
C  C47  1  0.72930000  0.58810000  0.93020000  1.0 -0.0493868648
C  C48  1  0.76430000  0.64450000  0.88410000  1.0 -0.0744221831
C  C49  1  0.09210000  0.79040000  0.23660000  1.0 -0.0493868648
C  C50  1  0.08100000  0.83580000  0.28890000  1.0 -0.0493868648
C  C51  1  0.18490000  0.82470000  0.15220000  1.0 0.0676499106
C  C52  1  0.12840000  0.75090000  0.12540000  1.0 -0.1287087046
C  C53  1  0.14830000  0.72720000  0.07240000  1.0 -0.0616561843
C  C54  1  0.22480000  0.77740000  0.04620000  1.0 -0.1480611867
C  C55  1  0.28130000  0.85120000  0.07300000  1.0 -0.0435916157
C  C56  1  0.26140000  0.87490000  0.12600000  1.0 -0.085480661
C  C57  1  0.09419000  0.64079000  0.04228000  1.0 0.3204534898
C  C58  1  0.36170000  0.91190000  0.04560000  1.0 0.289096887
C  C59  1  0.17630000  0.84290000  0.36375000  1.0 0.0676499106
C  C60  1  0.25400000  0.88640000  0.38950000  1.0 -0.1287087046
C  C61  1  0.27540000  0.85150000  0.43560000  1.0 -0.0616561843
C  C62  1  0.21900000  0.77290000  0.45600000  1.0 -0.1480611867
C  C63  1  0.14120000  0.72930000  0.43020000  1.0 -0.0493868648
C  C64  1  0.11980000  0.76430000  0.38410000  1.0 -0.0786385793
C  C65  1  0.69830000  0.90790000  0.23660000  1.0 -0.0493868648
C  C66  1  0.75480000  0.91900000  0.28890000  1.0 -0.0493868648
C  C67  1  0.63980000  0.81510000  0.15220000  1.0 0.0676499106
C  C68  1  0.62250000  0.87160000  0.12540000  1.0 -0.1287087046
C  C69  1  0.57890000  0.85170000  0.07240000  1.0 -0.0616561843
C  C70  1  0.55260000  0.77520000  0.04620000  1.0 -0.1480611867
C  C71  1  0.56990000  0.71870000  0.07300000  1.0 -0.0435916157
C  C72  1  0.61350000  0.73860000  0.12600000  1.0 -0.0786385793
C  C73  1  0.54660000  0.90581000  0.04228000  1.0 0.3204534898
C  C74  1  0.55020000  0.63830000  0.04560000  1.0 0.289096887
C  C75  1  0.66666667  0.82370000  0.36375000  1.0 0.0676499106
C  C76  1  0.63240000  0.74600000  0.38950000  1.0 -0.1287087046
C  C77  1  0.57610000  0.72460000  0.43560000  1.0 -0.0616561843
C  C78  1  0.55390000  0.78100000  0.45600000  1.0 -0.1480611867
C  C79  1  0.58810000  0.85880000  0.43020000  1.0 -0.0493868648
C  C80  1  0.64450000  0.88020000  0.38410000  1.0 -0.0744221831
C  C81  1  0.20960000  0.30170000  0.23660000  1.0 -0.0493868648
C  C82  1  0.16420000  0.24520000  0.28890000  1.0 -0.0493868648
C  C83  1  0.17530000  0.36020000  0.15220000  1.0 0.0676499106
C  C84  1  0.24910000  0.37750000  0.12540000  1.0 -0.1287087046
C  C85  1  0.27280000  0.42110000  0.07240000  1.0 -0.0616561843
C  C86  1  0.22260000  0.44740000  0.04620000  1.0 -0.1480611867
C  C87  1  0.14880000  0.43010000  0.07300000  1.0 -0.0435916157
C  C88  1  0.12510000  0.38650000  0.12600000  1.0 -0.085480661
C  C89  1  0.35921000  0.45340000  0.04228000  1.0 0.3204534898
C  C90  1  0.08810000  0.44980000  0.04560000  1.0 0.289096887
C  C91  1  0.15710000  0.33340000  0.36375000  1.0 0.0676499106
C  C92  1  0.11360000  0.36760000  0.38950000  1.0 -0.1287087046
C  C93  1  0.14850000  0.42390000  0.43560000  1.0 -0.0616561843
C  C94  1  0.22710000  0.44610000  0.45600000  1.0 -0.1480611867
C  C95  1  0.27070000  0.41190000  0.43020000  1.0 -0.0493868648
C  C96  1  0.23570000  0.35550000  0.38410000  1.0 -0.0744221831
C  C97  1  0.69830000  0.79040000  0.26340000  1.0 -0.0435916157
C  C98  1  0.75480000  0.83580000  0.21110000  1.0 -0.0493868648
C  C99  1  0.63980000  0.82470000  0.34780000  1.0 0.0676499106
C  C100  1  0.62250000  0.75090000  0.37460000  1.0 -0.1287087046
C  C101  1  0.57890000  0.72720000  0.42760000  1.0 -0.0616561843
C  C102  1  0.55260000  0.77740000  0.45380000  1.0 -0.1480611867
C  C103  1  0.56990000  0.85120000  0.42700000  1.0 -0.0435916157
C  C104  1  0.61350000  0.87490000  0.37400000  1.0 -0.085480661
C  C105  1  0.54660000  0.64079000  0.45772000  1.0 0.3204534898
C  C106  1  0.55020000  0.91190000  0.45440000  1.0 0.289096887
C  C107  1  0.66666667  0.84290000  0.13625000  1.0 0.0676499106
C  C108  1  0.63240000  0.88640000  0.11050000  1.0 -0.1287087046
C  C109  1  0.57610000  0.85150000  0.06440000  1.0 -0.0616561843
C  C110  1  0.55390000  0.77290000  0.04400000  1.0 -0.1480611867
C  C111  1  0.58810000  0.72930000  0.06980000  1.0 -0.0493868648
C  C112  1  0.64450000  0.76430000  0.11590000  1.0 -0.0786385793
C  C113  1  0.20960000  0.90790000  0.26340000  1.0 -0.0435916157
C  C114  1  0.16420000  0.91900000  0.21110000  1.0 -0.0493868648
C  C115  1  0.17530000  0.81510000  0.34780000  1.0 0.0676499106
C  C116  1  0.24910000  0.87160000  0.37460000  1.0 -0.1287087046
C  C117  1  0.27280000  0.85170000  0.42760000  1.0 -0.0616561843
C  C118  1  0.22260000  0.77520000  0.45380000  1.0 -0.1480611867
C  C119  1  0.14880000  0.71870000  0.42700000  1.0 -0.0493868648
C  C120  1  0.12510000  0.73860000  0.37400000  1.0 -0.0786385793
C  C121  1  0.35921000  0.90581000  0.45772000  1.0 0.3204534898
C  C122  1  0.08810000  0.63830000  0.45440000  1.0 0.289096887
C  C123  1  0.15710000  0.82370000  0.13625000  1.0 0.0676499106
C  C124  1  0.11360000  0.74600000  0.11050000  1.0 -0.1287087046
C  C125  1  0.14850000  0.72460000  0.06440000  1.0 -0.0616561843
C  C126  1  0.22710000  0.78100000  0.04400000  1.0 -0.1480611867
C  C127  1  0.27070000  0.85880000  0.06980000  1.0 -0.0493868648
C  C128  1  0.23570000  0.88020000  0.11590000  1.0 -0.0786385793
C  C129  1  0.09210000  0.30170000  0.26340000  1.0 -0.0493868648
C  C130  1  0.08100000  0.24520000  0.21110000  1.0 -0.0493868648
C  C131  1  0.18490000  0.36020000  0.34780000  1.0 0.0676499106
C  C132  1  0.12840000  0.37750000  0.37460000  1.0 -0.1287087046
C  C133  1  0.14830000  0.42110000  0.42760000  1.0 -0.0616561843
C  C134  1  0.22480000  0.44740000  0.45380000  1.0 -0.1480611867
C  C135  1  0.28130000  0.43010000  0.42700000  1.0 -0.0435916157
C  C136  1  0.26140000  0.38650000  0.37400000  1.0 -0.085480661
C  C137  1  0.09419000  0.45340000  0.45772000  1.0 0.3204534898
C  C138  1  0.36170000  0.44980000  0.45440000  1.0 0.289096887
C  C139  1  0.17630000  0.33340000  0.13625000  1.0 0.0676499106
C  C140  1  0.25400000  0.36760000  0.11050000  1.0 -0.1287087046
C  C141  1  0.27540000  0.42390000  0.06440000  1.0 -0.0616561843
C  C142  1  0.21900000  0.44610000  0.04400000  1.0 -0.1480611867
C  C143  1  0.14120000  0.41190000  0.06980000  1.0 -0.0493868648
C  C144  1  0.11980000  0.35550000  0.11590000  1.0 -0.0786385793
C  C145  1  0.30170000  0.20960000  0.76340000  1.0 -0.0435916157
C  C146  1  0.24520000  0.16420000  0.71110000  1.0 -0.0493868648
C  C147  1  0.36020000  0.17530000  0.84780000  1.0 0.0676499106
C  C148  1  0.37750000  0.24910000  0.87460000  1.0 -0.1287087046
C  C149  1  0.42110000  0.27280000  0.92760000  1.0 -0.0616561843
C  C150  1  0.44740000  0.22260000  0.95380000  1.0 -0.1480611867
C  C151  1  0.43010000  0.14880000  0.92700000  1.0 -0.0435916157
C  C152  1  0.38650000  0.12510000  0.87400000  1.0 -0.0786385793
C  C153  1  0.45340000  0.35921000  0.95772000  1.0 0.3204534898
C  C154  1  0.44980000  0.08810000  0.95440000  1.0 0.289096887
C  C155  1  0.33340000  0.15710000  0.63625000  1.0 0.0676499106
C  C156  1  0.36760000  0.11360000  0.61050000  1.0 -0.1287087046
C  C157  1  0.42390000  0.14850000  0.56440000  1.0 -0.0616561843
C  C158  1  0.44610000  0.22710000  0.54400000  1.0 -0.1480611867
C  C159  1  0.41190000  0.27070000  0.56980000  1.0 -0.0493868648
C  C160  1  0.35550000  0.23570000  0.61590000  1.0 -0.0786385793
C  C161  1  0.79040000  0.09210000  0.76340000  1.0 -0.0435916157
C  C162  1  0.83580000  0.08100000  0.71110000  1.0 -0.0493868648
C  C163  1  0.82470000  0.18490000  0.84780000  1.0 0.0676499106
C  C164  1  0.75090000  0.12840000  0.87460000  1.0 -0.1287087046
C  C165  1  0.72720000  0.14830000  0.92760000  1.0 -0.0616561843
C  C166  1  0.77740000  0.22480000  0.95380000  1.0 -0.1480611867
C  C167  1  0.85120000  0.28130000  0.92700000  1.0 -0.0435916157
C  C168  1  0.87490000  0.26140000  0.87400000  1.0 -0.085480661
C  C169  1  0.64079000  0.09419000  0.95772000  1.0 0.3204534898
C  C170  1  0.91190000  0.36170000  0.95440000  1.0 0.289096887
C  C171  1  0.84290000  0.17630000  0.63625000  1.0 0.0676499106
C  C172  1  0.88640000  0.25400000  0.61050000  1.0 -0.1287087046
C  C173  1  0.85150000  0.27540000  0.56440000  1.0 -0.0616561843
C  C174  1  0.77290000  0.21900000  0.54400000  1.0 -0.1480611867
C  C175  1  0.72930000  0.14120000  0.56980000  1.0 -0.0493868648
C  C176  1  0.76430000  0.11980000  0.61590000  1.0 -0.0744221831
C  C177  1  0.90790000  0.69830000  0.76340000  1.0 -0.0435916157
C  C178  1  0.91900000  0.75480000  0.71110000  1.0 -0.0493868648
C  C179  1  0.81510000  0.63980000  0.84780000  1.0 0.0676499106
C  C180  1  0.87160000  0.62250000  0.87460000  1.0 -0.1287087046
C  C181  1  0.85170000  0.57890000  0.92760000  1.0 -0.0616561843
C  C182  1  0.77520000  0.55260000  0.95380000  1.0 -0.1480611867
C  C183  1  0.71870000  0.56990000  0.92700000  1.0 -0.0435916157
C  C184  1  0.73860000  0.61350000  0.87400000  1.0 -0.085480661
C  C185  1  0.90581000  0.54660000  0.95772000  1.0 0.3204534898
C  C186  1  0.63830000  0.55020000  0.95440000  1.0 0.289096887
C  C187  1  0.82370000  0.66666667  0.63625000  1.0 0.0676499106
C  C188  1  0.74600000  0.63240000  0.61050000  1.0 -0.1287087046
C  C189  1  0.72460000  0.57610000  0.56440000  1.0 -0.0616561843
C  C190  1  0.78100000  0.55390000  0.54400000  1.0 -0.1480611867
C  C191  1  0.85880000  0.58810000  0.56980000  1.0 -0.0493868648
C  C192  1  0.88020000  0.64450000  0.61590000  1.0 -0.0744221831
O  O1  1  0.89040000  0.37240000  0.49277000  1.0 -0.4102231164
O  O2  1  0.96700000  0.40900000  0.57345000  1.0 -0.4779857672
O  O3  1  0.62871000  0.11119000  0.49236000  1.0 -0.5273729264
O  O4  1  0.58960000  0.03051000  0.57536000  1.0 -0.4102231164
O  O5  1  0.83630000  0.15340000  0.70380000  1.0 0.0779161957
O  O6  1  0.84320000  0.12100000  0.81870000  1.0 0.0140764016
O  O7  1  0.48200000  0.10960000  0.49277000  1.0 -0.4102231164
O  O8  1  0.44200000  0.03300000  0.57345000  1.0 -0.4779857672
O  O9  1  0.48248000  0.37129000  0.49236000  1.0 -0.5273729264
O  O10  1  0.44091000  0.41040000  0.57536000  1.0 -0.4102231164
O  O11  1  0.31710000  0.16370000  0.70380000  1.0 0.0779161957
O  O12  1  0.27780000  0.15680000  0.81870000  1.0 0.0140764016
O  O13  1  0.62760000  0.51800000  0.49277000  1.0 -0.4102231164
O  O14  1  0.59100000  0.55800000  0.57345000  1.0 -0.4779857672
O  O15  1  0.88881000  0.51752000  0.49236000  1.0 -0.5273729264
O  O16  1  0.96949000  0.55909000  0.57536000  1.0 -0.4102231164
O  O17  1  0.84660000  0.68290000  0.70380000  1.0 0.0779161957
O  O18  1  0.87900000  0.72220000  0.81870000  1.0 0.0168602684
O  O19  1  0.10960000  0.62760000  0.99277000  1.0 -0.4102231164
O  O20  1  0.03300000  0.59100000  0.07345000  1.0 -0.4779857672
O  O21  1  0.37129000  0.88881000  0.99236000  1.0 -0.5273729264
O  O22  1  0.41040000  0.96949000  0.07536000  1.0 -0.4102231164
O  O23  1  0.16370000  0.84660000  0.20380000  1.0 0.0779161957
O  O24  1  0.15680000  0.87900000  0.31870000  1.0 0.0140764016
O  O25  1  0.51800000  0.89040000  0.99277000  1.0 -0.4102231164
O  O26  1  0.55800000  0.96700000  0.07345000  1.0 -0.4779857672
O  O27  1  0.51752000  0.62871000  0.99236000  1.0 -0.5273729264
O  O28  1  0.55909000  0.58960000  0.07536000  1.0 -0.4102231164
O  O29  1  0.68290000  0.83630000  0.20380000  1.0 0.0779161957
O  O30  1  0.72220000  0.84320000  0.31870000  1.0 0.0168602684
O  O31  1  0.37240000  0.48200000  0.99277000  1.0 -0.4102231164
O  O32  1  0.40900000  0.44200000  0.07345000  1.0 -0.4779857672
O  O33  1  0.11119000  0.48248000  0.99236000  1.0 -0.5273729264
O  O34  1  0.03051000  0.44091000  0.07536000  1.0 -0.4102231164
O  O35  1  0.15340000  0.31710000  0.20380000  1.0 0.0779161957
O  O36  1  0.12100000  0.27780000  0.31870000  1.0 0.0140764016
O  O37  1  0.51800000  0.62760000  0.50723000  1.0 -0.4102231164
O  O38  1  0.55800000  0.59100000  0.42655000  1.0 -0.4779857672
O  O39  1  0.51752000  0.88881000  0.50764000  1.0 -0.5273729264
O  O40  1  0.55909000  0.96949000  0.42464000  1.0 -0.4102231164
O  O41  1  0.68290000  0.84660000  0.29620000  1.0 0.0779161957
O  O42  1  0.72220000  0.87900000  0.18130000  1.0 0.0168602684
O  O43  1  0.37240000  0.89040000  0.50723000  1.0 -0.4102231164
O  O44  1  0.40900000  0.96700000  0.42655000  1.0 -0.4779857672
O  O45  1  0.11119000  0.62871000  0.50764000  1.0 -0.5273729264
O  O46  1  0.03051000  0.58960000  0.42464000  1.0 -0.4102231164
O  O47  1  0.15340000  0.83630000  0.29620000  1.0 0.0779161957
O  O48  1  0.12100000  0.84320000  0.18130000  1.0 0.0168602684
O  O49  1  0.10960000  0.48200000  0.50723000  1.0 -0.4102231164
O  O50  1  0.03300000  0.44200000  0.42655000  1.0 -0.4779857672
O  O51  1  0.37129000  0.48248000  0.50764000  1.0 -0.5273729264
O  O52  1  0.41040000  0.44091000  0.42464000  1.0 -0.4102231164
O  O53  1  0.16370000  0.31710000  0.29620000  1.0 0.0779161957
O  O54  1  0.15680000  0.27780000  0.18130000  1.0 0.0140764016
O  O55  1  0.48200000  0.37240000  0.00723000  1.0 -0.4102231164
O  O56  1  0.44200000  0.40900000  0.92655000  1.0 -0.4779857672
O  O57  1  0.48248000  0.11119000  0.00764000  1.0 -0.5273729264
O  O58  1  0.44091000  0.03051000  0.92464000  1.0 -0.4102231164
O  O59  1  0.31710000  0.15340000  0.79620000  1.0 0.0779161957
O  O60  1  0.27780000  0.12100000  0.68130000  1.0 0.0140764016
O  O61  1  0.62760000  0.10960000  0.00723000  1.0 -0.4102231164
O  O62  1  0.59100000  0.03300000  0.92655000  1.0 -0.4748104761
O  O63  1  0.88881000  0.37129000  0.00764000  1.0 -0.5273729264
O  O64  1  0.96949000  0.41040000  0.92464000  1.0 -0.4102231164
O  O65  1  0.84660000  0.16370000  0.79620000  1.0 0.0779161957
O  O66  1  0.87900000  0.15680000  0.68130000  1.0 0.0140764016
O  O67  1  0.89040000  0.51800000  0.00723000  1.0 -0.4102231164
O  O68  1  0.96700000  0.55800000  0.92655000  1.0 -0.4779857672
O  O69  1  0.62871000  0.51752000  0.00764000  1.0 -0.5273729264
O  O70  1  0.58960000  0.55909000  0.92464000  1.0 -0.4102231164
O  O71  1  0.83630000  0.68290000  0.79620000  1.0 0.0779161957
O  O72  1  0.84320000  0.72220000  0.68130000  1.0 0.0168602684
