# DDEC6 charges by PACMAN v1.1 (https://github.com/mtap-research/PACMAN-charge/)
data_OTENEH_FSR_pacman
_symmetry_space_group_name_H-M   'P 1'
_cell_length_a   17.03000000
_cell_length_b   21.12100000
_cell_length_c   17.08600000
_cell_angle_alpha   90.00000000
_cell_angle_beta   99.15800000
_cell_angle_gamma   90.00000000
_symmetry_Int_Tables_number   1
_chemical_formula_structural   Pr4H28C20(N6O5)5
_chemical_formula_sum   'Pr16 H112 C80 N120 O100'
_cell_volume   6067.33641861
_cell_formula_units_Z   4
loop_
 _symmetry_equiv_pos_site_id
 _symmetry_equiv_pos_as_xyz
  1  'x, y, z'
loop_
 _atom_site_type_symbol
 _atom_site_label
 _atom_site_symmetry_multiplicity
 _atom_site_fract_x
 _atom_site_fract_y
 _atom_site_fract_z
 _atom_site_occupancy
 _atom_site_charge
Pr  Pr1  1  0.53776000  0.45169000  0.72955000  1.0 2.0022283948
Pr  Pr2  1  0.96224000  0.95169000  0.27045000  1.0 2.0022283948
Pr  Pr3  1  0.46224000  0.54831000  0.27045000  1.0 2.0022283948
Pr  Pr4  1  0.03776000  0.04831000  0.72955000  1.0 2.0022283948
Pr  Pr5  1  0.87053000  0.58325000  0.74901000  1.0 2.0197123445
Pr  Pr6  1  0.62947000  0.08325000  0.25099000  1.0 2.0197123445
Pr  Pr7  1  0.12947000  0.41675000  0.25099000  1.0 2.0197123445
Pr  Pr8  1  0.37053000  0.91675000  0.74901000  1.0 2.0197123445
Pr  Pr9  1  0.48266000  0.64381000  0.63931000  1.0 1.9323132789
Pr  Pr10  1  0.01734000  0.14381000  0.36069000  1.0 1.9323132789
Pr  Pr11  1  0.51734000  0.35619000  0.36069000  1.0 1.9323132789
Pr  Pr12  1  0.98266000  0.85619000  0.63931000  1.0 1.9323132789
Pr  Pr13  1  0.56229000  0.15873000  0.87287000  1.0 1.9484588659
Pr  Pr14  1  0.93771000  0.65873000  0.12713000  1.0 1.9484588659
Pr  Pr15  1  0.43771000  0.84127000  0.12713000  1.0 1.9484588659
Pr  Pr16  1  0.06229000  0.34127000  0.87287000  1.0 1.9484588659
H  H1  1  0.68500000  0.61980000  0.47000000  1.0 0.1396758533
H  H2  1  0.81500000  0.11980000  0.53000000  1.0 0.1396758533
H  H3  1  0.31500000  0.38020000  0.53000000  1.0 0.1396758533
H  H4  1  0.18500000  0.88020000  0.47000000  1.0 0.1396758533
H  H5  1  0.78950000  0.68500000  0.52330000  1.0 0.1116318523
H  H6  1  0.71050000  0.18500000  0.47670000  1.0 0.1116318523
H  H7  1  0.21050000  0.31500000  0.47670000  1.0 0.1116318523
H  H8  1  0.28950000  0.81500000  0.52330000  1.0 0.1116318523
H  H9  1  0.80430000  0.78370000  0.46780000  1.0 0.1116318523
H  H10  1  0.69570000  0.28370000  0.53220000  1.0 0.1116318523
H  H11  1  0.19570000  0.21630000  0.53220000  1.0 0.1116318523
H  H12  1  0.30430000  0.71630000  0.46780000  1.0 0.1116318523
H  H13  1  0.71450000  0.81720000  0.35910000  1.0 0.1116318523
H  H14  1  0.78550000  0.31720000  0.64090000  1.0 0.1116318523
H  H15  1  0.28550000  0.18280000  0.64090000  1.0 0.1116318523
H  H16  1  0.21450000  0.68280000  0.35910000  1.0 0.1116318523
H  H17  1  0.61000000  0.75190000  0.30580000  1.0 0.1181500859
H  H18  1  0.89000000  0.25190000  0.69420000  1.0 0.1181500859
H  H19  1  0.39000000  0.24810000  0.69420000  1.0 0.1181500859
H  H20  1  0.11000000  0.74810000  0.30580000  1.0 0.1181500859
H  H21  1  0.59520000  0.65320000  0.36130000  1.0 0.0954466468
H  H22  1  0.90480000  0.15320000  0.63870000  1.0 0.0954466468
H  H23  1  0.40480000  0.34680000  0.63870000  1.0 0.0954466468
H  H24  1  0.09520000  0.84680000  0.36130000  1.0 0.0954466468
H  H25  1  0.90670000  0.71662000  0.81690000  1.0 0.360240525
H  H26  1  0.59330000  0.21662000  0.18310000  1.0 0.360240525
H  H27  1  0.09330000  0.28338000  0.18310000  1.0 0.360240525
H  H28  1  0.40670000  0.78338000  0.81690000  1.0 0.360240525
H  H29  1  0.97633000  0.68660000  0.82150000  1.0 0.360240525
H  H30  1  0.52367000  0.18660000  0.17850000  1.0 0.360240525
H  H31  1  0.02367000  0.31340000  0.17850000  1.0 0.360240525
H  H32  1  0.47633000  0.81340000  0.82150000  1.0 0.360240525
H  H33  1  0.79760000  0.53990000  0.58170000  1.0 0.3526440083
H  H34  1  0.70240000  0.03990000  0.41830000  1.0 0.3526440083
H  H35  1  0.20240000  0.46010000  0.41830000  1.0 0.3526440083
H  H36  1  0.29760000  0.96010000  0.58170000  1.0 0.3526440083
H  H37  1  0.85350000  0.49553000  0.60130000  1.0 0.360240525
H  H38  1  0.64650000  0.99553000  0.39870000  1.0 0.360240525
H  H39  1  0.14650000  0.50447000  0.39870000  1.0 0.360240525
H  H40  1  0.35350000  0.00447000  0.60130000  1.0 0.360240525
H  H41  1  0.32890000  0.70788000  0.66060000  1.0 0.3397485893
H  H42  1  0.17110000  0.20788000  0.33940000  1.0 0.3397485893
H  H43  1  0.67110000  0.29212000  0.33940000  1.0 0.3397485893
H  H44  1  0.82890000  0.79212000  0.66060000  1.0 0.3397485893
H  H45  1  0.31270000  0.64597000  0.65550000  1.0 0.3699579295
H  H46  1  0.18730000  0.14597000  0.34450000  1.0 0.3699579295
H  H47  1  0.68730000  0.35403000  0.34450000  1.0 0.3699579295
H  H48  1  0.81270000  0.85403000  0.65550000  1.0 0.3699579295
H  H49  1  0.50710000  0.13540000  0.69440000  1.0 0.3526440083
H  H50  1  0.99290000  0.63540000  0.30560000  1.0 0.360240525
H  H51  1  0.49290000  0.86460000  0.30560000  1.0 0.360240525
H  H52  1  0.00710000  0.36460000  0.69440000  1.0 0.3526440083
H  H53  1  0.56270000  0.17990000  0.69420000  1.0 0.3397485893
H  H54  1  0.93730000  0.67990000  0.30580000  1.0 0.3397485893
H  H55  1  0.43730000  0.82010000  0.30580000  1.0 0.3397485893
H  H56  1  0.06270000  0.32010000  0.69420000  1.0 0.3397485893
H  H57  1  0.55510000  0.64870000  0.81500000  1.0 0.3526440083
H  H58  1  0.94490000  0.14870000  0.18500000  1.0 0.3526440083
H  H59  1  0.44490000  0.35130000  0.18500000  1.0 0.3526440083
H  H60  1  0.05510000  0.85130000  0.81500000  1.0 0.3526440083
H  H61  1  0.47790000  0.66170000  0.81610000  1.0 0.3248466707
H  H62  1  0.02210000  0.16170000  0.18390000  1.0 0.3300955583
H  H63  1  0.52210000  0.33830000  0.18390000  1.0 0.3248466707
H  H64  1  0.97790000  0.83830000  0.81610000  1.0 0.3248466707
H  H65  1  0.51280000  0.54795000  0.85920000  1.0 0.360240525
H  H66  1  0.98720000  0.04795000  0.14080000  1.0 0.360240525
H  H67  1  0.48720000  0.45205000  0.14080000  1.0 0.360240525
H  H68  1  0.01280000  0.95205000  0.85920000  1.0 0.360240525
H  H69  1  0.57690000  0.51440000  0.89130000  1.0 0.3699579295
H  H70  1  0.92310000  0.01440000  0.10870000  1.0 0.3699579295
H  H71  1  0.42310000  0.48560000  0.10870000  1.0 0.3699579295
H  H72  1  0.07690000  0.98560000  0.89130000  1.0 0.3699579295
H  H73  1  0.70770000  0.46694000  0.77250000  1.0 0.3780052271
H  H74  1  0.79230000  0.96694000  0.22750000  1.0 0.3780052271
H  H75  1  0.29230000  0.53306000  0.22750000  1.0 0.3780052271
H  H76  1  0.20770000  0.03306000  0.77250000  1.0 0.3780052271
H  H77  1  0.70500000  0.40839000  0.80230000  1.0 0.3397485893
H  H78  1  0.79500000  0.90839000  0.19770000  1.0 0.3397485893
H  H79  1  0.29500000  0.59161000  0.19770000  1.0 0.3397485893
H  H80  1  0.20500000  0.09161000  0.80230000  1.0 0.3397485893
H  H81  1  0.50760000  0.32040000  0.65890000  1.0 0.3300955583
H  H82  1  0.99240000  0.82040000  0.34110000  1.0 0.3300955583
H  H83  1  0.49240000  0.67960000  0.34110000  1.0 0.3300955583
H  H84  1  0.00760000  0.17960000  0.65890000  1.0 0.3300955583
H  H85  1  0.57960000  0.31400000  0.70460000  1.0 0.3780052271
H  H86  1  0.92040000  0.81400000  0.29540000  1.0 0.3780052271
H  H87  1  0.42040000  0.68600000  0.29540000  1.0 0.3780052271
H  H88  1  0.07960000  0.18600000  0.70460000  1.0 0.3780052271
H  H89  1  0.61560000  0.02260000  0.88810000  1.0 0.3300955583
H  H90  1  0.88440000  0.52260000  0.11190000  1.0 0.3300955583
H  H91  1  0.38440000  0.97740000  0.11190000  1.0 0.3300955583
H  H92  1  0.11560000  0.47740000  0.88810000  1.0 0.3300955583
H  H93  1  0.65730000  0.03620000  0.82980000  1.0 0.360240525
H  H94  1  0.84270000  0.53620000  0.17020000  1.0 0.360240525
H  H95  1  0.34270000  0.96380000  0.17020000  1.0 0.360240525
H  H96  1  0.15730000  0.46380000  0.82980000  1.0 0.360240525
H  H97  1  0.02230000  0.52610000  0.68940000  1.0 0.360240525
H  H98  1  0.47770000  0.02610000  0.31060000  1.0 0.360240525
H  H99  1  0.97770000  0.47390000  0.31060000  1.0 0.360240525
H  H100  1  0.52230000  0.97390000  0.68940000  1.0 0.360240525
H  H101  1  0.00790000  0.49911000  0.75700000  1.0 0.3699579295
H  H102  1  0.49210000  0.99911000  0.24300000  1.0 0.3699579295
H  H103  1  0.99210000  0.50089000  0.24300000  1.0 0.3699579295
H  H104  1  0.50790000  0.00089000  0.75700000  1.0 0.3699579295
H  H105  1  0.73310000  0.19820000  0.86970000  1.0 0.3526440083
H  H106  1  0.76690000  0.69820000  0.13030000  1.0 0.360240525
H  H107  1  0.26690000  0.80180000  0.13030000  1.0 0.360240525
H  H108  1  0.23310000  0.30180000  0.86970000  1.0 0.3526440083
H  H109  1  0.69420000  0.20800000  0.79670000  1.0 0.3526440083
H  H110  1  0.80580000  0.70800000  0.20330000  1.0 0.3526440083
H  H111  1  0.30580000  0.79200000  0.20330000  1.0 0.3526440083
H  H112  1  0.19420000  0.29200000  0.79670000  1.0 0.3526440083
C  C1  1  0.69089000  0.65932000  0.44775000  1.0 -0.1091983042
C  C2  1  0.80911000  0.15932000  0.55225000  1.0 -0.1091983042
C  C3  1  0.30911000  0.34068000  0.55225000  1.0 -0.1091983042
C  C4  1  0.19089000  0.84068000  0.44775000  1.0 -0.1091983042
C  C5  1  0.75352000  0.69843000  0.47967000  1.0 -0.0710218552
C  C6  1  0.74648000  0.19843000  0.52033000  1.0 -0.0710218552
C  C7  1  0.24648000  0.30157000  0.52033000  1.0 -0.0710218552
C  C8  1  0.25352000  0.80157000  0.47967000  1.0 -0.0710218552
C  C9  1  0.76237000  0.75757000  0.44646000  1.0 -0.0607487478
C  C10  1  0.73763000  0.25757000  0.55354000  1.0 -0.0607487478
C  C11  1  0.23763000  0.24243000  0.55354000  1.0 -0.0607487478
C  C12  1  0.26237000  0.74243000  0.44646000  1.0 -0.0607487478
C  C13  1  0.70858000  0.77760000  0.38133000  1.0 -0.0710218552
C  C14  1  0.79142000  0.27760000  0.61867000  1.0 -0.0710218552
C  C15  1  0.29142000  0.22240000  0.61867000  1.0 -0.0710218552
C  C16  1  0.20858000  0.72240000  0.38133000  1.0 -0.0710218552
C  C17  1  0.64595000  0.73850000  0.34940000  1.0 -0.0710218552
C  C18  1  0.85405000  0.23850000  0.65060000  1.0 -0.0710218552
C  C19  1  0.35405000  0.26150000  0.65060000  1.0 -0.0710218552
C  C20  1  0.14595000  0.76150000  0.34940000  1.0 -0.0710218552
C  C21  1  0.63711000  0.67936000  0.38261000  1.0 -0.1091983042
C  C22  1  0.86289000  0.17936000  0.61739000  1.0 -0.1091983042
C  C23  1  0.36289000  0.32064000  0.61739000  1.0 -0.1091983042
C  C24  1  0.13711000  0.82064000  0.38261000  1.0 -0.1091983042
C  C25  1  0.34200000  0.46870000  0.72930000  1.0 0.1289908371
C  C26  1  0.15800000  0.96870000  0.27070000  1.0 0.1289908371
C  C27  1  0.65800000  0.53130000  0.27070000  1.0 0.1289908371
C  C28  1  0.84200000  0.03130000  0.72930000  1.0 0.1289908371
C  C29  1  0.35800000  0.52952000  0.69620000  1.0 0.5795165654
C  C30  1  0.14200000  0.02952000  0.30380000  1.0 0.5795165654
C  C31  1  0.64200000  0.47048000  0.30380000  1.0 0.5795165654
C  C32  1  0.85800000  0.97048000  0.69620000  1.0 0.5795165654
C  C33  1  0.54650000  0.30691000  0.95419000  1.0 0.1658588021
C  C34  1  0.95350000  0.80691000  0.04581000  1.0 0.1658588021
C  C35  1  0.45350000  0.69309000  0.04581000  1.0 0.1658588021
C  C36  1  0.04650000  0.19309000  0.95419000  1.0 0.1658588021
C  C37  1  0.54880000  0.32256000  0.87041000  1.0 0.609307096
C  C38  1  0.95120000  0.82256000  0.12959000  1.0 0.609307096
C  C39  1  0.45120000  0.67744000  0.12959000  1.0 0.609307096
C  C40  1  0.04880000  0.17744000  0.87041000  1.0 0.609307096
C  C41  1  0.57111000  0.42553000  0.53958000  1.0 0.1871741755
C  C42  1  0.92889000  0.92553000  0.46042000  1.0 0.1871741755
C  C43  1  0.42889000  0.57447000  0.46042000  1.0 0.1871741755
C  C44  1  0.07111000  0.07447000  0.53958000  1.0 0.1871741755
C  C45  1  0.48467000  0.42040000  0.53381000  1.0 0.3780052271
C  C46  1  0.01533000  0.92040000  0.46619000  1.0 0.3780052271
C  C47  1  0.51533000  0.57960000  0.46619000  1.0 0.3780052271
C  C48  1  0.98467000  0.07960000  0.53381000  1.0 0.3780052271
C  C49  1  0.95110000  0.71418000  0.54411000  1.0 0.1396758533
C  C50  1  0.54890000  0.21418000  0.45589000  1.0 0.1396758533
C  C51  1  0.04890000  0.28582000  0.45589000  1.0 0.1396758533
C  C52  1  0.45110000  0.78582000  0.54411000  1.0 0.1396758533
C  C53  1  0.95066000  0.69601000  0.62784000  1.0 0.5907760418
C  C54  1  0.54934000  0.19601000  0.37216000  1.0 0.5907760418
C  C55  1  0.04934000  0.30399000  0.37216000  1.0 0.5907760418
C  C56  1  0.45066000  0.80399000  0.62784000  1.0 0.5907760418
C  C57  1  0.68284000  0.64550000  0.68433000  1.0 0.1396758533
C  C58  1  0.81716000  0.14550000  0.31567000  1.0 0.1396758533
C  C59  1  0.31716000  0.35450000  0.31567000  1.0 0.1289908371
C  C60  1  0.18284000  0.85450000  0.68433000  1.0 0.1396758533
C  C61  1  0.66687000  0.57998000  0.70803000  1.0 0.5907760418
C  C62  1  0.83313000  0.07998000  0.29197000  1.0 0.5907760418
C  C63  1  0.33313000  0.42002000  0.29197000  1.0 0.5907760418
C  C64  1  0.16687000  0.92002000  0.70803000  1.0 0.5907760418
C  C65  1  0.93452000  0.59264000  0.94620000  1.0 0.1181500859
C  C66  1  0.56548000  0.09264000  0.05380000  1.0 0.1181500859
C  C67  1  0.06548000  0.40736000  0.05380000  1.0 0.1181500859
C  C68  1  0.43452000  0.90736000  0.94620000  1.0 0.1181500859
C  C69  1  0.85357000  0.61706000  0.93878000  1.0 0.5795165654
C  C70  1  0.64643000  0.11706000  0.06122000  1.0 0.5795165654
C  C71  1  0.14643000  0.38294000  0.06122000  1.0 0.5795165654
C  C72  1  0.35357000  0.88294000  0.93878000  1.0 0.5795165654
C  C73  1  0.86270000  0.36568000  0.83560000  1.0 0.1396758533
C  C74  1  0.63730000  0.86568000  0.16440000  1.0 0.1396758533
C  C75  1  0.13730000  0.63432000  0.16440000  1.0 0.1396758533
C  C76  1  0.36270000  0.13432000  0.83560000  1.0 0.1396758533
C  C77  1  0.89444000  0.42682000  0.81066000  1.0 0.5795165654
C  C78  1  0.60556000  0.92682000  0.18934000  1.0 0.5795165654
C  C79  1  0.10556000  0.57318000  0.18934000  1.0 0.5795165654
C  C80  1  0.39444000  0.07318000  0.81066000  1.0 0.5795165654
N  N1  1  0.39833000  0.42741000  0.75601000  1.0 -0.3663555824
N  N2  1  0.10167000  0.92741000  0.24399000  1.0 -0.3663555824
N  N3  1  0.60167000  0.57259000  0.24399000  1.0 -0.3663555824
N  N4  1  0.89833000  0.07259000  0.75601000  1.0 -0.3663555824
N  N5  1  0.36230000  0.37726000  0.78480000  1.0 -0.0502016389
N  N6  1  0.13770000  0.87726000  0.21520000  1.0 -0.0502016389
N  N7  1  0.63770000  0.62274000  0.21520000  1.0 -0.0502016389
N  N8  1  0.86230000  0.12274000  0.78480000  1.0 -0.0502016389
N  N9  1  0.28570000  0.39100000  0.77550000  1.0 -0.0430111457
N  N10  1  0.21430000  0.89100000  0.22450000  1.0 -0.0430111457
N  N11  1  0.71430000  0.60900000  0.22450000  1.0 -0.0430111457
N  N12  1  0.78570000  0.10900000  0.77550000  1.0 -0.0430111457
N  N13  1  0.26980000  0.44630000  0.73630000  1.0 -0.2300616198
N  N14  1  0.23020000  0.94630000  0.26370000  1.0 -0.2300616198
N  N15  1  0.73020000  0.55370000  0.26370000  1.0 -0.2300616198
N  N16  1  0.76980000  0.05370000  0.73630000  1.0 -0.2300616198
N  N17  1  0.54140000  0.34778000  0.01240000  1.0 -0.2392521867
N  N18  1  0.95860000  0.84778000  0.98760000  1.0 -0.2392521867
N  N19  1  0.45860000  0.65222000  0.98760000  1.0 -0.2392521867
N  N20  1  0.04140000  0.15222000  0.01240000  1.0 -0.2392521867
N  N21  1  0.54270000  0.30940000  0.07750000  1.0 -0.0710218552
N  N22  1  0.95730000  0.80940000  0.92250000  1.0 -0.0710218552
N  N23  1  0.45730000  0.69060000  0.92250000  1.0 -0.0710218552
N  N24  1  0.04270000  0.19060000  0.07750000  1.0 -0.0710218552
N  N25  1  0.54740000  0.25024000  0.05596000  1.0 -0.0189120243
N  N26  1  0.95260000  0.75024000  0.94404000  1.0 -0.0189120243
N  N27  1  0.45260000  0.74976000  0.94404000  1.0 -0.0189120243
N  N28  1  0.04740000  0.24976000  0.05596000  1.0 -0.0189120243
N  N29  1  0.54974000  0.24754000  0.97824000  1.0 -0.3377082366
N  N30  1  0.95026000  0.74754000  0.02176000  1.0 -0.3377082366
N  N31  1  0.45026000  0.75246000  0.02176000  1.0 -0.3377082366
N  N32  1  0.04974000  0.25246000  0.97824000  1.0 -0.3377082366
N  N33  1  0.60795000  0.40877000  0.48167000  1.0 -0.3891815586
N  N34  1  0.89205000  0.90877000  0.51833000  1.0 -0.3891815586
N  N35  1  0.39205000  0.59123000  0.51833000  1.0 -0.3891815586
N  N36  1  0.10795000  0.09123000  0.48167000  1.0 -0.3891815586
N  N37  1  0.68980000  0.42140000  0.51260000  1.0 -0.0430111457
N  N38  1  0.81020000  0.92140000  0.48740000  1.0 -0.0430111457
N  N39  1  0.31020000  0.57860000  0.48740000  1.0 -0.0430111457
N  N40  1  0.18980000  0.07860000  0.51260000  1.0 -0.0430111457
N  N41  1  0.69500000  0.44310000  0.58390000  1.0 -0.0607487478
N  N42  1  0.80500000  0.94310000  0.41610000  1.0 -0.0607487478
N  N43  1  0.30500000  0.55690000  0.41610000  1.0 -0.0607487478
N  N44  1  0.19500000  0.05690000  0.58390000  1.0 -0.0607487478
N  N45  1  0.61423000  0.44525000  0.60480000  1.0 -0.3891815586
N  N46  1  0.88577000  0.94525000  0.39520000  1.0 -0.3960234665
N  N47  1  0.38577000  0.55475000  0.39520000  1.0 -0.3960234665
N  N48  1  0.11423000  0.05475000  0.60480000  1.0 -0.3891815586
N  N49  1  0.96520000  0.77241000  0.52379000  1.0 -0.3377082366
N  N50  1  0.53480000  0.27241000  0.47621000  1.0 -0.3377082366
N  N51  1  0.03480000  0.22759000  0.47621000  1.0 -0.3377082366
N  N52  1  0.46520000  0.72759000  0.52379000  1.0 -0.3377082366
N  N53  1  0.95900000  0.77163000  0.44486000  1.0 -0.0430111457
N  N54  1  0.54100000  0.27163000  0.55514000  1.0 -0.0430111457
N  N55  1  0.04100000  0.22837000  0.55514000  1.0 -0.0430111457
N  N56  1  0.45900000  0.72837000  0.44486000  1.0 -0.0430111457
N  N57  1  0.93810000  0.71476000  0.41770000  1.0 -0.0607487478
N  N58  1  0.56190000  0.21476000  0.58230000  1.0 -0.0607487478
N  N59  1  0.06190000  0.28524000  0.58230000  1.0 -0.0607487478
N  N60  1  0.43810000  0.78524000  0.41770000  1.0 -0.0607487478
N  N61  1  0.93450000  0.67583000  0.48000000  1.0 -0.2300616198
N  N62  1  0.56550000  0.17583000  0.52000000  1.0 -0.2300616198
N  N63  1  0.06550000  0.32417000  0.52000000  1.0 -0.2300616198
N  N64  1  0.43450000  0.82417000  0.48000000  1.0 -0.2300616198
N  N65  1  0.62903000  0.68948000  0.65717000  1.0 -0.3333015584
N  N66  1  0.87097000  0.18948000  0.34283000  1.0 -0.3333015584
N  N67  1  0.37097000  0.31052000  0.34283000  1.0 -0.3333015584
N  N68  1  0.12903000  0.81052000  0.65717000  1.0 -0.3333015584
N  N69  1  0.67153000  0.74008000  0.64371000  1.0 -0.0296506913
N  N70  1  0.82847000  0.24008000  0.35629000  1.0 -0.0296506913
N  N71  1  0.32847000  0.25992000  0.35629000  1.0 -0.0296506913
N  N72  1  0.17153000  0.75992000  0.64371000  1.0 -0.0296506913
N  N73  1  0.74679000  0.72805000  0.66432000  1.0 -0.0136043293
N  N74  1  0.75321000  0.22805000  0.33568000  1.0 -0.0136043293
N  N75  1  0.25321000  0.27195000  0.33568000  1.0 -0.0189120243
N  N76  1  0.24679000  0.77195000  0.66432000  1.0 -0.0136043293
N  N77  1  0.75593000  0.66734000  0.69072000  1.0 -0.3377082366
N  N78  1  0.74407000  0.16734000  0.30928000  1.0 -0.3377082366
N  N79  1  0.24407000  0.33266000  0.30928000  1.0 -0.3377082366
N  N80  1  0.25593000  0.83266000  0.69072000  1.0 -0.3377082366
N  N81  1  0.96393000  0.56449000  0.88618000  1.0 -0.3499278346
N  N82  1  0.53607000  0.06449000  0.11382000  1.0 -0.3499278346
N  N83  1  0.03607000  0.43551000  0.11382000  1.0 -0.3499278346
N  N84  1  0.46393000  0.93551000  0.88618000  1.0 -0.3499278346
N  N85  1  0.04034000  0.54964000  0.91728000  1.0 -0.0189120243
N  N86  1  0.45966000  0.04964000  0.08272000  1.0 -0.0189120243
N  N87  1  0.95966000  0.45036000  0.08272000  1.0 -0.0189120243
N  N88  1  0.54034000  0.95036000  0.91728000  1.0 -0.0189120243
N  N89  1  0.05482000  0.56897000  0.99268000  1.0 -0.0502016389
N  N90  1  0.44518000  0.06897000  0.00732000  1.0 -0.0430111457
N  N91  1  0.94518000  0.43103000  0.00732000  1.0 -0.0430111457
N  N92  1  0.55482000  0.93103000  0.99268000  1.0 -0.0430111457
N  N93  1  0.98891000  0.59625000  0.01177000  1.0 -0.3499278346
N  N94  1  0.51109000  0.09625000  0.98823000  1.0 -0.3499278346
N  N95  1  0.01109000  0.40375000  0.98823000  1.0 -0.3499278346
N  N96  1  0.48891000  0.90375000  0.01177000  1.0 -0.3499278346
N  N97  1  0.91101000  0.31776000  0.86260000  1.0 -0.3499278346
N  N98  1  0.58899000  0.81776000  0.13740000  1.0 -0.3499278346
N  N99  1  0.08899000  0.68224000  0.13740000  1.0 -0.3499278346
N  N100  1  0.41101000  0.18224000  0.86260000  1.0 -0.3499278346
N  N101  1  0.86281000  0.27132000  0.88160000  1.0 -0.0502016389
N  N102  1  0.63719000  0.77132000  0.11840000  1.0 -0.0502016389
N  N103  1  0.13719000  0.72868000  0.11840000  1.0 -0.0502016389
N  N104  1  0.36281000  0.22868000  0.88160000  1.0 -0.0502016389
N  N105  1  0.78880000  0.29224000  0.86580000  1.0 -0.0607487478
N  N106  1  0.71120000  0.79224000  0.13420000  1.0 -0.0607487478
N  N107  1  0.21120000  0.70776000  0.13420000  1.0 -0.0607487478
N  N108  1  0.28880000  0.20776000  0.86580000  1.0 -0.0607487478
N  N109  1  0.78770000  0.35183000  0.83880000  1.0 -0.1835073375
N  N110  1  0.71230000  0.85183000  0.16120000  1.0 -0.1835073375
N  N111  1  0.21230000  0.64817000  0.16120000  1.0 -0.1835073375
N  N112  1  0.28770000  0.14817000  0.83880000  1.0 -0.1835073375
N  N113  1  0.63105000  0.59454000  0.51378000  1.0 -0.0189120243
N  N114  1  0.86895000  0.09454000  0.48622000  1.0 -0.0189120243
N  N115  1  0.36895000  0.40546000  0.48622000  1.0 -0.0189120243
N  N116  1  0.13105000  0.90546000  0.51378000  1.0 -0.0189120243
N  N117  1  0.62742000  0.57617000  0.44067000  1.0 0.0061424828
N  N118  1  0.87258000  0.07617000  0.55933000  1.0 0.0061424828
N  N119  1  0.37258000  0.42383000  0.55933000  1.0 0.0061424828
N  N120  1  0.12742000  0.92383000  0.44067000  1.0 0.0061424828
O  O1  1  0.92789000  0.68382000  0.80035000  1.0 -0.7501887921
O  O2  1  0.57211000  0.18382000  0.19965000  1.0 -0.7501887921
O  O3  1  0.07211000  0.31618000  0.19965000  1.0 -0.7501887921
O  O4  1  0.42789000  0.81618000  0.80035000  1.0 -0.7501887921
O  O5  1  0.43055000  0.54229000  0.69136000  1.0 -0.720112487
O  O6  1  0.06945000  0.04229000  0.30864000  1.0 -0.720112487
O  O7  1  0.56945000  0.45771000  0.30864000  1.0 -0.720112487
O  O8  1  0.93055000  0.95771000  0.69136000  1.0 -0.720112487
O  O9  1  0.83278000  0.52778000  0.61970000  1.0 -0.7384069158
O  O10  1  0.66722000  0.02778000  0.38030000  1.0 -0.7384069158
O  O11  1  0.16722000  0.47222000  0.38030000  1.0 -0.7384069158
O  O12  1  0.33278000  0.97222000  0.61970000  1.0 -0.7384069158
O  O13  1  0.34662000  0.67305000  0.64545000  1.0 -0.7858816751
O  O14  1  0.15338000  0.17305000  0.35455000  1.0 -0.7858816751
O  O15  1  0.65338000  0.32695000  0.35455000  1.0 -0.7858816751
O  O16  1  0.84662000  0.82695000  0.64545000  1.0 -0.7858816751
O  O17  1  0.29870000  0.56387000  0.67090000  1.0 -0.4598172003
O  O18  1  0.20130000  0.06387000  0.32910000  1.0 -0.4598172003
O  O19  1  0.70130000  0.43613000  0.32910000  1.0 -0.4598172003
O  O20  1  0.79870000  0.93613000  0.67090000  1.0 -0.4598172003
O  O21  1  0.53948000  0.15806000  0.72571000  1.0 -0.7384069158
O  O22  1  0.96052000  0.65806000  0.27429000  1.0 -0.7384069158
O  O23  1  0.46052000  0.84194000  0.27429000  1.0 -0.7384069158
O  O24  1  0.03948000  0.34194000  0.72571000  1.0 -0.7384069158
O  O25  1  0.51099000  0.65477000  0.78481000  1.0 -0.7384069158
O  O26  1  0.98901000  0.15477000  0.21519000  1.0 -0.7384069158
O  O27  1  0.48901000  0.34523000  0.21519000  1.0 -0.7384069158
O  O28  1  0.01099000  0.84523000  0.78481000  1.0 -0.7384069158
O  O29  1  0.54158000  0.51682000  0.85027000  1.0 -0.720112487
O  O30  1  0.95842000  0.01682000  0.14973000  1.0 -0.720112487
O  O31  1  0.45842000  0.48318000  0.14973000  1.0 -0.720112487
O  O32  1  0.04158000  0.98318000  0.85027000  1.0 -0.720112487
O  O33  1  0.67553000  0.43976000  0.78621000  1.0 -0.7858816751
O  O34  1  0.82447000  0.93976000  0.21379000  1.0 -0.7858816751
O  O35  1  0.32447000  0.56024000  0.21379000  1.0 -0.7858816751
O  O36  1  0.17553000  0.06024000  0.78621000  1.0 -0.7858816751
O  O37  1  0.54115000  0.33947000  0.69280000  1.0 -0.7691619241
O  O38  1  0.95885000  0.83947000  0.30720000  1.0 -0.7691619241
O  O39  1  0.45885000  0.66053000  0.30720000  1.0 -0.7691619241
O  O40  1  0.04115000  0.16053000  0.69280000  1.0 -0.7691619241
O  O41  1  0.62901000  0.05319000  0.86073000  1.0 -0.7266707861
O  O42  1  0.87099000  0.55319000  0.13927000  1.0 -0.7266707861
O  O43  1  0.37099000  0.94681000  0.13927000  1.0 -0.7266707861
O  O44  1  0.12901000  0.44681000  0.86073000  1.0 -0.7266707861
O  O45  1  0.99550000  0.53061000  0.72686000  1.0 -0.7501887921
O  O46  1  0.50450000  0.03061000  0.27314000  1.0 -0.7501887921
O  O47  1  0.00450000  0.46939000  0.27314000  1.0 -0.7501887921
O  O48  1  0.49550000  0.96939000  0.72686000  1.0 -0.7501887921
O  O49  1  0.69069000  0.18787000  0.83911000  1.0 -0.7501887921
O  O50  1  0.80931000  0.68787000  0.16089000  1.0 -0.7501887921
O  O51  1  0.30931000  0.81213000  0.16089000  1.0 -0.7501887921
O  O52  1  0.19069000  0.31213000  0.83911000  1.0 -0.7501887921
O  O53  1  0.54777000  0.37858000  0.84866000  1.0 -0.5509202623
O  O54  1  0.95223000  0.87858000  0.15134000  1.0 -0.5509202623
O  O55  1  0.45223000  0.62142000  0.15134000  1.0 -0.5509202623
O  O56  1  0.04777000  0.12142000  0.84866000  1.0 -0.5509202623
O  O57  1  0.55389000  0.27363000  0.82622000  1.0 -0.625545516
O  O58  1  0.94611000  0.77363000  0.17378000  1.0 -0.625545516
O  O59  1  0.44611000  0.72637000  0.17378000  1.0 -0.625545516
O  O60  1  0.05389000  0.22637000  0.82622000  1.0 -0.625545516
O  O61  1  0.44475000  0.40199000  0.46756000  1.0 -0.2300616198
O  O62  1  0.05525000  0.90199000  0.53244000  1.0 -0.2300616198
O  O63  1  0.55525000  0.59801000  0.53244000  1.0 -0.2300616198
O  O64  1  0.94475000  0.09801000  0.46756000  1.0 -0.2176524804
O  O65  1  0.45227000  0.43285000  0.59300000  1.0 -0.2176524804
O  O66  1  0.04773000  0.93285000  0.40700000  1.0 -0.2176524804
O  O67  1  0.54773000  0.56715000  0.40700000  1.0 -0.2144183212
O  O68  1  0.95227000  0.06715000  0.59300000  1.0 -0.2176524804
O  O69  1  0.97276000  0.74061000  0.67630000  1.0 -0.5932299786
O  O70  1  0.52724000  0.24061000  0.32370000  1.0 -0.5932299786
O  O71  1  0.02724000  0.25939000  0.32370000  1.0 -0.5932299786
O  O72  1  0.47276000  0.75939000  0.67630000  1.0 -0.5932299786
O  O73  1  0.92715000  0.64349000  0.64421000  1.0 -0.5730905974
O  O74  1  0.57285000  0.14349000  0.35579000  1.0 -0.5730905974
O  O75  1  0.07285000  0.35651000  0.35579000  1.0 -0.5730905974
O  O76  1  0.42715000  0.85651000  0.64421000  1.0 -0.5730905974
O  O77  1  0.59377000  0.56344000  0.70115000  1.0 -0.6910214269
O  O78  1  0.90623000  0.06344000  0.29885000  1.0 -0.6910214269
O  O79  1  0.40623000  0.43656000  0.29885000  1.0 -0.6910214269
O  O80  1  0.09377000  0.93656000  0.70115000  1.0 -0.6910214269
O  O81  1  0.72489000  0.54687000  0.73122000  1.0 -0.5242574059
O  O82  1  0.77511000  0.04687000  0.26878000  1.0 -0.5242574059
O  O83  1  0.27511000  0.45313000  0.26878000  1.0 -0.5242574059
O  O84  1  0.22489000  0.95313000  0.73122000  1.0 -0.5242574059
O  O85  1  0.81046000  0.61244000  0.87243000  1.0 -0.5831238398
O  O86  1  0.68954000  0.11244000  0.12757000  1.0 -0.5831238398
O  O87  1  0.18954000  0.38756000  0.12757000  1.0 -0.5831238398
O  O88  1  0.31046000  0.88756000  0.87243000  1.0 -0.5831238398
O  O89  1  0.83360000  0.64219000  0.00108000  1.0 -0.5831238398
O  O90  1  0.66640000  0.14219000  0.99892000  1.0 -0.5831238398
O  O91  1  0.16640000  0.35781000  0.99892000  1.0 -0.5831238398
O  O92  1  0.33360000  0.85781000  0.00108000  1.0 -0.5831238398
O  O93  1  0.96964000  0.42663000  0.81315000  1.0 -0.6177361452
O  O94  1  0.53036000  0.92663000  0.18685000  1.0 -0.6177361452
O  O95  1  0.03036000  0.57337000  0.18685000  1.0 -0.6177361452
O  O96  1  0.46964000  0.07337000  0.81315000  1.0 -0.6177361452
O  O97  1  0.85000000  0.47111000  0.78832000  1.0 -0.5571551913
O  O98  1  0.65000000  0.97111000  0.21168000  1.0 -0.5571551913
O  O99  1  0.15000000  0.52889000  0.21168000  1.0 -0.5571551913
O  O100  1  0.35000000  0.02889000  0.78832000  1.0 -0.5571551913
