# DDEC6 charges by PACMAN v1.1 (https://github.com/mtap-research/PACMAN-charge/)
data_OTENEH_ASR_pacman
_symmetry_space_group_name_H-M   'P 1'
_cell_length_a   17.03000000
_cell_length_b   21.12100000
_cell_length_c   17.08600000
_cell_angle_alpha   90.00000000
_cell_angle_beta   99.15800000
_cell_angle_gamma   90.00000000
_symmetry_Int_Tables_number   1
_chemical_formula_structural   Pr2H3C10N15O7
_chemical_formula_sum   'Pr16 H24 C80 N120 O56'
_cell_volume   6067.33641861
_cell_formula_units_Z   8
loop_
 _symmetry_equiv_pos_site_id
 _symmetry_equiv_pos_as_xyz
  1  'x, y, z'
loop_
 _atom_site_type_symbol
 _atom_site_label
 _atom_site_symmetry_multiplicity
 _atom_site_fract_x
 _atom_site_fract_y
 _atom_site_fract_z
 _atom_site_occupancy
 _atom_site_charge
Pr  Pr1  1  0.53776000  0.45169000  0.72955000  1.0 1.8572027635
Pr  Pr2  1  0.96224000  0.95169000  0.27045000  1.0 1.8572027635
Pr  Pr3  1  0.46224000  0.54831000  0.27045000  1.0 1.8572027635
Pr  Pr4  1  0.03776000  0.04831000  0.72955000  1.0 1.8572027635
Pr  Pr5  1  0.87053000  0.58325000  0.74901000  1.0 1.9076472174
Pr  Pr6  1  0.62947000  0.08325000  0.25099000  1.0 1.9076472174
Pr  Pr7  1  0.12947000  0.41675000  0.25099000  1.0 1.9076472174
Pr  Pr8  1  0.37053000  0.91675000  0.74901000  1.0 1.9076472174
Pr  Pr9  1  0.48266000  0.64381000  0.63931000  1.0 1.8209252666
Pr  Pr10  1  0.01734000  0.14381000  0.36069000  1.0 1.8209252666
Pr  Pr11  1  0.51734000  0.35619000  0.36069000  1.0 1.8209252666
Pr  Pr12  1  0.98266000  0.85619000  0.63931000  1.0 1.8209252666
Pr  Pr13  1  0.56229000  0.15873000  0.87287000  1.0 1.8134013962
Pr  Pr14  1  0.93771000  0.65873000  0.12713000  1.0 1.8209252666
Pr  Pr15  1  0.43771000  0.84127000  0.12713000  1.0 1.8134013962
Pr  Pr16  1  0.06229000  0.34127000  0.87287000  1.0 1.8134013962
H  H1  1  0.68500000  0.61980000  0.47000000  1.0 0.1483296219
H  H2  1  0.81500000  0.11980000  0.53000000  1.0 0.1483296219
H  H3  1  0.31500000  0.38020000  0.53000000  1.0 0.1483296219
H  H4  1  0.18500000  0.88020000  0.47000000  1.0 0.1483296219
H  H5  1  0.78950000  0.68500000  0.52330000  1.0 0.1019936993
H  H6  1  0.71050000  0.18500000  0.47670000  1.0 0.1019936993
H  H7  1  0.21050000  0.31500000  0.47670000  1.0 0.1019936993
H  H8  1  0.28950000  0.81500000  0.52330000  1.0 0.1019936993
H  H9  1  0.80430000  0.78370000  0.46780000  1.0 0.1019936993
H  H10  1  0.69570000  0.28370000  0.53220000  1.0 0.1019936993
H  H11  1  0.19570000  0.21630000  0.53220000  1.0 0.1019936993
H  H12  1  0.30430000  0.71630000  0.46780000  1.0 0.1019936993
H  H13  1  0.71450000  0.81720000  0.35910000  1.0 0.1101014975
H  H14  1  0.78550000  0.31720000  0.64090000  1.0 0.1101014975
H  H15  1  0.28550000  0.18280000  0.64090000  1.0 0.1101014975
H  H16  1  0.21450000  0.68280000  0.35910000  1.0 0.1101014975
H  H17  1  0.61000000  0.75190000  0.30580000  1.0 0.1190734873
H  H18  1  0.89000000  0.25190000  0.69420000  1.0 0.1190734873
H  H19  1  0.39000000  0.24810000  0.69420000  1.0 0.1190734873
H  H20  1  0.11000000  0.74810000  0.30580000  1.0 0.1190734873
H  H21  1  0.59520000  0.65320000  0.36130000  1.0 0.0906062115
H  H22  1  0.90480000  0.15320000  0.63870000  1.0 0.0906062115
H  H23  1  0.40480000  0.34680000  0.63870000  1.0 0.0906062115
H  H24  1  0.09520000  0.84680000  0.36130000  1.0 0.0906062115
C  C1  1  0.69089000  0.65932000  0.44775000  1.0 -0.1093619878
C  C2  1  0.80911000  0.15932000  0.55225000  1.0 -0.1093619878
C  C3  1  0.30911000  0.34068000  0.55225000  1.0 -0.1093619878
C  C4  1  0.19089000  0.84068000  0.44775000  1.0 -0.1093619878
C  C5  1  0.75352000  0.69843000  0.47967000  1.0 -0.0880359071
C  C6  1  0.74648000  0.19843000  0.52033000  1.0 -0.0880359071
C  C7  1  0.24648000  0.30157000  0.52033000  1.0 -0.0880359071
C  C8  1  0.25352000  0.80157000  0.47967000  1.0 -0.0880359071
C  C9  1  0.76237000  0.75757000  0.44646000  1.0 -0.0711617499
C  C10  1  0.73763000  0.25757000  0.55354000  1.0 -0.0711617499
C  C11  1  0.23763000  0.24243000  0.55354000  1.0 -0.0711617499
C  C12  1  0.26237000  0.74243000  0.44646000  1.0 -0.0711617499
C  C13  1  0.70858000  0.77760000  0.38133000  1.0 -0.0711617499
C  C14  1  0.79142000  0.27760000  0.61867000  1.0 -0.0711617499
C  C15  1  0.29142000  0.22240000  0.61867000  1.0 -0.0711617499
C  C16  1  0.20858000  0.72240000  0.38133000  1.0 -0.0711617499
C  C17  1  0.64595000  0.73850000  0.34940000  1.0 -0.0711617499
C  C18  1  0.85405000  0.23850000  0.65060000  1.0 -0.0711617499
C  C19  1  0.35405000  0.26150000  0.65060000  1.0 -0.0711617499
C  C20  1  0.14595000  0.76150000  0.34940000  1.0 -0.0711617499
C  C21  1  0.63711000  0.67936000  0.38261000  1.0 -0.1093619878
C  C22  1  0.86289000  0.17936000  0.61739000  1.0 -0.1093619878
C  C23  1  0.36289000  0.32064000  0.61739000  1.0 -0.1093619878
C  C24  1  0.13711000  0.82064000  0.38261000  1.0 -0.1093619878
C  C25  1  0.34200000  0.46870000  0.72930000  1.0 0.1190734873
C  C26  1  0.15800000  0.96870000  0.27070000  1.0 0.1190734873
C  C27  1  0.65800000  0.53130000  0.27070000  1.0 0.1190734873
C  C28  1  0.84200000  0.03130000  0.72930000  1.0 0.1190734873
C  C29  1  0.35800000  0.52952000  0.69620000  1.0 0.5741825254
C  C30  1  0.14200000  0.02952000  0.30380000  1.0 0.5751711081
C  C31  1  0.64200000  0.47048000  0.30380000  1.0 0.5741825254
C  C32  1  0.85800000  0.97048000  0.69620000  1.0 0.5741825254
C  C33  1  0.54650000  0.30691000  0.95419000  1.0 0.1389313636
C  C34  1  0.95350000  0.80691000  0.04581000  1.0 0.1389313636
C  C35  1  0.45350000  0.69309000  0.04581000  1.0 0.1389313636
C  C36  1  0.04650000  0.19309000  0.95419000  1.0 0.1389313636
C  C37  1  0.54880000  0.32256000  0.87041000  1.0 0.6198703399
C  C38  1  0.95120000  0.82256000  0.12959000  1.0 0.6198703399
C  C39  1  0.45120000  0.67744000  0.12959000  1.0 0.6198703399
C  C40  1  0.04880000  0.17744000  0.87041000  1.0 0.6198703399
C  C41  1  0.57111000  0.42553000  0.53958000  1.0 0.189814369
C  C42  1  0.92889000  0.92553000  0.46042000  1.0 0.189814369
C  C43  1  0.42889000  0.57447000  0.46042000  1.0 0.189814369
C  C44  1  0.07111000  0.07447000  0.53958000  1.0 0.189814369
C  C45  1  0.48467000  0.42040000  0.53381000  1.0 0.3613592784
C  C46  1  0.01533000  0.92040000  0.46619000  1.0 0.3613592784
C  C47  1  0.51533000  0.57960000  0.46619000  1.0 0.3613592784
C  C48  1  0.98467000  0.07960000  0.53381000  1.0 0.3613592784
C  C49  1  0.95110000  0.71418000  0.54411000  1.0 0.1389313636
C  C50  1  0.54890000  0.21418000  0.45589000  1.0 0.1389313636
C  C51  1  0.04890000  0.28582000  0.45589000  1.0 0.1389313636
C  C52  1  0.45110000  0.78582000  0.54411000  1.0 0.1389313636
C  C53  1  0.95066000  0.69601000  0.62784000  1.0 0.6198703399
C  C54  1  0.54934000  0.19601000  0.37216000  1.0 0.6261542391
C  C55  1  0.04934000  0.30399000  0.37216000  1.0 0.6261542391
C  C56  1  0.45066000  0.80399000  0.62784000  1.0 0.6261542391
C  C57  1  0.68284000  0.64550000  0.68433000  1.0 0.1389313636
C  C58  1  0.81716000  0.14550000  0.31567000  1.0 0.1389313636
C  C59  1  0.31716000  0.35450000  0.31567000  1.0 0.1389313636
C  C60  1  0.18284000  0.85450000  0.68433000  1.0 0.1389313636
C  C61  1  0.66687000  0.57998000  0.70803000  1.0 0.6089041184
C  C62  1  0.83313000  0.07998000  0.29197000  1.0 0.6089041184
C  C63  1  0.33313000  0.42002000  0.29197000  1.0 0.6089041184
C  C64  1  0.16687000  0.92002000  0.70803000  1.0 0.6089041184
C  C65  1  0.93452000  0.59264000  0.94620000  1.0 0.1190734873
C  C66  1  0.56548000  0.09264000  0.05380000  1.0 0.1190734873
C  C67  1  0.06548000  0.40736000  0.05380000  1.0 0.1190734873
C  C68  1  0.43452000  0.90736000  0.94620000  1.0 0.1190734873
C  C69  1  0.85357000  0.61706000  0.93878000  1.0 0.6012014102
C  C70  1  0.64643000  0.11706000  0.06122000  1.0 0.6012014102
C  C71  1  0.14643000  0.38294000  0.06122000  1.0 0.6012014102
C  C72  1  0.35357000  0.88294000  0.93878000  1.0 0.6012014102
C  C73  1  0.86270000  0.36568000  0.83560000  1.0 0.1389313636
C  C74  1  0.63730000  0.86568000  0.16440000  1.0 0.1389313636
C  C75  1  0.13730000  0.63432000  0.16440000  1.0 0.1389313636
C  C76  1  0.36270000  0.13432000  0.83560000  1.0 0.1389313636
C  C77  1  0.89444000  0.42682000  0.81066000  1.0 0.6198703399
C  C78  1  0.60556000  0.92682000  0.18934000  1.0 0.6198703399
C  C79  1  0.10556000  0.57318000  0.18934000  1.0 0.6198703399
C  C80  1  0.39444000  0.07318000  0.81066000  1.0 0.6198703399
N  N1  1  0.39833000  0.42741000  0.75601000  1.0 -0.360577469
N  N2  1  0.10167000  0.92741000  0.24399000  1.0 -0.360577469
N  N3  1  0.60167000  0.57259000  0.24399000  1.0 -0.360577469
N  N4  1  0.89833000  0.07259000  0.75601000  1.0 -0.360577469
N  N5  1  0.36230000  0.37726000  0.78480000  1.0 -0.0418033411
N  N6  1  0.13770000  0.87726000  0.21520000  1.0 -0.0418033411
N  N7  1  0.63770000  0.62274000  0.21520000  1.0 -0.0418033411
N  N8  1  0.86230000  0.12274000  0.78480000  1.0 -0.0418033411
N  N9  1  0.28570000  0.39100000  0.77550000  1.0 -0.0880359071
N  N10  1  0.21430000  0.89100000  0.22450000  1.0 -0.0880359071
N  N11  1  0.71430000  0.60900000  0.22450000  1.0 -0.0880359071
N  N12  1  0.78570000  0.10900000  0.77550000  1.0 -0.0880359071
N  N13  1  0.26980000  0.44630000  0.73630000  1.0 -0.1713073638
N  N14  1  0.23020000  0.94630000  0.26370000  1.0 -0.1713073638
N  N15  1  0.73020000  0.55370000  0.26370000  1.0 -0.1713073638
N  N16  1  0.76980000  0.05370000  0.73630000  1.0 -0.1713073638
N  N17  1  0.54140000  0.34778000  0.01240000  1.0 -0.0711617499
N  N18  1  0.95860000  0.84778000  0.98760000  1.0 -0.0880359071
N  N19  1  0.45860000  0.65222000  0.98760000  1.0 -0.095297714
N  N20  1  0.04140000  0.15222000  0.01240000  1.0 -0.0802974425
N  N21  1  0.54270000  0.30940000  0.07750000  1.0 -0.060881526
N  N22  1  0.95730000  0.80940000  0.92250000  1.0 -0.060881526
N  N23  1  0.45730000  0.69060000  0.92250000  1.0 -0.060881526
N  N24  1  0.04270000  0.19060000  0.07750000  1.0 -0.060881526
N  N25  1  0.54740000  0.25024000  0.05596000  1.0 -0.0418033411
N  N26  1  0.95260000  0.75024000  0.94404000  1.0 -0.0471527282
N  N27  1  0.45260000  0.74976000  0.94404000  1.0 -0.0418033411
N  N28  1  0.04740000  0.24976000  0.05596000  1.0 -0.0418033411
N  N29  1  0.54974000  0.24754000  0.97824000  1.0 -0.3224707394
N  N30  1  0.95026000  0.74754000  0.02176000  1.0 -0.3224707394
N  N31  1  0.45026000  0.75246000  0.02176000  1.0 -0.3224707394
N  N32  1  0.04974000  0.25246000  0.97824000  1.0 -0.3271220912
N  N33  1  0.60795000  0.40877000  0.48167000  1.0 -0.3895852317
N  N34  1  0.89205000  0.90877000  0.51833000  1.0 -0.3895852317
N  N35  1  0.39205000  0.59123000  0.51833000  1.0 -0.3895852317
N  N36  1  0.10795000  0.09123000  0.48167000  1.0 -0.3895852317
N  N37  1  0.68980000  0.42140000  0.51260000  1.0 -0.0304947942
N  N38  1  0.81020000  0.92140000  0.48740000  1.0 -0.0304947942
N  N39  1  0.31020000  0.57860000  0.48740000  1.0 -0.0304947942
N  N40  1  0.18980000  0.07860000  0.51260000  1.0 -0.0304947942
N  N41  1  0.69500000  0.44310000  0.58390000  1.0 -0.0471527282
N  N42  1  0.80500000  0.94310000  0.41610000  1.0 -0.0471527282
N  N43  1  0.30500000  0.55690000  0.41610000  1.0 -0.0471527282
N  N44  1  0.19500000  0.05690000  0.58390000  1.0 -0.0471527282
N  N45  1  0.61423000  0.44525000  0.60480000  1.0 -0.4100101192
N  N46  1  0.88577000  0.94525000  0.39520000  1.0 -0.4100101192
N  N47  1  0.38577000  0.55475000  0.39520000  1.0 -0.4100101192
N  N48  1  0.11423000  0.05475000  0.60480000  1.0 -0.4100101192
N  N49  1  0.96520000  0.77241000  0.52379000  1.0 -0.360577469
N  N50  1  0.53480000  0.27241000  0.47621000  1.0 -0.360577469
N  N51  1  0.03480000  0.22759000  0.47621000  1.0 -0.360577469
N  N52  1  0.46520000  0.72759000  0.52379000  1.0 -0.360577469
N  N53  1  0.95900000  0.77163000  0.44486000  1.0 -0.0802974425
N  N54  1  0.54100000  0.27163000  0.55514000  1.0 -0.0802974425
N  N55  1  0.04100000  0.22837000  0.55514000  1.0 -0.0802974425
N  N56  1  0.45900000  0.72837000  0.44486000  1.0 -0.0802974425
N  N57  1  0.93810000  0.71476000  0.41770000  1.0 -0.0802974425
N  N58  1  0.56190000  0.21476000  0.58230000  1.0 -0.0802974425
N  N59  1  0.06190000  0.28524000  0.58230000  1.0 -0.0802974425
N  N60  1  0.43810000  0.78524000  0.41770000  1.0 -0.0802974425
N  N61  1  0.93450000  0.67583000  0.48000000  1.0 -0.1914574404
N  N62  1  0.56550000  0.17583000  0.52000000  1.0 -0.1914574404
N  N63  1  0.06550000  0.32417000  0.52000000  1.0 -0.1914574404
N  N64  1  0.43450000  0.82417000  0.48000000  1.0 -0.1914574404
N  N65  1  0.62903000  0.68948000  0.65717000  1.0 -0.3271220912
N  N66  1  0.87097000  0.18948000  0.34283000  1.0 -0.3271220912
N  N67  1  0.37097000  0.31052000  0.34283000  1.0 -0.3271220912
N  N68  1  0.12903000  0.81052000  0.65717000  1.0 -0.3271220912
N  N69  1  0.67153000  0.74008000  0.64371000  1.0 -0.0206122969
N  N70  1  0.82847000  0.24008000  0.35629000  1.0 -0.0206122969
N  N71  1  0.32847000  0.25992000  0.35629000  1.0 -0.0206122969
N  N72  1  0.17153000  0.75992000  0.64371000  1.0 -0.0206122969
N  N73  1  0.74679000  0.72805000  0.66432000  1.0 -0.0304947942
N  N74  1  0.75321000  0.22805000  0.33568000  1.0 -0.0304947942
N  N75  1  0.25321000  0.27195000  0.33568000  1.0 -0.0418033411
N  N76  1  0.24679000  0.77195000  0.66432000  1.0 -0.0304947942
N  N77  1  0.75593000  0.66734000  0.69072000  1.0 -0.3390123893
N  N78  1  0.74407000  0.16734000  0.30928000  1.0 -0.3390123893
N  N79  1  0.24407000  0.33266000  0.30928000  1.0 -0.3390123893
N  N80  1  0.25593000  0.83266000  0.69072000  1.0 -0.3390123893
N  N81  1  0.96393000  0.56449000  0.88618000  1.0 -0.360577469
N  N82  1  0.53607000  0.06449000  0.11382000  1.0 -0.360577469
N  N83  1  0.03607000  0.43551000  0.11382000  1.0 -0.360577469
N  N84  1  0.46393000  0.93551000  0.88618000  1.0 -0.360577469
N  N85  1  0.04034000  0.54964000  0.91728000  1.0 -0.0206122969
N  N86  1  0.45966000  0.04964000  0.08272000  1.0 -0.0304947942
N  N87  1  0.95966000  0.45036000  0.08272000  1.0 -0.0206122969
N  N88  1  0.54034000  0.95036000  0.91728000  1.0 -0.0206122969
N  N89  1  0.05482000  0.56897000  0.99268000  1.0 -0.0304947942
N  N90  1  0.44518000  0.06897000  0.00732000  1.0 -0.0304947942
N  N91  1  0.94518000  0.43103000  0.00732000  1.0 -0.0304947942
N  N92  1  0.55482000  0.93103000  0.99268000  1.0 -0.0304947942
N  N93  1  0.98891000  0.59625000  0.01177000  1.0 -0.3087402706
N  N94  1  0.51109000  0.09625000  0.98823000  1.0 -0.3087402706
N  N95  1  0.01109000  0.40375000  0.98823000  1.0 -0.3087402706
N  N96  1  0.48891000  0.90375000  0.01177000  1.0 -0.3087402706
N  N97  1  0.91101000  0.31776000  0.86260000  1.0 -0.360577469
N  N98  1  0.58899000  0.81776000  0.13740000  1.0 -0.360577469
N  N99  1  0.08899000  0.68224000  0.13740000  1.0 -0.360577469
N  N100  1  0.41101000  0.18224000  0.86260000  1.0 -0.360577469
N  N101  1  0.86281000  0.27132000  0.88160000  1.0 -0.060881526
N  N102  1  0.63719000  0.77132000  0.11840000  1.0 -0.060881526
N  N103  1  0.13719000  0.72868000  0.11840000  1.0 -0.060881526
N  N104  1  0.36281000  0.22868000  0.88160000  1.0 -0.060881526
N  N105  1  0.78880000  0.29224000  0.86580000  1.0 -0.0802974425
N  N106  1  0.71120000  0.79224000  0.13420000  1.0 -0.0711617499
N  N107  1  0.21120000  0.70776000  0.13420000  1.0 -0.0711617499
N  N108  1  0.28880000  0.20776000  0.86580000  1.0 -0.0802974425
N  N109  1  0.78770000  0.35183000  0.83880000  1.0 -0.2120173846
N  N110  1  0.71230000  0.85183000  0.16120000  1.0 -0.2120173846
N  N111  1  0.21230000  0.64817000  0.16120000  1.0 -0.2120173846
N  N112  1  0.28770000  0.14817000  0.83880000  1.0 -0.2120173846
N  N113  1  0.63105000  0.59454000  0.51378000  1.0 -0.0304947942
N  N114  1  0.86895000  0.09454000  0.48622000  1.0 -0.0304947942
N  N115  1  0.36895000  0.40546000  0.48622000  1.0 -0.0304947942
N  N116  1  0.13105000  0.90546000  0.51378000  1.0 -0.0304947942
N  N117  1  0.62742000  0.57617000  0.44067000  1.0 -0.0304947942
N  N118  1  0.87258000  0.07617000  0.55933000  1.0 -0.0304947942
N  N119  1  0.37258000  0.42383000  0.55933000  1.0 -0.0304947942
N  N120  1  0.12742000  0.92383000  0.44067000  1.0 -0.0304947942
O  O1  1  0.43055000  0.54229000  0.69136000  1.0 -0.7302559812
O  O2  1  0.06945000  0.04229000  0.30864000  1.0 -0.7302559812
O  O3  1  0.56945000  0.45771000  0.30864000  1.0 -0.7302559812
O  O4  1  0.93055000  0.95771000  0.69136000  1.0 -0.7302559812
O  O5  1  0.29870000  0.56387000  0.67090000  1.0 -0.4522607003
O  O6  1  0.20130000  0.06387000  0.32910000  1.0 -0.4522607003
O  O7  1  0.70130000  0.43613000  0.32910000  1.0 -0.4522607003
O  O8  1  0.79870000  0.93613000  0.67090000  1.0 -0.4522607003
O  O9  1  0.54777000  0.37858000  0.84866000  1.0 -0.5631836404
O  O10  1  0.95223000  0.87858000  0.15134000  1.0 -0.5631836404
O  O11  1  0.45223000  0.62142000  0.15134000  1.0 -0.5631836404
O  O12  1  0.04777000  0.12142000  0.84866000  1.0 -0.5631836404
O  O13  1  0.55389000  0.27363000  0.82622000  1.0 -0.6326348086
O  O14  1  0.94611000  0.77363000  0.17378000  1.0 -0.6326348086
O  O15  1  0.44611000  0.72637000  0.17378000  1.0 -0.6326348086
O  O16  1  0.05389000  0.22637000  0.82622000  1.0 -0.6326348086
O  O17  1  0.44475000  0.40199000  0.46756000  1.0 -0.2328877982
O  O18  1  0.05525000  0.90199000  0.53244000  1.0 -0.2328877982
O  O19  1  0.55525000  0.59801000  0.53244000  1.0 -0.2328877982
O  O20  1  0.94475000  0.09801000  0.46756000  1.0 -0.2328877982
O  O21  1  0.45227000  0.43285000  0.59300000  1.0 -0.2208625537
O  O22  1  0.04773000  0.93285000  0.40700000  1.0 -0.2208625537
O  O23  1  0.54773000  0.56715000  0.40700000  1.0 -0.2208625537
O  O24  1  0.95227000  0.06715000  0.59300000  1.0 -0.2208625537
O  O25  1  0.97276000  0.74061000  0.67630000  1.0 -0.6326348086
O  O26  1  0.52724000  0.24061000  0.32370000  1.0 -0.6326348086
O  O27  1  0.02724000  0.25939000  0.32370000  1.0 -0.6326348086
O  O28  1  0.47276000  0.75939000  0.67630000  1.0 -0.6326348086
O  O29  1  0.92715000  0.64349000  0.64421000  1.0 -0.5903599311
O  O30  1  0.57285000  0.14349000  0.35579000  1.0 -0.5903599311
O  O31  1  0.07285000  0.35651000  0.35579000  1.0 -0.5903599311
O  O32  1  0.42715000  0.85651000  0.64421000  1.0 -0.5903599311
O  O33  1  0.59377000  0.56344000  0.70115000  1.0 -0.698768859
O  O34  1  0.90623000  0.06344000  0.29885000  1.0 -0.698768859
O  O35  1  0.40623000  0.43656000  0.29885000  1.0 -0.698768859
O  O36  1  0.09377000  0.93656000  0.70115000  1.0 -0.698768859
O  O37  1  0.72489000  0.54687000  0.73122000  1.0 -0.5078227569
O  O38  1  0.77511000  0.04687000  0.26878000  1.0 -0.5078227569
O  O39  1  0.27511000  0.45313000  0.26878000  1.0 -0.5078227569
O  O40  1  0.22489000  0.95313000  0.73122000  1.0 -0.5078227569
O  O41  1  0.81046000  0.61244000  0.87243000  1.0 -0.5429165015
O  O42  1  0.68954000  0.11244000  0.12757000  1.0 -0.5429165015
O  O43  1  0.18954000  0.38756000  0.12757000  1.0 -0.5454250027
O  O44  1  0.31046000  0.88756000  0.87243000  1.0 -0.5429165015
O  O45  1  0.83360000  0.64219000  0.00108000  1.0 -0.5903599311
O  O46  1  0.66640000  0.14219000  0.99892000  1.0 -0.5843459417
O  O47  1  0.16640000  0.35781000  0.99892000  1.0 -0.5843459417
O  O48  1  0.33360000  0.85781000  0.00108000  1.0 -0.5843459417
O  O49  1  0.96964000  0.42663000  0.81315000  1.0 -0.6496786077
O  O50  1  0.53036000  0.92663000  0.18685000  1.0 -0.6496786077
O  O51  1  0.03036000  0.57337000  0.18685000  1.0 -0.6496786077
O  O52  1  0.46964000  0.07337000  0.81315000  1.0 -0.6496786077
O  O53  1  0.85000000  0.47111000  0.78832000  1.0 -0.5299619336
O  O54  1  0.65000000  0.97111000  0.21168000  1.0 -0.5299619336
O  O55  1  0.15000000  0.52889000  0.21168000  1.0 -0.5299619336
O  O56  1  0.35000000  0.02889000  0.78832000  1.0 -0.5299619336
