# DDEC6 charges by PACMAN v1.1 (https://github.com/mtap-research/PACMAN-charge/)
data_OTIHOQ_ASR_pacman
_symmetry_space_group_name_H-M   'P 1'
_cell_length_a   16.71850000
_cell_length_b   16.71850000
_cell_length_c   16.71850000
_cell_angle_alpha   67.53890000
_cell_angle_beta   67.53890000
_cell_angle_gamma   67.53890000
_symmetry_Int_Tables_number   1
_chemical_formula_structural   CuH5C13(NO2)2
_chemical_formula_sum   'Cu6 H30 C78 N12 O24'
_cell_volume   3835.34188661
_cell_formula_units_Z   6
loop_
 _symmetry_equiv_pos_site_id
 _symmetry_equiv_pos_as_xyz
  1  'x, y, z'
loop_
 _atom_site_type_symbol
 _atom_site_label
 _atom_site_symmetry_multiplicity
 _atom_site_fract_x
 _atom_site_fract_y
 _atom_site_fract_z
 _atom_site_occupancy
 _atom_site_charge
Cu  Cu1  1  0.50467000  0.07562000  0.50467000  1.0 0.8937996918
Cu  Cu2  1  0.07562000  0.50467000  0.50467000  1.0 0.8937996918
Cu  Cu3  1  0.50467000  0.50467000  0.07562000  1.0 0.8937996918
Cu  Cu4  1  0.92438000  0.49533000  0.49533000  1.0 0.8937996918
Cu  Cu5  1  0.49533000  0.92438000  0.49533000  1.0 0.8937996918
Cu  Cu6  1  0.49533000  0.49533000  0.92438000  1.0 0.8937996918
H  H1  1  0.22955000  0.22955000  0.52980000  1.0 0.1503932073
H  H2  1  0.22955000  0.52980000  0.22955000  1.0 0.1503932073
H  H3  1  0.52980000  0.22955000  0.22955000  1.0 0.1503932073
H  H4  1  0.77045000  0.77045000  0.47020000  1.0 0.1503932073
H  H5  1  0.47020000  0.77045000  0.77045000  1.0 0.1503932073
H  H6  1  0.77045000  0.47020000  0.77045000  1.0 0.1503932073
H  H7  1  0.21520000  0.99750000  0.51970000  1.0 0.1569703662
H  H8  1  0.99750000  0.51970000  0.21520000  1.0 0.1569703662
H  H9  1  0.51970000  0.21520000  0.99750000  1.0 0.1569703662
H  H10  1  0.00250000  0.78480000  0.48030000  1.0 0.1569703662
H  H11  1  0.48030000  0.00250000  0.78480000  1.0 0.1569703662
H  H12  1  0.78480000  0.48030000  0.00250000  1.0 0.1569703662
H  H13  1  0.78480000  0.00250000  0.48030000  1.0 0.1569703662
H  H14  1  0.00250000  0.48030000  0.78480000  1.0 0.1569703662
H  H15  1  0.48030000  0.78480000  0.00250000  1.0 0.1569703662
H  H16  1  0.99750000  0.21520000  0.51970000  1.0 0.1569703662
H  H17  1  0.51970000  0.99750000  0.21520000  1.0 0.1569703662
H  H18  1  0.21520000  0.51970000  0.99750000  1.0 0.1569703662
H  H19  1  0.15030000  0.98910000  0.41630000  1.0 0.1392648475
H  H20  1  0.98910000  0.41630000  0.15030000  1.0 0.1392648475
H  H21  1  0.41630000  0.15030000  0.98910000  1.0 0.1392648475
H  H22  1  0.01090000  0.84970000  0.58370000  1.0 0.1392648475
H  H23  1  0.58370000  0.01090000  0.84970000  1.0 0.1392648475
H  H24  1  0.84970000  0.58370000  0.01090000  1.0 0.1392648475
H  H25  1  0.84970000  0.01090000  0.58370000  1.0 0.1392648475
H  H26  1  0.01090000  0.58370000  0.84970000  1.0 0.1392648475
H  H27  1  0.58370000  0.84970000  0.01090000  1.0 0.1392648475
H  H28  1  0.98910000  0.15030000  0.41630000  1.0 0.1392648475
H  H29  1  0.41630000  0.98910000  0.15030000  1.0 0.1392648475
H  H30  1  0.15030000  0.41630000  0.98910000  1.0 0.1392648475
C  C1  1  0.33273000  0.06553000  0.52053000  1.0 0.5973750446
C  C2  1  0.06553000  0.52053000  0.33273000  1.0 0.5973750446
C  C3  1  0.52053000  0.33273000  0.06553000  1.0 0.5973750446
C  C4  1  0.93447000  0.66727000  0.47947000  1.0 0.5973750446
C  C5  1  0.47947000  0.93447000  0.66727000  1.0 0.5973750446
C  C6  1  0.66727000  0.47947000  0.93447000  1.0 0.5973750446
C  C7  1  0.66727000  0.93447000  0.47947000  1.0 0.5973750446
C  C8  1  0.93447000  0.47947000  0.66727000  1.0 0.5973750446
C  C9  1  0.47947000  0.66727000  0.93447000  1.0 0.5973750446
C  C10  1  0.06553000  0.33273000  0.52053000  1.0 0.5973750446
C  C11  1  0.52053000  0.06553000  0.33273000  1.0 0.5973750446
C  C12  1  0.33273000  0.52053000  0.06553000  1.0 0.5973750446
C  C13  1  0.23638000  0.10678000  0.52478000  1.0 -0.0191789946
C  C14  1  0.10678000  0.52478000  0.23638000  1.0 -0.0191789946
C  C15  1  0.52478000  0.23638000  0.10678000  1.0 -0.0191789946
C  C16  1  0.89322000  0.76362000  0.47522000  1.0 -0.0191789946
C  C17  1  0.47522000  0.89322000  0.76362000  1.0 -0.0191789946
C  C18  1  0.76362000  0.47522000  0.89322000  1.0 -0.0191789946
C  C19  1  0.76362000  0.89322000  0.47522000  1.0 -0.0191789946
C  C20  1  0.89322000  0.47522000  0.76362000  1.0 -0.0191789946
C  C21  1  0.47522000  0.76362000  0.89322000  1.0 -0.0191789946
C  C22  1  0.10678000  0.23638000  0.52478000  1.0 -0.0191789946
C  C23  1  0.52478000  0.10678000  0.23638000  1.0 -0.0191789946
C  C24  1  0.23638000  0.52478000  0.10678000  1.0 -0.0191789946
C  C25  1  0.19622000  0.19622000  0.52692000  1.0 -0.0850953093
C  C26  1  0.19622000  0.52692000  0.19622000  1.0 -0.0850953093
C  C27  1  0.52692000  0.19622000  0.19622000  1.0 -0.0850953093
C  C28  1  0.80378000  0.80378000  0.47308000  1.0 -0.0850953093
C  C29  1  0.47308000  0.80378000  0.80378000  1.0 -0.0850953093
C  C30  1  0.80378000  0.47308000  0.80378000  1.0 -0.0850953093
C  C31  1  0.18776000  0.05856000  0.52046000  1.0 -0.1262000805
C  C32  1  0.05856000  0.52046000  0.18776000  1.0 -0.1262000805
C  C33  1  0.52046000  0.18776000  0.05856000  1.0 -0.1262000805
C  C34  1  0.94144000  0.81224000  0.47954000  1.0 -0.1262000805
C  C35  1  0.47954000  0.94144000  0.81224000  1.0 -0.1262000805
C  C36  1  0.81224000  0.47954000  0.94144000  1.0 -0.1262000805
C  C37  1  0.81224000  0.94144000  0.47954000  1.0 -0.1262000805
C  C38  1  0.94144000  0.47954000  0.81224000  1.0 -0.1262000805
C  C39  1  0.47954000  0.81224000  0.94144000  1.0 -0.1262000805
C  C40  1  0.05856000  0.18776000  0.52046000  1.0 -0.1262000805
C  C41  1  0.52046000  0.05856000  0.18776000  1.0 -0.1262000805
C  C42  1  0.18776000  0.52046000  0.05856000  1.0 -0.1262000805
C  C43  1  0.09884000  0.09884000  0.51744000  1.0 0.1039207795
C  C44  1  0.09884000  0.51744000  0.09884000  1.0 0.1039207795
C  C45  1  0.51744000  0.09884000  0.09884000  1.0 0.1039207795
C  C46  1  0.90116000  0.90116000  0.48256000  1.0 0.1039207795
C  C47  1  0.48256000  0.90116000  0.90116000  1.0 0.1039207795
C  C48  1  0.90116000  0.48256000  0.90116000  1.0 0.1039207795
C  C49  1  0.04782000  0.04782000  0.50797000  1.0 -0.0084152364
C  C50  1  0.04782000  0.50797000  0.04782000  1.0 -0.0084152364
C  C51  1  0.50797000  0.04782000  0.04782000  1.0 -0.0084152364
C  C52  1  0.95218000  0.95218000  0.49203000  1.0 -0.0084152364
C  C53  1  0.49203000  0.95218000  0.95218000  1.0 -0.0084152364
C  C54  1  0.95218000  0.49203000  0.95218000  1.0 -0.0084152364
C  C55  1  0.08880000  0.99490000  0.44950000  1.0 -0.1062023664
C  C56  1  0.99490000  0.44950000  0.08880000  1.0 -0.1062023664
C  C57  1  0.44950000  0.08880000  0.99490000  1.0 -0.1062023664
C  C58  1  0.00510000  0.91120000  0.55050000  1.0 -0.1062023664
C  C59  1  0.55050000  0.00510000  0.91120000  1.0 -0.1062023664
C  C60  1  0.91120000  0.55050000  0.00510000  1.0 -0.1062023664
C  C61  1  0.91120000  0.00510000  0.55050000  1.0 -0.1062023664
C  C62  1  0.00510000  0.55050000  0.91120000  1.0 -0.1062023664
C  C63  1  0.55050000  0.91120000  0.00510000  1.0 -0.1062023664
C  C64  1  0.99490000  0.08880000  0.44950000  1.0 -0.1062023664
C  C65  1  0.44950000  0.99490000  0.08880000  1.0 -0.1062023664
C  C66  1  0.08880000  0.44950000  0.99490000  1.0 -0.1062023664
C  C67  1  0.05030000  0.96020000  0.56080000  1.0 0.1859352769
C  C68  1  0.96020000  0.56080000  0.05030000  1.0 0.1859352769
C  C69  1  0.56080000  0.05030000  0.96020000  1.0 0.1837336117
C  C70  1  0.03980000  0.94970000  0.43920000  1.0 0.1859352769
C  C71  1  0.43920000  0.03980000  0.94970000  1.0 0.1837336117
C  C72  1  0.94970000  0.43920000  0.03980000  1.0 0.1859352769
C  C73  1  0.94970000  0.03980000  0.43920000  1.0 0.1859352769
C  C74  1  0.03980000  0.43920000  0.94970000  1.0 0.1837336117
C  C75  1  0.43920000  0.94970000  0.03980000  1.0 0.1859352769
C  C76  1  0.96020000  0.05030000  0.56080000  1.0 0.1859352769
C  C77  1  0.56080000  0.96020000  0.05030000  1.0 0.1859352769
C  C78  1  0.05030000  0.56080000  0.96020000  1.0 0.1837336117
N  N1  1  0.09210000  0.90980000  0.63960000  1.0 -0.3310224867
N  N2  1  0.90980000  0.63960000  0.09210000  1.0 -0.3310224867
N  N3  1  0.63960000  0.09210000  0.90980000  1.0 -0.3310224867
N  N4  1  0.09020000  0.90790000  0.36040000  1.0 -0.3310224867
N  N5  1  0.36040000  0.09020000  0.90790000  1.0 -0.3310224867
N  N6  1  0.90790000  0.36040000  0.09020000  1.0 -0.3310224867
N  N7  1  0.90790000  0.09020000  0.36040000  1.0 -0.3310224867
N  N8  1  0.09020000  0.36040000  0.90790000  1.0 -0.3310224867
N  N9  1  0.36040000  0.90790000  0.09020000  1.0 -0.3310224867
N  N10  1  0.90980000  0.09210000  0.63960000  1.0 -0.3310224867
N  N11  1  0.63960000  0.90980000  0.09210000  1.0 -0.3310224867
N  N12  1  0.09210000  0.63960000  0.90980000  1.0 -0.3310224867
O  O1  1  0.37504000  0.11394000  0.52143000  1.0 -0.517308802
O  O2  1  0.11394000  0.52143000  0.37504000  1.0 -0.517308802
O  O3  1  0.52143000  0.37504000  0.11394000  1.0 -0.517308802
O  O4  1  0.88606000  0.62496000  0.47857000  1.0 -0.517308802
O  O5  1  0.47857000  0.88606000  0.62496000  1.0 -0.517308802
O  O6  1  0.62496000  0.47857000  0.88606000  1.0 -0.517308802
O  O7  1  0.62496000  0.88606000  0.47857000  1.0 -0.517308802
O  O8  1  0.88606000  0.47857000  0.62496000  1.0 -0.517308802
O  O9  1  0.47857000  0.62496000  0.88606000  1.0 -0.517308802
O  O10  1  0.11394000  0.37504000  0.52143000  1.0 -0.517308802
O  O11  1  0.52143000  0.11394000  0.37504000  1.0 -0.517308802
O  O12  1  0.37504000  0.52143000  0.11394000  1.0 -0.517308802
O  O13  1  0.36732000  0.98632000  0.51424000  1.0 -0.506200483
O  O14  1  0.98632000  0.51424000  0.36732000  1.0 -0.506200483
O  O15  1  0.51424000  0.36732000  0.98632000  1.0 -0.506200483
O  O16  1  0.01368000  0.63268000  0.48576000  1.0 -0.506200483
O  O17  1  0.48576000  0.01368000  0.63268000  1.0 -0.506200483
O  O18  1  0.63268000  0.48576000  0.01368000  1.0 -0.506200483
O  O19  1  0.63268000  0.01368000  0.48576000  1.0 -0.506200483
O  O20  1  0.01368000  0.48576000  0.63268000  1.0 -0.506200483
O  O21  1  0.48576000  0.63268000  0.01368000  1.0 -0.506200483
O  O22  1  0.98632000  0.36732000  0.51424000  1.0 -0.506200483
O  O23  1  0.51424000  0.98632000  0.36732000  1.0 -0.506200483
O  O24  1  0.36732000  0.51424000  0.98632000  1.0 -0.506200483
