# DDEC6 charges by PACMAN v1.1 (https://github.com/mtap-research/PACMAN-charge/)
data_OVEDAW_ASR_pacman
_symmetry_space_group_name_H-M   'P 1'
_cell_length_a   28.97100000
_cell_length_b   34.91150000
_cell_length_c   41.31310000
_cell_angle_alpha   90.00000000
_cell_angle_beta   90.00000000
_cell_angle_gamma   90.00000000
_symmetry_Int_Tables_number   1
_chemical_formula_structural   Cu7H49C65I4N5O12
_chemical_formula_sum   'Cu56 H392 C520 I32 N40 O96'
_cell_volume   41784.93966242
_cell_formula_units_Z   8
loop_
 _symmetry_equiv_pos_site_id
 _symmetry_equiv_pos_as_xyz
  1  'x, y, z'
loop_
 _atom_site_type_symbol
 _atom_site_label
 _atom_site_symmetry_multiplicity
 _atom_site_fract_x
 _atom_site_fract_y
 _atom_site_fract_z
 _atom_site_occupancy
 _atom_site_charge
Cu  Cu1  1  0.00000000  0.50997000  0.96920000  1.0 0.8502056513
Cu  Cu2  1  0.00000000  0.49003000  0.03080000  1.0 0.8502056513
Cu  Cu3  1  0.50000000  0.00997000  0.53080000  1.0 0.8502056513
Cu  Cu4  1  0.50000000  0.99003000  0.46920000  1.0 0.8502056513
Cu  Cu5  1  0.50000000  0.30037000  0.08384000  1.0 0.868666983
Cu  Cu6  1  0.50000000  0.69963000  0.91616000  1.0 0.868666983
Cu  Cu7  1  0.00000000  0.80037000  0.41616000  1.0 0.868666983
Cu  Cu8  1  0.00000000  0.19963000  0.58384000  1.0 0.868666983
Cu  Cu9  1  0.50000000  0.22510000  0.07135000  1.0 0.5713356499
Cu  Cu10  1  0.50000000  0.77490000  0.92865000  1.0 0.5713356499
Cu  Cu11  1  0.00000000  0.72510000  0.42865000  1.0 0.5781076614
Cu  Cu12  1  0.00000000  0.27490000  0.57135000  1.0 0.5781076614
Cu  Cu13  1  0.50000000  0.03411000  0.01564000  1.0 0.6311072771
Cu  Cu14  1  0.50000000  0.96589000  0.98436000  1.0 0.6311072771
Cu  Cu15  1  0.00000000  0.53411000  0.48436000  1.0 0.6311072771
Cu  Cu16  1  0.00000000  0.46589000  0.51564000  1.0 0.6311072771
Cu  Cu17  1  0.00000000  0.11861000  0.16926000  1.0 0.8580408607
Cu  Cu18  1  0.00000000  0.88139000  0.83074000  1.0 0.8580408607
Cu  Cu19  1  0.50000000  0.61861000  0.33074000  1.0 0.8580408607
Cu  Cu20  1  0.50000000  0.38139000  0.66926000  1.0 0.8580408607
Cu  Cu21  1  0.00000000  0.08325000  0.22577000  1.0 0.8502056513
Cu  Cu22  1  0.00000000  0.91675000  0.77423000  1.0 0.8502056513
Cu  Cu23  1  0.50000000  0.58325000  0.27423000  1.0 0.8502056513
Cu  Cu24  1  0.50000000  0.41675000  0.72577000  1.0 0.8502056513
Cu  Cu25  1  0.19857000  0.82860000  0.13266000  1.0 0.1680873069
Cu  Cu26  1  0.19857000  0.17140000  0.86734000  1.0 0.1680873069
Cu  Cu27  1  0.30143000  0.32860000  0.36734000  1.0 0.1680873069
Cu  Cu28  1  0.30143000  0.67140000  0.63266000  1.0 0.1680873069
Cu  Cu29  1  0.80143000  0.17140000  0.86734000  1.0 0.1680873069
Cu  Cu30  1  0.80143000  0.82860000  0.13266000  1.0 0.1680873069
Cu  Cu31  1  0.69857000  0.67140000  0.63266000  1.0 0.1680873069
Cu  Cu32  1  0.69857000  0.32860000  0.36734000  1.0 0.1680873069
Cu  Cu33  1  0.19252000  0.75748000  0.11063000  1.0 0.1564242392
Cu  Cu34  1  0.19252000  0.24252000  0.88937000  1.0 0.1474766422
Cu  Cu35  1  0.30748000  0.25748000  0.38937000  1.0 0.1564242392
Cu  Cu36  1  0.30748000  0.74252000  0.61063000  1.0 0.1564242392
Cu  Cu37  1  0.80748000  0.24252000  0.88937000  1.0 0.1564242392
Cu  Cu38  1  0.80748000  0.75748000  0.11063000  1.0 0.1564242392
Cu  Cu39  1  0.69252000  0.74252000  0.61063000  1.0 0.1564242392
Cu  Cu40  1  0.69252000  0.25748000  0.38937000  1.0 0.1564242392
Cu  Cu41  1  0.11713000  0.78785000  0.13938000  1.0 0.1680873069
Cu  Cu42  1  0.11713000  0.21215000  0.86062000  1.0 0.1680873069
Cu  Cu43  1  0.38287000  0.28785000  0.36062000  1.0 0.1680873069
Cu  Cu44  1  0.38287000  0.71215000  0.63938000  1.0 0.1680873069
Cu  Cu45  1  0.88287000  0.21215000  0.86062000  1.0 0.1680873069
Cu  Cu46  1  0.88287000  0.78785000  0.13938000  1.0 0.1680873069
Cu  Cu47  1  0.61713000  0.71215000  0.63938000  1.0 0.1680873069
Cu  Cu48  1  0.61713000  0.28785000  0.36062000  1.0 0.1680873069
Cu  Cu49  1  0.19302000  0.77007000  0.17406000  1.0 0.1680873069
Cu  Cu50  1  0.19302000  0.22993000  0.82594000  1.0 0.1680873069
Cu  Cu51  1  0.30698000  0.27007000  0.32594000  1.0 0.1680873069
Cu  Cu52  1  0.30698000  0.72993000  0.67406000  1.0 0.1680873069
Cu  Cu53  1  0.80698000  0.22993000  0.82594000  1.0 0.1680873069
Cu  Cu54  1  0.80698000  0.77007000  0.17406000  1.0 0.1680873069
Cu  Cu55  1  0.69302000  0.72993000  0.67406000  1.0 0.1680873069
Cu  Cu56  1  0.69302000  0.27007000  0.32594000  1.0 0.1680873069
H  H1  1  0.47290000  0.11760000  0.99480000  1.0 0.1191370811
H  H2  1  0.47290000  0.88240000  0.00520000  1.0 0.1191370811
H  H3  1  0.02710000  0.61760000  0.50520000  1.0 0.1191370811
H  H4  1  0.02710000  0.38240000  0.49480000  1.0 0.1191370811
H  H5  1  0.52710000  0.88240000  0.00520000  1.0 0.1191370811
H  H6  1  0.52710000  0.11760000  0.99480000  1.0 0.1191370811
H  H7  1  0.97290000  0.38240000  0.49480000  1.0 0.1191370811
H  H8  1  0.97290000  0.61760000  0.50520000  1.0 0.1191370811
H  H9  1  0.42940000  0.16120000  0.05150000  1.0 0.0874421803
H  H10  1  0.42940000  0.83880000  0.94850000  1.0 0.0874421803
H  H11  1  0.07060000  0.66120000  0.44850000  1.0 0.0874421803
H  H12  1  0.07060000  0.33880000  0.55150000  1.0 0.0874421803
H  H13  1  0.57060000  0.83880000  0.94850000  1.0 0.0874421803
H  H14  1  0.57060000  0.16120000  0.05150000  1.0 0.0874421803
H  H15  1  0.92940000  0.33880000  0.55150000  1.0 0.0874421803
H  H16  1  0.92940000  0.66120000  0.44850000  1.0 0.0874421803
H  H17  1  0.44680000  0.14600000  0.08520000  1.0 0.079485895
H  H18  1  0.44680000  0.85400000  0.91480000  1.0 0.079485895
H  H19  1  0.05320000  0.64600000  0.41480000  1.0 0.079485895
H  H20  1  0.05320000  0.35400000  0.58520000  1.0 0.079485895
H  H21  1  0.55320000  0.85400000  0.91480000  1.0 0.079485895
H  H22  1  0.55320000  0.14600000  0.08520000  1.0 0.079485895
H  H23  1  0.94680000  0.35400000  0.58520000  1.0 0.079485895
H  H24  1  0.94680000  0.64600000  0.41480000  1.0 0.079485895
H  H25  1  0.44500000  0.08790000  0.06630000  1.0 0.0709328831
H  H26  1  0.44500000  0.91210000  0.93370000  1.0 0.079485895
H  H27  1  0.05500000  0.58790000  0.43370000  1.0 0.079485895
H  H28  1  0.05500000  0.41210000  0.56630000  1.0 0.079485895
H  H29  1  0.55500000  0.91210000  0.93370000  1.0 0.079485895
H  H30  1  0.55500000  0.08790000  0.06630000  1.0 0.0709328831
H  H31  1  0.94500000  0.41210000  0.56630000  1.0 0.079485895
H  H32  1  0.94500000  0.58790000  0.43370000  1.0 0.079485895
H  H33  1  0.43000000  0.10320000  0.03220000  1.0 0.079485895
H  H34  1  0.43000000  0.89680000  0.96780000  1.0 0.079485895
H  H35  1  0.07000000  0.60320000  0.46780000  1.0 0.079485895
H  H36  1  0.07000000  0.39680000  0.53220000  1.0 0.079485895
H  H37  1  0.57000000  0.89680000  0.96780000  1.0 0.079485895
H  H38  1  0.57000000  0.10320000  0.03220000  1.0 0.079485895
H  H39  1  0.93000000  0.39680000  0.53220000  1.0 0.079485895
H  H40  1  0.93000000  0.60320000  0.46780000  1.0 0.079485895
H  H41  1  0.52710000  0.17630000  0.01250000  1.0 0.1191370811
H  H42  1  0.52710000  0.82370000  0.98750000  1.0 0.1191370811
H  H43  1  0.97290000  0.67630000  0.48750000  1.0 0.1191370811
H  H44  1  0.97290000  0.32370000  0.51250000  1.0 0.1191370811
H  H45  1  0.47290000  0.82370000  0.98750000  1.0 0.1191370811
H  H46  1  0.47290000  0.17630000  0.01250000  1.0 0.1191370811
H  H47  1  0.02710000  0.32370000  0.51250000  1.0 0.1191370811
H  H48  1  0.02710000  0.67630000  0.48750000  1.0 0.1191370811
H  H49  1  0.88890000  0.40670000  0.02720000  1.0 0.1384946565
H  H50  1  0.88890000  0.59330000  0.97280000  1.0 0.1327391424
H  H51  1  0.61110000  0.90670000  0.47280000  1.0 0.1327391424
H  H52  1  0.61110000  0.09330000  0.52720000  1.0 0.1327391424
H  H53  1  0.11110000  0.59330000  0.97280000  1.0 0.1327391424
H  H54  1  0.11110000  0.40670000  0.02720000  1.0 0.1384946565
H  H55  1  0.38890000  0.09330000  0.52720000  1.0 0.1327391424
H  H56  1  0.38890000  0.90670000  0.47280000  1.0 0.1327391424
H  H57  1  0.83530000  0.36010000  0.01620000  1.0 0.1191370811
H  H58  1  0.83530000  0.63990000  0.98380000  1.0 0.1191370811
H  H59  1  0.66470000  0.86010000  0.48380000  1.0 0.1191370811
H  H60  1  0.66470000  0.13990000  0.51620000  1.0 0.1191370811
H  H61  1  0.16470000  0.63990000  0.98380000  1.0 0.1191370811
H  H62  1  0.16470000  0.36010000  0.01620000  1.0 0.1191370811
H  H63  1  0.33530000  0.13990000  0.51620000  1.0 0.1191370811
H  H64  1  0.33530000  0.86010000  0.48380000  1.0 0.1191370811
H  H65  1  0.85380000  0.37760000  0.92120000  1.0 0.1191370811
H  H66  1  0.85380000  0.62240000  0.07880000  1.0 0.1191370811
H  H67  1  0.64620000  0.87760000  0.57880000  1.0 0.1191370811
H  H68  1  0.64620000  0.12240000  0.42120000  1.0 0.1191370811
H  H69  1  0.14620000  0.62240000  0.07880000  1.0 0.1191370811
H  H70  1  0.14620000  0.37760000  0.92120000  1.0 0.1191370811
H  H71  1  0.35380000  0.12240000  0.42120000  1.0 0.1191370811
H  H72  1  0.35380000  0.87760000  0.57880000  1.0 0.1191370811
H  H73  1  0.90560000  0.42610000  0.93370000  1.0 0.1384946565
H  H74  1  0.90560000  0.57390000  0.06630000  1.0 0.1384946565
H  H75  1  0.59440000  0.92610000  0.56630000  1.0 0.1384946565
H  H76  1  0.59440000  0.07390000  0.43370000  1.0 0.1384946565
H  H77  1  0.09440000  0.57390000  0.06630000  1.0 0.1384946565
H  H78  1  0.09440000  0.42610000  0.93370000  1.0 0.1384946565
H  H79  1  0.40560000  0.07390000  0.43370000  1.0 0.1384946565
H  H80  1  0.40560000  0.92610000  0.56630000  1.0 0.1384946565
H  H81  1  0.84250000  0.31010000  0.92290000  1.0 0.1097151186
H  H82  1  0.84250000  0.68990000  0.07710000  1.0 0.1097151186
H  H83  1  0.65750000  0.81010000  0.57710000  1.0 0.1097151186
H  H84  1  0.65750000  0.18990000  0.42290000  1.0 0.1097151186
H  H85  1  0.15750000  0.68990000  0.07710000  1.0 0.1097151186
H  H86  1  0.15750000  0.31010000  0.92290000  1.0 0.1097151186
H  H87  1  0.34250000  0.18990000  0.42290000  1.0 0.1097151186
H  H88  1  0.34250000  0.81010000  0.57710000  1.0 0.1097151186
H  H89  1  0.72910000  0.25420000  0.93580000  1.0 0.1097151186
H  H90  1  0.72910000  0.74580000  0.06420000  1.0 0.1097151186
H  H91  1  0.77090000  0.75420000  0.56420000  1.0 0.1097151186
H  H92  1  0.77090000  0.24580000  0.43580000  1.0 0.1097151186
H  H93  1  0.27090000  0.74580000  0.06420000  1.0 0.1097151186
H  H94  1  0.27090000  0.25420000  0.93580000  1.0 0.1097151186
H  H95  1  0.22910000  0.24580000  0.43580000  1.0 0.1097151186
H  H96  1  0.22910000  0.75420000  0.56420000  1.0 0.1097151186
H  H97  1  0.75770000  0.34240000  0.99290000  1.0 0.1191370811
H  H98  1  0.75770000  0.65760000  0.00710000  1.0 0.1191370811
H  H99  1  0.74230000  0.84240000  0.50710000  1.0 0.1191370811
H  H100  1  0.74230000  0.15760000  0.49290000  1.0 0.1191370811
H  H101  1  0.24230000  0.65760000  0.00710000  1.0 0.1191370811
H  H102  1  0.24230000  0.34240000  0.99290000  1.0 0.1191370811
H  H103  1  0.25770000  0.15760000  0.49290000  1.0 0.1191370811
H  H104  1  0.25770000  0.84240000  0.50710000  1.0 0.1191370811
H  H105  1  0.68670000  0.23310000  0.98070000  1.0 0.1097151186
H  H106  1  0.68670000  0.76690000  0.01930000  1.0 0.1097151186
H  H107  1  0.81330000  0.73310000  0.51930000  1.0 0.1097151186
H  H108  1  0.81330000  0.26690000  0.48070000  1.0 0.1097151186
H  H109  1  0.31330000  0.76690000  0.01930000  1.0 0.1097151186
H  H110  1  0.31330000  0.23310000  0.98070000  1.0 0.1097151186
H  H111  1  0.18670000  0.26690000  0.48070000  1.0 0.1097151186
H  H112  1  0.18670000  0.73310000  0.51930000  1.0 0.1097151186
H  H113  1  0.61820000  0.22550000  0.00780000  1.0 0.1384946565
H  H114  1  0.61820000  0.77450000  0.99220000  1.0 0.1384946565
H  H115  1  0.88180000  0.72550000  0.49220000  1.0 0.1384946565
H  H116  1  0.88180000  0.27450000  0.50780000  1.0 0.1384946565
H  H117  1  0.38180000  0.77450000  0.99220000  1.0 0.1384946565
H  H118  1  0.38180000  0.22550000  0.00780000  1.0 0.1384946565
H  H119  1  0.11820000  0.27450000  0.50780000  1.0 0.1384946565
H  H120  1  0.11820000  0.72550000  0.49220000  1.0 0.1384946565
H  H121  1  0.60790000  0.33700000  0.02120000  1.0 0.1327391424
H  H122  1  0.60790000  0.66300000  0.97880000  1.0 0.1327391424
H  H123  1  0.89210000  0.83700000  0.47880000  1.0 0.1327391424
H  H124  1  0.89210000  0.16300000  0.52120000  1.0 0.1327391424
H  H125  1  0.39210000  0.66300000  0.97880000  1.0 0.1327391424
H  H126  1  0.39210000  0.33700000  0.02120000  1.0 0.1327391424
H  H127  1  0.10790000  0.16300000  0.52120000  1.0 0.1327391424
H  H128  1  0.10790000  0.83700000  0.47880000  1.0 0.1327391424
H  H129  1  0.67640000  0.34630000  0.99520000  1.0 0.1191370811
H  H130  1  0.67640000  0.65370000  0.00480000  1.0 0.1191370811
H  H131  1  0.82360000  0.84630000  0.50480000  1.0 0.1191370811
H  H132  1  0.82360000  0.15370000  0.49520000  1.0 0.1191370811
H  H133  1  0.32360000  0.65370000  0.00480000  1.0 0.1191370811
H  H134  1  0.32360000  0.34630000  0.99520000  1.0 0.1191370811
H  H135  1  0.17640000  0.15370000  0.49520000  1.0 0.1191370811
H  H136  1  0.17640000  0.84630000  0.50480000  1.0 0.1191370811
H  H137  1  0.39230000  0.19260000  0.14120000  1.0 0.1474766422
H  H138  1  0.39230000  0.80740000  0.85880000  1.0 0.1384946565
H  H139  1  0.10770000  0.69260000  0.35880000  1.0 0.1384946565
H  H140  1  0.10770000  0.30740000  0.64120000  1.0 0.1474766422
H  H141  1  0.60770000  0.80740000  0.85880000  1.0 0.1384946565
H  H142  1  0.60770000  0.19260000  0.14120000  1.0 0.1474766422
H  H143  1  0.89230000  0.30740000  0.64120000  1.0 0.1384946565
H  H144  1  0.89230000  0.69260000  0.35880000  1.0 0.1384946565
H  H145  1  0.34160000  0.18560000  0.18290000  1.0 0.1191370811
H  H146  1  0.34160000  0.81440000  0.81710000  1.0 0.1191370811
H  H147  1  0.15840000  0.68560000  0.31710000  1.0 0.1191370811
H  H148  1  0.15840000  0.31440000  0.68290000  1.0 0.1191370811
H  H149  1  0.65840000  0.81440000  0.81710000  1.0 0.1191370811
H  H150  1  0.65840000  0.18560000  0.18290000  1.0 0.1191370811
H  H151  1  0.84160000  0.31440000  0.68290000  1.0 0.1191370811
H  H152  1  0.84160000  0.68560000  0.31710000  1.0 0.1191370811
H  H153  1  0.36510000  0.29380000  0.20930000  1.0 0.1191370811
H  H154  1  0.36510000  0.70620000  0.79070000  1.0 0.1191370811
H  H155  1  0.13490000  0.79380000  0.29070000  1.0 0.1191370811
H  H156  1  0.13490000  0.20620000  0.70930000  1.0 0.1191370811
H  H157  1  0.63490000  0.70620000  0.79070000  1.0 0.1191370811
H  H158  1  0.63490000  0.29380000  0.20930000  1.0 0.1191370811
H  H159  1  0.86510000  0.20620000  0.70930000  1.0 0.1191370811
H  H160  1  0.86510000  0.79380000  0.29070000  1.0 0.1191370811
H  H161  1  0.41630000  0.29970000  0.16760000  1.0 0.1384946565
H  H162  1  0.41630000  0.70030000  0.83240000  1.0 0.1384946565
H  H163  1  0.08370000  0.79970000  0.33240000  1.0 0.1384946565
H  H164  1  0.08370000  0.20030000  0.66760000  1.0 0.1384946565
H  H165  1  0.58370000  0.70030000  0.83240000  1.0 0.1384946565
H  H166  1  0.58370000  0.29970000  0.16760000  1.0 0.1384946565
H  H167  1  0.91630000  0.20030000  0.66760000  1.0 0.1384946565
H  H168  1  0.91630000  0.79970000  0.33240000  1.0 0.1384946565
H  H169  1  0.34890000  0.26130000  0.26130000  1.0 0.1097151186
H  H170  1  0.34890000  0.73870000  0.73870000  1.0 0.1097151186
H  H171  1  0.15110000  0.76130000  0.23870000  1.0 0.1097151186
H  H172  1  0.15110000  0.23870000  0.76130000  1.0 0.1097151186
H  H173  1  0.65110000  0.73870000  0.73870000  1.0 0.1097151186
H  H174  1  0.65110000  0.26130000  0.26130000  1.0 0.1097151186
H  H175  1  0.84890000  0.23870000  0.76130000  1.0 0.1097151186
H  H176  1  0.84890000  0.76130000  0.23870000  1.0 0.1097151186
H  H177  1  0.22690000  0.23180000  0.29190000  1.0 0.1097151186
H  H178  1  0.22690000  0.76820000  0.70810000  1.0 0.1097151186
H  H179  1  0.27310000  0.73180000  0.20810000  1.0 0.1097151186
H  H180  1  0.27310000  0.26820000  0.79190000  1.0 0.1097151186
H  H181  1  0.77310000  0.76820000  0.70810000  1.0 0.1097151186
H  H182  1  0.77310000  0.23180000  0.29190000  1.0 0.1097151186
H  H183  1  0.72690000  0.26820000  0.79190000  1.0 0.1097151186
H  H184  1  0.72690000  0.73180000  0.20810000  1.0 0.1097151186
H  H185  1  0.26300000  0.20920000  0.20100000  1.0 0.1191370811
H  H186  1  0.26300000  0.79080000  0.79900000  1.0 0.1191370811
H  H187  1  0.23700000  0.70920000  0.29900000  1.0 0.1191370811
H  H188  1  0.23700000  0.29080000  0.70100000  1.0 0.1191370811
H  H189  1  0.73700000  0.79080000  0.79900000  1.0 0.1191370811
H  H190  1  0.73700000  0.20920000  0.20100000  1.0 0.1191370811
H  H191  1  0.76300000  0.29080000  0.70100000  1.0 0.1191370811
H  H192  1  0.76300000  0.70920000  0.29900000  1.0 0.1191370811
H  H193  1  0.18380000  0.17300000  0.28240000  1.0 0.1097151186
H  H194  1  0.18380000  0.82700000  0.71760000  1.0 0.1097151186
H  H195  1  0.31620000  0.67300000  0.21760000  1.0 0.1097151186
H  H196  1  0.31620000  0.32700000  0.78240000  1.0 0.1097151186
H  H197  1  0.81620000  0.82700000  0.71760000  1.0 0.1097151186
H  H198  1  0.81620000  0.17300000  0.28240000  1.0 0.1097151186
H  H199  1  0.68380000  0.32700000  0.78240000  1.0 0.1097151186
H  H200  1  0.68380000  0.67300000  0.21760000  1.0 0.1097151186
H  H201  1  0.11340000  0.14330000  0.27170000  1.0 0.1384946565
H  H202  1  0.11340000  0.85670000  0.72830000  1.0 0.1327391424
H  H203  1  0.38660000  0.64330000  0.22830000  1.0 0.1384946565
H  H204  1  0.38660000  0.35670000  0.77170000  1.0 0.1384946565
H  H205  1  0.88660000  0.85670000  0.72830000  1.0 0.1327391424
H  H206  1  0.88660000  0.14330000  0.27170000  1.0 0.1384946565
H  H207  1  0.61340000  0.35670000  0.77170000  1.0 0.1384946565
H  H208  1  0.61340000  0.64330000  0.22830000  1.0 0.1384946565
H  H209  1  0.11230000  0.19300000  0.18390000  1.0 0.1327391424
H  H210  1  0.11230000  0.80700000  0.81610000  1.0 0.1327391424
H  H211  1  0.38770000  0.69300000  0.31610000  1.0 0.1327391424
H  H212  1  0.38770000  0.30700000  0.68390000  1.0 0.1327391424
H  H213  1  0.88770000  0.80700000  0.81610000  1.0 0.1327391424
H  H214  1  0.88770000  0.19300000  0.18390000  1.0 0.1327391424
H  H215  1  0.61230000  0.30700000  0.68390000  1.0 0.1327391424
H  H216  1  0.61230000  0.69300000  0.31610000  1.0 0.1327391424
H  H217  1  0.18180000  0.22210000  0.19530000  1.0 0.1191370811
H  H218  1  0.18180000  0.77790000  0.80470000  1.0 0.1191370811
H  H219  1  0.31820000  0.72210000  0.30470000  1.0 0.1191370811
H  H220  1  0.31820000  0.27790000  0.69530000  1.0 0.1191370811
H  H221  1  0.81820000  0.77790000  0.80470000  1.0 0.1191370811
H  H222  1  0.81820000  0.22210000  0.19530000  1.0 0.1191370811
H  H223  1  0.68180000  0.27790000  0.69530000  1.0 0.1191370811
H  H224  1  0.68180000  0.72210000  0.30470000  1.0 0.1191370811
H  H225  1  0.38730000  0.91440000  0.03490000  1.0 0.1384946565
H  H226  1  0.38730000  0.08560000  0.96510000  1.0 0.1384946565
H  H227  1  0.11270000  0.41440000  0.46510000  1.0 0.1384946565
H  H228  1  0.11270000  0.58560000  0.53490000  1.0 0.1384946565
H  H229  1  0.61270000  0.08560000  0.96510000  1.0 0.1384946565
H  H230  1  0.61270000  0.91440000  0.03490000  1.0 0.1384946565
H  H231  1  0.88730000  0.58560000  0.53490000  1.0 0.1384946565
H  H232  1  0.88730000  0.41440000  0.46510000  1.0 0.1384946565
H  H233  1  0.32150000  0.89660000  0.06090000  1.0 0.1097151186
H  H234  1  0.32150000  0.10340000  0.93910000  1.0 0.1097151186
H  H235  1  0.17850000  0.39660000  0.43910000  1.0 0.1191370811
H  H236  1  0.17850000  0.60340000  0.56090000  1.0 0.1097151186
H  H237  1  0.67850000  0.10340000  0.93910000  1.0 0.1097151186
H  H238  1  0.67850000  0.89660000  0.06090000  1.0 0.1097151186
H  H239  1  0.82150000  0.60340000  0.56090000  1.0 0.1097151186
H  H240  1  0.82150000  0.39660000  0.43910000  1.0 0.1191370811
H  H241  1  0.32340000  0.99360000  0.11160000  1.0 0.1191370811
H  H242  1  0.32340000  0.00640000  0.88840000  1.0 0.1191370811
H  H243  1  0.17660000  0.49360000  0.38840000  1.0 0.1191370811
H  H244  1  0.17660000  0.50640000  0.61160000  1.0 0.1191370811
H  H245  1  0.67660000  0.00640000  0.88840000  1.0 0.1191370811
H  H246  1  0.67660000  0.99360000  0.11160000  1.0 0.1191370811
H  H247  1  0.82340000  0.50640000  0.61160000  1.0 0.1191370811
H  H248  1  0.82340000  0.49360000  0.38840000  1.0 0.1191370811
H  H249  1  0.38860000  0.01210000  0.08360000  1.0 0.1384946565
H  H250  1  0.38860000  0.98790000  0.91640000  1.0 0.1384946565
H  H251  1  0.11140000  0.51210000  0.41640000  1.0 0.1384946565
H  H252  1  0.11140000  0.48790000  0.58360000  1.0 0.1384946565
H  H253  1  0.61140000  0.98790000  0.91640000  1.0 0.1384946565
H  H254  1  0.61140000  0.01210000  0.08360000  1.0 0.1384946565
H  H255  1  0.88860000  0.48790000  0.58360000  1.0 0.1384946565
H  H256  1  0.88860000  0.51210000  0.41640000  1.0 0.1384946565
H  H257  1  0.27950000  0.87530000  0.10460000  1.0 0.1097151186
H  H258  1  0.27950000  0.12470000  0.89540000  1.0 0.1097151186
H  H259  1  0.22050000  0.37530000  0.39540000  1.0 0.1097151186
H  H260  1  0.22050000  0.62470000  0.60460000  1.0 0.1097151186
H  H261  1  0.72050000  0.12470000  0.89540000  1.0 0.1097151186
H  H262  1  0.72050000  0.87530000  0.10460000  1.0 0.1097151186
H  H263  1  0.77950000  0.62470000  0.60460000  1.0 0.1097151186
H  H264  1  0.77950000  0.37530000  0.39540000  1.0 0.1097151186
H  H265  1  0.24500000  0.98590000  0.11170000  1.0 0.1191370811
H  H266  1  0.24500000  0.01410000  0.88830000  1.0 0.1191370811
H  H267  1  0.25500000  0.48590000  0.38830000  1.0 0.1191370811
H  H268  1  0.25500000  0.51410000  0.61170000  1.0 0.1191370811
H  H269  1  0.75500000  0.01410000  0.88830000  1.0 0.1191370811
H  H270  1  0.75500000  0.98590000  0.11170000  1.0 0.1191370811
H  H271  1  0.74500000  0.51410000  0.61170000  1.0 0.1191370811
H  H272  1  0.74500000  0.48590000  0.38830000  1.0 0.1191370811
H  H273  1  0.16170000  0.90410000  0.14360000  1.0 0.1097151186
H  H274  1  0.16170000  0.09590000  0.85640000  1.0 0.1097151186
H  H275  1  0.33830000  0.40410000  0.35640000  1.0 0.1097151186
H  H276  1  0.33830000  0.59590000  0.64360000  1.0 0.1097151186
H  H277  1  0.83830000  0.09590000  0.85640000  1.0 0.1097151186
H  H278  1  0.83830000  0.90410000  0.14360000  1.0 0.1097151186
H  H279  1  0.66170000  0.59590000  0.64360000  1.0 0.1097151186
H  H280  1  0.66170000  0.40410000  0.35640000  1.0 0.1097151186
H  H281  1  0.16500000  0.01290000  0.10340000  1.0 0.1191370811
H  H282  1  0.16500000  0.98710000  0.89660000  1.0 0.1191370811
H  H283  1  0.33500000  0.51290000  0.39660000  1.0 0.1191370811
H  H284  1  0.33500000  0.48710000  0.60340000  1.0 0.1191370811
H  H285  1  0.83500000  0.98710000  0.89660000  1.0 0.1191370811
H  H286  1  0.83500000  0.01290000  0.10340000  1.0 0.1191370811
H  H287  1  0.66500000  0.48710000  0.60340000  1.0 0.1191370811
H  H288  1  0.66500000  0.51290000  0.39660000  1.0 0.1191370811
H  H289  1  0.10960000  0.05450000  0.12140000  1.0 0.1384946565
H  H290  1  0.10960000  0.94550000  0.87860000  1.0 0.1384946565
H  H291  1  0.39040000  0.55450000  0.37860000  1.0 0.1384946565
H  H292  1  0.39040000  0.44550000  0.62140000  1.0 0.1384946565
H  H293  1  0.89040000  0.94550000  0.87860000  1.0 0.1384946565
H  H294  1  0.89040000  0.05450000  0.12140000  1.0 0.1384946565
H  H295  1  0.60960000  0.44550000  0.62140000  1.0 0.1384946565
H  H296  1  0.60960000  0.55450000  0.37860000  1.0 0.1384946565
H  H297  1  0.09860000  0.99400000  0.20340000  1.0 0.1384946565
H  H298  1  0.09860000  0.00600000  0.79660000  1.0 0.1384946565
H  H299  1  0.40140000  0.49400000  0.29660000  1.0 0.1384946565
H  H300  1  0.40140000  0.50600000  0.70340000  1.0 0.1384946565
H  H301  1  0.90140000  0.00600000  0.79660000  1.0 0.1384946565
H  H302  1  0.90140000  0.99400000  0.20340000  1.0 0.1384946565
H  H303  1  0.59860000  0.50600000  0.70340000  1.0 0.1384946565
H  H304  1  0.59860000  0.49400000  0.29660000  1.0 0.1384946565
H  H305  1  0.15200000  0.95250000  0.18400000  1.0 0.1191370811
H  H306  1  0.15200000  0.04750000  0.81600000  1.0 0.1191370811
H  H307  1  0.34800000  0.45250000  0.31600000  1.0 0.1191370811
H  H308  1  0.34800000  0.54750000  0.68400000  1.0 0.1191370811
H  H309  1  0.84800000  0.04750000  0.81600000  1.0 0.1191370811
H  H310  1  0.84800000  0.95250000  0.18400000  1.0 0.1191370811
H  H311  1  0.65200000  0.54750000  0.68400000  1.0 0.1191370811
H  H312  1  0.65200000  0.45250000  0.31600000  1.0 0.1191370811
H  H313  1  0.03790000  0.83680000  0.11340000  1.0 0.1037995483
H  H314  1  0.03790000  0.16320000  0.88660000  1.0 0.1037995483
H  H315  1  0.46210000  0.33680000  0.38660000  1.0 0.1037995483
H  H316  1  0.46210000  0.66320000  0.61340000  1.0 0.1037995483
H  H317  1  0.96210000  0.16320000  0.88660000  1.0 0.1037995483
H  H318  1  0.96210000  0.83680000  0.11340000  1.0 0.1037995483
H  H319  1  0.53790000  0.66320000  0.61340000  1.0 0.1037995483
H  H320  1  0.53790000  0.33680000  0.38660000  1.0 0.1037995483
H  H321  1  0.03790000  0.84420000  0.15090000  1.0 0.1097151186
H  H322  1  0.03790000  0.15580000  0.84910000  1.0 0.1097151186
H  H323  1  0.46210000  0.34420000  0.34910000  1.0 0.1097151186
H  H324  1  0.46210000  0.65580000  0.65090000  1.0 0.1097151186
H  H325  1  0.96210000  0.15580000  0.84910000  1.0 0.1097151186
H  H326  1  0.96210000  0.84420000  0.15090000  1.0 0.1097151186
H  H327  1  0.53790000  0.65580000  0.65090000  1.0 0.1097151186
H  H328  1  0.53790000  0.34420000  0.34910000  1.0 0.1097151186
H  H329  1  0.03800000  0.79180000  0.18850000  1.0 0.1097151186
H  H330  1  0.03800000  0.20820000  0.81150000  1.0 0.1097151186
H  H331  1  0.46200000  0.29180000  0.31150000  1.0 0.1097151186
H  H332  1  0.46200000  0.70820000  0.68850000  1.0 0.1097151186
H  H333  1  0.96200000  0.20820000  0.81150000  1.0 0.1097151186
H  H334  1  0.96200000  0.79180000  0.18850000  1.0 0.1097151186
H  H335  1  0.53800000  0.70820000  0.68850000  1.0 0.1097151186
H  H336  1  0.53800000  0.29180000  0.31150000  1.0 0.1097151186
H  H337  1  0.03800000  0.74950000  0.17550000  1.0 0.1097151186
H  H338  1  0.03800000  0.25050000  0.82450000  1.0 0.1097151186
H  H339  1  0.46200000  0.24950000  0.32450000  1.0 0.1097151186
H  H340  1  0.46200000  0.75050000  0.67550000  1.0 0.1097151186
H  H341  1  0.96200000  0.25050000  0.82450000  1.0 0.1097151186
H  H342  1  0.96200000  0.74950000  0.17550000  1.0 0.1097151186
H  H343  1  0.53800000  0.75050000  0.67550000  1.0 0.1097151186
H  H344  1  0.53800000  0.24950000  0.32450000  1.0 0.1097151186
H  H345  1  0.03870000  0.73880000  0.11600000  1.0 0.1097151186
H  H346  1  0.03870000  0.26120000  0.88400000  1.0 0.1037995483
H  H347  1  0.46130000  0.23880000  0.38400000  1.0 0.1097151186
H  H348  1  0.46130000  0.76120000  0.61600000  1.0 0.1037995483
H  H349  1  0.96130000  0.26120000  0.88400000  1.0 0.1097151186
H  H350  1  0.96130000  0.73880000  0.11600000  1.0 0.1097151186
H  H351  1  0.53870000  0.76120000  0.61600000  1.0 0.1037995483
H  H352  1  0.53870000  0.23880000  0.38400000  1.0 0.1097151186
H  H353  1  0.03870000  0.77430000  0.09260000  1.0 0.1037995483
H  H354  1  0.03870000  0.22570000  0.90740000  1.0 0.1037995483
H  H355  1  0.46130000  0.27430000  0.40740000  1.0 0.1037995483
H  H356  1  0.46130000  0.72570000  0.59260000  1.0 0.1037995483
H  H357  1  0.96130000  0.22570000  0.90740000  1.0 0.1037995483
H  H358  1  0.96130000  0.77430000  0.09260000  1.0 0.1037995483
H  H359  1  0.53870000  0.72570000  0.59260000  1.0 0.1037995483
H  H360  1  0.53870000  0.27430000  0.40740000  1.0 0.1037995483
H  H361  1  0.46010000  0.15930000  0.06530000  1.0 0.079485895
H  H362  1  0.46010000  0.84070000  0.93470000  1.0 0.079485895
H  H363  1  0.03990000  0.65930000  0.43470000  1.0 0.079485895
H  H364  1  0.03990000  0.34070000  0.56530000  1.0 0.079485895
H  H365  1  0.53990000  0.84070000  0.93470000  1.0 0.079485895
H  H366  1  0.53990000  0.15930000  0.06530000  1.0 0.079485895
H  H367  1  0.96010000  0.34070000  0.56530000  1.0 0.079485895
H  H368  1  0.96010000  0.65930000  0.43470000  1.0 0.079485895
H  H369  1  0.46010000  0.14390000  0.10170000  1.0 0.079485895
H  H370  1  0.46010000  0.85610000  0.89830000  1.0 0.079485895
H  H371  1  0.03990000  0.64390000  0.39830000  1.0 0.079485895
H  H372  1  0.03990000  0.35610000  0.60170000  1.0 0.079485895
H  H373  1  0.53990000  0.85610000  0.89830000  1.0 0.079485895
H  H374  1  0.53990000  0.14390000  0.10170000  1.0 0.079485895
H  H375  1  0.96010000  0.35610000  0.60170000  1.0 0.079485895
H  H376  1  0.96010000  0.64390000  0.39830000  1.0 0.079485895
H  H377  1  0.45940000  0.08040000  0.08260000  1.0 0.079485895
H  H378  1  0.45940000  0.91960000  0.91740000  1.0 0.079485895
H  H379  1  0.04060000  0.58040000  0.41740000  1.0 0.079485895
H  H380  1  0.04060000  0.41960000  0.58260000  1.0 0.079485895
H  H381  1  0.54060000  0.91960000  0.91740000  1.0 0.079485895
H  H382  1  0.54060000  0.08040000  0.08260000  1.0 0.079485895
H  H383  1  0.95940000  0.41960000  0.58260000  1.0 0.079485895
H  H384  1  0.95940000  0.58040000  0.41740000  1.0 0.079485895
H  H385  1  0.45940000  0.09580000  0.04610000  1.0 0.079485895
H  H386  1  0.45940000  0.90420000  0.95390000  1.0 0.079485895
H  H387  1  0.04060000  0.59580000  0.45390000  1.0 0.079485895
H  H388  1  0.04060000  0.40420000  0.54610000  1.0 0.079485895
H  H389  1  0.54060000  0.90420000  0.95390000  1.0 0.079485895
H  H390  1  0.54060000  0.09580000  0.04610000  1.0 0.079485895
H  H391  1  0.95940000  0.40420000  0.54610000  1.0 0.079485895
H  H392  1  0.95940000  0.59580000  0.45390000  1.0 0.079485895
C  C1  1  0.50000000  0.12180000  0.00809000  1.0 -0.2333052393
C  C2  1  0.50000000  0.87820000  0.99191000  1.0 -0.2333052393
C  C3  1  0.00000000  0.62180000  0.49191000  1.0 -0.2363343175
C  C4  1  0.00000000  0.37820000  0.50809000  1.0 -0.2363343175
C  C5  1  0.45330000  0.14630000  0.06210000  1.0 -0.0898107072
C  C6  1  0.45330000  0.85370000  0.93790000  1.0 -0.1013631644
C  C7  1  0.04670000  0.64630000  0.43790000  1.0 -0.1013631644
C  C8  1  0.04670000  0.35370000  0.56210000  1.0 -0.1013631644
C  C9  1  0.54670000  0.85370000  0.93790000  1.0 -0.1013631644
C  C10  1  0.54670000  0.14630000  0.06210000  1.0 -0.0898107072
C  C11  1  0.95330000  0.35370000  0.56210000  1.0 -0.0898107072
C  C12  1  0.95330000  0.64630000  0.43790000  1.0 -0.0898107072
C  C13  1  0.45320000  0.10540000  0.04900000  1.0 -0.0620472613
C  C14  1  0.45320000  0.89460000  0.95100000  1.0 -0.0620472613
C  C15  1  0.04680000  0.60540000  0.45100000  1.0 -0.0620472613
C  C16  1  0.04680000  0.39460000  0.54900000  1.0 -0.0620472613
C  C17  1  0.54680000  0.89460000  0.95100000  1.0 -0.0620472613
C  C18  1  0.54680000  0.10540000  0.04900000  1.0 -0.0620472613
C  C19  1  0.95320000  0.39460000  0.54900000  1.0 -0.0620472613
C  C20  1  0.95320000  0.60540000  0.45100000  1.0 -0.0620472613
C  C21  1  0.50000000  0.16310000  0.02063000  1.0 -0.2110973123
C  C22  1  0.50000000  0.83690000  0.97937000  1.0 -0.2110973123
C  C23  1  0.00000000  0.66310000  0.47937000  1.0 -0.2110973123
C  C24  1  0.00000000  0.33690000  0.52063000  1.0 -0.2110973123
C  C25  1  0.93860000  0.45124000  0.98850000  1.0 0.5713356499
C  C26  1  0.93860000  0.54876000  0.01150000  1.0 0.5713356499
C  C27  1  0.56140000  0.95124000  0.51150000  1.0 0.5713356499
C  C28  1  0.56140000  0.04876000  0.48850000  1.0 0.5713356499
C  C29  1  0.06140000  0.54876000  0.01150000  1.0 0.5713356499
C  C30  1  0.06140000  0.45124000  0.98850000  1.0 0.5713356499
C  C31  1  0.43860000  0.04876000  0.48850000  1.0 0.5713356499
C  C32  1  0.43860000  0.95124000  0.51150000  1.0 0.5713356499
C  C33  1  0.90310000  0.42103000  0.98112000  1.0 -0.0304545043
C  C34  1  0.90310000  0.57897000  0.01888000  1.0 -0.0304545043
C  C35  1  0.59690000  0.92103000  0.51888000  1.0 -0.0425411488
C  C36  1  0.59690000  0.07897000  0.48112000  1.0 -0.0304545043
C  C37  1  0.09690000  0.57897000  0.01888000  1.0 -0.0304545043
C  C38  1  0.09690000  0.42103000  0.98112000  1.0 -0.0304545043
C  C39  1  0.40310000  0.07897000  0.48112000  1.0 -0.0304545043
C  C40  1  0.40310000  0.92103000  0.51888000  1.0 -0.0425411488
C  C41  1  0.88160000  0.40100000  0.00584000  1.0 -0.0898107072
C  C42  1  0.88160000  0.59900000  0.99416000  1.0 -0.0898107072
C  C43  1  0.61840000  0.90100000  0.49416000  1.0 -0.0898107072
C  C44  1  0.61840000  0.09900000  0.50584000  1.0 -0.0898107072
C  C45  1  0.11840000  0.59900000  0.99416000  1.0 -0.0898107072
C  C46  1  0.11840000  0.40100000  0.00584000  1.0 -0.0898107072
C  C47  1  0.38160000  0.09900000  0.50584000  1.0 -0.0898107072
C  C48  1  0.38160000  0.90100000  0.49416000  1.0 -0.0898107072
C  C49  1  0.84980000  0.37280000  0.99932000  1.0 -0.1503595439
C  C50  1  0.84980000  0.62720000  0.00068000  1.0 -0.1503595439
C  C51  1  0.65020000  0.87280000  0.50068000  1.0 -0.1503595439
C  C52  1  0.65020000  0.12720000  0.49932000  1.0 -0.1503595439
C  C53  1  0.15020000  0.62720000  0.00068000  1.0 -0.1503595439
C  C54  1  0.15020000  0.37280000  0.99932000  1.0 -0.1503595439
C  C55  1  0.34980000  0.12720000  0.49932000  1.0 -0.1503595439
C  C56  1  0.34980000  0.87280000  0.50068000  1.0 -0.1503595439
C  C57  1  0.83930000  0.36326000  0.96726000  1.0 0.079485895
C  C58  1  0.83930000  0.63674000  0.03274000  1.0 0.079485895
C  C59  1  0.66070000  0.86326000  0.53274000  1.0 0.079485895
C  C60  1  0.66070000  0.13674000  0.46726000  1.0 0.079485895
C  C61  1  0.16070000  0.63674000  0.03274000  1.0 0.079485895
C  C62  1  0.16070000  0.36326000  0.96726000  1.0 0.079485895
C  C63  1  0.33930000  0.13674000  0.46726000  1.0 0.079485895
C  C64  1  0.33930000  0.86326000  0.53274000  1.0 0.079485895
C  C65  1  0.86040000  0.38330000  0.94274000  1.0 -0.1598079369
C  C66  1  0.86040000  0.61670000  0.05726000  1.0 -0.1598079369
C  C67  1  0.63960000  0.88330000  0.55726000  1.0 -0.1598079369
C  C68  1  0.63960000  0.11670000  0.44274000  1.0 -0.1598079369
C  C69  1  0.13960000  0.61670000  0.05726000  1.0 -0.1598079369
C  C70  1  0.13960000  0.38330000  0.94274000  1.0 -0.1598079369
C  C71  1  0.36040000  0.11670000  0.44274000  1.0 -0.1598079369
C  C72  1  0.36040000  0.88330000  0.55726000  1.0 -0.1598079369
C  C73  1  0.89190000  0.41240000  0.95043000  1.0 -0.0898107072
C  C74  1  0.89190000  0.58760000  0.04957000  1.0 -0.0898107072
C  C75  1  0.60810000  0.91240000  0.54957000  1.0 -0.0848347034
C  C76  1  0.60810000  0.08760000  0.45043000  1.0 -0.0898107072
C  C77  1  0.10810000  0.58760000  0.04957000  1.0 -0.0898107072
C  C78  1  0.10810000  0.41240000  0.95043000  1.0 -0.0898107072
C  C79  1  0.39190000  0.08760000  0.45043000  1.0 -0.0898107072
C  C80  1  0.39190000  0.91240000  0.54957000  1.0 -0.0848347034
C  C81  1  0.80593000  0.33191000  0.95918000  1.0 0.028742624
C  C82  1  0.80593000  0.66809000  0.04082000  1.0 0.028742624
C  C83  1  0.69407000  0.83191000  0.54082000  1.0 0.028742624
C  C84  1  0.69407000  0.16809000  0.45918000  1.0 0.028742624
C  C85  1  0.19407000  0.66809000  0.04082000  1.0 0.028742624
C  C86  1  0.19407000  0.33191000  0.95918000  1.0 0.028742624
C  C87  1  0.30593000  0.16809000  0.45918000  1.0 0.028742624
C  C88  1  0.30593000  0.83191000  0.54082000  1.0 0.028742624
C  C89  1  0.81520000  0.30690000  0.93441000  1.0 0.0199683552
C  C90  1  0.81520000  0.69310000  0.06559000  1.0 0.0199683552
C  C91  1  0.68480000  0.80690000  0.56559000  1.0 0.0105163042
C  C92  1  0.68480000  0.19310000  0.43441000  1.0 0.0199683552
C  C93  1  0.18480000  0.69310000  0.06559000  1.0 0.0105163042
C  C94  1  0.18480000  0.30690000  0.93441000  1.0 0.0105163042
C  C95  1  0.31520000  0.19310000  0.43441000  1.0 0.0105163042
C  C96  1  0.31520000  0.80690000  0.56559000  1.0 0.0105163042
C  C97  1  0.74880000  0.27392000  0.94215000  1.0 0.0199683552
C  C98  1  0.74880000  0.72608000  0.05785000  1.0 0.0199683552
C  C99  1  0.75120000  0.77392000  0.55785000  1.0 0.0199683552
C  C100  1  0.75120000  0.22608000  0.44215000  1.0 0.0199683552
C  C101  1  0.25120000  0.72608000  0.05785000  1.0 0.0199683552
C  C102  1  0.25120000  0.27392000  0.94215000  1.0 0.0199683552
C  C103  1  0.24880000  0.22608000  0.44215000  1.0 0.0199683552
C  C104  1  0.24880000  0.77392000  0.55785000  1.0 0.0199683552
C  C105  1  0.73579000  0.29631000  0.96775000  1.0 0.0199683552
C  C106  1  0.73579000  0.70369000  0.03225000  1.0 0.0199683552
C  C107  1  0.76421000  0.79631000  0.53225000  1.0 0.0199683552
C  C108  1  0.76421000  0.20369000  0.46775000  1.0 0.0199683552
C  C109  1  0.26421000  0.70369000  0.03225000  1.0 0.0199683552
C  C110  1  0.26421000  0.29631000  0.96775000  1.0 0.0199683552
C  C111  1  0.23579000  0.20369000  0.46775000  1.0 0.0199683552
C  C112  1  0.23579000  0.79631000  0.53225000  1.0 0.0199683552
C  C113  1  0.76540000  0.32613000  0.97592000  1.0 -0.1717546109
C  C114  1  0.76540000  0.67387000  0.02408000  1.0 -0.1717546109
C  C115  1  0.73460000  0.82613000  0.52408000  1.0 -0.1717546109
C  C116  1  0.73460000  0.17387000  0.47592000  1.0 -0.1717546109
C  C117  1  0.23460000  0.67387000  0.02408000  1.0 -0.1717546109
C  C118  1  0.23460000  0.32613000  0.97592000  1.0 -0.1717546109
C  C119  1  0.26540000  0.17387000  0.47592000  1.0 -0.1717546109
C  C120  1  0.26540000  0.82613000  0.52408000  1.0 -0.1717546109
C  C121  1  0.69007000  0.29060000  0.98515000  1.0 0.0874421803
C  C122  1  0.69007000  0.70940000  0.01485000  1.0 0.079485895
C  C123  1  0.80993000  0.79060000  0.51485000  1.0 0.0874421803
C  C124  1  0.80993000  0.20940000  0.48515000  1.0 0.0874421803
C  C125  1  0.30993000  0.70940000  0.01485000  1.0 0.079485895
C  C126  1  0.30993000  0.29060000  0.98515000  1.0 0.079485895
C  C127  1  0.19007000  0.20940000  0.48515000  1.0 0.079485895
C  C128  1  0.19007000  0.79060000  0.51485000  1.0 0.0874421803
C  C129  1  0.67150000  0.25439000  0.98912000  1.0 -0.1598079369
C  C130  1  0.67150000  0.74561000  0.01088000  1.0 -0.1598079369
C  C131  1  0.82850000  0.75439000  0.51088000  1.0 -0.1598079369
C  C132  1  0.82850000  0.24561000  0.48912000  1.0 -0.1598079369
C  C133  1  0.32850000  0.74561000  0.01088000  1.0 -0.1598079369
C  C134  1  0.32850000  0.25439000  0.98912000  1.0 -0.1598079369
C  C135  1  0.17150000  0.24561000  0.48912000  1.0 -0.1598079369
C  C136  1  0.17150000  0.75439000  0.51088000  1.0 -0.1598079369
C  C137  1  0.63055000  0.24989000  0.00551000  1.0 -0.0898107072
C  C138  1  0.63055000  0.75011000  0.99449000  1.0 -0.1013631644
C  C139  1  0.86945000  0.74989000  0.49449000  1.0 -0.0898107072
C  C140  1  0.86945000  0.25011000  0.50551000  1.0 -0.0898107072
C  C141  1  0.36945000  0.75011000  0.99449000  1.0 -0.1013631644
C  C142  1  0.36945000  0.24989000  0.00551000  1.0 -0.0898107072
C  C143  1  0.13055000  0.25011000  0.50551000  1.0 -0.0898107072
C  C144  1  0.13055000  0.74989000  0.49449000  1.0 -0.0898107072
C  C145  1  0.60787000  0.28017000  0.01837000  1.0 -0.0425411488
C  C146  1  0.60787000  0.71983000  0.98163000  1.0 -0.0425411488
C  C147  1  0.89213000  0.78017000  0.48163000  1.0 -0.0425411488
C  C148  1  0.89213000  0.21983000  0.51837000  1.0 -0.0425411488
C  C149  1  0.39213000  0.71983000  0.98163000  1.0 -0.0425411488
C  C150  1  0.39213000  0.28017000  0.01837000  1.0 -0.0425411488
C  C151  1  0.10787000  0.21983000  0.51837000  1.0 -0.0425411488
C  C152  1  0.10787000  0.78017000  0.48163000  1.0 -0.0425411488
C  C153  1  0.62440000  0.31604000  0.01361000  1.0 -0.0898107072
C  C154  1  0.62440000  0.68396000  0.98639000  1.0 -0.0898107072
C  C155  1  0.87560000  0.81604000  0.48639000  1.0 -0.0848347034
C  C156  1  0.87560000  0.18396000  0.51361000  1.0 -0.0898107072
C  C157  1  0.37560000  0.68396000  0.98639000  1.0 -0.0898107072
C  C158  1  0.37560000  0.31604000  0.01361000  1.0 -0.0898107072
C  C159  1  0.12440000  0.18396000  0.51361000  1.0 -0.0898107072
C  C160  1  0.12440000  0.81604000  0.48639000  1.0 -0.0898107072
C  C161  1  0.66500000  0.32153000  0.99776000  1.0 -0.1503595439
C  C162  1  0.66500000  0.67847000  0.00224000  1.0 -0.1503595439
C  C163  1  0.83500000  0.82153000  0.50224000  1.0 -0.1503595439
C  C164  1  0.83500000  0.17847000  0.49776000  1.0 -0.1503595439
C  C165  1  0.33500000  0.67847000  0.00224000  1.0 -0.1503595439
C  C166  1  0.33500000  0.32153000  0.99776000  1.0 -0.1503595439
C  C167  1  0.16500000  0.17847000  0.49776000  1.0 -0.1503595439
C  C168  1  0.16500000  0.82153000  0.50224000  1.0 -0.1503595439
C  C169  1  0.56631000  0.27420000  0.03812000  1.0 0.5624076974
C  C170  1  0.56631000  0.72580000  0.96188000  1.0 0.5624076974
C  C171  1  0.93369000  0.77420000  0.46188000  1.0 0.5624076974
C  C172  1  0.93369000  0.22580000  0.53812000  1.0 0.5624076974
C  C173  1  0.43369000  0.72580000  0.96188000  1.0 0.5624076974
C  C174  1  0.43369000  0.27420000  0.03812000  1.0 0.5624076974
C  C175  1  0.06631000  0.22580000  0.53812000  1.0 0.5624076974
C  C176  1  0.06631000  0.77420000  0.46188000  1.0 0.5624076974
C  C177  1  0.44094000  0.25330000  0.12143000  1.0 0.5624076974
C  C178  1  0.44094000  0.74670000  0.87857000  1.0 0.5624076974
C  C179  1  0.05906000  0.75330000  0.37857000  1.0 0.5624076974
C  C180  1  0.05906000  0.24670000  0.62143000  1.0 0.5624076974
C  C181  1  0.55906000  0.74670000  0.87857000  1.0 0.5624076974
C  C182  1  0.55906000  0.25330000  0.12143000  1.0 0.5624076974
C  C183  1  0.94094000  0.24670000  0.62143000  1.0 0.5624076974
C  C184  1  0.94094000  0.75330000  0.37857000  1.0 0.5624076974
C  C185  1  0.40827000  0.24740000  0.14960000  1.0 -0.0196421935
C  C186  1  0.40827000  0.75260000  0.85040000  1.0 -0.0196421935
C  C187  1  0.09173000  0.74740000  0.35040000  1.0 -0.0196421935
C  C188  1  0.09173000  0.25260000  0.64960000  1.0 -0.0196421935
C  C189  1  0.59173000  0.75260000  0.85040000  1.0 -0.0196421935
C  C190  1  0.59173000  0.24740000  0.14960000  1.0 -0.0196421935
C  C191  1  0.90827000  0.25260000  0.64960000  1.0 -0.0196421935
C  C192  1  0.90827000  0.74740000  0.35040000  1.0 -0.0196421935
C  C193  1  0.38640000  0.21320000  0.15481000  1.0 -0.1013631644
C  C194  1  0.38640000  0.78680000  0.84519000  1.0 -0.1013631644
C  C195  1  0.11360000  0.71320000  0.34519000  1.0 -0.1013631644
C  C196  1  0.11360000  0.28680000  0.65481000  1.0 -0.1013631644
C  C197  1  0.61360000  0.78680000  0.84519000  1.0 -0.1013631644
C  C198  1  0.61360000  0.21320000  0.15481000  1.0 -0.1013631644
C  C199  1  0.88640000  0.28680000  0.65481000  1.0 -0.1013631644
C  C200  1  0.88640000  0.71320000  0.34519000  1.0 -0.1013631644
C  C201  1  0.35610000  0.20900000  0.17967000  1.0 -0.1503595439
C  C202  1  0.35610000  0.79100000  0.82033000  1.0 -0.1503595439
C  C203  1  0.14390000  0.70900000  0.32033000  1.0 -0.1503595439
C  C204  1  0.14390000  0.29100000  0.67967000  1.0 -0.1503595439
C  C205  1  0.64390000  0.79100000  0.82033000  1.0 -0.1503595439
C  C206  1  0.64390000  0.20900000  0.17967000  1.0 -0.1503595439
C  C207  1  0.85610000  0.29100000  0.67967000  1.0 -0.1503595439
C  C208  1  0.85610000  0.70900000  0.32033000  1.0 -0.1503595439
C  C209  1  0.34680000  0.23900000  0.20001000  1.0 0.079485895
C  C210  1  0.34680000  0.76100000  0.79999000  1.0 0.079485895
C  C211  1  0.15320000  0.73900000  0.29999000  1.0 0.079485895
C  C212  1  0.15320000  0.26100000  0.70001000  1.0 0.079485895
C  C213  1  0.65320000  0.76100000  0.79999000  1.0 0.079485895
C  C214  1  0.65320000  0.23900000  0.20001000  1.0 0.079485895
C  C215  1  0.84680000  0.26100000  0.70001000  1.0 0.079485895
C  C216  1  0.84680000  0.73900000  0.29999000  1.0 0.079485895
C  C217  1  0.37020000  0.27330000  0.19538000  1.0 -0.1503595439
C  C218  1  0.37020000  0.72670000  0.80462000  1.0 -0.1503595439
C  C219  1  0.12980000  0.77330000  0.30462000  1.0 -0.1598079369
C  C220  1  0.12980000  0.22670000  0.69538000  1.0 -0.1503595439
C  C221  1  0.62980000  0.72670000  0.80462000  1.0 -0.1503595439
C  C222  1  0.62980000  0.27330000  0.19538000  1.0 -0.1503595439
C  C223  1  0.87020000  0.22670000  0.69538000  1.0 -0.1503595439
C  C224  1  0.87020000  0.77330000  0.30462000  1.0 -0.1503595439
C  C225  1  0.40050000  0.27680000  0.17045000  1.0 -0.1013631644
C  C226  1  0.40050000  0.72320000  0.82955000  1.0 -0.0898107072
C  C227  1  0.09950000  0.77680000  0.32955000  1.0 -0.0898107072
C  C228  1  0.09950000  0.22320000  0.67045000  1.0 -0.0898107072
C  C229  1  0.59950000  0.72320000  0.82955000  1.0 -0.0898107072
C  C230  1  0.59950000  0.27680000  0.17045000  1.0 -0.0898107072
C  C231  1  0.90050000  0.22320000  0.67045000  1.0 -0.0898107072
C  C232  1  0.90050000  0.77680000  0.32955000  1.0 -0.0898107072
C  C233  1  0.31134000  0.23685000  0.22658000  1.0 0.0199683552
C  C234  1  0.31134000  0.76315000  0.77342000  1.0 0.0199683552
C  C235  1  0.18866000  0.73685000  0.27342000  1.0 0.0199683552
C  C236  1  0.18866000  0.26315000  0.72658000  1.0 0.0199683552
C  C237  1  0.68866000  0.76315000  0.77342000  1.0 0.0199683552
C  C238  1  0.68866000  0.23685000  0.22658000  1.0 0.0199683552
C  C239  1  0.81134000  0.26315000  0.72658000  1.0 0.0199683552
C  C240  1  0.81134000  0.73685000  0.27342000  1.0 0.0199683552
C  C241  1  0.32012000  0.25049000  0.25723000  1.0 0.028742624
C  C242  1  0.32012000  0.74951000  0.74277000  1.0 0.028742624
C  C243  1  0.17988000  0.75049000  0.24277000  1.0 0.028742624
C  C244  1  0.17988000  0.24951000  0.75723000  1.0 0.028742624
C  C245  1  0.67988000  0.74951000  0.74277000  1.0 0.028742624
C  C246  1  0.67988000  0.25049000  0.25723000  1.0 0.028742624
C  C247  1  0.82012000  0.24951000  0.75723000  1.0 0.028742624
C  C248  1  0.82012000  0.75049000  0.24277000  1.0 0.028742624
C  C249  1  0.24843000  0.23285000  0.27521000  1.0 0.0105163042
C  C250  1  0.24843000  0.76715000  0.72479000  1.0 0.0105163042
C  C251  1  0.25157000  0.73285000  0.22479000  1.0 0.0105163042
C  C252  1  0.25157000  0.26715000  0.77521000  1.0 0.0105163042
C  C253  1  0.75157000  0.76715000  0.72479000  1.0 0.0105163042
C  C254  1  0.75157000  0.23285000  0.27521000  1.0 0.0105163042
C  C255  1  0.74843000  0.26715000  0.77521000  1.0 0.0105163042
C  C256  1  0.74843000  0.73285000  0.22479000  1.0 0.0105163042
C  C257  1  0.23670000  0.21776000  0.24554000  1.0 0.028742624
C  C258  1  0.23670000  0.78224000  0.75446000  1.0 0.028742624
C  C259  1  0.26330000  0.71776000  0.25446000  1.0 0.028742624
C  C260  1  0.26330000  0.28224000  0.74554000  1.0 0.028742624
C  C261  1  0.76330000  0.78224000  0.75446000  1.0 0.028742624
C  C262  1  0.76330000  0.21776000  0.24554000  1.0 0.028742624
C  C263  1  0.73670000  0.28224000  0.74554000  1.0 0.028742624
C  C264  1  0.73670000  0.71776000  0.25446000  1.0 0.028742624
C  C265  1  0.26940000  0.21965000  0.22116000  1.0 -0.1598079369
C  C266  1  0.26940000  0.78035000  0.77884000  1.0 -0.1598079369
C  C267  1  0.23060000  0.71965000  0.27884000  1.0 -0.1598079369
C  C268  1  0.23060000  0.28035000  0.72116000  1.0 -0.1598079369
C  C269  1  0.73060000  0.78035000  0.77884000  1.0 -0.1598079369
C  C270  1  0.73060000  0.21965000  0.22116000  1.0 -0.1598079369
C  C271  1  0.76940000  0.28035000  0.72116000  1.0 -0.1598079369
C  C272  1  0.76940000  0.71965000  0.27884000  1.0 -0.1598079369
C  C273  1  0.19070000  0.20070000  0.24012000  1.0 0.0709328831
C  C274  1  0.19070000  0.79930000  0.75988000  1.0 0.0709328831
C  C275  1  0.30930000  0.70070000  0.25988000  1.0 0.0709328831
C  C276  1  0.30930000  0.29930000  0.74012000  1.0 0.0709328831
C  C277  1  0.80930000  0.79930000  0.75988000  1.0 0.0709328831
C  C278  1  0.80930000  0.20070000  0.24012000  1.0 0.0709328831
C  C279  1  0.69070000  0.29930000  0.74012000  1.0 0.0709328831
C  C280  1  0.69070000  0.70070000  0.25988000  1.0 0.0709328831
C  C281  1  0.16950000  0.17700000  0.26254000  1.0 -0.1598079369
C  C282  1  0.16950000  0.82300000  0.73746000  1.0 -0.1598079369
C  C283  1  0.33050000  0.67700000  0.23746000  1.0 -0.1598079369
C  C284  1  0.33050000  0.32300000  0.76254000  1.0 -0.1598079369
C  C285  1  0.83050000  0.82300000  0.73746000  1.0 -0.1598079369
C  C286  1  0.83050000  0.17700000  0.26254000  1.0 -0.1598079369
C  C287  1  0.66950000  0.32300000  0.76254000  1.0 -0.1598079369
C  C288  1  0.66950000  0.67700000  0.23746000  1.0 -0.1598079369
C  C289  1  0.12720000  0.15900000  0.25628000  1.0 -0.0898107072
C  C290  1  0.12720000  0.84100000  0.74372000  1.0 -0.0898107072
C  C291  1  0.37280000  0.65900000  0.24372000  1.0 -0.0898107072
C  C292  1  0.37280000  0.34100000  0.75628000  1.0 -0.0898107072
C  C293  1  0.87280000  0.84100000  0.74372000  1.0 -0.0898107072
C  C294  1  0.87280000  0.15900000  0.25628000  1.0 -0.0898107072
C  C295  1  0.62720000  0.34100000  0.75628000  1.0 -0.0898107072
C  C296  1  0.62720000  0.65900000  0.24372000  1.0 -0.0898107072
C  C297  1  0.10690000  0.16506000  0.22686000  1.0 -0.0304545043
C  C298  1  0.10690000  0.83494000  0.77314000  1.0 -0.0304545043
C  C299  1  0.39310000  0.66506000  0.27314000  1.0 -0.0304545043
C  C300  1  0.39310000  0.33494000  0.72686000  1.0 -0.0304545043
C  C301  1  0.89310000  0.83494000  0.77314000  1.0 -0.0304545043
C  C302  1  0.89310000  0.16506000  0.22686000  1.0 -0.0304545043
C  C303  1  0.60690000  0.33494000  0.72686000  1.0 -0.0304545043
C  C304  1  0.60690000  0.66506000  0.27314000  1.0 -0.0304545043
C  C305  1  0.12680000  0.18890000  0.20365000  1.0 -0.0898107072
C  C306  1  0.12680000  0.81110000  0.79635000  1.0 -0.0898107072
C  C307  1  0.37320000  0.68890000  0.29635000  1.0 -0.0898107072
C  C308  1  0.37320000  0.31110000  0.70365000  1.0 -0.0898107072
C  C309  1  0.87320000  0.81110000  0.79635000  1.0 -0.0898107072
C  C310  1  0.87320000  0.18890000  0.20365000  1.0 -0.0898107072
C  C311  1  0.62680000  0.31110000  0.70365000  1.0 -0.0898107072
C  C312  1  0.62680000  0.68890000  0.29635000  1.0 -0.0898107072
C  C313  1  0.16830000  0.20620000  0.21069000  1.0 -0.1598079369
C  C314  1  0.16830000  0.79380000  0.78931000  1.0 -0.1598079369
C  C315  1  0.33170000  0.70620000  0.28931000  1.0 -0.1503595439
C  C316  1  0.33170000  0.29380000  0.71069000  1.0 -0.1598079369
C  C317  1  0.83170000  0.79380000  0.78931000  1.0 -0.1503595439
C  C318  1  0.83170000  0.20620000  0.21069000  1.0 -0.1598079369
C  C319  1  0.66830000  0.29380000  0.71069000  1.0 -0.1598079369
C  C320  1  0.66830000  0.70620000  0.28931000  1.0 -0.1503595439
C  C321  1  0.06379000  0.14330000  0.21670000  1.0 0.5713356499
C  C322  1  0.06379000  0.85670000  0.78330000  1.0 0.5713356499
C  C323  1  0.43621000  0.64330000  0.28330000  1.0 0.5713356499
C  C324  1  0.43621000  0.35670000  0.71670000  1.0 0.5713356499
C  C325  1  0.93621000  0.85670000  0.78330000  1.0 0.5713356499
C  C326  1  0.93621000  0.14330000  0.21670000  1.0 0.5713356499
C  C327  1  0.56379000  0.35670000  0.71670000  1.0 0.5713356499
C  C328  1  0.56379000  0.64330000  0.28330000  1.0 0.5713356499
C  C329  1  0.43605000  0.97834000  0.03718000  1.0 0.5457718734
C  C330  1  0.43605000  0.02166000  0.96282000  1.0 0.5457718734
C  C331  1  0.06395000  0.47834000  0.46282000  1.0 0.5457718734
C  C332  1  0.06395000  0.52166000  0.53718000  1.0 0.5457718734
C  C333  1  0.56395000  0.02166000  0.96282000  1.0 0.5457718734
C  C334  1  0.56395000  0.97834000  0.03718000  1.0 0.5457718734
C  C335  1  0.93605000  0.52166000  0.53718000  1.0 0.5457718734
C  C336  1  0.93605000  0.47834000  0.46282000  1.0 0.5457718734
C  C337  1  0.39457000  0.96584000  0.05583000  1.0 -0.0196421935
C  C338  1  0.39457000  0.03416000  0.94417000  1.0 -0.0196421935
C  C339  1  0.10543000  0.46584000  0.44417000  1.0 -0.0196421935
C  C340  1  0.10543000  0.53416000  0.55583000  1.0 -0.0196421935
C  C341  1  0.60543000  0.03416000  0.94417000  1.0 -0.0196421935
C  C342  1  0.60543000  0.96584000  0.05583000  1.0 -0.0196421935
C  C343  1  0.89457000  0.53416000  0.55583000  1.0 -0.0196421935
C  C344  1  0.89457000  0.46584000  0.44417000  1.0 -0.0196421935
C  C345  1  0.37415000  0.93093000  0.04997000  1.0 -0.1013631644
C  C346  1  0.37415000  0.06907000  0.95003000  1.0 -0.1013631644
C  C347  1  0.12585000  0.43093000  0.45003000  1.0 -0.1013631644
C  C348  1  0.12585000  0.56907000  0.54997000  1.0 -0.1013631644
C  C349  1  0.62585000  0.06907000  0.95003000  1.0 -0.1013631644
C  C350  1  0.62585000  0.93093000  0.04997000  1.0 -0.1013631644
C  C351  1  0.87415000  0.56907000  0.54997000  1.0 -0.1013631644
C  C352  1  0.87415000  0.43093000  0.45003000  1.0 -0.1013631644
C  C353  1  0.33490000  0.92004000  0.06587000  1.0 -0.1598079369
C  C354  1  0.33490000  0.07996000  0.93413000  1.0 -0.1598079369
C  C355  1  0.16510000  0.42004000  0.43413000  1.0 -0.1598079369
C  C356  1  0.16510000  0.57996000  0.56587000  1.0 -0.1598079369
C  C357  1  0.66510000  0.07996000  0.93413000  1.0 -0.1598079369
C  C358  1  0.66510000  0.92004000  0.06587000  1.0 -0.1598079369
C  C359  1  0.83490000  0.57996000  0.56587000  1.0 -0.1598079369
C  C360  1  0.83490000  0.42004000  0.43413000  1.0 -0.1598079369
C  C361  1  0.31487000  0.94276000  0.08893000  1.0 0.079485895
C  C362  1  0.31487000  0.05724000  0.91107000  1.0 0.079485895
C  C363  1  0.18513000  0.44276000  0.41107000  1.0 0.079485895
C  C364  1  0.18513000  0.55724000  0.58893000  1.0 0.079485895
C  C365  1  0.68513000  0.05724000  0.91107000  1.0 0.079485895
C  C366  1  0.68513000  0.94276000  0.08893000  1.0 0.079485895
C  C367  1  0.81487000  0.55724000  0.58893000  1.0 0.079485895
C  C368  1  0.81487000  0.44276000  0.41107000  1.0 0.079485895
C  C369  1  0.33570000  0.97760000  0.09577000  1.0 -0.1598079369
C  C370  1  0.33570000  0.02240000  0.90423000  1.0 -0.1598079369
C  C371  1  0.16430000  0.47760000  0.40423000  1.0 -0.1598079369
C  C372  1  0.16430000  0.52240000  0.59577000  1.0 -0.1598079369
C  C373  1  0.66430000  0.02240000  0.90423000  1.0 -0.1598079369
C  C374  1  0.66430000  0.97760000  0.09577000  1.0 -0.1598079369
C  C375  1  0.83570000  0.52240000  0.59577000  1.0 -0.1598079369
C  C376  1  0.83570000  0.47760000  0.40423000  1.0 -0.1598079369
C  C377  1  0.37509000  0.98858000  0.07897000  1.0 -0.1013631644
C  C378  1  0.37509000  0.01142000  0.92103000  1.0 -0.1013631644
C  C379  1  0.12491000  0.48858000  0.42103000  1.0 -0.1013631644
C  C380  1  0.12491000  0.51142000  0.57897000  1.0 -0.1013631644
C  C381  1  0.62491000  0.01142000  0.92103000  1.0 -0.1013631644
C  C382  1  0.62491000  0.98858000  0.07897000  1.0 -0.1013631644
C  C383  1  0.87509000  0.51142000  0.57897000  1.0 -0.1013631644
C  C384  1  0.87509000  0.48858000  0.42103000  1.0 -0.1013631644
C  C385  1  0.27094000  0.93209000  0.10568000  1.0 0.0199683552
C  C386  1  0.27094000  0.06791000  0.89432000  1.0 0.0199683552
C  C387  1  0.22906000  0.43209000  0.39432000  1.0 0.0199683552
C  C388  1  0.22906000  0.56791000  0.60568000  1.0 0.0199683552
C  C389  1  0.72906000  0.06791000  0.89432000  1.0 0.0199683552
C  C390  1  0.72906000  0.93209000  0.10568000  1.0 0.0199683552
C  C391  1  0.77094000  0.56791000  0.60568000  1.0 0.0199683552
C  C392  1  0.77094000  0.43209000  0.39432000  1.0 0.0199683552
C  C393  1  0.25905000  0.89439000  0.11113000  1.0 0.0199683552
C  C394  1  0.25905000  0.10561000  0.88887000  1.0 0.0199683552
C  C395  1  0.24095000  0.39439000  0.38887000  1.0 0.0199683552
C  C396  1  0.24095000  0.60561000  0.61113000  1.0 0.0199683552
C  C397  1  0.74095000  0.10561000  0.88887000  1.0 0.0199683552
C  C398  1  0.74095000  0.89439000  0.11113000  1.0 0.0199683552
C  C399  1  0.75905000  0.60561000  0.61113000  1.0 0.0199683552
C  C400  1  0.75905000  0.39439000  0.38887000  1.0 0.0199683552
C  C401  1  0.23850000  0.96022000  0.11535000  1.0 -0.1598079369
C  C402  1  0.23850000  0.03978000  0.88465000  1.0 -0.1598079369
C  C403  1  0.26150000  0.46022000  0.38465000  1.0 -0.1598079369
C  C404  1  0.26150000  0.53978000  0.61535000  1.0 -0.1598079369
C  C405  1  0.76150000  0.03978000  0.88465000  1.0 -0.1598079369
C  C406  1  0.76150000  0.96022000  0.11535000  1.0 -0.1598079369
C  C407  1  0.73850000  0.53978000  0.61535000  1.0 -0.1598079369
C  C408  1  0.73850000  0.46022000  0.38465000  1.0 -0.1598079369
C  C409  1  0.19820000  0.95026000  0.12994000  1.0 0.028742624
C  C410  1  0.19820000  0.04974000  0.87006000  1.0 0.028742624
C  C411  1  0.30180000  0.45026000  0.37006000  1.0 0.028742624
C  C412  1  0.30180000  0.54974000  0.62994000  1.0 0.028742624
C  C413  1  0.80180000  0.04974000  0.87006000  1.0 0.028742624
C  C414  1  0.80180000  0.95026000  0.12994000  1.0 0.028742624
C  C415  1  0.69820000  0.54974000  0.62994000  1.0 0.028742624
C  C416  1  0.69820000  0.45026000  0.37006000  1.0 0.028742624
C  C417  1  0.18950000  0.91137000  0.13418000  1.0 0.0199683552
C  C418  1  0.18950000  0.08863000  0.86582000  1.0 0.0199683552
C  C419  1  0.31050000  0.41137000  0.36582000  1.0 0.0199683552
C  C420  1  0.31050000  0.58863000  0.63418000  1.0 0.0199683552
C  C421  1  0.81050000  0.08863000  0.86582000  1.0 0.0199683552
C  C422  1  0.81050000  0.91137000  0.13418000  1.0 0.0199683552
C  C423  1  0.68950000  0.58863000  0.63418000  1.0 0.0199683552
C  C424  1  0.68950000  0.41137000  0.36582000  1.0 0.0199683552
C  C425  1  0.16450000  0.97825000  0.14139000  1.0 0.0709328831
C  C426  1  0.16450000  0.02175000  0.85861000  1.0 0.0709328831
C  C427  1  0.33550000  0.47825000  0.35861000  1.0 0.0709328831
C  C428  1  0.33550000  0.52175000  0.64139000  1.0 0.0709328831
C  C429  1  0.83550000  0.02175000  0.85861000  1.0 0.0709328831
C  C430  1  0.83550000  0.97825000  0.14139000  1.0 0.0709328831
C  C431  1  0.66450000  0.52175000  0.64139000  1.0 0.0709328831
C  C432  1  0.66450000  0.47825000  0.35861000  1.0 0.0709328831
C  C433  1  0.15140000  0.00880000  0.12345000  1.0 -0.1503595439
C  C434  1  0.15140000  0.99120000  0.87655000  1.0 -0.1503595439
C  C435  1  0.34860000  0.50880000  0.37655000  1.0 -0.1400508513
C  C436  1  0.34860000  0.49120000  0.62345000  1.0 -0.1503595439
C  C437  1  0.84860000  0.99120000  0.87655000  1.0 -0.1400508513
C  C438  1  0.84860000  0.00880000  0.12345000  1.0 -0.1503595439
C  C439  1  0.65140000  0.49120000  0.62345000  1.0 -0.1400508513
C  C440  1  0.65140000  0.50880000  0.37655000  1.0 -0.1400508513
C  C441  1  0.11840000  0.03389000  0.13430000  1.0 -0.0898107072
C  C442  1  0.11840000  0.96611000  0.86570000  1.0 -0.0898107072
C  C443  1  0.38160000  0.53389000  0.36570000  1.0 -0.0898107072
C  C444  1  0.38160000  0.46611000  0.63430000  1.0 -0.0898107072
C  C445  1  0.88160000  0.96611000  0.86570000  1.0 -0.0898107072
C  C446  1  0.88160000  0.03389000  0.13430000  1.0 -0.0898107072
C  C447  1  0.61840000  0.46611000  0.63430000  1.0 -0.0898107072
C  C448  1  0.61840000  0.53389000  0.36570000  1.0 -0.0898107072
C  C449  1  0.09800000  0.02870000  0.16452000  1.0 -0.0304545043
C  C450  1  0.09800000  0.97130000  0.83548000  1.0 -0.0304545043
C  C451  1  0.40200000  0.52870000  0.33548000  1.0 -0.0304545043
C  C452  1  0.40200000  0.47130000  0.66452000  1.0 -0.0304545043
C  C453  1  0.90200000  0.97130000  0.83548000  1.0 -0.0304545043
C  C454  1  0.90200000  0.02870000  0.16452000  1.0 -0.0304545043
C  C455  1  0.59800000  0.47130000  0.66452000  1.0 -0.0304545043
C  C456  1  0.59800000  0.52870000  0.33548000  1.0 -0.0304545043
C  C457  1  0.11140000  0.99790000  0.18310000  1.0 -0.0898107072
C  C458  1  0.11140000  0.00210000  0.81690000  1.0 -0.0898107072
C  C459  1  0.38860000  0.49790000  0.31690000  1.0 -0.0898107072
C  C460  1  0.38860000  0.50210000  0.68310000  1.0 -0.0898107072
C  C461  1  0.88860000  0.00210000  0.81690000  1.0 -0.0898107072
C  C462  1  0.88860000  0.99790000  0.18310000  1.0 -0.0898107072
C  C463  1  0.61140000  0.50210000  0.68310000  1.0 -0.0898107072
C  C464  1  0.61140000  0.49790000  0.31690000  1.0 -0.0898107072
C  C465  1  0.14360000  0.97343000  0.17140000  1.0 -0.1598079369
C  C466  1  0.14360000  0.02657000  0.82860000  1.0 -0.1503595439
C  C467  1  0.35640000  0.47343000  0.32860000  1.0 -0.1598079369
C  C468  1  0.35640000  0.52657000  0.67140000  1.0 -0.1503595439
C  C469  1  0.85640000  0.02657000  0.82860000  1.0 -0.1503595439
C  C470  1  0.85640000  0.97343000  0.17140000  1.0 -0.1503595439
C  C471  1  0.64360000  0.52657000  0.67140000  1.0 -0.1503595439
C  C472  1  0.64360000  0.47343000  0.32860000  1.0 -0.1503595439
C  C473  1  0.06020000  0.05650000  0.17647000  1.0 0.5713356499
C  C474  1  0.06020000  0.94350000  0.82353000  1.0 0.5713356499
C  C475  1  0.43980000  0.55650000  0.32353000  1.0 0.5713356499
C  C476  1  0.43980000  0.44350000  0.67647000  1.0 0.5713356499
C  C477  1  0.93980000  0.94350000  0.82353000  1.0 0.5713356499
C  C478  1  0.93980000  0.05650000  0.17647000  1.0 0.5713356499
C  C479  1  0.56020000  0.44350000  0.67647000  1.0 0.5713356499
C  C480  1  0.56020000  0.55650000  0.32353000  1.0 0.5713356499
C  C481  1  0.02670000  0.82726000  0.13403000  1.0 -0.1203773541
C  C482  1  0.02670000  0.17274000  0.86597000  1.0 -0.1269072007
C  C483  1  0.47330000  0.32726000  0.36597000  1.0 -0.1269072007
C  C484  1  0.47330000  0.67274000  0.63403000  1.0 -0.1269072007
C  C485  1  0.97330000  0.17274000  0.86597000  1.0 -0.1203773541
C  C486  1  0.97330000  0.82726000  0.13403000  1.0 -0.1203773541
C  C487  1  0.52670000  0.67274000  0.63403000  1.0 -0.1269072007
C  C488  1  0.52670000  0.32726000  0.36597000  1.0 -0.1269072007
C  C489  1  0.02671000  0.77520000  0.17142000  1.0 -0.1203773541
C  C490  1  0.02671000  0.22480000  0.82858000  1.0 -0.1203773541
C  C491  1  0.47329000  0.27520000  0.32858000  1.0 -0.1203773541
C  C492  1  0.47329000  0.72480000  0.67142000  1.0 -0.1203773541
C  C493  1  0.97329000  0.22480000  0.82858000  1.0 -0.1203773541
C  C494  1  0.97329000  0.77520000  0.17142000  1.0 -0.1203773541
C  C495  1  0.52671000  0.72480000  0.67142000  1.0 -0.1203773541
C  C496  1  0.52671000  0.27520000  0.32858000  1.0 -0.1203773541
C  C497  1  0.02737000  0.76480000  0.11320000  1.0 -0.1269072007
C  C498  1  0.02737000  0.23520000  0.88680000  1.0 -0.1269072007
C  C499  1  0.47263000  0.26480000  0.38680000  1.0 -0.1269072007
C  C500  1  0.47263000  0.73520000  0.61320000  1.0 -0.1269072007
C  C501  1  0.97263000  0.23520000  0.88680000  1.0 -0.1269072007
C  C502  1  0.97263000  0.76480000  0.11320000  1.0 -0.1269072007
C  C503  1  0.52737000  0.73520000  0.61320000  1.0 -0.1269072007
C  C504  1  0.52737000  0.26480000  0.38680000  1.0 -0.1269072007
C  C505  1  0.47350000  0.14100000  0.08030000  1.0 -0.0727935482
C  C506  1  0.47350000  0.85900000  0.91970000  1.0 -0.0727935482
C  C507  1  0.02650000  0.64100000  0.41970000  1.0 -0.0727935482
C  C508  1  0.02650000  0.35900000  0.58030000  1.0 -0.0727935482
C  C509  1  0.52650000  0.85900000  0.91970000  1.0 -0.0727935482
C  C510  1  0.52650000  0.14100000  0.08030000  1.0 -0.0727935482
C  C511  1  0.97350000  0.35900000  0.58030000  1.0 -0.0727935482
C  C512  1  0.97350000  0.64100000  0.41970000  1.0 -0.0727935482
C  C513  1  0.47290000  0.09860000  0.06750000  1.0 -0.0620472613
C  C514  1  0.47290000  0.90140000  0.93250000  1.0 -0.0620472613
C  C515  1  0.02710000  0.59860000  0.43250000  1.0 -0.0620472613
C  C516  1  0.02710000  0.40140000  0.56750000  1.0 -0.0620472613
C  C517  1  0.52710000  0.90140000  0.93250000  1.0 -0.0620472613
C  C518  1  0.52710000  0.09860000  0.06750000  1.0 -0.0620472613
C  C519  1  0.97290000  0.40140000  0.56750000  1.0 -0.0620472613
C  C520  1  0.97290000  0.59860000  0.43250000  1.0 -0.0620472613
I  I1  1  0.14358000  0.83336000  0.18769000  1.0 -0.3773270893
I  I2  1  0.14358000  0.16664000  0.81231000  1.0 -0.3773270893
I  I3  1  0.35642000  0.33333333  0.31231000  1.0 -0.3773270893
I  I4  1  0.35642000  0.66666667  0.68769000  1.0 -0.3773270893
I  I5  1  0.85642000  0.16664000  0.81231000  1.0 -0.3773270893
I  I6  1  0.85642000  0.83336000  0.18769000  1.0 -0.3773270893
I  I7  1  0.64358000  0.66666667  0.68769000  1.0 -0.3773270893
I  I8  1  0.64358000  0.33333333  0.31231000  1.0 -0.3773270893
I  I9  1  0.27006000  0.78260000  0.13983000  1.0 -0.3181400943
I  I10  1  0.27006000  0.21740000  0.86017000  1.0 -0.3181400943
I  I11  1  0.22994000  0.28260000  0.36017000  1.0 -0.3181400943
I  I12  1  0.22994000  0.71740000  0.63983000  1.0 -0.3181400943
I  I13  1  0.72994000  0.21740000  0.86017000  1.0 -0.3181400943
I  I14  1  0.72994000  0.78260000  0.13983000  1.0 -0.3181400943
I  I15  1  0.77006000  0.71740000  0.63983000  1.0 -0.3181400943
I  I16  1  0.77006000  0.28260000  0.36017000  1.0 -0.3181400943
I  I17  1  0.14346000  0.81372000  0.08180000  1.0 -0.3181400943
I  I18  1  0.14346000  0.18628000  0.91820000  1.0 -0.3181400943
I  I19  1  0.35654000  0.31372000  0.41820000  1.0 -0.3181400943
I  I20  1  0.35654000  0.68628000  0.58180000  1.0 -0.3181400943
I  I21  1  0.85654000  0.18628000  0.91820000  1.0 -0.3181400943
I  I22  1  0.85654000  0.81372000  0.08180000  1.0 -0.3181400943
I  I23  1  0.64346000  0.68628000  0.58180000  1.0 -0.3181400943
I  I24  1  0.64346000  0.31372000  0.41820000  1.0 -0.3181400943
I  I25  1  0.13907000  0.71401000  0.14942000  1.0 -0.3414684284
I  I26  1  0.13907000  0.28599000  0.85058000  1.0 -0.3414684284
I  I27  1  0.36093000  0.21401000  0.35058000  1.0 -0.3414684284
I  I28  1  0.36093000  0.78599000  0.64942000  1.0 -0.3414684284
I  I29  1  0.86093000  0.28599000  0.85058000  1.0 -0.3414684284
I  I30  1  0.86093000  0.71401000  0.14942000  1.0 -0.3414684284
I  I31  1  0.63907000  0.78599000  0.64942000  1.0 -0.3414684284
I  I32  1  0.63907000  0.21401000  0.35058000  1.0 -0.3414684284
N  N1  1  0.78752000  0.27860000  0.92597000  1.0 -0.1400508513
N  N2  1  0.78752000  0.72140000  0.07403000  1.0 -0.1400508513
N  N3  1  0.71248000  0.77860000  0.57403000  1.0 -0.1400508513
N  N4  1  0.71248000  0.22140000  0.42597000  1.0 -0.1400508513
N  N5  1  0.21248000  0.72140000  0.07403000  1.0 -0.1400508513
N  N6  1  0.21248000  0.27860000  0.92597000  1.0 -0.1400508513
N  N7  1  0.28752000  0.22140000  0.42597000  1.0 -0.1400508513
N  N8  1  0.28752000  0.77860000  0.57403000  1.0 -0.1400508513
N  N9  1  0.50000000  0.16450000  0.05616000  1.0 -0.0620472613
N  N10  1  0.50000000  0.83550000  0.94384000  1.0 -0.0620472613
N  N11  1  0.00000000  0.66450000  0.44384000  1.0 -0.0620472613
N  N12  1  0.00000000  0.33550000  0.55616000  1.0 -0.0620472613
N  N13  1  0.50000000  0.09424000  0.03526000  1.0 -0.0304545043
N  N14  1  0.50000000  0.90576000  0.96474000  1.0 -0.0304545043
N  N15  1  0.00000000  0.59424000  0.46474000  1.0 -0.0304545043
N  N16  1  0.00000000  0.40576000  0.53526000  1.0 -0.0304545043
N  N17  1  0.29005000  0.24917000  0.28125000  1.0 -0.1400508513
N  N18  1  0.29005000  0.75083000  0.71875000  1.0 -0.1400508513
N  N19  1  0.20995000  0.74917000  0.21875000  1.0 -0.1400508513
N  N20  1  0.20995000  0.25083000  0.78125000  1.0 -0.1400508513
N  N21  1  0.70995000  0.75083000  0.71875000  1.0 -0.1400508513
N  N22  1  0.70995000  0.24917000  0.28125000  1.0 -0.1400508513
N  N23  1  0.79005000  0.25083000  0.78125000  1.0 -0.1400508513
N  N24  1  0.79005000  0.74917000  0.21875000  1.0 -0.1400508513
N  N25  1  0.21947000  0.88390000  0.12535000  1.0 -0.1400508513
N  N26  1  0.21947000  0.11610000  0.87465000  1.0 -0.1400508513
N  N27  1  0.28053000  0.38390000  0.37465000  1.0 -0.1400508513
N  N28  1  0.28053000  0.61610000  0.62535000  1.0 -0.1400508513
N  N29  1  0.78053000  0.11610000  0.87465000  1.0 -0.1400508513
N  N30  1  0.78053000  0.88390000  0.12535000  1.0 -0.1400508513
N  N31  1  0.71947000  0.61610000  0.62535000  1.0 -0.1400508513
N  N32  1  0.71947000  0.38390000  0.37465000  1.0 -0.1400508513
N  N33  1  0.04437000  0.78896000  0.13944000  1.0 -0.0495168019
N  N34  1  0.04437000  0.21104000  0.86056000  1.0 -0.0495168019
N  N35  1  0.45563000  0.28896000  0.36056000  1.0 -0.0495168019
N  N36  1  0.45563000  0.71104000  0.63944000  1.0 -0.0495168019
N  N37  1  0.95563000  0.21104000  0.86056000  1.0 -0.0495168019
N  N38  1  0.95563000  0.78896000  0.13944000  1.0 -0.0495168019
N  N39  1  0.54437000  0.71104000  0.63944000  1.0 -0.0495168019
N  N40  1  0.54437000  0.28896000  0.36056000  1.0 -0.0495168019
O  O1  1  0.95248000  0.47017000  0.96497000  1.0 -0.5069019507
O  O2  1  0.95248000  0.52983000  0.03503000  1.0 -0.5069019507
O  O3  1  0.54752000  0.97017000  0.53503000  1.0 -0.5069019507
O  O4  1  0.54752000  0.02983000  0.46497000  1.0 -0.5069019507
O  O5  1  0.04752000  0.52983000  0.03503000  1.0 -0.5069019507
O  O6  1  0.04752000  0.47017000  0.96497000  1.0 -0.5069019507
O  O7  1  0.45248000  0.02983000  0.46497000  1.0 -0.5069019507
O  O8  1  0.45248000  0.97017000  0.53503000  1.0 -0.5069019507
O  O9  1  0.95186000  0.45361000  0.01779000  1.0 -0.5264691125
O  O10  1  0.95186000  0.54639000  0.98221000  1.0 -0.5264691125
O  O11  1  0.54814000  0.95361000  0.48221000  1.0 -0.5264691125
O  O12  1  0.54814000  0.04639000  0.51779000  1.0 -0.5264691125
O  O13  1  0.04814000  0.54639000  0.98221000  1.0 -0.5264691125
O  O14  1  0.04814000  0.45361000  0.01779000  1.0 -0.5264691125
O  O15  1  0.45186000  0.04639000  0.51779000  1.0 -0.5264691125
O  O16  1  0.45186000  0.95361000  0.48221000  1.0 -0.5264691125
O  O17  1  0.54839000  0.30336000  0.05085000  1.0 -0.5013862245
O  O18  1  0.54839000  0.69664000  0.94915000  1.0 -0.5013862245
O  O19  1  0.95161000  0.80336000  0.44915000  1.0 -0.5013862245
O  O20  1  0.95161000  0.19664000  0.55085000  1.0 -0.5013862245
O  O21  1  0.45161000  0.69664000  0.94915000  1.0 -0.5013862245
O  O22  1  0.45161000  0.30336000  0.05085000  1.0 -0.5013862245
O  O23  1  0.04839000  0.19664000  0.55085000  1.0 -0.5013862245
O  O24  1  0.04839000  0.80336000  0.44915000  1.0 -0.5013862245
O  O25  1  0.54970000  0.24077000  0.04073000  1.0 -0.5396877364
O  O26  1  0.54970000  0.75923000  0.95927000  1.0 -0.5396877364
O  O27  1  0.95030000  0.74077000  0.45927000  1.0 -0.5396877364
O  O28  1  0.95030000  0.25923000  0.54073000  1.0 -0.5505391146
O  O29  1  0.45030000  0.75923000  0.95927000  1.0 -0.5505391146
O  O30  1  0.45030000  0.24077000  0.04073000  1.0 -0.5505391146
O  O31  1  0.04970000  0.25923000  0.54073000  1.0 -0.5396877364
O  O32  1  0.04970000  0.74077000  0.45927000  1.0 -0.5505391146
O  O33  1  0.45354000  0.28705000  0.11545000  1.0 -0.5013862245
O  O34  1  0.45354000  0.71295000  0.88455000  1.0 -0.5013862245
O  O35  1  0.04646000  0.78705000  0.38455000  1.0 -0.5013862245
O  O36  1  0.04646000  0.21295000  0.61545000  1.0 -0.5013862245
O  O37  1  0.54646000  0.71295000  0.88455000  1.0 -0.5013862245
O  O38  1  0.54646000  0.28705000  0.11545000  1.0 -0.5013862245
O  O39  1  0.95354000  0.21295000  0.61545000  1.0 -0.5013862245
O  O40  1  0.95354000  0.78705000  0.38455000  1.0 -0.5013862245
O  O41  1  0.45283000  0.22309000  0.10607000  1.0 -0.5505391146
O  O42  1  0.45283000  0.77691000  0.89393000  1.0 -0.5505391146
O  O43  1  0.04717000  0.72309000  0.39393000  1.0 -0.5505391146
O  O44  1  0.04717000  0.27691000  0.60607000  1.0 -0.5505391146
O  O45  1  0.54717000  0.77691000  0.89393000  1.0 -0.5505391146
O  O46  1  0.54717000  0.22309000  0.10607000  1.0 -0.5505391146
O  O47  1  0.95283000  0.27691000  0.60607000  1.0 -0.5505391146
O  O48  1  0.95283000  0.72309000  0.39393000  1.0 -0.5505391146
O  O49  1  0.45165000  0.01090000  0.04318000  1.0 -0.5202666718
O  O50  1  0.45165000  0.98910000  0.95682000  1.0 -0.5202666718
O  O51  1  0.04835000  0.51090000  0.45682000  1.0 -0.5202666718
O  O52  1  0.04835000  0.48910000  0.54318000  1.0 -0.5202666718
O  O53  1  0.54835000  0.98910000  0.95682000  1.0 -0.5202666718
O  O54  1  0.54835000  0.01090000  0.04318000  1.0 -0.5202666718
O  O55  1  0.95165000  0.48910000  0.54318000  1.0 -0.5202666718
O  O56  1  0.95165000  0.51090000  0.45682000  1.0 -0.5202666718
O  O57  1  0.45149000  0.95475000  0.01656000  1.0 -0.5396877364
O  O58  1  0.45149000  0.04525000  0.98344000  1.0 -0.5396877364
O  O59  1  0.04851000  0.45475000  0.48344000  1.0 -0.5396877364
O  O60  1  0.04851000  0.54525000  0.51656000  1.0 -0.5396877364
O  O61  1  0.54851000  0.04525000  0.98344000  1.0 -0.5396877364
O  O62  1  0.54851000  0.95475000  0.01656000  1.0 -0.5396877364
O  O63  1  0.95149000  0.54525000  0.51656000  1.0 -0.5396877364
O  O64  1  0.95149000  0.45475000  0.48344000  1.0 -0.5396877364
O  O65  1  0.04675000  0.08172000  0.15675000  1.0 -0.5264691125
O  O66  1  0.04675000  0.91828000  0.84325000  1.0 -0.5264691125
O  O67  1  0.45325000  0.58172000  0.34325000  1.0 -0.5264691125
O  O68  1  0.45325000  0.41828000  0.65675000  1.0 -0.5264691125
O  O69  1  0.95325000  0.91828000  0.84325000  1.0 -0.5264691125
O  O70  1  0.95325000  0.08172000  0.15675000  1.0 -0.5264691125
O  O71  1  0.54675000  0.41828000  0.65675000  1.0 -0.5264691125
O  O72  1  0.54675000  0.58172000  0.34325000  1.0 -0.5264691125
O  O73  1  0.04691000  0.05178000  0.20497000  1.0 -0.5202666718
O  O74  1  0.04691000  0.94822000  0.79503000  1.0 -0.5202666718
O  O75  1  0.45309000  0.55178000  0.29503000  1.0 -0.5202666718
O  O76  1  0.45309000  0.44822000  0.70497000  1.0 -0.5202666718
O  O77  1  0.95309000  0.94822000  0.79503000  1.0 -0.5202666718
O  O78  1  0.95309000  0.05178000  0.20497000  1.0 -0.5202666718
O  O79  1  0.54691000  0.44822000  0.70497000  1.0 -0.5202666718
O  O80  1  0.54691000  0.55178000  0.29503000  1.0 -0.5202666718
O  O81  1  0.04806000  0.14969000  0.18905000  1.0 -0.5202666718
O  O82  1  0.04806000  0.85031000  0.81095000  1.0 -0.5202666718
O  O83  1  0.45194000  0.64969000  0.31095000  1.0 -0.5202666718
O  O84  1  0.45194000  0.35031000  0.68905000  1.0 -0.5202666718
O  O85  1  0.95194000  0.85031000  0.81095000  1.0 -0.5202666718
O  O86  1  0.95194000  0.14969000  0.18905000  1.0 -0.5202666718
O  O87  1  0.54806000  0.35031000  0.68905000  1.0 -0.5202666718
O  O88  1  0.54806000  0.64969000  0.31095000  1.0 -0.5202666718
O  O89  1  0.04868000  0.12024000  0.23752000  1.0 -0.5202666718
O  O90  1  0.04868000  0.87976000  0.76248000  1.0 -0.5202666718
O  O91  1  0.45132000  0.62024000  0.26248000  1.0 -0.5202666718
O  O92  1  0.45132000  0.37976000  0.73752000  1.0 -0.5202666718
O  O93  1  0.95132000  0.87976000  0.76248000  1.0 -0.5202666718
O  O94  1  0.95132000  0.12024000  0.23752000  1.0 -0.5202666718
O  O95  1  0.54868000  0.37976000  0.73752000  1.0 -0.5202666718
O  O96  1  0.54868000  0.62024000  0.26248000  1.0 -0.5202666718
