# DDEC6 charges by PACMAN v1.1 (https://github.com/mtap-research/PACMAN-charge/)
data_OVEKUY_FSR_pacman
_symmetry_space_group_name_H-M   'P 1'
_cell_length_a   6.72880000
_cell_length_b   12.82920000
_cell_length_c   20.41740000
_cell_angle_alpha   90.00000000
_cell_angle_beta   90.00000000
_cell_angle_gamma   90.00000000
_symmetry_Int_Tables_number   1
_chemical_formula_structural   GaC14SO7
_chemical_formula_sum   'Ga4 C56 S4 O28'
_cell_volume   1762.53452469
_cell_formula_units_Z   4
loop_
 _symmetry_equiv_pos_site_id
 _symmetry_equiv_pos_as_xyz
  1  'x, y, z'
loop_
 _atom_site_type_symbol
 _atom_site_label
 _atom_site_symmetry_multiplicity
 _atom_site_fract_x
 _atom_site_fract_y
 _atom_site_fract_z
 _atom_site_occupancy
 _atom_site_charge
Ga  Ga1  1  0.07430000  0.75000000  0.24790000  1.0 1.3918884093
Ga  Ga2  1  0.57430000  0.75000000  0.25210000  1.0 1.3918884093
Ga  Ga3  1  0.42570000  0.25000000  0.74790000  1.0 1.3918884093
Ga  Ga4  1  0.92570000  0.25000000  0.75210000  1.0 1.3918884093
C  C1  1  0.67466000  0.01468000  0.41052000  1.0 0.0552944789
C  C2  1  0.68887000  0.09356000  0.45502000  1.0 -0.0163663985
C  C3  1  0.87152000  0.13644000  0.46857000  1.0 -0.074750424
C  C4  1  0.03997000  0.10033000  0.43774000  1.0 -0.0036475204
C  C5  1  0.02585000  0.02135000  0.39324000  1.0 0.0385091239
C  C6  1  0.84320000  0.97857000  0.37968000  1.0 -0.0339590639
C  C7  1  0.82743000  0.89125000  0.33053000  1.0 0.6442201579
C  C8  1  0.17466000  0.48532000  0.08948000  1.0 0.0552944789
C  C9  1  0.18887000  0.40644000  0.04498000  1.0 -0.0110408705
C  C10  1  0.37152000  0.36356000  0.03143000  1.0 -0.074750424
C  C11  1  0.53997000  0.39967000  0.06226000  1.0 -0.0036475204
C  C12  1  0.52585000  0.47865000  0.10676000  1.0 0.0385091239
C  C13  1  0.34320000  0.52143000  0.12032000  1.0 -0.0358249387
C  C14  1  0.32743000  0.60875000  0.16947000  1.0 0.6442201579
C  C15  1  0.17466000  0.01468000  0.08948000  1.0 0.0552944789
C  C16  1  0.18887000  0.09356000  0.04498000  1.0 -0.0163663985
C  C17  1  0.37152000  0.13644000  0.03143000  1.0 -0.074750424
C  C18  1  0.53997000  0.10033000  0.06226000  1.0 -0.0036475204
C  C19  1  0.52585000  0.02135000  0.10676000  1.0 0.0385091239
C  C20  1  0.34320000  0.97857000  0.12032000  1.0 -0.0358249387
C  C21  1  0.32743000  0.89125000  0.16947000  1.0 0.6442201579
C  C22  1  0.67466000  0.48532000  0.41052000  1.0 0.0543417143
C  C23  1  0.68887000  0.40644000  0.45502000  1.0 -0.0163663985
C  C24  1  0.87152000  0.36356000  0.46857000  1.0 -0.074750424
C  C25  1  0.03997000  0.39967000  0.43774000  1.0 -0.0110408705
C  C26  1  0.02585000  0.47865000  0.39324000  1.0 0.0385091239
C  C27  1  0.84320000  0.52143000  0.37968000  1.0 -0.0358249387
C  C28  1  0.82743000  0.60875000  0.33053000  1.0 0.6442201579
C  C29  1  0.82534000  0.98532000  0.91052000  1.0 0.0543417143
C  C30  1  0.81113000  0.90644000  0.95502000  1.0 -0.0110408705
C  C31  1  0.62848000  0.86356000  0.96857000  1.0 -0.0762377213
C  C32  1  0.46003000  0.89967000  0.93774000  1.0 -0.0036475204
C  C33  1  0.47415000  0.97865000  0.89324000  1.0 0.0385091239
C  C34  1  0.65680000  0.02143000  0.87968000  1.0 -0.0339590639
C  C35  1  0.67257000  0.10875000  0.83053000  1.0 0.6442201579
C  C36  1  0.32534000  0.51468000  0.58948000  1.0 0.0552944789
C  C37  1  0.31113000  0.59356000  0.54498000  1.0 -0.0110408705
C  C38  1  0.12848000  0.63644000  0.53143000  1.0 -0.0762377213
C  C39  1  0.96003000  0.60033000  0.56226000  1.0 -0.0036475204
C  C40  1  0.97415000  0.52135000  0.60676000  1.0 0.0385091239
C  C41  1  0.15680000  0.47857000  0.62032000  1.0 -0.0358249387
C  C42  1  0.17257000  0.39125000  0.66947000  1.0 0.6442201579
C  C43  1  0.32534000  0.98532000  0.58948000  1.0 0.0543417143
C  C44  1  0.31113000  0.90644000  0.54498000  1.0 -0.0163663985
C  C45  1  0.12848000  0.86356000  0.53143000  1.0 -0.074750424
C  C46  1  0.96003000  0.89967000  0.56226000  1.0 -0.0110408705
C  C47  1  0.97415000  0.97865000  0.60676000  1.0 0.0385091239
C  C48  1  0.15680000  0.02143000  0.62032000  1.0 -0.0358249387
C  C49  1  0.17257000  0.10875000  0.66947000  1.0 0.6442201579
C  C50  1  0.82534000  0.51468000  0.91052000  1.0 0.0552944789
C  C51  1  0.81113000  0.59356000  0.95502000  1.0 -0.0163663985
C  C52  1  0.62848000  0.63644000  0.96857000  1.0 -0.0762377213
C  C53  1  0.46003000  0.60033000  0.93774000  1.0 -0.0036475204
C  C54  1  0.47415000  0.52135000  0.89324000  1.0 0.0385091239
C  C55  1  0.65680000  0.47857000  0.87968000  1.0 -0.0339590639
C  C56  1  0.67257000  0.39125000  0.83053000  1.0 0.6442201579
S  S1  1  0.87900000  0.25000000  0.52660000  1.0 1.0000854129
S  S2  1  0.37900000  0.25000000  0.97340000  1.0 1.0000854129
S  S3  1  0.62100000  0.75000000  0.02660000  1.0 1.0000854129
S  S4  1  0.12100000  0.75000000  0.47340000  1.0 1.0000854129
O  O1  1  0.99640000  0.85950000  0.30950000  1.0 -0.5107854685
O  O2  1  0.65300000  0.85850000  0.31600000  1.0 -0.4962966038
O  O3  1  0.49640000  0.64050000  0.19050000  1.0 -0.5107854685
O  O4  1  0.15300000  0.64150000  0.18400000  1.0 -0.4962966038
O  O5  1  0.49640000  0.85950000  0.19050000  1.0 -0.5107854685
O  O6  1  0.15300000  0.85850000  0.18400000  1.0 -0.4962966038
O  O7  1  0.99640000  0.64050000  0.30950000  1.0 -0.5107854685
O  O8  1  0.65300000  0.64150000  0.31600000  1.0 -0.4962966038
O  O9  1  0.69300000  0.25000000  0.56040000  1.0 -0.3912315076
O  O10  1  0.09200000  0.25000000  0.54150000  1.0 -0.4474114483
O  O11  1  0.19300000  0.25000000  0.93960000  1.0 -0.3912315076
O  O12  1  0.59200000  0.25000000  0.95850000  1.0 -0.4474114483
O  O13  1  0.82200000  0.75000000  0.21480000  1.0 -0.7586248821
O  O14  1  0.32200000  0.75000000  0.28520000  1.0 -0.7586248821
O  O15  1  0.50360000  0.14050000  0.80950000  1.0 -0.5107854685
O  O16  1  0.84700000  0.14150000  0.81600000  1.0 -0.4962966038
O  O17  1  0.00360000  0.35950000  0.69050000  1.0 -0.5107854685
O  O18  1  0.34700000  0.35850000  0.68400000  1.0 -0.4962966038
O  O19  1  0.00360000  0.14050000  0.69050000  1.0 -0.5107854685
O  O20  1  0.34700000  0.14150000  0.68400000  1.0 -0.4962966038
O  O21  1  0.50360000  0.35950000  0.80950000  1.0 -0.5107854685
O  O22  1  0.84700000  0.35850000  0.81600000  1.0 -0.4962966038
O  O23  1  0.80700000  0.75000000  0.06040000  1.0 -0.3912315076
O  O24  1  0.40800000  0.75000000  0.04150000  1.0 -0.4449629193
O  O25  1  0.30700000  0.75000000  0.43960000  1.0 -0.3912315076
O  O26  1  0.90800000  0.75000000  0.45850000  1.0 -0.4449629193
O  O27  1  0.67800000  0.25000000  0.71480000  1.0 -0.7516286677
O  O28  1  0.17800000  0.25000000  0.78520000  1.0 -0.7516286677
