# DDEC6 charges by PACMAN v1.1 (https://github.com/mtap-research/PACMAN-charge/)
data_OVEXOD_ASR_pacman
_symmetry_space_group_name_H-M   'P 1'
_cell_length_a   20.46040000
_cell_length_b   20.46040000
_cell_length_c   21.93700000
_cell_angle_alpha   62.15860000
_cell_angle_beta   117.84100000
_cell_angle_gamma   111.16900000
_symmetry_Int_Tables_number   1
_chemical_formula_structural   Mn9H80C128(N16O17)2
_chemical_formula_sum   'Mn18 H160 C256 N64 O68'
_cell_volume   7059.31321134
_cell_formula_units_Z   2
loop_
 _symmetry_equiv_pos_site_id
 _symmetry_equiv_pos_as_xyz
  1  'x, y, z'
loop_
 _atom_site_type_symbol
 _atom_site_label
 _atom_site_symmetry_multiplicity
 _atom_site_fract_x
 _atom_site_fract_y
 _atom_site_fract_z
 _atom_site_occupancy
 _atom_site_charge
Mn  Mn1  1  0.98931000  0.98931000  0.75000000  1.0 0.9312233912
Mn  Mn2  1  0.01069000  0.01069000  0.25000000  1.0 0.9312233912
Mn  Mn3  1  0.79058000  0.11538000  0.60390000  1.0 1.0514996039
Mn  Mn4  1  0.11538000  0.79058000  0.89610000  1.0 1.0514996039
Mn  Mn5  1  0.20942000  0.88462000  0.39610000  1.0 1.0514996039
Mn  Mn6  1  0.88462000  0.20942000  0.10390000  1.0 1.0514996039
Mn  Mn7  1  0.72143000  0.25853000  0.58824000  1.0 1.0906085657
Mn  Mn8  1  0.25853000  0.72143000  0.91176000  1.0 1.0906085657
Mn  Mn9  1  0.27857000  0.74147000  0.41176000  1.0 1.0906085657
Mn  Mn10  1  0.74147000  0.27857000  0.08824000  1.0 1.0906085657
Mn  Mn11  1  0.66549000  0.24193000  0.42090000  1.0 1.0638551699
Mn  Mn12  1  0.24193000  0.66549000  0.07910000  1.0 1.0638551699
Mn  Mn13  1  0.33451000  0.75807000  0.57910000  1.0 1.0638551699
Mn  Mn14  1  0.75807000  0.33451000  0.92090000  1.0 1.0651669489
Mn  Mn15  1  0.61224000  0.39072000  0.94080000  1.0 1.1021031128
Mn  Mn16  1  0.39072000  0.61224000  0.55920000  1.0 1.1021031128
Mn  Mn17  1  0.38776000  0.60928000  0.05920000  1.0 1.1021031128
Mn  Mn18  1  0.60928000  0.38776000  0.44080000  1.0 1.1021031128
H  H1  1  0.83770000  0.03370000  0.48780000  1.0 0.1283298434
H  H2  1  0.03370000  0.83770000  0.01220000  1.0 0.1283298434
H  H3  1  0.16230000  0.96630000  0.51220000  1.0 0.1283298434
H  H4  1  0.96630000  0.16230000  0.98780000  1.0 0.1283298434
H  H5  1  0.67990000  0.13890000  0.30180000  1.0 0.1283298434
H  H6  1  0.13890000  0.67990000  0.19820000  1.0 0.1283298434
H  H7  1  0.32010000  0.86110000  0.69820000  1.0 0.1283298434
H  H8  1  0.86110000  0.32010000  0.80180000  1.0 0.1283298434
H  H9  1  0.69790000  0.08830000  0.23650000  1.0 0.1201710647
H  H10  1  0.08830000  0.69790000  0.26350000  1.0 0.1201710647
H  H11  1  0.30210000  0.91170000  0.76350000  1.0 0.1201710647
H  H12  1  0.91170000  0.30210000  0.73650000  1.0 0.1201710647
H  H13  1  0.78570000  0.01270000  0.29560000  1.0 0.1201710647
H  H14  1  0.01270000  0.78570000  0.20440000  1.0 0.1201710647
H  H15  1  0.21430000  0.98730000  0.70440000  1.0 0.1201710647
H  H16  1  0.98730000  0.21430000  0.79560000  1.0 0.1133313223
H  H17  1  0.02500000  0.86140000  0.64500000  1.0 0.1283298434
H  H18  1  0.86140000  0.02500000  0.85500000  1.0 0.1283298434
H  H19  1  0.97500000  0.13860000  0.35500000  1.0 0.1283298434
H  H20  1  0.13860000  0.97500000  0.14500000  1.0 0.1283298434
H  H21  1  0.14870000  0.71450000  0.69890000  1.0 0.1283298434
H  H22  1  0.71450000  0.14870000  0.80110000  1.0 0.1283298434
H  H23  1  0.85130000  0.28550000  0.30110000  1.0 0.1283298434
H  H24  1  0.28550000  0.85130000  0.19890000  1.0 0.1283298434
H  H25  1  0.09430000  0.71970000  0.57750000  1.0 0.1201710647
H  H26  1  0.71970000  0.09430000  0.92250000  1.0 0.1201710647
H  H27  1  0.90570000  0.28030000  0.42250000  1.0 0.1201710647
H  H28  1  0.28030000  0.90570000  0.07750000  1.0 0.1201710647
H  H29  1  0.01060000  0.79960000  0.48940000  1.0 0.1283298434
H  H30  1  0.79960000  0.01060000  0.01060000  1.0 0.1283298434
H  H31  1  0.98940000  0.20040000  0.51060000  1.0 0.1283298434
H  H32  1  0.20040000  0.98940000  0.98940000  1.0 0.1283298434
H  H33  1  0.65760000  0.00560000  0.64430000  1.0 0.1283298434
H  H34  1  0.00560000  0.65760000  0.85570000  1.0 0.1283298434
H  H35  1  0.34240000  0.99440000  0.35570000  1.0 0.1283298434
H  H36  1  0.99440000  0.34240000  0.14430000  1.0 0.1283298434
H  H37  1  0.46640000  0.08720000  0.51050000  1.0 0.1201710647
H  H38  1  0.08720000  0.46640000  0.98950000  1.0 0.1201710647
H  H39  1  0.53360000  0.91280000  0.48950000  1.0 0.1201710647
H  H40  1  0.91280000  0.53360000  0.01050000  1.0 0.1201710647
H  H41  1  0.40140000  0.98200000  0.57670000  1.0 0.1201710647
H  H42  1  0.98200000  0.40140000  0.92330000  1.0 0.1201710647
H  H43  1  0.59860000  0.01800000  0.42330000  1.0 0.1201710647
H  H44  1  0.01800000  0.59860000  0.07670000  1.0 0.1201710647
H  H45  1  0.46170000  0.88570000  0.67300000  1.0 0.1201710647
H  H46  1  0.88570000  0.46170000  0.82700000  1.0 0.1201710647
H  H47  1  0.53830000  0.11430000  0.32700000  1.0 0.1201710647
H  H48  1  0.11430000  0.53830000  0.17300000  1.0 0.1201710647
H  H49  1  0.82560000  0.85460000  0.80940000  1.0 0.1133313223
H  H50  1  0.85460000  0.82560000  0.69060000  1.0 0.1133313223
H  H51  1  0.17440000  0.14540000  0.19060000  1.0 0.1133313223
H  H52  1  0.14540000  0.17440000  0.30940000  1.0 0.1133313223
H  H53  1  0.91580000  0.66780000  0.91310000  1.0 0.1201710647
H  H54  1  0.66780000  0.91580000  0.58690000  1.0 0.1201710647
H  H55  1  0.08420000  0.33220000  0.08690000  1.0 0.1201710647
H  H56  1  0.33220000  0.08420000  0.41310000  1.0 0.1201710647
H  H57  1  0.80150000  0.59550000  0.92220000  1.0 0.1283298434
H  H58  1  0.59550000  0.80150000  0.57780000  1.0 0.1283298434
H  H59  1  0.19850000  0.40450000  0.07780000  1.0 0.1283298434
H  H60  1  0.40450000  0.19850000  0.42220000  1.0 0.1283298434
H  H61  1  0.69840000  0.65000000  0.87220000  1.0 0.1201710647
H  H62  1  0.65000000  0.69840000  0.62780000  1.0 0.1201710647
H  H63  1  0.30160000  0.35000000  0.12780000  1.0 0.1201710647
H  H64  1  0.35000000  0.30160000  0.37220000  1.0 0.1201710647
H  H65  1  0.02750000  0.24630000  0.68910000  1.0 0.1201710647
H  H66  1  0.24630000  0.02750000  0.81090000  1.0 0.1201710647
H  H67  1  0.97250000  0.75370000  0.31090000  1.0 0.1201710647
H  H68  1  0.75370000  0.97250000  0.18910000  1.0 0.1201710647
H  H69  1  0.88470000  0.39070000  0.54780000  1.0 0.1402740521
H  H70  1  0.39070000  0.88470000  0.95220000  1.0 0.1402740521
H  H71  1  0.11530000  0.60930000  0.45220000  1.0 0.1402740521
H  H72  1  0.60930000  0.11530000  0.04780000  1.0 0.1402740521
H  H73  1  0.98070000  0.48910000  0.57630000  1.0 0.1201710647
H  H74  1  0.48910000  0.98070000  0.92370000  1.0 0.1201710647
H  H75  1  0.01930000  0.51090000  0.42370000  1.0 0.1201710647
H  H76  1  0.51090000  0.01930000  0.07630000  1.0 0.1201710647
H  H77  1  0.09830000  0.46510000  0.66240000  1.0 0.1283298434
H  H78  1  0.46510000  0.09830000  0.83760000  1.0 0.1283298434
H  H79  1  0.90170000  0.53490000  0.33760000  1.0 0.1283298434
H  H80  1  0.53490000  0.90170000  0.16240000  1.0 0.1283298434
H  H81  1  0.39210000  0.32030000  0.83530000  1.0 0.1402740521
H  H82  1  0.32030000  0.39210000  0.66470000  1.0 0.1402740521
H  H83  1  0.60790000  0.67970000  0.16470000  1.0 0.1402740521
H  H84  1  0.67970000  0.60790000  0.33530000  1.0 0.1402740521
H  H85  1  0.45010000  0.11790000  0.97060000  1.0 0.1133313223
H  H86  1  0.11790000  0.45010000  0.52940000  1.0 0.1133313223
H  H87  1  0.54990000  0.88210000  0.02940000  1.0 0.1133313223
H  H88  1  0.88210000  0.54990000  0.47060000  1.0 0.1133313223
H  H89  1  0.33000000  0.06960000  0.97500000  1.0 0.1201710647
H  H90  1  0.06960000  0.33000000  0.52500000  1.0 0.1201710647
H  H91  1  0.67000000  0.93040000  0.02500000  1.0 0.1201710647
H  H92  1  0.93040000  0.67000000  0.47500000  1.0 0.1201710647
H  H93  1  0.23940000  0.14480000  0.90700000  1.0 0.1201710647
H  H94  1  0.14480000  0.23940000  0.59300000  1.0 0.1201710647
H  H95  1  0.76060000  0.85520000  0.09300000  1.0 0.1201710647
H  H96  1  0.85520000  0.76060000  0.40700000  1.0 0.1201710647
H  H97  1  0.71880000  0.54720000  0.53650000  1.0 0.1201710647
H  H98  1  0.54720000  0.71880000  0.96350000  1.0 0.1201710647
H  H99  1  0.28120000  0.45280000  0.46350000  1.0 0.1201710647
H  H100  1  0.45280000  0.28120000  0.03650000  1.0 0.1201710647
H  H101  1  0.89368000  0.43968000  0.67740000  1.0 0.1201710647
H  H102  1  0.43968000  0.89368000  0.82260000  1.0 0.1201710647
H  H103  1  0.10632000  0.56032000  0.32260000  1.0 0.1201710647
H  H104  1  0.56032000  0.10632000  0.17740000  1.0 0.1201710647
H  H105  1  0.96780000  0.55040000  0.69500000  1.0 0.1201710647
H  H106  1  0.55040000  0.96780000  0.80500000  1.0 0.1201710647
H  H107  1  0.03220000  0.44960000  0.30500000  1.0 0.1201710647
H  H108  1  0.44960000  0.03220000  0.19500000  1.0 0.1201710647
H  H109  1  0.91810000  0.65910000  0.63530000  1.0 0.1201710647
H  H110  1  0.65910000  0.91810000  0.86470000  1.0 0.1201710647
H  H111  1  0.08190000  0.34090000  0.36470000  1.0 0.1201710647
H  H112  1  0.34090000  0.08190000  0.13530000  1.0 0.1201710647
H  H113  1  0.57700000  0.71380000  0.48800000  1.0 0.1133313223
H  H114  1  0.71380000  0.57700000  0.01200000  1.0 0.1133313223
H  H115  1  0.42300000  0.28620000  0.51200000  1.0 0.1133313223
H  H116  1  0.28620000  0.42300000  0.98800000  1.0 0.1133313223
H  H117  1  0.46540000  0.88140000  0.33030000  1.0 0.1201710647
H  H118  1  0.88140000  0.46540000  0.16970000  1.0 0.1201710647
H  H119  1  0.53460000  0.11860000  0.66970000  1.0 0.1201710647
H  H120  1  0.11860000  0.53460000  0.83030000  1.0 0.1201710647
H  H121  1  0.57270000  0.94850000  0.30020000  1.0 0.1201710647
H  H122  1  0.94850000  0.57270000  0.19980000  1.0 0.1201710647
H  H123  1  0.42730000  0.05150000  0.69980000  1.0 0.1201710647
H  H124  1  0.05150000  0.42730000  0.80020000  1.0 0.1201710647
H  H125  1  0.68170000  0.89810000  0.36480000  1.0 0.1201710647
H  H126  1  0.89810000  0.68170000  0.13520000  1.0 0.1201710647
H  H127  1  0.31830000  0.10190000  0.63520000  1.0 0.1201710647
H  H128  1  0.10190000  0.31830000  0.86480000  1.0 0.1201710647
H  H129  1  0.85400000  0.88800000  0.55400000  1.0 0.2330256986
H  H130  1  0.88800000  0.85400000  0.94600000  1.0 0.2330256986
H  H131  1  0.14600000  0.11200000  0.44600000  1.0 0.2330256986
H  H132  1  0.11200000  0.14600000  0.05400000  1.0 0.2330256986
H  H133  1  0.91100000  0.94100000  0.58000000  1.0 0.2514606403
H  H134  1  0.94100000  0.91100000  0.92000000  1.0 0.2514606403
H  H135  1  0.08900000  0.05900000  0.42000000  1.0 0.2514606403
H  H136  1  0.05900000  0.08900000  0.08000000  1.0 0.2514606403
H  H137  1  0.75900000  0.91300000  0.82440000  1.0 0.2514606403
H  H138  1  0.91300000  0.75900000  0.67560000  1.0 0.2514606403
H  H139  1  0.24100000  0.08700000  0.17560000  1.0 0.2514606403
H  H140  1  0.08700000  0.24100000  0.32440000  1.0 0.2514606403
H  H141  1  0.75200000  0.94600000  0.75000000  1.0 0.2585108193
H  H142  1  0.94600000  0.75200000  0.75000000  1.0 0.2585108193
H  H143  1  0.24800000  0.05400000  0.25000000  1.0 0.2585108193
H  H144  1  0.05400000  0.24800000  0.25000000  1.0 0.2585108193
H  H145  1  0.62850000  0.66350000  0.42320000  1.0 0.2514606403
H  H146  1  0.66350000  0.62850000  0.07680000  1.0 0.2514606403
H  H147  1  0.37150000  0.33650000  0.57680000  1.0 0.2514606403
H  H148  1  0.33650000  0.37150000  0.92320000  1.0 0.2514606403
H  H149  1  0.61900000  0.62100000  0.49100000  1.0 0.2514606403
H  H150  1  0.62100000  0.61900000  0.00900000  1.0 0.2514606403
H  H151  1  0.38100000  0.37900000  0.50900000  1.0 0.2514606403
H  H152  1  0.37900000  0.38100000  0.99100000  1.0 0.2514606403
H  H153  1  0.10600000  0.18400000  0.79700000  1.0 0.2514606403
H  H154  1  0.18400000  0.10600000  0.70300000  1.0 0.2514606403
H  H155  1  0.89400000  0.81600000  0.20300000  1.0 0.2514606403
H  H156  1  0.81600000  0.89400000  0.29700000  1.0 0.2514606403
H  H157  1  0.11940000  0.19340000  0.73570000  1.0 0.2514606403
H  H158  1  0.19340000  0.11940000  0.76430000  1.0 0.2514606403
H  H159  1  0.88060000  0.80660000  0.26430000  1.0 0.2514606403
H  H160  1  0.80660000  0.88060000  0.23570000  1.0 0.2514606403
C  C1  1  0.87779000  0.96801000  0.42940000  1.0 0.1695652368
C  C2  1  0.96801000  0.87779000  0.07060000  1.0 0.1695652368
C  C3  1  0.12221000  0.03199000  0.57060000  1.0 0.1695652368
C  C4  1  0.03199000  0.12221000  0.92940000  1.0 0.1695652368
C  C5  1  0.95900000  0.89140000  0.49790000  1.0 0.1898053139
C  C6  1  0.89140000  0.95900000  0.00210000  1.0 0.1898053139
C  C7  1  0.04100000  0.10860000  0.50210000  1.0 0.1898053139
C  C8  1  0.10860000  0.04100000  0.99790000  1.0 0.1898053139
C  C9  1  0.82127000  0.01413000  0.39850000  1.0 0.0323822651
C  C10  1  0.01413000  0.82127000  0.10150000  1.0 0.0323822651
C  C11  1  0.17873000  0.98587000  0.60150000  1.0 0.0323822651
C  C12  1  0.98587000  0.17873000  0.89850000  1.0 0.0323822651
C  C13  1  0.80971000  0.04441000  0.43760000  1.0 -0.1433643091
C  C14  1  0.04441000  0.80971000  0.06240000  1.0 -0.1433643091
C  C15  1  0.19029000  0.95559000  0.56240000  1.0 -0.1433643091
C  C16  1  0.95559000  0.19029000  0.93760000  1.0 -0.1433643091
C  C17  1  0.75673000  0.09027000  0.40150000  1.0 -0.0118072059
C  C18  1  0.09027000  0.75673000  0.09850000  1.0 -0.0118072059
C  C19  1  0.24327000  0.90973000  0.59850000  1.0 -0.0118072059
C  C20  1  0.90973000  0.24327000  0.90150000  1.0 -0.0118072059
C  C21  1  0.71484000  0.10756000  0.32580000  1.0 -0.102343523
C  C22  1  0.10756000  0.71484000  0.17420000  1.0 -0.102343523
C  C23  1  0.28516000  0.89244000  0.67420000  1.0 -0.102343523
C  C24  1  0.89244000  0.28516000  0.82580000  1.0 -0.102343523
C  C25  1  0.72602000  0.07758000  0.28670000  1.0 -0.0702187656
C  C26  1  0.07758000  0.72602000  0.21330000  1.0 -0.0702187656
C  C27  1  0.27398000  0.92242000  0.71330000  1.0 -0.0702187656
C  C28  1  0.92242000  0.27398000  0.78670000  1.0 -0.0702187656
C  C29  1  0.77831000  0.03209000  0.32230000  1.0 -0.1172359077
C  C30  1  0.03209000  0.77831000  0.17770000  1.0 -0.1172359077
C  C31  1  0.22169000  0.96791000  0.67770000  1.0 -0.1172359077
C  C32  1  0.96791000  0.22169000  0.82230000  1.0 -0.1172359077
C  C33  1  0.74616000  0.12544000  0.44270000  1.0 0.5936942274
C  C34  1  0.12544000  0.74616000  0.05730000  1.0 0.5936942274
C  C35  1  0.25384000  0.87456000  0.55730000  1.0 0.5936942274
C  C36  1  0.87456000  0.25384000  0.94270000  1.0 0.5936942274
C  C37  1  0.00880000  0.83860000  0.55790000  1.0 0.0385989037
C  C38  1  0.83860000  0.00880000  0.94210000  1.0 0.0385989037
C  C39  1  0.99120000  0.16140000  0.44210000  1.0 0.0385989037
C  C40  1  0.16140000  0.99120000  0.05790000  1.0 0.0385989037
C  C41  1  0.03944000  0.83350000  0.63140000  1.0 -0.1433643091
C  C42  1  0.83350000  0.03944000  0.86860000  1.0 -0.1433643091
C  C43  1  0.96056000  0.16650000  0.36860000  1.0 -0.1433643091
C  C44  1  0.16650000  0.96056000  0.13140000  1.0 -0.1433643091
C  C45  1  0.09135000  0.78685000  0.68420000  1.0 -0.0198998632
C  C46  1  0.78685000  0.09135000  0.81580000  1.0 -0.0198998632
C  C47  1  0.90865000  0.21315000  0.31580000  1.0 -0.0198998632
C  C48  1  0.21315000  0.90865000  0.18420000  1.0 -0.0198998632
C  C49  1  0.11307000  0.74493000  0.66390000  1.0 -0.102343523
C  C50  1  0.74493000  0.11307000  0.83610000  1.0 -0.102343523
C  C51  1  0.88693000  0.25507000  0.33610000  1.0 -0.102343523
C  C52  1  0.25507000  0.88693000  0.16390000  1.0 -0.102343523
C  C53  1  0.08129000  0.74891000  0.59090000  1.0 -0.0829658552
C  C54  1  0.74891000  0.08129000  0.90910000  1.0 -0.0829658552
C  C55  1  0.91871000  0.25109000  0.40910000  1.0 -0.0829658552
C  C56  1  0.25109000  0.91871000  0.09090000  1.0 -0.0829658552
C  C57  1  0.03047000  0.79613000  0.53830000  1.0 -0.1086707298
C  C58  1  0.79613000  0.03047000  0.96170000  1.0 -0.1086707298
C  C59  1  0.96953000  0.20387000  0.46170000  1.0 -0.1086707298
C  C60  1  0.20387000  0.96953000  0.03830000  1.0 -0.1086707298
C  C61  1  0.12766000  0.78314000  0.76260000  1.0 0.5936942274
C  C62  1  0.78314000  0.12766000  0.73740000  1.0 0.5936942274
C  C63  1  0.87234000  0.21686000  0.23740000  1.0 0.5936942274
C  C64  1  0.21686000  0.87234000  0.26260000  1.0 0.5936942274
C  C65  1  0.60001000  0.86699000  0.72050000  1.0 0.1898053139
C  C66  1  0.86699000  0.60001000  0.77950000  1.0 0.1898053139
C  C67  1  0.39999000  0.13301000  0.27950000  1.0 0.1898053139
C  C68  1  0.13301000  0.39999000  0.22050000  1.0 0.1898053139
C  C69  1  0.68100000  0.79060000  0.79270000  1.0 0.1812738391
C  C70  1  0.79060000  0.68100000  0.70730000  1.0 0.1812738391
C  C71  1  0.31900000  0.20940000  0.20730000  1.0 0.1812738391
C  C72  1  0.20940000  0.31900000  0.29270000  1.0 0.1812738391
C  C73  1  0.56604000  0.93432000  0.66720000  1.0 0.0385989037
C  C74  1  0.93432000  0.56604000  0.83280000  1.0 0.0385989037
C  C75  1  0.43396000  0.06568000  0.33280000  1.0 0.0385989037
C  C76  1  0.06568000  0.43396000  0.16720000  1.0 0.0385989037
C  C77  1  0.60589000  0.00011000  0.62970000  1.0 -0.1322443622
C  C78  1  0.00011000  0.60589000  0.87030000  1.0 -0.1322443622
C  C79  1  0.39411000  0.99989000  0.37030000  1.0 -0.1322443622
C  C80  1  0.99989000  0.39411000  0.12970000  1.0 -0.1322443622
C  C81  1  0.56872000  0.05728000  0.57050000  1.0 -0.0118072059
C  C82  1  0.05728000  0.56872000  0.92950000  1.0 -0.0118072059
C  C83  1  0.43128000  0.94272000  0.42950000  1.0 -0.0118072059
C  C84  1  0.94272000  0.43128000  0.07050000  1.0 -0.0198998632
C  C85  1  0.49175000  0.04945000  0.55050000  1.0 -0.102343523
C  C86  1  0.04945000  0.49175000  0.94950000  1.0 -0.102343523
C  C87  1  0.50825000  0.95055000  0.44950000  1.0 -0.102343523
C  C88  1  0.95055000  0.50825000  0.05050000  1.0 -0.102343523
C  C89  1  0.45255000  0.98585000  0.58960000  1.0 -0.0829658552
C  C90  1  0.98585000  0.45255000  0.91040000  1.0 -0.0829658552
C  C91  1  0.54745000  0.01415000  0.41040000  1.0 -0.0829658552
C  C92  1  0.01415000  0.54745000  0.08960000  1.0 -0.0829658552
C  C93  1  0.48846000  0.92834000  0.64730000  1.0 -0.1086707298
C  C94  1  0.92834000  0.48846000  0.85270000  1.0 -0.102343523
C  C95  1  0.51154000  0.07166000  0.35270000  1.0 -0.102343523
C  C96  1  0.07166000  0.51154000  0.14730000  1.0 -0.102343523
C  C97  1  0.60957000  0.12543000  0.52700000  1.0 0.5936942274
C  C98  1  0.12543000  0.60957000  0.97300000  1.0 0.5936942274
C  C99  1  0.39043000  0.87457000  0.47300000  1.0 0.5936942274
C  C100  1  0.87457000  0.39043000  0.02700000  1.0 0.5936942274
C  C101  1  0.75022000  0.75878000  0.83290000  1.0 0.0385989037
C  C102  1  0.75878000  0.75022000  0.66710000  1.0 0.0385989037
C  C103  1  0.24978000  0.24122000  0.16710000  1.0 0.0385989037
C  C104  1  0.24122000  0.24978000  0.33290000  1.0 0.0385989037
C  C105  1  0.82006000  0.80254000  0.83040000  1.0 -0.1616581244
C  C106  1  0.80254000  0.82006000  0.66960000  1.0 -0.1616581244
C  C107  1  0.17994000  0.19746000  0.16960000  1.0 -0.1616581244
C  C108  1  0.19746000  0.17994000  0.33040000  1.0 -0.1616581244
C  C109  1  0.88133000  0.76847000  0.85920000  1.0 -0.0250489929
C  C110  1  0.76847000  0.88133000  0.64080000  1.0 -0.0250489929
C  C111  1  0.11867000  0.23153000  0.14080000  1.0 -0.0250489929
C  C112  1  0.23153000  0.11867000  0.35920000  1.0 -0.0250489929
C  C113  1  0.87473000  0.69047000  0.89370000  1.0 -0.1172359077
C  C114  1  0.69047000  0.87473000  0.60630000  1.0 -0.1172359077
C  C115  1  0.12527000  0.30953000  0.10630000  1.0 -0.1172359077
C  C116  1  0.30953000  0.12527000  0.39370000  1.0 -0.1172359077
C  C117  1  0.80603000  0.64737000  0.89850000  1.0 -0.0702187656
C  C118  1  0.64737000  0.80603000  0.60150000  1.0 -0.0702187656
C  C119  1  0.19397000  0.35263000  0.10150000  1.0 -0.0702187656
C  C120  1  0.35263000  0.19397000  0.39850000  1.0 -0.0702187656
C  C121  1  0.74407000  0.67993000  0.86870000  1.0 -0.1086707298
C  C122  1  0.67993000  0.74407000  0.63130000  1.0 -0.1086707298
C  C123  1  0.25593000  0.32007000  0.13130000  1.0 -0.1086707298
C  C124  1  0.32007000  0.25593000  0.36870000  1.0 -0.1086707298
C  C125  1  0.95330000  0.81670000  0.84840000  1.0 0.5972544836
C  C126  1  0.81670000  0.95330000  0.65160000  1.0 0.5972544836
C  C127  1  0.04670000  0.18330000  0.15160000  1.0 0.5972544836
C  C128  1  0.18330000  0.04670000  0.34840000  1.0 0.5972544836
C  C129  1  0.15099000  0.34001000  0.73960000  1.0 0.1695652368
C  C130  1  0.34001000  0.15099000  0.76040000  1.0 0.1695652368
C  C131  1  0.84901000  0.65999000  0.26040000  1.0 0.1695652368
C  C132  1  0.65999000  0.84901000  0.23960000  1.0 0.1695652368
C  C133  1  0.25114000  0.29146000  0.81700000  1.0 0.1812738391
C  C134  1  0.29146000  0.25114000  0.68300000  1.0 0.1812738391
C  C135  1  0.74886000  0.70854000  0.18300000  1.0 0.1812738391
C  C136  1  0.70854000  0.74886000  0.31700000  1.0 0.1812738391
C  C137  1  0.07532000  0.35268000  0.68630000  1.0 0.0323822651
C  C138  1  0.35268000  0.07532000  0.81370000  1.0 0.0323822651
C  C139  1  0.92468000  0.64732000  0.31370000  1.0 0.0323822651
C  C140  1  0.64732000  0.92468000  0.18630000  1.0 0.0323822651
C  C141  1  0.01815000  0.29505000  0.66730000  1.0 -0.1683355211
C  C142  1  0.29505000  0.01815000  0.83270000  1.0 -0.1683355211
C  C143  1  0.98185000  0.70495000  0.33270000  1.0 -0.1683355211
C  C144  1  0.70495000  0.98185000  0.16730000  1.0 -0.1683355211
C  C145  1  0.94762000  0.30958000  0.61620000  1.0 -0.0118072059
C  C146  1  0.30958000  0.94762000  0.88380000  1.0 -0.0118072059
C  C147  1  0.05238000  0.69042000  0.38380000  1.0 -0.0118072059
C  C148  1  0.69042000  0.05238000  0.11620000  1.0 -0.0118072059
C  C149  1  0.93231000  0.38149000  0.58190000  1.0 -0.0829658552
C  C150  1  0.38149000  0.93231000  0.91810000  1.0 -0.0829658552
C  C151  1  0.06769000  0.61851000  0.41810000  1.0 -0.0829658552
C  C152  1  0.61851000  0.06769000  0.08190000  1.0 -0.0829658552
C  C153  1  0.98990000  0.44030000  0.59940000  1.0 -0.089568165
C  C154  1  0.44030000  0.98990000  0.90060000  1.0 -0.089568165
C  C155  1  0.01010000  0.55970000  0.40060000  1.0 -0.089568165
C  C156  1  0.55970000  0.01010000  0.09940000  1.0 -0.089568165
C  C157  1  0.06040000  0.42580000  0.65110000  1.0 -0.102343523
C  C158  1  0.42580000  0.06040000  0.84890000  1.0 -0.102343523
C  C159  1  0.93960000  0.57420000  0.34890000  1.0 -0.102343523
C  C160  1  0.57420000  0.93960000  0.15110000  1.0 -0.102343523
C  C161  1  0.88690000  0.24370000  0.60240000  1.0 0.5742369281
C  C162  1  0.24370000  0.88690000  0.89760000  1.0 0.5742369281
C  C163  1  0.11310000  0.75630000  0.39760000  1.0 0.5742369281
C  C164  1  0.75630000  0.11310000  0.10240000  1.0 0.5742369281
C  C165  1  0.30572000  0.23988000  0.86230000  1.0 0.0323822651
C  C166  1  0.23988000  0.30572000  0.63770000  1.0 0.0323822651
C  C167  1  0.69428000  0.76012000  0.13770000  1.0 0.0323822651
C  C168  1  0.76012000  0.69428000  0.36230000  1.0 0.0323822651
C  C169  1  0.37916000  0.26964000  0.86190000  1.0 -0.1322443622
C  C170  1  0.26964000  0.37916000  0.63810000  1.0 -0.1322443622
C  C171  1  0.62084000  0.73036000  0.13810000  1.0 -0.1322443622
C  C172  1  0.73036000  0.62084000  0.36190000  1.0 -0.1322443622
C  C173  1  0.43171000  0.22389000  0.90090000  1.0 -0.0118072059
C  C174  1  0.22389000  0.43171000  0.59910000  1.0 -0.0118072059
C  C175  1  0.56829000  0.77611000  0.09910000  1.0 -0.0118072059
C  C176  1  0.77611000  0.56829000  0.40090000  1.0 -0.0118072059
C  C177  1  0.41396000  0.14844000  0.94380000  1.0 -0.1086707298
C  C178  1  0.14844000  0.41396000  0.55620000  1.0 -0.1086707298
C  C179  1  0.58604000  0.85156000  0.05620000  1.0 -0.1086707298
C  C180  1  0.85156000  0.58604000  0.44380000  1.0 -0.1086707298
C  C181  1  0.34180000  0.11960000  0.94600000  1.0 -0.089568165
C  C182  1  0.11960000  0.34180000  0.55400000  1.0 -0.089568165
C  C183  1  0.65820000  0.88040000  0.05400000  1.0 -0.089568165
C  C184  1  0.88040000  0.65820000  0.44600000  1.0 -0.089568165
C  C185  1  0.28750000  0.16450000  0.90550000  1.0 -0.1433643091
C  C186  1  0.16450000  0.28750000  0.59450000  1.0 -0.1433643091
C  C187  1  0.71250000  0.83550000  0.09450000  1.0 -0.1433643091
C  C188  1  0.83550000  0.71250000  0.40550000  1.0 -0.1433643091
C  C189  1  0.51017000  0.25643000  0.89980000  1.0 0.5756967651
C  C190  1  0.25643000  0.51017000  0.60020000  1.0 0.5756967651
C  C191  1  0.48983000  0.74357000  0.10020000  1.0 0.5756967651
C  C192  1  0.74357000  0.48983000  0.39980000  1.0 0.5756967651
C  C193  1  0.78295000  0.68445000  0.54240000  1.0 0.1898053139
C  C194  1  0.68445000  0.78295000  0.95760000  1.0 0.1898053139
C  C195  1  0.21705000  0.31555000  0.45760000  1.0 0.1898053139
C  C196  1  0.31555000  0.21705000  0.04240000  1.0 0.1898053139
C  C197  1  0.70908000  0.76852000  0.47590000  1.0 0.1695652368
C  C198  1  0.76852000  0.70908000  0.02410000  1.0 0.1695652368
C  C199  1  0.29092000  0.23148000  0.52410000  1.0 0.1695652368
C  C200  1  0.23148000  0.29092000  0.97590000  1.0 0.1695652368
C  C201  1  0.81279000  0.61461000  0.57930000  1.0 0.0323822651
C  C202  1  0.61461000  0.81279000  0.92070000  1.0 0.0323822651
C  C203  1  0.18721000  0.38539000  0.42070000  1.0 0.0323822651
C  C204  1  0.38539000  0.18721000  0.07930000  1.0 0.0323822651
C  C205  1  0.76891000  0.54829000  0.56790000  1.0 -0.1322443622
C  C206  1  0.54829000  0.76891000  0.93210000  1.0 -0.1322443622
C  C207  1  0.23109000  0.45171000  0.43210000  1.0 -0.1322443622
C  C208  1  0.45171000  0.23109000  0.06790000  1.0 -0.1322443622
C  C209  1  0.79980000  0.48280000  0.60350000  1.0 -0.0118072059
C  C210  1  0.48280000  0.79980000  0.89650000  1.0 -0.0118072059
C  C211  1  0.20020000  0.51720000  0.39650000  1.0 -0.0118072059
C  C212  1  0.51720000  0.20020000  0.10350000  1.0 -0.0118072059
C  C213  1  0.87372000  0.48348000  0.65220000  1.0 -0.102343523
C  C214  1  0.48348000  0.87372000  0.84780000  1.0 -0.102343523
C  C215  1  0.12628000  0.51652000  0.34780000  1.0 -0.102343523
C  C216  1  0.51652000  0.12628000  0.15220000  1.0 -0.102343523
C  C217  1  0.91776000  0.54964000  0.66320000  1.0 -0.089568165
C  C218  1  0.54964000  0.91776000  0.83680000  1.0 -0.089568165
C  C219  1  0.08224000  0.45036000  0.33680000  1.0 -0.089568165
C  C220  1  0.45036000  0.08224000  0.16320000  1.0 -0.089568165
C  C221  1  0.88811000  0.61509000  0.62740000  1.0 -0.1086707298
C  C222  1  0.61509000  0.88811000  0.87260000  1.0 -0.1086707298
C  C223  1  0.11189000  0.38491000  0.37260000  1.0 -0.1086707298
C  C224  1  0.38491000  0.11189000  0.12740000  1.0 -0.1086707298
C  C225  1  0.75102000  0.41518000  0.58400000  1.0 0.5936942274
C  C226  1  0.41518000  0.75102000  0.91600000  1.0 0.5936942274
C  C227  1  0.24898000  0.58482000  0.41600000  1.0 0.5936942274
C  C228  1  0.58482000  0.24898000  0.08400000  1.0 0.5936942274
C  C229  1  0.64071000  0.80029000  0.43240000  1.0 0.0323822651
C  C230  1  0.80029000  0.64071000  0.06760000  1.0 0.0323822651
C  C231  1  0.35929000  0.19971000  0.56760000  1.0 0.0323822651
C  C232  1  0.19971000  0.35929000  0.93240000  1.0 0.0323822651
C  C233  1  0.57623000  0.76097000  0.45050000  1.0 -0.1616581244
C  C234  1  0.76097000  0.57623000  0.04950000  1.0 -0.1616581244
C  C235  1  0.42377000  0.23903000  0.54950000  1.0 -0.1616581244
C  C236  1  0.23903000  0.42377000  0.95050000  1.0 -0.1616581244
C  C237  1  0.51173000  0.79107000  0.41350000  1.0 -0.0118072059
C  C238  1  0.79107000  0.51173000  0.08650000  1.0 -0.0118072059
C  C239  1  0.48827000  0.20893000  0.58650000  1.0 -0.0118072059
C  C240  1  0.20893000  0.48827000  0.91350000  1.0 -0.0118072059
C  C241  1  0.50914000  0.86146000  0.35610000  1.0 -0.102343523
C  C242  1  0.86146000  0.50914000  0.14390000  1.0 -0.102343523
C  C243  1  0.49086000  0.13854000  0.64390000  1.0 -0.102343523
C  C244  1  0.13854000  0.49086000  0.85610000  1.0 -0.102343523
C  C245  1  0.57350000  0.90150000  0.33800000  1.0 -0.089568165
C  C246  1  0.90150000  0.57350000  0.16200000  1.0 -0.089568165
C  C247  1  0.42650000  0.09850000  0.66200000  1.0 -0.089568165
C  C248  1  0.09850000  0.42650000  0.83800000  1.0 -0.089568165
C  C249  1  0.63897000  0.87103000  0.37650000  1.0 -0.1086707298
C  C250  1  0.87103000  0.63897000  0.12350000  1.0 -0.1086707298
C  C251  1  0.36103000  0.12897000  0.62350000  1.0 -0.1086707298
C  C252  1  0.12897000  0.36103000  0.87650000  1.0 -0.1086707298
C  C253  1  0.44652000  0.74908000  0.43930000  1.0 0.5972544836
C  C254  1  0.74908000  0.44652000  0.06070000  1.0 0.5972544836
C  C255  1  0.55348000  0.25092000  0.56070000  1.0 0.5972544836
C  C256  1  0.25092000  0.55348000  0.93930000  1.0 0.5972544836
N  N1  1  0.90089000  0.96171000  0.38560000  1.0 -0.2592541713
N  N2  1  0.96171000  0.90089000  0.11440000  1.0 -0.2592541713
N  N3  1  0.09911000  0.03829000  0.61440000  1.0 -0.2592541713
N  N4  1  0.03829000  0.09911000  0.88560000  1.0 -0.2592541713
N  N5  1  0.95197000  0.91363000  0.42900000  1.0 -0.2680357434
N  N6  1  0.91363000  0.95197000  0.07100000  1.0 -0.2680357434
N  N7  1  0.04803000  0.08637000  0.57100000  1.0 -0.2680357434
N  N8  1  0.08637000  0.04803000  0.92900000  1.0 -0.2680357434
N  N9  1  0.91420000  0.92556000  0.50080000  1.0 0.0638403582
N  N10  1  0.92556000  0.91420000  0.99920000  1.0 0.0638403582
N  N11  1  0.08580000  0.07444000  0.49920000  1.0 0.0638403582
N  N12  1  0.07444000  0.08580000  0.00080000  1.0 0.0638403582
N  N13  1  0.90132000  0.90606000  0.56570000  1.0 -0.468391989
N  N14  1  0.90606000  0.90132000  0.93430000  1.0 -0.468391989
N  N15  1  0.09868000  0.09394000  0.43430000  1.0 -0.468391989
N  N16  1  0.09394000  0.09868000  0.06570000  1.0 -0.468391989
N  N17  1  0.56272000  0.79768000  0.72830000  1.0 -0.2459138943
N  N18  1  0.79768000  0.56272000  0.77170000  1.0 -0.2459138943
N  N19  1  0.43728000  0.20232000  0.27170000  1.0 -0.2459138943
N  N20  1  0.20232000  0.43728000  0.22830000  1.0 -0.2459138943
N  N21  1  0.61376000  0.74930000  0.77450000  1.0 -0.2592541713
N  N22  1  0.74930000  0.61376000  0.72550000  1.0 -0.2592541713
N  N23  1  0.38624000  0.25070000  0.22550000  1.0 -0.2592541713
N  N24  1  0.25070000  0.38624000  0.27450000  1.0 -0.2592541713
N  N25  1  0.67479000  0.86445000  0.76120000  1.0 0.0495780042
N  N26  1  0.86445000  0.67479000  0.73880000  1.0 0.0495780042
N  N27  1  0.32521000  0.13555000  0.23880000  1.0 0.0495780042
N  N28  1  0.13555000  0.32521000  0.26120000  1.0 0.0495780042
N  N29  1  0.72773000  0.92693000  0.77900000  1.0 -0.468391989
N  N30  1  0.92693000  0.72773000  0.72100000  1.0 -0.464049281
N  N31  1  0.27227000  0.07307000  0.22100000  1.0 -0.468391989
N  N32  1  0.07307000  0.27227000  0.27900000  1.0 -0.464049281
N  N33  1  0.20625000  0.39531000  0.75610000  1.0 -0.2405920116
N  N34  1  0.39531000  0.20625000  0.74390000  1.0 -0.2405920116
N  N35  1  0.79375000  0.60469000  0.24390000  1.0 -0.2405920116
N  N36  1  0.60469000  0.79375000  0.25610000  1.0 -0.2405920116
N  N37  1  0.26986000  0.36388000  0.80580000  1.0 -0.2680357434
N  N38  1  0.36388000  0.26986000  0.69420000  1.0 -0.2680357434
N  N39  1  0.73014000  0.63612000  0.19420000  1.0 -0.2680357434
N  N40  1  0.63612000  0.73014000  0.30580000  1.0 -0.2680357434
N  N41  1  0.17739000  0.27403000  0.77770000  1.0 0.0694363961
N  N42  1  0.27403000  0.17739000  0.72230000  1.0 0.0694363961
N  N43  1  0.82261000  0.72597000  0.22230000  1.0 0.0694363961
N  N44  1  0.72597000  0.82261000  0.27770000  1.0 0.0694363961
N  N45  1  0.14120000  0.20000000  0.77840000  1.0 -0.468391989
N  N46  1  0.20000000  0.14120000  0.72160000  1.0 -0.468391989
N  N47  1  0.85880000  0.80000000  0.22160000  1.0 -0.468391989
N  N48  1  0.80000000  0.85880000  0.27840000  1.0 -0.468391989
N  N49  1  0.82403000  0.74961000  0.54820000  1.0 -0.2680357434
N  N50  1  0.74961000  0.82403000  0.95180000  1.0 -0.2680357434
N  N51  1  0.17597000  0.25039000  0.45180000  1.0 -0.2680357434
N  N52  1  0.25039000  0.17597000  0.04820000  1.0 -0.2680357434
N  N53  1  0.77708000  0.80306000  0.50530000  1.0 -0.2592541713
N  N54  1  0.80306000  0.77708000  0.99470000  1.0 -0.2592541713
N  N55  1  0.22292000  0.19694000  0.49470000  1.0 -0.2592541713
N  N56  1  0.19694000  0.22292000  0.00530000  1.0 -0.2592541713
N  N57  1  0.71051000  0.69387000  0.49750000  1.0 0.0495780042
N  N58  1  0.69387000  0.71051000  0.00250000  1.0 0.0495780042
N  N59  1  0.28949000  0.30613000  0.50250000  1.0 0.0495780042
N  N60  1  0.30613000  0.28949000  0.99750000  1.0 0.0495780042
N  N61  1  0.65117000  0.63981000  0.47000000  1.0 -0.436999054
N  N62  1  0.63981000  0.65117000  0.03000000  1.0 -0.436999054
N  N63  1  0.34883000  0.36019000  0.53000000  1.0 -0.436999054
N  N64  1  0.36019000  0.34883000  0.97000000  1.0 -0.436999054
O  O1  1  0.69614000  0.16494000  0.40751000  1.0 -0.5802858038
O  O2  1  0.16494000  0.69614000  0.09249000  1.0 -0.5802858038
O  O3  1  0.30386000  0.83506000  0.59249000  1.0 -0.5802858038
O  O4  1  0.83506000  0.30386000  0.90751000  1.0 -0.5802858038
O  O5  1  0.78731000  0.11051000  0.50950000  1.0 -0.5385231885
O  O6  1  0.11051000  0.78731000  0.99050000  1.0 -0.5385231885
O  O7  1  0.21269000  0.88949000  0.49050000  1.0 -0.5385231885
O  O8  1  0.88949000  0.21269000  0.00950000  1.0 -0.5385231885
O  O9  1  0.18538000  0.75506000  0.80214000  1.0 -0.5385231885
O  O10  1  0.75506000  0.18538000  0.69786000  1.0 -0.5385231885
O  O11  1  0.81462000  0.24494000  0.19786000  1.0 -0.5385231885
O  O12  1  0.24494000  0.81462000  0.30214000  1.0 -0.5385231885
O  O13  1  0.09702000  0.80860000  0.78447000  1.0 -0.5712548905
O  O14  1  0.80860000  0.09702000  0.71553000  1.0 -0.5712548905
O  O15  1  0.90298000  0.19140000  0.21553000  1.0 -0.5712548905
O  O16  1  0.19140000  0.90298000  0.28447000  1.0 -0.5712548905
O  O17  1  0.57471000  0.16477000  0.46326000  1.0 -0.4948633326
O  O18  1  0.16477000  0.57471000  0.03674000  1.0 -0.4948633326
O  O19  1  0.42529000  0.83523000  0.53674000  1.0 -0.4948633326
O  O20  1  0.83523000  0.42529000  0.96326000  1.0 -0.4948633326
O  O21  1  0.68198000  0.14340000  0.55679000  1.0 -0.6322978748
O  O22  1  0.14340000  0.68198000  0.94321000  1.0 -0.6322978748
O  O23  1  0.31802000  0.85660000  0.44321000  1.0 -0.6322978748
O  O24  1  0.85660000  0.31802000  0.05679000  1.0 -0.6322978748
O  O25  1  0.96477000  0.88575000  0.83596000  1.0 -0.5614874004
O  O26  1  0.88575000  0.96477000  0.66404000  1.0 -0.5614874004
O  O27  1  0.03523000  0.11425000  0.16404000  1.0 -0.5614874004
O  O28  1  0.11425000  0.03523000  0.33596000  1.0 -0.5614874004
O  O29  1  0.99683000  0.78477000  0.84944000  1.0 -0.5614874004
O  O30  1  0.78477000  0.99683000  0.65056000  1.0 -0.5614874004
O  O31  1  0.00317000  0.21523000  0.15056000  1.0 -0.5614874004
O  O32  1  0.21523000  0.00317000  0.34944000  1.0 -0.5614874004
O  O33  1  0.81865000  0.24973000  0.57301000  1.0 -0.5515660359
O  O34  1  0.24973000  0.81865000  0.92699000  1.0 -0.5515660359
O  O35  1  0.18135000  0.75027000  0.42699000  1.0 -0.5515660359
O  O36  1  0.75027000  0.18135000  0.07301000  1.0 -0.5515660359
O  O37  1  0.90564000  0.18164000  0.62297000  1.0 -0.5385231885
O  O38  1  0.18164000  0.90564000  0.87703000  1.0 -0.5385231885
O  O39  1  0.09436000  0.81836000  0.37703000  1.0 -0.5385231885
O  O40  1  0.81836000  0.09436000  0.12297000  1.0 -0.5385231885
O  O41  1  0.52652000  0.32870000  0.87120000  1.0 -0.5802858038
O  O42  1  0.32870000  0.52652000  0.62880000  1.0 -0.5802858038
O  O43  1  0.47348000  0.67130000  0.12880000  1.0 -0.5802858038
O  O44  1  0.67130000  0.47348000  0.37120000  1.0 -0.5802858038
O  O45  1  0.55469000  0.21353000  0.92570000  1.0 -0.5016852928
O  O46  1  0.21353000  0.55469000  0.57430000  1.0 -0.5016852928
O  O47  1  0.44531000  0.78647000  0.07430000  1.0 -0.5016852928
O  O48  1  0.78647000  0.44531000  0.42570000  1.0 -0.5016852928
O  O49  1  0.68654000  0.42286000  0.53270000  1.0 -0.5712548905
O  O50  1  0.42286000  0.68654000  0.96730000  1.0 -0.5712548905
O  O51  1  0.31346000  0.57714000  0.46730000  1.0 -0.5712548905
O  O52  1  0.57714000  0.31346000  0.03270000  1.0 -0.5712548905
O  O53  1  0.77603000  0.35455000  0.61980000  1.0 -0.5303452922
O  O54  1  0.35455000  0.77603000  0.88020000  1.0 -0.5303452922
O  O55  1  0.22397000  0.64545000  0.38020000  1.0 -0.5303452922
O  O56  1  0.64545000  0.22397000  0.11980000  1.0 -0.5303452922
O  O57  1  0.38530000  0.77178000  0.40050000  1.0 -0.5303452922
O  O58  1  0.77178000  0.38530000  0.09950000  1.0 -0.5303452922
O  O59  1  0.61470000  0.22822000  0.59950000  1.0 -0.5303452922
O  O60  1  0.22822000  0.61470000  0.90050000  1.0 -0.5303452922
O  O61  1  0.45891000  0.69359000  0.49900000  1.0 -0.5712548905
O  O62  1  0.69359000  0.45891000  0.00100000  1.0 -0.5712548905
O  O63  1  0.54109000  0.30641000  0.50100000  1.0 -0.5712548905
O  O64  1  0.30641000  0.54109000  0.99900000  1.0 -0.5712548905
O  O65  1  0.68320000  0.31392000  0.47197000  1.0 -0.9309714599
O  O66  1  0.31392000  0.68320000  0.02803000  1.0 -0.9309714599
O  O67  1  0.31680000  0.68608000  0.52803000  1.0 -0.9309714599
O  O68  1  0.68608000  0.31680000  0.97197000  1.0 -0.9309714599
